MODEL        1
REMARK 921   NORMALIZED FREE ENERGY PREDICTED BY IDOCK:   -6.68 KCAL/MOL
REMARK 922        TOTAL FREE ENERGY PREDICTED BY IDOCK:   -7.62 KCAL/MOL
REMARK 923 INTER-LIGAND FREE ENERGY PREDICTED BY IDOCK:   -7.46 KCAL/MOL
REMARK 924 INTRA-LIGAND FREE ENERGY PREDICTED BY IDOCK:   -0.16 KCAL/MOL
REMARK 927      BINDING AFFINITY PREDICTED BY RF-SCORE:    0.00 PKD
ROOT
HETATM    1  C   UNL     1     -10.120  19.606  68.425  1.00  0.00    -0.449 C  
HETATM    2  N   UNL     1     -10.785  18.751  67.438  1.00  0.00    -0.449 NA 
HETATM    3  C   UNL     1     -10.373  19.144  66.087  1.00  0.00    -0.484 C  
ENDROOT
BRANCH   2   4
HETATM    4  C   UNL     1     -10.481  17.323  67.648  1.00  0.00    -0.363 C  
BRANCH   4   5
HETATM    5  C   UNL     1     -10.781  16.805  69.061  1.00  0.00    -0.331 C  
HETATM    6  C   UNL     1     -11.911  15.747  69.133  1.00  0.00    -0.367 C  
HETATM    7  C   UNL     1     -11.537  14.458  68.405  1.00  0.00    -0.351 A  
HETATM    8  C   UNL     1     -12.331  15.502  70.581  1.00  0.00    -0.416 A  
HETATM    9  C   UNL     1     -10.441  13.682  68.817  1.00  0.00    -0.214 A  
HETATM   10  C   UNL     1     -13.629  15.073  70.867  1.00  0.00    -0.363 A  
HETATM   11  C   UNL     1     -14.008  14.909  72.198  1.00  0.00    -0.598 A  
HETATM   12  C   UNL     1     -10.076  12.533  68.110  1.00  0.00    -0.225 A  
HETATM   13  C   UNL     1     -13.091  15.168  73.206  1.00  0.00    -0.622 A  
HETATM   14  C   UNL     1     -10.811  12.145  66.993  1.00  0.00    -0.247 A  
HETATM   15  C   UNL     1     -11.817  15.568  72.843  1.00  0.00    -0.457 A  
HETATM   16  C   UNL     1     -11.911  12.892  66.579  1.00  0.00    -0.473 A  
HETATM   17 CL   UNL     1     -10.350  10.739  66.114  1.00  0.00    -0.305 Cl 
HETATM   18  N   UNL     1     -11.419  15.732  71.563  1.00  0.00    -0.421 NA 
HETATM   19  C   UNL     1     -12.273  14.045  67.280  1.00  0.00    -0.325 A  
ENDBRANCH   4   5
ENDBRANCH   2   4
TORSDOF 2
ENDMDL
MODEL        2
REMARK 921   NORMALIZED FREE ENERGY PREDICTED BY IDOCK:   -6.39 KCAL/MOL
REMARK 922        TOTAL FREE ENERGY PREDICTED BY IDOCK:   -7.30 KCAL/MOL
REMARK 923 INTER-LIGAND FREE ENERGY PREDICTED BY IDOCK:   -6.86 KCAL/MOL
REMARK 924 INTRA-LIGAND FREE ENERGY PREDICTED BY IDOCK:   -0.44 KCAL/MOL
REMARK 927      BINDING AFFINITY PREDICTED BY RF-SCORE:    0.00 PKD
ROOT
HETATM    1  C   UNL     1      -7.988  16.604  68.488  1.00  0.00    -0.224 C  
HETATM    2  N   UNL     1      -8.786  17.110  67.368  1.00  0.00    -0.210 NA 
HETATM    3  C   UNL     1      -8.783  16.131  66.277  1.00  0.00    -0.337 C  
ENDROOT
BRANCH   2   4
HETATM    4  C   UNL     1     -10.177  17.397  67.766  1.00  0.00    -0.345 C  
BRANCH   4   5
HETATM    5  C   UNL     1     -10.582  16.836  69.136  1.00  0.00    -0.343 C  
HETATM    6  C   UNL     1     -11.779  15.854  69.102  1.00  0.00    -0.369 C  
HETATM    7  C   UNL     1     -11.453  14.578  68.331  1.00  0.00    -0.328 A  
HETATM    8  C   UNL     1     -12.287  15.571  70.516  1.00  0.00    -0.418 A  
HETATM    9  C   UNL     1     -10.432  13.711  68.756  1.00  0.00    -0.214 A  
HETATM   10  C   UNL     1     -13.623  15.218  70.718  1.00  0.00    -0.313 A  
HETATM   11  C   UNL     1     -14.079  15.019  72.020  1.00  0.00    -0.633 A  
HETATM   12  C   UNL     1     -10.107  12.574  68.012  1.00  0.00    -0.220 A  
HETATM   13  C   UNL     1     -13.199  15.170  73.082  1.00  0.00    -0.603 A  
HETATM   14  C   UNL     1     -10.807  12.288  66.844  1.00  0.00    -0.251 A  
HETATM   15  C   UNL     1     -11.885  15.500  72.799  1.00  0.00    -0.469 A  
HETATM   16  C   UNL     1     -11.834  13.125  66.415  1.00  0.00    -0.455 A  
HETATM   17 CL   UNL     1     -10.395  10.895  65.920  1.00  0.00    -0.314 Cl 
HETATM   18  N   UNL     1     -11.413  15.695  71.549  1.00  0.00    -0.400 NA 
HETATM   19  C   UNL     1     -12.156  14.266  67.154  1.00  0.00    -0.412 A  
ENDBRANCH   4   5
ENDBRANCH   2   4
TORSDOF 2
ENDMDL
MODEL        3
REMARK 921   NORMALIZED FREE ENERGY PREDICTED BY IDOCK:   -6.35 KCAL/MOL
REMARK 922        TOTAL FREE ENERGY PREDICTED BY IDOCK:   -7.26 KCAL/MOL
REMARK 923 INTER-LIGAND FREE ENERGY PREDICTED BY IDOCK:   -7.04 KCAL/MOL
REMARK 924 INTRA-LIGAND FREE ENERGY PREDICTED BY IDOCK:   -0.21 KCAL/MOL
REMARK 927      BINDING AFFINITY PREDICTED BY RF-SCORE:    0.00 PKD
ROOT
HETATM    1  C   UNL     1     -12.409  13.759  65.880  1.00  0.00    -0.476 C  
HETATM    2  N   UNL     1     -11.915  12.576  66.590  1.00  0.00    -0.574 NA 
HETATM    3  C   UNL     1     -11.036  11.802  65.708  1.00  0.00    -0.301 C  
ENDROOT
BRANCH   2   4
HETATM    4  C   UNL     1     -11.183  12.935  67.820  1.00  0.00    -0.280 C  
BRANCH   4   5
HETATM    5  C   UNL     1     -12.017  13.688  68.866  1.00  0.00    -0.392 C  
HETATM    6  C   UNL     1     -11.190  14.568  69.836  1.00  0.00    -0.247 C  
HETATM    7  C   UNL     1     -10.492  15.717  69.115  1.00  0.00    -0.240 A  
HETATM    8  C   UNL     1     -12.055  15.047  71.002  1.00  0.00    -0.324 A  
HETATM    9  C   UNL     1     -11.226  16.708  68.442  1.00  0.00    -0.239 A  
HETATM   10  C   UNL     1     -11.464  15.339  72.233  1.00  0.00    -0.480 A  
HETATM   11  C   UNL     1     -12.277  15.720  73.298  1.00  0.00    -0.619 A  
HETATM   12  C   UNL     1     -10.574  17.725  67.740  1.00  0.00    -0.392 A  
HETATM   13  C   UNL     1     -13.650  15.808  73.113  1.00  0.00    -0.588 A  
HETATM   14  C   UNL     1      -9.184  17.766  67.713  1.00  0.00    -0.256 A  
HETATM   15  C   UNL     1     -14.157  15.524  71.857  1.00  0.00    -0.486 A  
HETATM   16  C   UNL     1      -8.437  16.803  68.387  1.00  0.00    -0.231 A  
HETATM   17 CL   UNL     1      -8.382  19.010  66.834  1.00  0.00    -0.277 Cl 
HETATM   18  N   UNL     1     -13.396  15.156  70.805  1.00  0.00    -0.378 NA 
HETATM   19  C   UNL     1      -9.087  15.781  69.084  1.00  0.00    -0.262 A  
ENDBRANCH   4   5
ENDBRANCH   2   4
TORSDOF 2
ENDMDL
MODEL        4
REMARK 921   NORMALIZED FREE ENERGY PREDICTED BY IDOCK:   -6.23 KCAL/MOL
REMARK 922        TOTAL FREE ENERGY PREDICTED BY IDOCK:   -7.12 KCAL/MOL
REMARK 923 INTER-LIGAND FREE ENERGY PREDICTED BY IDOCK:   -6.94 KCAL/MOL
REMARK 924 INTRA-LIGAND FREE ENERGY PREDICTED BY IDOCK:   -0.18 KCAL/MOL
REMARK 927      BINDING AFFINITY PREDICTED BY RF-SCORE:    0.00 PKD
ROOT
HETATM    1  C   UNL     1     -13.530  14.286  72.448  1.00  0.00    -0.489 C  
HETATM    2  N   UNL     1     -13.064  15.670  72.576  1.00  0.00    -0.435 NA 
HETATM    3  C   UNL     1     -12.567  15.898  73.937  1.00  0.00    -0.623 C  
ENDROOT
BRANCH   2   4
HETATM    4  C   UNL     1     -12.000  15.987  71.605  1.00  0.00    -0.499 C  
BRANCH   4   5
HETATM    5  C   UNL     1     -11.704  14.874  70.591  1.00  0.00    -0.357 C  
HETATM    6  C   UNL     1     -11.609  15.351  69.120  1.00  0.00    -0.354 C  
HETATM    7  C   UNL     1     -10.429  16.292  68.897  1.00  0.00    -0.273 A  
HETATM    8  C   UNL     1     -11.597  14.158  68.165  1.00  0.00    -0.331 A  
HETATM    9  C   UNL     1      -9.107  15.865  69.106  1.00  0.00    -0.255 A  
HETATM   10  C   UNL     1     -12.079  14.305  66.863  1.00  0.00    -0.440 A  
HETATM   11  C   UNL     1     -12.111  13.191  66.025  1.00  0.00    -0.495 A  
HETATM   12  C   UNL     1      -8.039  16.751  68.950  1.00  0.00    -0.230 A  
HETATM   13  C   UNL     1     -11.660  11.967  66.499  1.00  0.00    -0.384 A  
HETATM   14  C   UNL     1      -8.282  18.069  68.573  1.00  0.00    -0.303 A  
HETATM   15  C   UNL     1     -11.176  11.908  67.794  1.00  0.00    -0.267 A  
HETATM   16  C   UNL     1      -9.583  18.508  68.345  1.00  0.00    -0.383 A  
HETATM   17 CL   UNL     1      -6.965  19.164  68.398  1.00  0.00    -0.289 Cl 
HETATM   18  N   UNL     1     -11.128  12.969  68.627  1.00  0.00    -0.257 NA 
HETATM   19  C   UNL     1     -10.654  17.625  68.507  1.00  0.00    -0.281 A  
ENDBRANCH   4   5
ENDBRANCH   2   4
TORSDOF 2
ENDMDL
MODEL        5
REMARK 921   NORMALIZED FREE ENERGY PREDICTED BY IDOCK:   -5.90 KCAL/MOL
REMARK 922        TOTAL FREE ENERGY PREDICTED BY IDOCK:   -6.75 KCAL/MOL
REMARK 923 INTER-LIGAND FREE ENERGY PREDICTED BY IDOCK:   -6.58 KCAL/MOL
REMARK 924 INTRA-LIGAND FREE ENERGY PREDICTED BY IDOCK:   -0.17 KCAL/MOL
REMARK 927      BINDING AFFINITY PREDICTED BY RF-SCORE:    0.00 PKD
ROOT
HETATM    1  C   UNL     1     -11.908  15.088  64.539  1.00  0.00    -0.371 C  
HETATM    2  N   UNL     1     -12.560  13.777  64.487  1.00  0.00    -0.655 NA 
HETATM    3  C   UNL     1     -12.001  12.992  63.381  1.00  0.00    -0.520 C  
ENDROOT
BRANCH   2   4
HETATM    4  C   UNL     1     -12.401  13.029  65.749  1.00  0.00    -0.416 C  
BRANCH   4   5
HETATM    5  C   UNL     1     -12.022  13.891  66.961  1.00  0.00    -0.459 C  
HETATM    6  C   UNL     1     -12.021  13.134  68.313  1.00  0.00    -0.328 C  
HETATM    7  C   UNL     1     -10.951  12.048  68.362  1.00  0.00    -0.276 A  
HETATM    8  C   UNL     1     -11.915  14.115  69.481  1.00  0.00    -0.340 A  
HETATM    9  C   UNL     1      -9.587  12.364  68.252  1.00  0.00    -0.211 A  
HETATM   10  C   UNL     1     -12.448  13.775  70.726  1.00  0.00    -0.441 A  
HETATM   11  C   UNL     1     -12.390  14.706  71.761  1.00  0.00    -0.415 A  
HETATM   12  C   UNL     1      -8.620  11.355  68.244  1.00  0.00    -0.156 A  
HETATM   13  C   UNL     1     -11.802  15.942  71.537  1.00  0.00    -0.536 A  
HETATM   14  C   UNL     1      -9.008  10.024  68.358  1.00  0.00    -0.121 A  
HETATM   15  C   UNL     1     -11.276  16.196  70.283  1.00  0.00    -0.381 A  
HETATM   16  C   UNL     1     -10.354   9.690  68.485  1.00  0.00    -0.231 A  
HETATM   17 CL   UNL     1      -7.817   8.781  68.331  1.00  0.00    -0.103 Cl 
HETATM   18  N   UNL     1     -11.313  15.314  69.261  1.00  0.00    -0.277 NA 
HETATM   19  C   UNL     1     -11.323  10.697  68.486  1.00  0.00    -0.348 A  
ENDBRANCH   4   5
ENDBRANCH   2   4
TORSDOF 2
ENDMDL
MODEL        6
REMARK 921   NORMALIZED FREE ENERGY PREDICTED BY IDOCK:   -5.88 KCAL/MOL
REMARK 922        TOTAL FREE ENERGY PREDICTED BY IDOCK:   -6.73 KCAL/MOL
REMARK 923 INTER-LIGAND FREE ENERGY PREDICTED BY IDOCK:   -6.51 KCAL/MOL
REMARK 924 INTRA-LIGAND FREE ENERGY PREDICTED BY IDOCK:   -0.22 KCAL/MOL
REMARK 927      BINDING AFFINITY PREDICTED BY RF-SCORE:    0.00 PKD
ROOT
HETATM    1  C   UNL     1      -9.357  11.376  68.641  1.00  0.00    -0.150 C  
HETATM    2  N   UNL     1     -10.656  11.624  68.008  1.00  0.00    -0.194 NA 
HETATM    3  C   UNL     1     -11.728  11.097  68.858  1.00  0.00    -0.337 C  
ENDROOT
BRANCH   2   4
HETATM    4  C   UNL     1     -10.886  13.061  67.763  1.00  0.00    -0.240 C  
BRANCH   4   5
HETATM    5  C   UNL     1     -11.787  13.752  68.795  1.00  0.00    -0.398 C  
HETATM    6  C   UNL     1     -11.036  14.659  69.802  1.00  0.00    -0.232 C  
HETATM    7  C   UNL     1     -10.379  15.855  69.117  1.00  0.00    -0.237 A  
HETATM    8  C   UNL     1     -11.957  15.073  70.948  1.00  0.00    -0.319 A  
HETATM    9  C   UNL     1     -11.145  16.817  68.438  1.00  0.00    -0.266 A  
HETATM   10  C   UNL     1     -11.418  15.376  72.200  1.00  0.00    -0.525 A  
HETATM   11  C   UNL     1     -12.280  15.697  73.247  1.00  0.00    -0.616 A  
HETATM   12  C   UNL     1     -10.528  17.877  67.770  1.00  0.00    -0.409 A  
HETATM   13  C   UNL     1     -13.649  15.715  73.023  1.00  0.00    -0.619 A  
HETATM   14  C   UNL     1      -9.141  17.991  67.785  1.00  0.00    -0.262 A  
HETATM   15  C   UNL     1     -14.106  15.425  71.749  1.00  0.00    -0.527 A  
HETATM   16  C   UNL     1      -8.365  17.058  68.466  1.00  0.00    -0.260 A  
HETATM   17 CL   UNL     1      -8.382  19.289  66.947  1.00  0.00    -0.288 Cl 
HETATM   18  N   UNL     1     -13.296  15.115  70.714  1.00  0.00    -0.378 NA 
HETATM   19  C   UNL     1      -8.979  15.992  69.129  1.00  0.00    -0.252 A  
ENDBRANCH   4   5
ENDBRANCH   2   4
TORSDOF 2
ENDMDL
MODEL        7
REMARK 921   NORMALIZED FREE ENERGY PREDICTED BY IDOCK:   -5.87 KCAL/MOL
REMARK 922        TOTAL FREE ENERGY PREDICTED BY IDOCK:   -6.72 KCAL/MOL
REMARK 923 INTER-LIGAND FREE ENERGY PREDICTED BY IDOCK:   -6.52 KCAL/MOL
REMARK 924 INTRA-LIGAND FREE ENERGY PREDICTED BY IDOCK:   -0.19 KCAL/MOL
REMARK 927      BINDING AFFINITY PREDICTED BY RF-SCORE:    0.00 PKD
ROOT
HETATM    1  C   UNL     1     -10.113   8.974  71.233  1.00  0.00    -0.314 C  
HETATM    2  N   UNL     1     -11.445   9.233  70.678  1.00  0.00    -0.272 NA 
HETATM    3  C   UNL     1     -12.411   9.392  71.769  1.00  0.00    -0.391 C  
ENDROOT
BRANCH   2   4
HETATM    4  C   UNL     1     -11.464  10.436  69.826  1.00  0.00    -0.280 C  
BRANCH   4   5
HETATM    5  C   UNL     1     -12.280  11.608  70.388  1.00  0.00    -0.434 C  
HETATM    6  C   UNL     1     -11.565  12.981  70.325  1.00  0.00    -0.060 C  
HETATM    7  C   UNL     1     -11.322  13.436  68.889  1.00  0.00    -0.331 A  
HETATM    8  C   UNL     1     -12.319  14.022  71.151  1.00  0.00    -0.365 A  
HETATM    9  C   UNL     1     -12.392  13.672  68.009  1.00  0.00     0.021 A  
HETATM   10  C   UNL     1     -11.630  15.101  71.707  1.00  0.00    -0.478 A  
HETATM   11  C   UNL     1     -12.327  16.009  72.503  1.00  0.00    -0.584 A  
HETATM   12  C   UNL     1     -12.156  14.036  66.681  1.00  0.00    -0.487 A  
HETATM   13  C   UNL     1     -13.685  15.825  72.720  1.00  0.00    -0.639 A  
HETATM   14  C   UNL     1     -10.849  14.179  66.225  1.00  0.00    -0.300 A  
HETATM   15  C   UNL     1     -14.301  14.744  72.116  1.00  0.00    -0.501 A  
HETATM   16  C   UNL     1      -9.775  13.966  67.085  1.00  0.00    -0.244 A  
HETATM   17 CL   UNL     1     -10.559  14.612  64.584  1.00  0.00    -0.362 Cl 
HETATM   18  N   UNL     1     -13.655  13.850  71.337  1.00  0.00    -0.266 NA 
HETATM   19  C   UNL     1     -10.009  13.595  68.412  1.00  0.00    -0.235 A  
ENDBRANCH   4   5
ENDBRANCH   2   4
TORSDOF 2
ENDMDL
MODEL        8
REMARK 921   NORMALIZED FREE ENERGY PREDICTED BY IDOCK:   -5.86 KCAL/MOL
REMARK 922        TOTAL FREE ENERGY PREDICTED BY IDOCK:   -6.70 KCAL/MOL
REMARK 923 INTER-LIGAND FREE ENERGY PREDICTED BY IDOCK:   -6.55 KCAL/MOL
REMARK 924 INTRA-LIGAND FREE ENERGY PREDICTED BY IDOCK:   -0.15 KCAL/MOL
REMARK 927      BINDING AFFINITY PREDICTED BY RF-SCORE:    0.00 PKD
ROOT
HETATM    1  C   UNL     1     -14.238  15.073  71.727  1.00  0.00    -0.555 C  
HETATM    2  N   UNL     1     -13.104  14.155  71.866  1.00  0.00    -0.353 NA 
HETATM    3  C   UNL     1     -13.575  12.863  72.375  1.00  0.00    -0.478 C  
ENDROOT
BRANCH   2   4
HETATM    4  C   UNL     1     -12.398  13.951  70.587  1.00  0.00    -0.381 C  
BRANCH   4   5
HETATM    5  C   UNL     1     -11.716  15.204  70.023  1.00  0.00    -0.341 C  
HETATM    6  C   UNL     1     -10.527  14.918  69.072  1.00  0.00    -0.247 C  
HETATM    7  C   UNL     1     -10.971  14.209  67.795  1.00  0.00    -0.274 A  
HETATM    8  C   UNL     1      -9.741  16.198  68.789  1.00  0.00    -0.233 A  
HETATM    9  C   UNL     1     -11.866  14.816  66.899  1.00  0.00    -0.279 A  
HETATM   10  C   UNL     1      -8.384  16.125  68.468  1.00  0.00    -0.195 A  
HETATM   11  C   UNL     1      -7.673  17.306  68.268  1.00  0.00    -0.234 A  
HETATM   12  C   UNL     1     -12.307  14.135  65.762  1.00  0.00    -0.481 A  
HETATM   13  C   UNL     1      -8.326  18.525  68.386  1.00  0.00    -0.355 A  
HETATM   14  C   UNL     1     -11.848  12.847  65.504  1.00  0.00    -0.411 A  
HETATM   15  C   UNL     1      -9.677  18.514  68.685  1.00  0.00    -0.365 A  
HETATM   16  C   UNL     1     -10.946  12.235  66.371  1.00  0.00    -0.326 A  
HETATM   17 CL   UNL     1     -12.404  12.004  64.111  1.00  0.00    -0.470 Cl 
HETATM   18  N   UNL     1     -10.394  17.387  68.880  1.00  0.00    -0.348 NA 
HETATM   19  C   UNL     1     -10.510  12.911  67.513  1.00  0.00    -0.226 A  
ENDBRANCH   4   5
ENDBRANCH   2   4
TORSDOF 2
ENDMDL
MODEL        9
REMARK 921   NORMALIZED FREE ENERGY PREDICTED BY IDOCK:   -5.86 KCAL/MOL
REMARK 922        TOTAL FREE ENERGY PREDICTED BY IDOCK:   -6.70 KCAL/MOL
REMARK 923 INTER-LIGAND FREE ENERGY PREDICTED BY IDOCK:   -6.45 KCAL/MOL
REMARK 924 INTRA-LIGAND FREE ENERGY PREDICTED BY IDOCK:   -0.26 KCAL/MOL
REMARK 927      BINDING AFFINITY PREDICTED BY RF-SCORE:    0.00 PKD
ROOT
HETATM    1  C   UNL     1     -10.305  12.394  63.870  1.00  0.00    -0.423 C  
HETATM    2  N   UNL     1     -11.610  12.939  63.486  1.00  0.00    -0.491 NA 
HETATM    3  C   UNL     1     -12.592  11.853  63.398  1.00  0.00    -0.431 C  
ENDROOT
BRANCH   2   4
HETATM    4  C   UNL     1     -12.088  13.956  64.442  1.00  0.00    -0.443 C  
BRANCH   4   5
HETATM    5  C   UNL     1     -11.002  14.909  64.959  1.00  0.00    -0.432 C  
HETATM    6  C   UNL     1     -11.144  15.298  66.453  1.00  0.00    -0.273 C  
HETATM    7  C   UNL     1     -10.964  14.097  67.377  1.00  0.00    -0.306 A  
HETATM    8  C   UNL     1     -10.207  16.453  66.802  1.00  0.00    -0.285 A  
HETATM    9  C   UNL     1      -9.754  13.385  67.419  1.00  0.00    -0.221 A  
HETATM   10  C   UNL     1     -10.533  17.323  67.844  1.00  0.00    -0.382 A  
HETATM   11  C   UNL     1      -9.693  18.403  68.110  1.00  0.00    -0.352 A  
HETATM   12  C   UNL     1      -9.619  12.255  68.229  1.00  0.00    -0.212 A  
HETATM   13  C   UNL     1      -8.552  18.586  67.342  1.00  0.00    -0.266 A  
HETATM   14  C   UNL     1     -10.689  11.835  69.014  1.00  0.00    -0.169 A  
HETATM   15  C   UNL     1      -8.285  17.667  66.342  1.00  0.00    -0.263 A  
HETATM   16  C   UNL     1     -11.892  12.537  69.000  1.00  0.00    -0.344 A  
HETATM   17 CL   UNL     1     -10.527  10.433  70.000  1.00  0.00    -0.283 Cl 
HETATM   18  N   UNL     1      -9.077  16.610  66.062  1.00  0.00    -0.478 NA 
HETATM   19  C   UNL     1     -12.031  13.663  68.185  1.00  0.00    -0.390 A  
ENDBRANCH   4   5
ENDBRANCH   2   4
TORSDOF 2
ENDMDL
MODEL       10
REMARK 921   NORMALIZED FREE ENERGY PREDICTED BY IDOCK:   -5.83 KCAL/MOL
REMARK 922        TOTAL FREE ENERGY PREDICTED BY IDOCK:   -6.68 KCAL/MOL
REMARK 923 INTER-LIGAND FREE ENERGY PREDICTED BY IDOCK:   -6.53 KCAL/MOL
REMARK 924 INTRA-LIGAND FREE ENERGY PREDICTED BY IDOCK:   -0.15 KCAL/MOL
REMARK 927      BINDING AFFINITY PREDICTED BY RF-SCORE:    0.00 PKD
ROOT
HETATM    1  C   UNL     1     -11.299  10.080  70.920  1.00  0.00    -0.361 C  
HETATM    2  N   UNL     1     -12.392  10.986  70.556  1.00  0.00    -0.352 NA 
HETATM    3  C   UNL     1     -13.091  11.427  71.767  1.00  0.00    -0.418 C  
ENDROOT
BRANCH   2   4
HETATM    4  C   UNL     1     -11.909  12.164  69.811  1.00  0.00    -0.327 C  
BRANCH   4   5
HETATM    5  C   UNL     1     -11.492  11.880  68.362  1.00  0.00    -0.357 C  
HETATM    6  C   UNL     1     -11.785  13.034  67.370  1.00  0.00    -0.427 C  
HETATM    7  C   UNL     1     -10.967  14.283  67.685  1.00  0.00    -0.286 A  
HETATM    8  C   UNL     1     -11.604  12.564  65.926  1.00  0.00    -0.405 A  
HETATM    9  C   UNL     1      -9.563  14.265  67.641  1.00  0.00    -0.219 A  
HETATM   10  C   UNL     1     -12.321  13.181  64.899  1.00  0.00    -0.494 A  
HETATM   11  C   UNL     1     -12.185  12.701  63.598  1.00  0.00    -0.624 A  
HETATM   12  C   UNL     1      -8.824  15.400  67.984  1.00  0.00    -0.165 A  
HETATM   13  C   UNL     1     -11.338  11.630  63.350  1.00  0.00    -0.380 A  
HETATM   14  C   UNL     1      -9.483  16.566  68.364  1.00  0.00    -0.223 A  
HETATM   15  C   UNL     1     -10.644  11.087  64.418  1.00  0.00    -0.325 A  
HETATM   16  C   UNL     1     -10.875  16.609  68.399  1.00  0.00    -0.361 A  
HETATM   17 CL   UNL     1      -8.572  17.959  68.803  1.00  0.00    -0.253 Cl 
HETATM   18  N   UNL     1     -10.753  11.532  65.688  1.00  0.00    -0.273 NA 
HETATM   19  C   UNL     1     -11.615  15.473  68.063  1.00  0.00    -0.276 A  
ENDBRANCH   4   5
ENDBRANCH   2   4
TORSDOF 2
ENDMDL
MODEL       11
REMARK 921   NORMALIZED FREE ENERGY PREDICTED BY IDOCK:   -5.78 KCAL/MOL
REMARK 922        TOTAL FREE ENERGY PREDICTED BY IDOCK:   -6.62 KCAL/MOL
REMARK 923 INTER-LIGAND FREE ENERGY PREDICTED BY IDOCK:   -6.45 KCAL/MOL
REMARK 924 INTRA-LIGAND FREE ENERGY PREDICTED BY IDOCK:   -0.17 KCAL/MOL
REMARK 927      BINDING AFFINITY PREDICTED BY RF-SCORE:    0.00 PKD
ROOT
HETATM    1  C   UNL     1     -13.234  14.061  71.315  1.00  0.00    -0.303 C  
HETATM    2  N   UNL     1     -12.585  15.250  70.756  1.00  0.00    -0.386 NA 
HETATM    3  C   UNL     1     -11.674  15.829  71.749  1.00  0.00    -0.478 C  
ENDROOT
BRANCH   2   4
HETATM    4  C   UNL     1     -11.835  14.943  69.523  1.00  0.00    -0.325 C  
BRANCH   4   5
HETATM    5  C   UNL     1     -11.464  16.167  68.675  1.00  0.00    -0.340 C  
HETATM    6  C   UNL     1     -10.241  15.960  67.747  1.00  0.00    -0.260 C  
HETATM    7  C   UNL     1     -10.507  14.911  66.672  1.00  0.00    -0.292 A  
HETATM    8  C   UNL     1      -9.774  17.293  67.163  1.00  0.00    -0.259 A  
HETATM    9  C   UNL     1     -11.519  15.090  65.714  1.00  0.00    -0.236 A  
HETATM   10  C   UNL     1      -8.438  17.463  66.796  1.00  0.00    -0.280 A  
HETATM   11  C   UNL     1      -8.022  18.704  66.318  1.00  0.00    -0.276 A  
HETATM   12  C   UNL     1     -11.790  14.098  64.768  1.00  0.00    -0.425 A  
HETATM   13  C   UNL     1      -8.941  19.738  66.210  1.00  0.00    -0.431 A  
HETATM   14  C   UNL     1     -11.042  12.924  64.764  1.00  0.00    -0.309 A  
HETATM   15  C   UNL     1     -10.252  19.485  66.572  1.00  0.00    -0.467 A  
HETATM   16  C   UNL     1     -10.023  12.734  65.694  1.00  0.00    -0.249 A  
HETATM   17 CL   UNL     1     -11.387  11.695  63.608  1.00  0.00    -0.510 Cl 
HETATM   18  N   UNL     1     -10.686  18.293  67.035  1.00  0.00    -0.335 NA 
HETATM   19  C   UNL     1      -9.756  13.722  66.645  1.00  0.00    -0.293 A  
ENDBRANCH   4   5
ENDBRANCH   2   4
TORSDOF 2
ENDMDL
MODEL       12
REMARK 921   NORMALIZED FREE ENERGY PREDICTED BY IDOCK:   -5.78 KCAL/MOL
REMARK 922        TOTAL FREE ENERGY PREDICTED BY IDOCK:   -6.62 KCAL/MOL
REMARK 923 INTER-LIGAND FREE ENERGY PREDICTED BY IDOCK:   -6.43 KCAL/MOL
REMARK 924 INTRA-LIGAND FREE ENERGY PREDICTED BY IDOCK:   -0.19 KCAL/MOL
REMARK 927      BINDING AFFINITY PREDICTED BY RF-SCORE:    0.00 PKD
ROOT
HETATM    1  C   UNL     1     -12.546  14.187  70.449  1.00  0.00    -0.332 C  
HETATM    2  N   UNL     1     -12.046  15.565  70.477  1.00  0.00    -0.357 NA 
HETATM    3  C   UNL     1     -11.849  15.989  71.867  1.00  0.00    -0.534 C  
ENDROOT
BRANCH   2   4
HETATM    4  C   UNL     1     -10.779  15.708  69.736  1.00  0.00    -0.306 C  
BRANCH   4   5
HETATM    5  C   UNL     1     -10.663  14.825  68.486  1.00  0.00    -0.247 C  
HETATM    6  C   UNL     1     -11.034  15.534  67.159  1.00  0.00    -0.295 C  
HETATM    7  C   UNL     1     -10.068  16.668  66.825  1.00  0.00    -0.293 A  
HETATM    8  C   UNL     1     -11.164  14.520  66.023  1.00  0.00    -0.337 A  
HETATM    9  C   UNL     1      -8.703  16.420  66.603  1.00  0.00    -0.291 A  
HETATM   10  C   UNL     1     -12.003  14.792  64.941  1.00  0.00    -0.359 A  
HETATM   11  C   UNL     1     -12.150  13.831  63.943  1.00  0.00    -0.423 A  
HETATM   12  C   UNL     1      -7.820  17.472  66.351  1.00  0.00    -0.329 A  
HETATM   13  C   UNL     1     -11.459  12.632  64.041  1.00  0.00    -0.475 A  
HETATM   14  C   UNL     1      -8.295  18.780  66.308  1.00  0.00    -0.246 A  
HETATM   15  C   UNL     1     -10.629  12.446  65.133  1.00  0.00    -0.292 A  
HETATM   16  C   UNL     1      -9.647  19.045  66.509  1.00  0.00    -0.386 A  
HETATM   17 CL   UNL     1      -7.203  20.077  66.014  1.00  0.00    -0.301 Cl 
HETATM   18  N   UNL     1     -10.462  13.359  66.114  1.00  0.00    -0.290 NA 
HETATM   19  C   UNL     1     -10.531  17.994  66.768  1.00  0.00    -0.335 A  
ENDBRANCH   4   5
ENDBRANCH   2   4
TORSDOF 2
ENDMDL
MODEL       13
REMARK 921   NORMALIZED FREE ENERGY PREDICTED BY IDOCK:   -5.67 KCAL/MOL
REMARK 922        TOTAL FREE ENERGY PREDICTED BY IDOCK:   -6.49 KCAL/MOL
REMARK 923 INTER-LIGAND FREE ENERGY PREDICTED BY IDOCK:   -6.30 KCAL/MOL
REMARK 924 INTRA-LIGAND FREE ENERGY PREDICTED BY IDOCK:   -0.19 KCAL/MOL
REMARK 927      BINDING AFFINITY PREDICTED BY RF-SCORE:    0.00 PKD
ROOT
HETATM    1  C   UNL     1     -12.048  15.134  64.248  1.00  0.00    -0.261 C  
HETATM    2  N   UNL     1     -12.709  13.829  64.338  1.00  0.00    -0.656 NA 
HETATM    3  C   UNL     1     -12.116  12.907  63.363  1.00  0.00    -0.530 C  
ENDROOT
BRANCH   2   4
HETATM    4  C   UNL     1     -12.603  13.247  65.690  1.00  0.00    -0.406 C  
BRANCH   4   5
HETATM    5  C   UNL     1     -11.213  12.705  66.048  1.00  0.00    -0.345 C  
HETATM    6  C   UNL     1     -10.466  13.516  67.137  1.00  0.00    -0.256 C  
HETATM    7  C   UNL     1     -11.177  13.457  68.486  1.00  0.00    -0.316 A  
HETATM    8  C   UNL     1      -9.003  13.084  67.225  1.00  0.00    -0.212 A  
HETATM    9  C   UNL     1     -11.355  12.238  69.162  1.00  0.00    -0.330 A  
HETATM   10  C   UNL     1      -8.036  13.986  67.670  1.00  0.00    -0.186 A  
HETATM   11  C   UNL     1      -6.700  13.589  67.690  1.00  0.00    -0.176 A  
HETATM   12  C   UNL     1     -12.055  12.189  70.370  1.00  0.00    -0.395 A  
HETATM   13  C   UNL     1      -6.362  12.309  67.275  1.00  0.00    -0.150 A  
HETATM   14  C   UNL     1     -12.572  13.359  70.918  1.00  0.00    -0.327 A  
HETATM   15  C   UNL     1      -7.380  11.465  66.869  1.00  0.00    -0.147 A  
HETATM   16  C   UNL     1     -12.391  14.579  70.273  1.00  0.00    -0.408 A  
HETATM   17 CL   UNL     1     -13.448  13.294  72.399  1.00  0.00    -0.674 Cl 
HETATM   18  N   UNL     1      -8.683  11.819  66.842  1.00  0.00    -0.183 NA 
HETATM   19  C   UNL     1     -11.698  14.630  69.061  1.00  0.00    -0.339 A  
ENDBRANCH   4   5
ENDBRANCH   2   4
TORSDOF 2
ENDMDL
MODEL       14
REMARK 921   NORMALIZED FREE ENERGY PREDICTED BY IDOCK:   -5.61 KCAL/MOL
REMARK 922        TOTAL FREE ENERGY PREDICTED BY IDOCK:   -6.43 KCAL/MOL
REMARK 923 INTER-LIGAND FREE ENERGY PREDICTED BY IDOCK:   -6.24 KCAL/MOL
REMARK 924 INTRA-LIGAND FREE ENERGY PREDICTED BY IDOCK:   -0.18 KCAL/MOL
REMARK 927      BINDING AFFINITY PREDICTED BY RF-SCORE:    0.00 PKD
ROOT
HETATM    1  C   UNL     1     -10.475  17.024  68.485  1.00  0.00    -0.373 C  
HETATM    2  N   UNL     1     -10.131  16.011  69.487  1.00  0.00    -0.265 NA 
HETATM    3  C   UNL     1     -11.297  15.738  70.333  1.00  0.00    -0.374 C  
ENDROOT
BRANCH   2   4
HETATM    4  C   UNL     1      -9.670  14.754  68.866  1.00  0.00    -0.215 C  
BRANCH   4   5
HETATM    5  C   UNL     1     -10.540  14.255  67.705  1.00  0.00    -0.253 C  
HETATM    6  C   UNL     1     -10.238  12.805  67.252  1.00  0.00    -0.232 C  
HETATM    7  C   UNL     1     -10.562  11.784  68.339  1.00  0.00    -0.239 A  
HETATM    8  C   UNL     1     -10.939  12.495  65.929  1.00  0.00    -0.279 A  
HETATM    9  C   UNL     1     -11.871  11.627  68.824  1.00  0.00    -0.387 A  
HETATM   10  C   UNL     1     -10.403  11.539  65.064  1.00  0.00    -0.333 A  
HETATM   11  C   UNL     1     -11.026  11.312  63.839  1.00  0.00    -0.382 A  
HETATM   12  C   UNL     1     -12.146  10.728  69.857  1.00  0.00    -0.410 A  
HETATM   13  C   UNL     1     -12.166  12.032  63.508  1.00  0.00    -0.653 A  
HETATM   14  C   UNL     1     -11.117   9.971  70.407  1.00  0.00    -0.327 A  
HETATM   15  C   UNL     1     -12.650  12.945  64.429  1.00  0.00    -0.317 A  
HETATM   16  C   UNL     1      -9.815  10.099  69.930  1.00  0.00    -0.223 A  
HETATM   17 CL   UNL     1     -11.453   8.875  71.692  1.00  0.00    -0.384 Cl 
HETATM   18  N   UNL     1     -12.070  13.185  65.625  1.00  0.00    -0.424 NA 
HETATM   19  C   UNL     1      -9.537  11.003  68.901  1.00  0.00    -0.174 A  
ENDBRANCH   4   5
ENDBRANCH   2   4
TORSDOF 2
ENDMDL
MODEL       15
REMARK 921   NORMALIZED FREE ENERGY PREDICTED BY IDOCK:   -5.51 KCAL/MOL
REMARK 922        TOTAL FREE ENERGY PREDICTED BY IDOCK:   -6.31 KCAL/MOL
REMARK 923 INTER-LIGAND FREE ENERGY PREDICTED BY IDOCK:   -6.11 KCAL/MOL
REMARK 924 INTRA-LIGAND FREE ENERGY PREDICTED BY IDOCK:   -0.21 KCAL/MOL
REMARK 927      BINDING AFFINITY PREDICTED BY RF-SCORE:    0.00 PKD
ROOT
HETATM    1  C   UNL     1     -10.687  15.056  64.770  1.00  0.00    -0.330 C  
HETATM    2  N   UNL     1     -11.974  14.355  64.742  1.00  0.00    -0.426 NA 
HETATM    3  C   UNL     1     -11.832  13.093  64.009  1.00  0.00    -0.453 C  
ENDROOT
BRANCH   2   4
HETATM    4  C   UNL     1     -12.484  14.080  66.099  1.00  0.00    -0.430 C  
BRANCH   4   5
HETATM    5  C   UNL     1     -12.002  12.757  66.709  1.00  0.00    -0.389 C  
HETATM    6  C   UNL     1     -10.762  12.886  67.629  1.00  0.00    -0.237 C  
HETATM    7  C   UNL     1     -11.057  13.712  68.878  1.00  0.00    -0.292 A  
HETATM    8  C   UNL     1     -10.188  11.509  67.959  1.00  0.00    -0.191 A  
HETATM    9  C   UNL     1     -12.020  13.298  69.814  1.00  0.00    -0.391 A  
HETATM   10  C   UNL     1      -8.831  11.373  68.257  1.00  0.00    -0.167 A  
HETATM   11  C   UNL     1      -8.317  10.101  68.500  1.00  0.00    -0.116 A  
HETATM   12  C   UNL     1     -12.320  14.089  70.925  1.00  0.00    -0.443 A  
HETATM   13  C   UNL     1      -9.161   9.001  68.447  1.00  0.00    -0.137 A  
HETATM   14  C   UNL     1     -11.652  15.295  71.117  1.00  0.00    -0.370 A  
HETATM   15  C   UNL     1     -10.499   9.219  68.167  1.00  0.00    -0.215 A  
HETATM   16  C   UNL     1     -10.682  15.715  70.210  1.00  0.00    -0.354 A  
HETATM   17 CL   UNL     1     -12.034  16.277  72.478  1.00  0.00    -0.638 Cl 
HETATM   18  N   UNL     1     -11.027  10.439  67.931  1.00  0.00    -0.280 NA 
HETATM   19  C   UNL     1     -10.386  14.928  69.094  1.00  0.00    -0.246 A  
ENDBRANCH   4   5
ENDBRANCH   2   4
TORSDOF 2
ENDMDL
MODEL       16
REMARK 921   NORMALIZED FREE ENERGY PREDICTED BY IDOCK:   -5.49 KCAL/MOL
REMARK 922        TOTAL FREE ENERGY PREDICTED BY IDOCK:   -6.30 KCAL/MOL
REMARK 923 INTER-LIGAND FREE ENERGY PREDICTED BY IDOCK:   -6.08 KCAL/MOL
REMARK 924 INTRA-LIGAND FREE ENERGY PREDICTED BY IDOCK:   -0.21 KCAL/MOL
REMARK 927      BINDING AFFINITY PREDICTED BY RF-SCORE:    0.00 PKD
ROOT
HETATM    1  C   UNL     1     -11.715  15.238  64.434  1.00  0.00    -0.285 C  
HETATM    2  N   UNL     1     -12.632  14.111  64.627  1.00  0.00    -0.667 NA 
HETATM    3  C   UNL     1     -12.145  12.947  63.880  1.00  0.00    -0.480 C  
ENDROOT
BRANCH   2   4
HETATM    4  C   UNL     1     -12.779  13.755  66.051  1.00  0.00    -0.354 C  
BRANCH   4   5
HETATM    5  C   UNL     1     -11.684  12.828  66.597  1.00  0.00    -0.459 C  
HETATM    6  C   UNL     1     -10.711  13.500  67.597  1.00  0.00    -0.257 C  
HETATM    7  C   UNL     1     -11.415  13.933  68.880  1.00  0.00    -0.340 A  
HETATM    8  C   UNL     1      -9.505  12.601  67.865  1.00  0.00    -0.204 A  
HETATM    9  C   UNL     1     -12.032  12.994  69.724  1.00  0.00    -0.377 A  
HETATM   10  C   UNL     1      -8.284  13.166  68.236  1.00  0.00    -0.154 A  
HETATM   11  C   UNL     1      -7.182  12.333  68.421  1.00  0.00    -0.102 A  
HETATM   12  C   UNL     1     -12.721  13.408  70.868  1.00  0.00    -0.349 A  
HETATM   13  C   UNL     1      -7.323  10.964  68.241  1.00  0.00    -0.087 A  
HETATM   14  C   UNL     1     -12.788  14.762  71.183  1.00  0.00    -0.341 A  
HETATM   15  C   UNL     1      -8.571  10.477  67.895  1.00  0.00    -0.123 A  
HETATM   16  C   UNL     1     -12.168  15.706  70.369  1.00  0.00    -0.429 A  
HETATM   17 CL   UNL     1     -13.650  15.271  72.583  1.00  0.00    -0.574 Cl 
HETATM   18  N   UNL     1      -9.658  11.258  67.712  1.00  0.00    -0.171 NA 
HETATM   19  C   UNL     1     -11.486  15.296  69.221  1.00  0.00    -0.334 A  
ENDBRANCH   4   5
ENDBRANCH   2   4
TORSDOF 2
ENDMDL
MODEL       17
REMARK 921   NORMALIZED FREE ENERGY PREDICTED BY IDOCK:   -5.48 KCAL/MOL
REMARK 922        TOTAL FREE ENERGY PREDICTED BY IDOCK:   -6.28 KCAL/MOL
REMARK 923 INTER-LIGAND FREE ENERGY PREDICTED BY IDOCK:   -6.01 KCAL/MOL
REMARK 924 INTRA-LIGAND FREE ENERGY PREDICTED BY IDOCK:   -0.27 KCAL/MOL
REMARK 927      BINDING AFFINITY PREDICTED BY RF-SCORE:    0.00 PKD
ROOT
HETATM    1  C   UNL     1      -7.462  16.397  69.167  1.00  0.00    -0.228 C  
HETATM    2  N   UNL     1      -8.314  15.215  69.327  1.00  0.00    -0.217 NA 
HETATM    3  C   UNL     1      -9.722  15.624  69.373  1.00  0.00    -0.292 C  
ENDROOT
BRANCH   2   4
HETATM    4  C   UNL     1      -8.121  14.243  68.235  1.00  0.00    -0.143 C  
BRANCH   4   5
HETATM    5  C   UNL     1      -9.262  14.195  67.209  1.00  0.00    -0.222 C  
HETATM    6  C   UNL     1      -9.709  12.767  66.808  1.00  0.00    -0.243 C  
HETATM    7  C   UNL     1     -10.319  12.006  67.981  1.00  0.00    -0.206 A  
HETATM    8  C   UNL     1     -10.634  12.811  65.593  1.00  0.00    -0.275 A  
HETATM    9  C   UNL     1     -11.485  12.463  68.618  1.00  0.00    -0.348 A  
HETATM   10  C   UNL     1     -10.701  11.716  64.729  1.00  0.00    -0.365 A  
HETATM   11  C   UNL     1     -11.509  11.799  63.596  1.00  0.00    -0.524 A  
HETATM   12  C   UNL     1     -12.004  11.787  69.726  1.00  0.00    -0.392 A  
HETATM   13  C   UNL     1     -12.231  12.959  63.355  1.00  0.00    -0.574 A  
HETATM   14  C   UNL     1     -11.368  10.643  70.199  1.00  0.00    -0.323 A  
HETATM   15  C   UNL     1     -12.130  13.992  64.270  1.00  0.00    -0.445 A  
HETATM   16  C   UNL     1     -10.221  10.164  69.572  1.00  0.00    -0.258 A  
HETATM   17 CL   UNL     1     -11.999   9.821  71.573  1.00  0.00    -0.472 Cl 
HETATM   18  N   UNL     1     -11.359  13.941  65.378  1.00  0.00    -0.304 NA 
HETATM   19  C   UNL     1      -9.696  10.843  68.468  1.00  0.00    -0.183 A  
ENDBRANCH   4   5
ENDBRANCH   2   4
TORSDOF 2
ENDMDL
MODEL       18
REMARK 921   NORMALIZED FREE ENERGY PREDICTED BY IDOCK:   -5.48 KCAL/MOL
REMARK 922        TOTAL FREE ENERGY PREDICTED BY IDOCK:   -6.28 KCAL/MOL
REMARK 923 INTER-LIGAND FREE ENERGY PREDICTED BY IDOCK:   -6.04 KCAL/MOL
REMARK 924 INTRA-LIGAND FREE ENERGY PREDICTED BY IDOCK:   -0.24 KCAL/MOL
REMARK 927      BINDING AFFINITY PREDICTED BY RF-SCORE:    0.00 PKD
ROOT
HETATM    1  C   UNL     1      -8.674  19.777  67.701  1.00  0.00    -0.326 C  
HETATM    2  N   UNL     1      -9.639  18.827  67.139  1.00  0.00    -0.294 NA 
HETATM    3  C   UNL     1     -10.611  19.545  66.309  1.00  0.00    -0.481 C  
ENDROOT
BRANCH   2   4
HETATM    4  C   UNL     1      -8.980  17.783  66.332  1.00  0.00    -0.229 C  
BRANCH   4   5
HETATM    5  C   UNL     1      -9.934  16.746  65.722  1.00  0.00    -0.242 C  
HETATM    6  C   UNL     1      -9.860  15.342  66.373  1.00  0.00    -0.301 C  
HETATM    7  C   UNL     1     -10.316  15.361  67.830  1.00  0.00    -0.253 A  
HETATM    8  C   UNL     1     -10.621  14.317  65.533  1.00  0.00    -0.340 A  
HETATM    9  C   UNL     1     -11.626  15.729  68.178  1.00  0.00    -0.259 A  
HETATM   10  C   UNL     1     -10.247  12.972  65.571  1.00  0.00    -0.296 A  
HETATM   11  C   UNL     1     -10.918  12.062  64.755  1.00  0.00    -0.361 A  
HETATM   12  C   UNL     1     -12.016  15.794  69.518  1.00  0.00    -0.326 A  
HETATM   13  C   UNL     1     -11.941  12.508  63.932  1.00  0.00    -0.563 A  
HETATM   14  C   UNL     1     -11.103  15.480  70.520  1.00  0.00    -0.345 A  
HETATM   15  C   UNL     1     -12.268  13.853  63.968  1.00  0.00    -0.369 A  
HETATM   16  C   UNL     1      -9.804  15.096  70.195  1.00  0.00     0.092 A  
HETATM   17 CL   UNL     1     -11.579  15.576  72.171  1.00  0.00    -0.533 Cl 
HETATM   18  N   UNL     1     -11.640  14.757  64.749  1.00  0.00    -0.409 NA 
HETATM   19  C   UNL     1      -9.410  15.038  68.856  1.00  0.00    -0.208 A  
ENDBRANCH   4   5
ENDBRANCH   2   4
TORSDOF 2
ENDMDL
MODEL       19
REMARK 921   NORMALIZED FREE ENERGY PREDICTED BY IDOCK:   -5.47 KCAL/MOL
REMARK 922        TOTAL FREE ENERGY PREDICTED BY IDOCK:   -6.27 KCAL/MOL
REMARK 923 INTER-LIGAND FREE ENERGY PREDICTED BY IDOCK:   -6.15 KCAL/MOL
REMARK 924 INTRA-LIGAND FREE ENERGY PREDICTED BY IDOCK:   -0.12 KCAL/MOL
REMARK 927      BINDING AFFINITY PREDICTED BY RF-SCORE:    0.00 PKD
ROOT
HETATM    1  C   UNL     1     -10.521  12.197  63.442  1.00  0.00    -0.412 C  
HETATM    2  N   UNL     1     -11.849  12.819  63.432  1.00  0.00    -0.536 NA 
HETATM    3  C   UNL     1     -12.880  11.779  63.362  1.00  0.00    -0.176 C  
ENDROOT
BRANCH   2   4
HETATM    4  C   UNL     1     -12.076  13.655  64.626  1.00  0.00    -0.412 C  
BRANCH   4   5
HETATM    5  C   UNL     1     -12.131  12.883  65.950  1.00  0.00    -0.503 C  
HETATM    6  C   UNL     1     -10.857  13.009  66.823  1.00  0.00    -0.285 C  
HETATM    7  C   UNL     1     -10.634  14.438  67.310  1.00  0.00    -0.279 A  
HETATM    8  C   UNL     1     -10.884  11.996  67.968  1.00  0.00    -0.216 A  
HETATM    9  C   UNL     1     -11.569  15.079  68.140  1.00  0.00    -0.360 A  
HETATM   10  C   UNL     1      -9.686  11.527  68.510  1.00  0.00    -0.191 A  
HETATM   11  C   UNL     1      -9.732  10.562  69.515  1.00  0.00    -0.147 A  
HETATM   12  C   UNL     1     -11.381  16.405  68.535  1.00  0.00    -0.289 A  
HETATM   13  C   UNL     1     -10.962  10.096  69.959  1.00  0.00    -0.364 A  
HETATM   14  C   UNL     1     -10.250  17.098  68.114  1.00  0.00    -0.332 A  
HETATM   15  C   UNL     1     -12.105  10.627  69.388  1.00  0.00    -0.178 A  
HETATM   16  C   UNL     1      -9.302  16.476  67.305  1.00  0.00    -0.227 A  
HETATM   17 CL   UNL     1     -10.026  18.738  68.588  1.00  0.00    -0.427 Cl 
HETATM   18  N   UNL     1     -12.093  11.564  68.415  1.00  0.00    -0.560 NA 
HETATM   19  C   UNL     1      -9.493  15.151  66.903  1.00  0.00    -0.253 A  
ENDBRANCH   4   5
ENDBRANCH   2   4
TORSDOF 2
ENDMDL
MODEL       20
REMARK 921   NORMALIZED FREE ENERGY PREDICTED BY IDOCK:   -5.43 KCAL/MOL
REMARK 922        TOTAL FREE ENERGY PREDICTED BY IDOCK:   -6.23 KCAL/MOL
REMARK 923 INTER-LIGAND FREE ENERGY PREDICTED BY IDOCK:   -6.01 KCAL/MOL
REMARK 924 INTRA-LIGAND FREE ENERGY PREDICTED BY IDOCK:   -0.21 KCAL/MOL
REMARK 927      BINDING AFFINITY PREDICTED BY RF-SCORE:    0.00 PKD
ROOT
HETATM    1  C   UNL     1     -10.676  12.609  63.799  1.00  0.00    -0.417 C  
HETATM    2  N   UNL     1     -11.241  13.577  64.744  1.00  0.00    -0.337 NA 
HETATM    3  C   UNL     1     -12.586  13.151  65.143  1.00  0.00    -0.465 C  
ENDROOT
BRANCH   2   4
HETATM    4  C   UNL     1     -10.399  13.733  65.945  1.00  0.00    -0.309 C  
BRANCH   4   5
HETATM    5  C   UNL     1      -9.659  15.074  66.040  1.00  0.00    -0.359 C  
HETATM    6  C   UNL     1     -10.475  16.215  66.698  1.00  0.00    -0.300 C  
HETATM    7  C   UNL     1     -10.782  15.929  68.165  1.00  0.00    -0.302 A  
HETATM    8  C   UNL     1      -9.780  17.562  66.496  1.00  0.00    -0.295 A  
HETATM    9  C   UNL     1      -9.753  15.782  69.110  1.00  0.00    -0.250 A  
HETATM   10  C   UNL     1     -10.534  18.737  66.472  1.00  0.00    -0.484 A  
HETATM   11  C   UNL     1      -9.888  19.948  66.231  1.00  0.00    -0.570 A  
HETATM   12  C   UNL     1     -10.045  15.467  70.439  1.00  0.00     0.069 A  
HETATM   13  C   UNL     1      -8.516  19.962  66.028  1.00  0.00    -0.291 A  
HETATM   14  C   UNL     1     -11.369  15.307  70.838  1.00  0.00    -0.342 A  
HETATM   15  C   UNL     1      -7.835  18.759  66.089  1.00  0.00    -0.238 A  
HETATM   16  C   UNL     1     -12.405  15.465  69.921  1.00  0.00    -0.324 A  
HETATM   17 CL   UNL     1     -11.726  14.902  72.472  1.00  0.00    -0.361 Cl 
HETATM   18  N   UNL     1      -8.432  17.570  66.324  1.00  0.00    -0.430 NA 
HETATM   19  C   UNL     1     -12.114  15.774  68.589  1.00  0.00    -0.012 A  
ENDBRANCH   4   5
ENDBRANCH   2   4
TORSDOF 2
ENDMDL
MODEL       21
REMARK 921   NORMALIZED FREE ENERGY PREDICTED BY IDOCK:   -5.42 KCAL/MOL
REMARK 922        TOTAL FREE ENERGY PREDICTED BY IDOCK:   -6.21 KCAL/MOL
REMARK 923 INTER-LIGAND FREE ENERGY PREDICTED BY IDOCK:   -5.89 KCAL/MOL
REMARK 924 INTRA-LIGAND FREE ENERGY PREDICTED BY IDOCK:   -0.32 KCAL/MOL
REMARK 927      BINDING AFFINITY PREDICTED BY RF-SCORE:    0.00 PKD
ROOT
HETATM    1  C   UNL     1      -7.281  15.329  69.551  1.00  0.00    -0.205 C  
HETATM    2  N   UNL     1      -7.032  14.436  68.416  1.00  0.00    -0.100 NA 
HETATM    3  C   UNL     1      -5.662  13.919  68.486  1.00  0.00    -0.093 C  
ENDROOT
BRANCH   2   4
HETATM    4  C   UNL     1      -7.982  13.307  68.383  1.00  0.00    -0.132 C  
BRANCH   4   5
HETATM    5  C   UNL     1      -8.681  13.097  67.033  1.00  0.00    -0.193 C  
HETATM    6  C   UNL     1     -10.132  13.636  66.968  1.00  0.00    -0.248 C  
HETATM    7  C   UNL     1     -10.186  15.155  67.109  1.00  0.00    -0.247 A  
HETATM    8  C   UNL     1     -10.838  13.139  65.708  1.00  0.00    -0.273 A  
HETATM    9  C   UNL     1      -9.565  15.996  66.171  1.00  0.00    -0.366 A  
HETATM   10  C   UNL     1     -12.227  12.998  65.697  1.00  0.00    -0.521 A  
HETATM   11  C   UNL     1     -12.846  12.489  64.557  1.00  0.00    -0.352 A  
HETATM   12  C   UNL     1      -9.576  17.383  66.340  1.00  0.00    -0.291 A  
HETATM   13  C   UNL     1     -12.073  12.142  63.458  1.00  0.00    -0.649 A  
HETATM   14  C   UNL     1     -10.217  17.941  67.442  1.00  0.00    -0.360 A  
HETATM   15  C   UNL     1     -10.705  12.332  63.537  1.00  0.00    -0.451 A  
HETATM   16  C   UNL     1     -10.853  17.125  68.374  1.00  0.00    -0.309 A  
HETATM   17 CL   UNL     1     -10.215  19.649  67.657  1.00  0.00    -0.528 Cl 
HETATM   18  N   UNL     1     -10.077  12.825  64.626  1.00  0.00    -0.270 NA 
HETATM   19  C   UNL     1     -10.838  15.738  68.211  1.00  0.00    -0.305 A  
ENDBRANCH   4   5
ENDBRANCH   2   4
TORSDOF 2
ENDMDL
MODEL       22
REMARK 921   NORMALIZED FREE ENERGY PREDICTED BY IDOCK:   -5.35 KCAL/MOL
REMARK 922        TOTAL FREE ENERGY PREDICTED BY IDOCK:   -6.14 KCAL/MOL
REMARK 923 INTER-LIGAND FREE ENERGY PREDICTED BY IDOCK:   -5.94 KCAL/MOL
REMARK 924 INTRA-LIGAND FREE ENERGY PREDICTED BY IDOCK:   -0.20 KCAL/MOL
REMARK 927      BINDING AFFINITY PREDICTED BY RF-SCORE:    0.00 PKD
ROOT
HETATM    1  C   UNL     1     -12.092  14.746  64.522  1.00  0.00    -0.446 C  
HETATM    2  N   UNL     1     -12.579  13.367  64.432  1.00  0.00    -0.648 NA 
HETATM    3  C   UNL     1     -11.900  12.674  63.333  1.00  0.00    -0.514 C  
ENDROOT
BRANCH   2   4
HETATM    4  C   UNL     1     -12.366  12.623  65.688  1.00  0.00    -0.323 C  
BRANCH   4   5
HETATM    5  C   UNL     1     -10.932  12.118  65.899  1.00  0.00    -0.332 C  
HETATM    6  C   UNL     1     -10.250  12.638  67.190  1.00  0.00    -0.230 C  
HETATM    7  C   UNL     1     -10.944  12.129  68.450  1.00  0.00    -0.271 A  
HETATM    8  C   UNL     1      -8.755  12.322  67.175  1.00  0.00    -0.193 A  
HETATM    9  C   UNL     1     -11.013  10.757  68.740  1.00  0.00    -0.295 A  
HETATM   10  C   UNL     1      -7.865  13.134  67.881  1.00  0.00    -0.151 A  
HETATM   11  C   UNL     1      -6.500  12.861  67.809  1.00  0.00    -0.143 A  
HETATM   12  C   UNL     1     -11.697  10.300  69.869  1.00  0.00    -0.298 A  
HETATM   13  C   UNL     1      -6.056  11.790  67.047  1.00  0.00    -0.152 A  
HETATM   14  C   UNL     1     -12.308  11.212  70.724  1.00  0.00    -0.406 A  
HETATM   15  C   UNL     1      -7.002  11.018  66.394  1.00  0.00    -0.122 A  
HETATM   16  C   UNL     1     -12.237  12.579  70.464  1.00  0.00    -0.382 A  
HETATM   17 CL   UNL     1     -13.165  10.648  72.106  1.00  0.00    -0.507 Cl 
HETATM   18  N   UNL     1      -8.330  11.255  66.447  1.00  0.00    -0.168 NA 
HETATM   19  C   UNL     1     -11.559  13.037  69.331  1.00  0.00    -0.360 A  
ENDBRANCH   4   5
ENDBRANCH   2   4
TORSDOF 2
ENDMDL
MODEL       23
REMARK 921   NORMALIZED FREE ENERGY PREDICTED BY IDOCK:   -5.34 KCAL/MOL
REMARK 922        TOTAL FREE ENERGY PREDICTED BY IDOCK:   -6.13 KCAL/MOL
REMARK 923 INTER-LIGAND FREE ENERGY PREDICTED BY IDOCK:   -5.97 KCAL/MOL
REMARK 924 INTRA-LIGAND FREE ENERGY PREDICTED BY IDOCK:   -0.16 KCAL/MOL
REMARK 927      BINDING AFFINITY PREDICTED BY RF-SCORE:    0.00 PKD
ROOT
HETATM    1  C   UNL     1     -10.273  19.841  66.216  1.00  0.00    -0.509 C  
HETATM    2  N   UNL     1      -9.510  18.905  67.046  1.00  0.00    -0.302 NA 
HETATM    3  C   UNL     1      -8.538  19.644  67.858  1.00  0.00    -0.317 C  
ENDROOT
BRANCH   2   4
HETATM    4  C   UNL     1     -10.385  18.111  67.930  1.00  0.00    -0.396 C  
BRANCH   4   5
HETATM    5  C   UNL     1     -10.940  16.827  67.300  1.00  0.00    -0.040 C  
HETATM    6  C   UNL     1     -10.604  15.530  68.078  1.00  0.00    -0.270 C  
HETATM    7  C   UNL     1     -11.258  15.503  69.457  1.00  0.00    -0.300 A  
HETATM    8  C   UNL     1     -10.943  14.296  67.244  1.00  0.00    -0.297 A  
HETATM    9  C   UNL     1     -12.655  15.526  69.601  1.00  0.00    -0.032 A  
HETATM   10  C   UNL     1     -10.246  13.104  67.450  1.00  0.00    -0.232 A  
HETATM   11  C   UNL     1     -10.532  12.006  66.640  1.00  0.00    -0.247 A  
HETATM   12  C   UNL     1     -13.241  15.555  70.868  1.00  0.00    -0.474 A  
HETATM   13  C   UNL     1     -11.504  12.117  65.656  1.00  0.00    -0.408 A  
HETATM   14  C   UNL     1     -12.436  15.551  72.003  1.00  0.00    -0.398 A  
HETATM   15  C   UNL     1     -12.167  13.325  65.529  1.00  0.00    -0.457 A  
HETATM   16  C   UNL     1     -11.049  15.511  71.883  1.00  0.00    -0.205 A  
HETATM   17 CL   UNL     1     -13.158  15.603  73.565  1.00  0.00    -0.641 Cl 
HETATM   18  N   UNL     1     -11.915  14.405  66.300  1.00  0.00    -0.396 NA 
HETATM   19  C   UNL     1     -10.461  15.489  70.615  1.00  0.00    -0.053 A  
ENDBRANCH   4   5
ENDBRANCH   2   4
TORSDOF 2
ENDMDL
MODEL       24
REMARK 921   NORMALIZED FREE ENERGY PREDICTED BY IDOCK:   -5.32 KCAL/MOL
REMARK 922        TOTAL FREE ENERGY PREDICTED BY IDOCK:   -6.10 KCAL/MOL
REMARK 923 INTER-LIGAND FREE ENERGY PREDICTED BY IDOCK:   -5.74 KCAL/MOL
REMARK 924 INTRA-LIGAND FREE ENERGY PREDICTED BY IDOCK:   -0.36 KCAL/MOL
REMARK 927      BINDING AFFINITY PREDICTED BY RF-SCORE:    0.00 PKD
ROOT
HETATM    1  C   UNL     1     -10.753  16.033  69.753  1.00  0.00    -0.331 C  
HETATM    2  N   UNL     1     -11.269  14.662  69.803  1.00  0.00    -0.265 NA 
HETATM    3  C   UNL     1     -12.162  14.512  70.956  1.00  0.00    -0.339 C  
ENDROOT
BRANCH   2   4
HETATM    4  C   UNL     1     -11.993  14.299  68.570  1.00  0.00    -0.317 C  
BRANCH   4   5
HETATM    5  C   UNL     1     -11.301  13.232  67.711  1.00  0.00    -0.327 C  
HETATM    6  C   UNL     1     -10.819  13.734  66.327  1.00  0.00    -0.283 C  
HETATM    7  C   UNL     1      -9.722  14.788  66.449  1.00  0.00    -0.311 A  
HETATM    8  C   UNL     1     -10.407  12.560  65.440  1.00  0.00    -0.282 A  
HETATM    9  C   UNL     1      -8.488  14.490  67.050  1.00  0.00    -0.222 A  
HETATM   10  C   UNL     1     -10.489  12.674  64.051  1.00  0.00    -0.443 A  
HETATM   11  C   UNL     1     -10.162  11.573  63.262  1.00  0.00    -0.432 A  
HETATM   12  C   UNL     1      -7.513  15.478  67.205  1.00  0.00    -0.258 A  
HETATM   13  C   UNL     1      -9.756  10.393  63.870  1.00  0.00    -0.367 A  
HETATM   14  C   UNL     1      -7.759  16.770  66.750  1.00  0.00    -0.250 A  
HETATM   15  C   UNL     1      -9.678  10.366  65.251  1.00  0.00    -0.278 A  
HETATM   16  C   UNL     1      -8.969  17.082  66.135  1.00  0.00    -0.243 A  
HETATM   17 CL   UNL     1      -6.562  17.990  66.955  1.00  0.00    -0.195 Cl 
HETATM   18  N   UNL     1      -9.984  11.416  66.042  1.00  0.00    -0.222 NA 
HETATM   19  C   UNL     1      -9.948  16.097  65.986  1.00  0.00    -0.373 A  
ENDBRANCH   4   5
ENDBRANCH   2   4
TORSDOF 2
ENDMDL
MODEL       25
REMARK 921   NORMALIZED FREE ENERGY PREDICTED BY IDOCK:   -5.28 KCAL/MOL
REMARK 922        TOTAL FREE ENERGY PREDICTED BY IDOCK:   -6.06 KCAL/MOL
REMARK 923 INTER-LIGAND FREE ENERGY PREDICTED BY IDOCK:   -5.87 KCAL/MOL
REMARK 924 INTRA-LIGAND FREE ENERGY PREDICTED BY IDOCK:   -0.19 KCAL/MOL
REMARK 927      BINDING AFFINITY PREDICTED BY RF-SCORE:    0.00 PKD
ROOT
HETATM    1  C   UNL     1      -7.780  16.315  69.021  1.00  0.00    -0.224 C  
HETATM    2  N   UNL     1      -9.201  16.174  68.691  1.00  0.00    -0.210 NA 
HETATM    3  C   UNL     1      -9.433  16.607  67.310  1.00  0.00    -0.232 C  
ENDROOT
BRANCH   2   4
HETATM    4  C   UNL     1      -9.671  14.785  68.855  1.00  0.00    -0.215 C  
BRANCH   4   5
HETATM    5  C   UNL     1     -10.575  14.275  67.724  1.00  0.00    -0.253 C  
HETATM    6  C   UNL     1     -10.233  12.851  67.219  1.00  0.00    -0.234 C  
HETATM    7  C   UNL     1     -10.459  11.792  68.294  1.00  0.00    -0.224 A  
HETATM    8  C   UNL     1     -10.984  12.542  65.925  1.00  0.00    -0.279 A  
HETATM    9  C   UNL     1     -11.734  11.565  68.836  1.00  0.00    -0.403 A  
HETATM   10  C   UNL     1     -10.449  11.633  65.010  1.00  0.00    -0.336 A  
HETATM   11  C   UNL     1     -11.122  11.407  63.810  1.00  0.00    -0.417 A  
HETATM   12  C   UNL     1     -11.919  10.630  69.858  1.00  0.00    -0.385 A  
HETATM   13  C   UNL     1     -12.306  12.083  63.554  1.00  0.00    -0.661 A  
HETATM   14  C   UNL     1     -10.832   9.906  70.338  1.00  0.00    -0.319 A  
HETATM   15  C   UNL     1     -12.783  12.952  64.520  1.00  0.00    -0.286 A  
HETATM   16  C   UNL     1      -9.561  10.104  69.802  1.00  0.00    -0.213 A  
HETATM   17 CL   UNL     1     -11.057   8.766  71.608  1.00  0.00    -0.372 Cl 
HETATM   18  N   UNL     1     -12.157  13.188  65.692  1.00  0.00    -0.424 NA 
HETATM   19  C   UNL     1      -9.374  11.043  68.786  1.00  0.00    -0.185 A  
ENDBRANCH   4   5
ENDBRANCH   2   4
TORSDOF 2
ENDMDL
MODEL       26
REMARK 921   NORMALIZED FREE ENERGY PREDICTED BY IDOCK:   -5.27 KCAL/MOL
REMARK 922        TOTAL FREE ENERGY PREDICTED BY IDOCK:   -6.04 KCAL/MOL
REMARK 923 INTER-LIGAND FREE ENERGY PREDICTED BY IDOCK:   -5.78 KCAL/MOL
REMARK 924 INTRA-LIGAND FREE ENERGY PREDICTED BY IDOCK:   -0.27 KCAL/MOL
REMARK 927      BINDING AFFINITY PREDICTED BY RF-SCORE:    0.00 PKD
ROOT
HETATM    1  C   UNL     1      -6.180  15.617  69.094  1.00  0.00    -0.119 C  
HETATM    2  N   UNL     1      -7.621  15.511  69.338  1.00  0.00    -0.219 NA 
HETATM    3  C   UNL     1      -8.307  16.666  68.749  1.00  0.00    -0.252 C  
ENDROOT
BRANCH   2   4
HETATM    4  C   UNL     1      -8.186  14.268  68.780  1.00  0.00    -0.102 C  
BRANCH   4   5
HETATM    5  C   UNL     1      -9.151  14.472  67.605  1.00  0.00    -0.195 C  
HETATM    6  C   UNL     1     -10.438  13.612  67.671  1.00  0.00    -0.238 C  
HETATM    7  C   UNL     1     -11.319  13.986  68.860  1.00  0.00    -0.314 A  
HETATM    8  C   UNL     1     -11.193  13.665  66.343  1.00  0.00    -0.308 A  
HETATM    9  C   UNL     1     -11.872  15.272  68.981  1.00  0.00    -0.342 A  
HETATM   10  C   UNL     1     -12.005  12.596  65.960  1.00  0.00    -0.478 A  
HETATM   11  C   UNL     1     -12.640  12.641  64.721  1.00  0.00    -0.530 A  
HETATM   12  C   UNL     1     -12.631  15.619  70.101  1.00  0.00    -0.243 A  
HETATM   13  C   UNL     1     -12.458  13.744  63.899  1.00  0.00    -0.260 A  
HETATM   14  C   UNL     1     -12.854  14.680  71.104  1.00  0.00    -0.343 A  
HETATM   15  C   UNL     1     -11.656  14.774  64.358  1.00  0.00    -0.295 A  
HETATM   16  C   UNL     1     -12.328  13.395  70.995  1.00  0.00    -0.401 A  
HETATM   17 CL   UNL     1     -13.776  15.114  72.491  1.00  0.00    -0.558 Cl 
HETATM   18  N   UNL     1     -11.031  14.761  65.555  1.00  0.00    -0.329 NA 
HETATM   19  C   UNL     1     -11.562  13.048  69.879  1.00  0.00    -0.249 A  
ENDBRANCH   4   5
ENDBRANCH   2   4
TORSDOF 2
ENDMDL
MODEL       27
REMARK 921   NORMALIZED FREE ENERGY PREDICTED BY IDOCK:   -5.25 KCAL/MOL
REMARK 922        TOTAL FREE ENERGY PREDICTED BY IDOCK:   -6.03 KCAL/MOL
REMARK 923 INTER-LIGAND FREE ENERGY PREDICTED BY IDOCK:   -5.63 KCAL/MOL
REMARK 924 INTRA-LIGAND FREE ENERGY PREDICTED BY IDOCK:   -0.40 KCAL/MOL
REMARK 927      BINDING AFFINITY PREDICTED BY RF-SCORE:    0.00 PKD
ROOT
HETATM    1  C   UNL     1     -12.890  11.996  63.630  1.00  0.00    -0.346 C  
HETATM    2  N   UNL     1     -11.812  12.967  63.416  1.00  0.00    -0.539 NA 
HETATM    3  C   UNL     1     -12.053  14.159  64.235  1.00  0.00    -0.444 C  
ENDROOT
BRANCH   2   4
HETATM    4  C   UNL     1     -10.489  12.404  63.745  1.00  0.00    -0.443 C  
BRANCH   4   5
HETATM    5  C   UNL     1     -10.522  11.188  64.680  1.00  0.00    -0.400 C  
HETATM    6  C   UNL     1      -9.683  11.347  65.973  1.00  0.00    -0.253 C  
HETATM    7  C   UNL     1     -10.229  12.447  66.879  1.00  0.00    -0.238 A  
HETATM    8  C   UNL     1      -9.545  10.007  66.695  1.00  0.00    -0.186 A  
HETATM    9  C   UNL     1     -11.520  12.366  67.428  1.00  0.00    -0.418 A  
HETATM   10  C   UNL     1      -8.433   9.764  67.504  1.00  0.00    -0.122 A  
HETATM   11  C   UNL     1      -8.298   8.516  68.109  1.00  0.00    -0.127 A  
HETATM   12  C   UNL     1     -12.028  13.404  68.212  1.00  0.00    -0.352 A  
HETATM   13  C   UNL     1      -9.270   7.548  67.901  1.00  0.00    -0.137 A  
HETATM   14  C   UNL     1     -11.246  14.528  68.464  1.00  0.00    -0.266 A  
HETATM   15  C   UNL     1     -10.353   7.872  67.104  1.00  0.00    -0.328 A  
HETATM   16  C   UNL     1      -9.957  14.620  67.944  1.00  0.00    -0.221 A  
HETATM   17 CL   UNL     1     -11.879  15.814  69.417  1.00  0.00    -0.376 Cl 
HETATM   18  N   UNL     1     -10.514   9.073  66.508  1.00  0.00    -0.190 NA 
HETATM   19  C   UNL     1      -9.450  13.586  67.153  1.00  0.00    -0.244 A  
ENDBRANCH   4   5
ENDBRANCH   2   4
TORSDOF 2
ENDMDL
MODEL       28
REMARK 921   NORMALIZED FREE ENERGY PREDICTED BY IDOCK:   -5.25 KCAL/MOL
REMARK 922        TOTAL FREE ENERGY PREDICTED BY IDOCK:   -6.02 KCAL/MOL
REMARK 923 INTER-LIGAND FREE ENERGY PREDICTED BY IDOCK:   -5.87 KCAL/MOL
REMARK 924 INTRA-LIGAND FREE ENERGY PREDICTED BY IDOCK:   -0.15 KCAL/MOL
REMARK 927      BINDING AFFINITY PREDICTED BY RF-SCORE:    0.00 PKD
ROOT
HETATM    1  C   UNL     1     -12.118  14.219  64.366  1.00  0.00    -0.468 C  
HETATM    2  N   UNL     1     -12.471  12.823  64.644  1.00  0.00    -0.577 NA 
HETATM    3  C   UNL     1     -12.468  12.055  63.396  1.00  0.00    -0.509 C  
ENDROOT
BRANCH   2   4
HETATM    4  C   UNL     1     -11.542  12.200  65.607  1.00  0.00    -0.351 C  
BRANCH   4   5
HETATM    5  C   UNL     1     -11.766  12.606  67.069  1.00  0.00    -0.438 C  
HETATM    6  C   UNL     1     -11.546  11.465  68.095  1.00  0.00    -0.364 C  
HETATM    7  C   UNL     1     -10.096  10.992  68.125  1.00  0.00    -0.195 A  
HETATM    8  C   UNL     1     -12.059  11.874  69.476  1.00  0.00    -0.226 A  
HETATM    9  C   UNL     1      -9.054  11.861  68.491  1.00  0.00    -0.123 A  
HETATM   10  C   UNL     1     -12.493  10.897  70.374  1.00  0.00    -0.411 A  
HETATM   11  C   UNL     1     -13.009  11.294  71.606  1.00  0.00    -0.537 A  
HETATM   12  C   UNL     1      -7.725  11.432  68.463  1.00  0.00    -0.133 A  
HETATM   13  C   UNL     1     -13.074  12.645  71.916  1.00  0.00    -0.470 A  
HETATM   14  C   UNL     1      -7.427  10.128  68.080  1.00  0.00    -0.083 A  
HETATM   15  C   UNL     1     -12.604  13.552  70.982  1.00  0.00    -0.359 A  
HETATM   16  C   UNL     1      -8.446   9.246  67.730  1.00  0.00    -0.116 A  
HETATM   17 CL   UNL     1      -5.787   9.605  68.030  1.00  0.00    -0.040 Cl 
HETATM   18  N   UNL     1     -12.095  13.198  69.782  1.00  0.00    -0.298 NA 
HETATM   19  C   UNL     1      -9.775   9.675  67.751  1.00  0.00    -0.173 A  
ENDBRANCH   4   5
ENDBRANCH   2   4
TORSDOF 2
ENDMDL
MODEL       29
REMARK 921   NORMALIZED FREE ENERGY PREDICTED BY IDOCK:   -5.23 KCAL/MOL
REMARK 922        TOTAL FREE ENERGY PREDICTED BY IDOCK:   -6.00 KCAL/MOL
REMARK 923 INTER-LIGAND FREE ENERGY PREDICTED BY IDOCK:   -5.82 KCAL/MOL
REMARK 924 INTRA-LIGAND FREE ENERGY PREDICTED BY IDOCK:   -0.19 KCAL/MOL
REMARK 927      BINDING AFFINITY PREDICTED BY RF-SCORE:    0.00 PKD
ROOT
HETATM    1  C   UNL     1      -6.037  14.292  67.835  1.00  0.00    -0.148 C  
HETATM    2  N   UNL     1      -6.797  13.871  69.016  1.00  0.00    -0.109 NA 
HETATM    3  C   UNL     1      -7.349  15.049  69.693  1.00  0.00    -0.181 C  
ENDROOT
BRANCH   2   4
HETATM    4  C   UNL     1      -7.892  12.946  68.667  1.00  0.00    -0.044 C  
BRANCH   4   5
HETATM    5  C   UNL     1      -8.824  13.446  67.555  1.00  0.00    -0.210 C  
HETATM    6  C   UNL     1     -10.144  12.647  67.414  1.00  0.00    -0.218 C  
HETATM    7  C   UNL     1     -11.034  12.786  68.646  1.00  0.00    -0.295 A  
HETATM    8  C   UNL     1     -10.868  13.024  66.122  1.00  0.00    -0.279 A  
HETATM    9  C   UNL     1     -11.539  14.036  69.041  1.00  0.00    -0.345 A  
HETATM   10  C   UNL     1     -11.713  12.100  65.503  1.00  0.00    -0.384 A  
HETATM   11  C   UNL     1     -12.320  12.444  64.296  1.00  0.00    -0.544 A  
HETATM   12  C   UNL     1     -12.308  14.159  70.201  1.00  0.00    -0.413 A  
HETATM   13  C   UNL     1     -12.078  13.692  63.741  1.00  0.00    -0.435 A  
HETATM   14  C   UNL     1     -12.588  13.033  70.969  1.00  0.00    -0.299 A  
HETATM   15  C   UNL     1     -11.247  14.561  64.426  1.00  0.00    -0.195 A  
HETATM   16  C   UNL     1     -12.110  11.782  70.585  1.00  0.00    -0.407 A  
HETATM   17 CL   UNL     1     -13.521  13.188  72.407  1.00  0.00    -0.667 Cl 
HETATM   18  N   UNL     1     -10.648  14.259  65.598  1.00  0.00    -0.304 NA 
HETATM   19  C   UNL     1     -11.335  11.658  69.430  1.00  0.00    -0.342 A  
ENDBRANCH   4   5
ENDBRANCH   2   4
TORSDOF 2
ENDMDL
MODEL       30
REMARK 921   NORMALIZED FREE ENERGY PREDICTED BY IDOCK:   -5.18 KCAL/MOL
REMARK 922        TOTAL FREE ENERGY PREDICTED BY IDOCK:   -5.95 KCAL/MOL
REMARK 923 INTER-LIGAND FREE ENERGY PREDICTED BY IDOCK:   -5.64 KCAL/MOL
REMARK 924 INTRA-LIGAND FREE ENERGY PREDICTED BY IDOCK:   -0.31 KCAL/MOL
REMARK 927      BINDING AFFINITY PREDICTED BY RF-SCORE:    0.00 PKD
ROOT
HETATM    1  C   UNL     1      -5.877  13.673  67.785  1.00  0.00    -0.106 C  
HETATM    2  N   UNL     1      -7.292  13.836  68.129  1.00  0.00    -0.108 NA 
HETATM    3  C   UNL     1      -7.882  12.527  68.426  1.00  0.00    -0.141 C  
ENDROOT
BRANCH   2   4
HETATM    4  C   UNL     1      -7.480  14.733  69.285  1.00  0.00    -0.162 C  
BRANCH   4   5
HETATM    5  C   UNL     1      -7.976  16.141  68.932  1.00  0.00    -0.223 C  
HETATM    6  C   UNL     1      -9.338  16.178  68.192  1.00  0.00    -0.201 C  
HETATM    7  C   UNL     1     -10.478  15.660  69.064  1.00  0.00    -0.229 A  
HETATM    8  C   UNL     1      -9.612  17.574  67.635  1.00  0.00    -0.266 A  
HETATM    9  C   UNL     1     -10.828  16.303  70.263  1.00  0.00    -0.257 A  
HETATM   10  C   UNL     1     -10.421  17.727  66.507  1.00  0.00    -0.297 A  
HETATM   11  C   UNL     1     -10.613  19.003  65.982  1.00  0.00    -0.499 A  
HETATM   12  C   UNL     1     -11.839  15.788  71.079  1.00  0.00    -0.460 A  
HETATM   13  C   UNL     1     -10.006  20.092  66.592  1.00  0.00    -0.598 A  
HETATM   14  C   UNL     1     -12.515  14.633  70.698  1.00  0.00    -0.344 A  
HETATM   15  C   UNL     1      -9.238  19.862  67.720  1.00  0.00    -0.338 A  
HETATM   16  C   UNL     1     -12.195  13.990  69.504  1.00  0.00    -0.355 A  
HETATM   17 CL   UNL     1     -13.749  13.991  71.712  1.00  0.00    -0.465 Cl 
HETATM   18  N   UNL     1      -9.036  18.638  68.254  1.00  0.00    -0.310 NA 
HETATM   19  C   UNL     1     -11.180  14.499  68.690  1.00  0.00    -0.281 A  
ENDBRANCH   4   5
ENDBRANCH   2   4
TORSDOF 2
ENDMDL
MODEL       31
REMARK 921   NORMALIZED FREE ENERGY PREDICTED BY IDOCK:   -5.15 KCAL/MOL
REMARK 922        TOTAL FREE ENERGY PREDICTED BY IDOCK:   -5.91 KCAL/MOL
REMARK 923 INTER-LIGAND FREE ENERGY PREDICTED BY IDOCK:   -5.74 KCAL/MOL
REMARK 924 INTRA-LIGAND FREE ENERGY PREDICTED BY IDOCK:   -0.17 KCAL/MOL
REMARK 927      BINDING AFFINITY PREDICTED BY RF-SCORE:    0.00 PKD
ROOT
HETATM    1  C   UNL     1     -12.372   8.598  71.902  1.00  0.00    -0.354 C  
HETATM    2  N   UNL     1     -11.611   9.830  71.677  1.00  0.00    -0.351 NA 
HETATM    3  C   UNL     1     -10.382   9.523  70.939  1.00  0.00    -0.302 C  
ENDROOT
BRANCH   2   4
HETATM    4  C   UNL     1     -12.393  10.835  70.932  1.00  0.00    -0.396 C  
BRANCH   4   5
HETATM    5  C   UNL     1     -11.591  11.632  69.896  1.00  0.00    -0.366 C  
HETATM    6  C   UNL     1     -12.272  12.942  69.423  1.00  0.00    -0.145 C  
HETATM    7  C   UNL     1     -12.409  13.958  70.553  1.00  0.00    -0.439 A  
HETATM    8  C   UNL     1     -11.552  13.515  68.203  1.00  0.00    -0.333 A  
HETATM    9  C   UNL     1     -11.279  14.484  71.201  1.00  0.00     0.187 A  
HETATM   10  C   UNL     1     -12.253  14.302  67.287  1.00  0.00    -0.287 A  
HETATM   11  C   UNL     1     -11.592  14.769  66.153  1.00  0.00    -0.292 A  
HETATM   12  C   UNL     1     -11.419  15.372  72.270  1.00  0.00    -0.506 A  
HETATM   13  C   UNL     1     -10.255  14.449  65.961  1.00  0.00    -0.328 A  
HETATM   14  C   UNL     1     -12.689  15.750  72.694  1.00  0.00    -0.451 A  
HETATM   15  C   UNL     1      -9.623  13.684  66.925  1.00  0.00    -0.262 A  
HETATM   16  C   UNL     1     -13.822  15.253  72.054  1.00  0.00    -0.626 A  
HETATM   17 CL   UNL     1     -12.861  16.832  74.022  1.00  0.00    -0.055 Cl 
HETATM   18  N   UNL     1     -10.235  13.220  68.036  1.00  0.00    -0.234 NA 
HETATM   19  C   UNL     1     -13.684  14.359  70.989  1.00  0.00    -0.201 A  
ENDBRANCH   4   5
ENDBRANCH   2   4
TORSDOF 2
ENDMDL
MODEL       32
REMARK 921   NORMALIZED FREE ENERGY PREDICTED BY IDOCK:   -5.14 KCAL/MOL
REMARK 922        TOTAL FREE ENERGY PREDICTED BY IDOCK:   -5.90 KCAL/MOL
REMARK 923 INTER-LIGAND FREE ENERGY PREDICTED BY IDOCK:   -5.74 KCAL/MOL
REMARK 924 INTRA-LIGAND FREE ENERGY PREDICTED BY IDOCK:   -0.16 KCAL/MOL
REMARK 927      BINDING AFFINITY PREDICTED BY RF-SCORE:    0.00 PKD
ROOT
HETATM    1  C   UNL     1     -12.912   9.602  71.955  1.00  0.00    -0.435 C  
HETATM    2  N   UNL     1     -12.952  10.724  71.013  1.00  0.00    -0.360 NA 
HETATM    3  C   UNL     1     -13.062  11.985  71.753  1.00  0.00    -0.355 C  
ENDROOT
BRANCH   2   4
HETATM    4  C   UNL     1     -11.755  10.765  70.151  1.00  0.00    -0.339 C  
BRANCH   4   5
HETATM    5  C   UNL     1     -12.000  11.314  68.739  1.00  0.00    -0.350 C  
HETATM    6  C   UNL     1     -10.714  11.552  67.909  1.00  0.00    -0.241 C  
HETATM    7  C   UNL     1      -9.976  10.250  67.608  1.00  0.00    -0.212 A  
HETATM    8  C   UNL     1     -11.026  12.354  66.646  1.00  0.00    -0.268 A  
HETATM    9  C   UNL     1     -10.576   9.231  66.852  1.00  0.00    -0.239 A  
HETATM   10  C   UNL     1     -10.039  13.154  66.067  1.00  0.00    -0.286 A  
HETATM   11  C   UNL     1     -10.361  13.920  64.949  1.00  0.00    -0.430 A  
HETATM   12  C   UNL     1      -9.912   8.022  66.629  1.00  0.00    -0.326 A  
HETATM   13  C   UNL     1     -11.648  13.867  64.431  1.00  0.00    -0.401 A  
HETATM   14  C   UNL     1      -8.636   7.827  67.151  1.00  0.00    -0.128 A  
HETATM   15  C   UNL     1     -12.564  13.032  65.047  1.00  0.00    -0.454 A  
HETATM   16  C   UNL     1      -8.016   8.832  67.890  1.00  0.00    -0.107 A  
HETATM   17 CL   UNL     1      -7.825   6.332  66.890  1.00  0.00    -0.103 Cl 
HETATM   18  N   UNL     1     -12.281  12.275  66.129  1.00  0.00    -0.585 NA 
HETATM   19  C   UNL     1      -8.683  10.039  68.120  1.00  0.00    -0.122 A  
ENDBRANCH   4   5
ENDBRANCH   2   4
TORSDOF 2
ENDMDL
MODEL       33
REMARK 921   NORMALIZED FREE ENERGY PREDICTED BY IDOCK:   -5.14 KCAL/MOL
REMARK 922        TOTAL FREE ENERGY PREDICTED BY IDOCK:   -5.90 KCAL/MOL
REMARK 923 INTER-LIGAND FREE ENERGY PREDICTED BY IDOCK:   -5.74 KCAL/MOL
REMARK 924 INTRA-LIGAND FREE ENERGY PREDICTED BY IDOCK:   -0.16 KCAL/MOL
REMARK 927      BINDING AFFINITY PREDICTED BY RF-SCORE:    0.00 PKD
ROOT
HETATM    1  C   UNL     1      -6.728  10.049  68.383  1.00  0.00    -0.055 C  
HETATM    2  N   UNL     1      -8.063  10.599  68.637  1.00  0.00    -0.124 NA 
HETATM    3  C   UNL     1      -8.597  10.042  69.884  1.00  0.00    -0.146 C  
ENDROOT
BRANCH   2   4
HETATM    4  C   UNL     1      -8.046  12.072  68.726  1.00  0.00     0.007 C  
BRANCH   4   5
HETATM    5  C   UNL     1      -8.873  12.789  67.651  1.00  0.00    -0.189 C  
HETATM    6  C   UNL     1     -10.319  12.256  67.488  1.00  0.00    -0.214 C  
HETATM    7  C   UNL     1     -11.163  12.496  68.737  1.00  0.00    -0.318 A  
HETATM    8  C   UNL     1     -10.966  12.823  66.225  1.00  0.00    -0.280 A  
HETATM    9  C   UNL     1     -11.427  13.796  69.198  1.00  0.00    -0.346 A  
HETATM   10  C   UNL     1     -11.969  12.104  65.573  1.00  0.00    -0.290 A  
HETATM   11  C   UNL     1     -12.506  12.613  64.393  1.00  0.00    -0.509 A  
HETATM   12  C   UNL     1     -12.155  14.002  70.373  1.00  0.00    -0.426 A  
HETATM   13  C   UNL     1     -12.040  13.821  63.895  1.00  0.00    -0.423 A  
HETATM   14  C   UNL     1     -12.635  12.909  71.089  1.00  0.00    -0.281 A  
HETATM   15  C   UNL     1     -11.060  14.486  64.611  1.00  0.00    -0.346 A  
HETATM   16  C   UNL     1     -12.399  11.613  70.640  1.00  0.00    -0.437 A  
HETATM   17 CL   UNL     1     -13.518  13.163  72.545  1.00  0.00    -0.646 Cl 
HETATM   18  N   UNL     1     -10.522  14.021  65.759  1.00  0.00    -0.298 NA 
HETATM   19  C   UNL     1     -11.664  11.405  69.469  1.00  0.00    -0.417 A  
ENDBRANCH   4   5
ENDBRANCH   2   4
TORSDOF 2
ENDMDL
MODEL       34
REMARK 921   NORMALIZED FREE ENERGY PREDICTED BY IDOCK:   -5.11 KCAL/MOL
REMARK 922        TOTAL FREE ENERGY PREDICTED BY IDOCK:   -5.87 KCAL/MOL
REMARK 923 INTER-LIGAND FREE ENERGY PREDICTED BY IDOCK:   -5.45 KCAL/MOL
REMARK 924 INTRA-LIGAND FREE ENERGY PREDICTED BY IDOCK:   -0.42 KCAL/MOL
REMARK 927      BINDING AFFINITY PREDICTED BY RF-SCORE:    0.00 PKD
ROOT
HETATM    1  C   UNL     1     -12.672  13.911  65.560  1.00  0.00    -0.499 C  
HETATM    2  N   UNL     1     -11.421  13.511  64.910  1.00  0.00    -0.323 NA 
HETATM    3  C   UNL     1     -10.423  14.575  65.064  1.00  0.00    -0.429 C  
ENDROOT
BRANCH   2   4
HETATM    4  C   UNL     1     -10.887  12.253  65.465  1.00  0.00    -0.282 C  
BRANCH   4   5
HETATM    5  C   UNL     1     -11.480  11.848  66.821  1.00  0.00    -0.384 C  
HETATM    6  C   UNL     1     -10.435  11.645  67.947  1.00  0.00    -0.217 C  
HETATM    7  C   UNL     1      -9.715  12.943  68.302  1.00  0.00    -0.217 A  
HETATM    8  C   UNL     1     -11.074  10.977  69.164  1.00  0.00    -0.243 A  
HETATM    9  C   UNL     1     -10.416  14.049  68.809  1.00  0.00    -0.238 A  
HETATM   10  C   UNL     1     -10.293  10.201  70.022  1.00  0.00    -0.301 A  
HETATM   11  C   UNL     1     -10.906   9.555  71.094  1.00  0.00    -0.425 A  
HETATM   12  C   UNL     1      -9.755  15.250  69.080  1.00  0.00    -0.234 A  
HETATM   13  C   UNL     1     -12.272   9.701  71.289  1.00  0.00    -0.452 A  
HETATM   14  C   UNL     1      -8.385  15.350  68.856  1.00  0.00    -0.203 A  
HETATM   15  C   UNL     1     -12.974  10.505  70.409  1.00  0.00    -0.144 A  
HETATM   16  C   UNL     1      -7.668  14.259  68.370  1.00  0.00    -0.134 A  
HETATM   17 CL   UNL     1      -7.573  16.835  69.175  1.00  0.00    -0.221 Cl 
HETATM   18  N   UNL     1     -12.408  11.147  69.363  1.00  0.00    -0.343 NA 
HETATM   19  C   UNL     1      -8.329  13.060  68.092  1.00  0.00    -0.164 A  
ENDBRANCH   4   5
ENDBRANCH   2   4
TORSDOF 2
ENDMDL
MODEL       35
REMARK 921   NORMALIZED FREE ENERGY PREDICTED BY IDOCK:   -5.10 KCAL/MOL
REMARK 922        TOTAL FREE ENERGY PREDICTED BY IDOCK:   -5.86 KCAL/MOL
REMARK 923 INTER-LIGAND FREE ENERGY PREDICTED BY IDOCK:   -5.72 KCAL/MOL
REMARK 924 INTRA-LIGAND FREE ENERGY PREDICTED BY IDOCK:   -0.14 KCAL/MOL
REMARK 927      BINDING AFFINITY PREDICTED BY RF-SCORE:    0.00 PKD
ROOT
HETATM    1  C   UNL     1      -5.853  13.645  70.188  1.00  0.00    -0.145 C  
HETATM    2  N   UNL     1      -6.400  14.783  69.444  1.00  0.00    -0.115 NA 
HETATM    3  C   UNL     1      -5.766  14.861  68.124  1.00  0.00    -0.136 C  
ENDROOT
BRANCH   2   4
HETATM    4  C   UNL     1      -7.863  14.685  69.280  1.00  0.00    -0.071 C  
BRANCH   4   5
HETATM    5  C   UNL     1      -8.584  16.031  69.135  1.00  0.00    -0.247 C  
HETATM    6  C   UNL     1      -8.869  16.455  67.672  1.00  0.00    -0.191 C  
HETATM    7  C   UNL     1      -9.845  15.507  66.980  1.00  0.00    -0.236 A  
HETATM    8  C   UNL     1      -9.324  17.913  67.610  1.00  0.00    -0.258 A  
HETATM    9  C   UNL     1     -11.158  15.341  67.452  1.00  0.00    -0.326 A  
HETATM   10  C   UNL     1      -9.094  18.665  66.457  1.00  0.00    -0.317 A  
HETATM   11  C   UNL     1      -9.467  20.008  66.442  1.00  0.00    -0.512 A  
HETATM   12  C   UNL     1     -12.024  14.430  66.843  1.00  0.00    -0.425 A  
HETATM   13  C   UNL     1     -10.062  20.565  67.565  1.00  0.00    -0.437 A  
HETATM   14  C   UNL     1     -11.590  13.686  65.750  1.00  0.00    -0.333 A  
HETATM   15  C   UNL     1     -10.277  19.748  68.661  1.00  0.00    -0.405 A  
HETATM   16  C   UNL     1     -10.298  13.849  65.256  1.00  0.00    -0.396 A  
HETATM   17 CL   UNL     1     -12.653  12.553  65.010  1.00  0.00    -0.522 Cl 
HETATM   18  N   UNL     1      -9.931  18.444  68.705  1.00  0.00    -0.381 NA 
HETATM   19  C   UNL     1      -9.427  14.754  65.868  1.00  0.00    -0.266 A  
ENDBRANCH   4   5
ENDBRANCH   2   4
TORSDOF 2
ENDMDL
MODEL       36
REMARK 921   NORMALIZED FREE ENERGY PREDICTED BY IDOCK:   -5.09 KCAL/MOL
REMARK 922        TOTAL FREE ENERGY PREDICTED BY IDOCK:   -5.84 KCAL/MOL
REMARK 923 INTER-LIGAND FREE ENERGY PREDICTED BY IDOCK:   -5.66 KCAL/MOL
REMARK 924 INTRA-LIGAND FREE ENERGY PREDICTED BY IDOCK:   -0.18 KCAL/MOL
REMARK 927      BINDING AFFINITY PREDICTED BY RF-SCORE:    0.00 PKD
ROOT
HETATM    1  C   UNL     1     -13.159  10.651  71.777  1.00  0.00    -0.466 C  
HETATM    2  N   UNL     1     -12.001  11.074  70.985  1.00  0.00    -0.289 NA 
HETATM    3  C   UNL     1     -11.148   9.916  70.700  1.00  0.00    -0.340 C  
ENDROOT
BRANCH   2   4
HETATM    4  C   UNL     1     -12.401  11.713  69.717  1.00  0.00    -0.133 C  
BRANCH   4   5
HETATM    5  C   UNL     1     -11.872  13.140  69.522  1.00  0.00    -0.383 C  
HETATM    6  C   UNL     1     -10.751  13.272  68.460  1.00  0.00    -0.280 C  
HETATM    7  C   UNL     1     -11.246  12.933  67.057  1.00  0.00    -0.329 A  
HETATM    8  C   UNL     1     -10.096  14.650  68.534  1.00  0.00    -0.238 A  
HETATM    9  C   UNL     1     -12.262  13.685  66.443  1.00  0.00    -0.472 A  
HETATM   10  C   UNL     1      -8.771  14.814  68.126  1.00  0.00    -0.168 A  
HETATM   11  C   UNL     1      -8.175  16.067  68.254  1.00  0.00    -0.159 A  
HETATM   12  C   UNL     1     -12.745  13.332  65.180  1.00  0.00    -0.464 A  
HETATM   13  C   UNL     1      -8.909  17.123  68.775  1.00  0.00    -0.235 A  
HETATM   14  C   UNL     1     -12.209  12.232  64.517  1.00  0.00    -0.388 A  
HETATM   15  C   UNL     1     -10.224  16.887  69.136  1.00  0.00    -0.292 A  
HETATM   16  C   UNL     1     -11.190  11.484  65.101  1.00  0.00    -0.214 A  
HETATM   17 CL   UNL     1     -12.816  11.789  62.968  1.00  0.00    -0.271 Cl 
HETATM   18  N   UNL     1     -10.830  15.686  69.021  1.00  0.00    -0.239 NA 
HETATM   19  C   UNL     1     -10.711  11.831  66.367  1.00  0.00    -0.306 A  
ENDBRANCH   4   5
ENDBRANCH   2   4
TORSDOF 2
ENDMDL
MODEL       37
REMARK 921   NORMALIZED FREE ENERGY PREDICTED BY IDOCK:   -5.08 KCAL/MOL
REMARK 922        TOTAL FREE ENERGY PREDICTED BY IDOCK:   -5.83 KCAL/MOL
REMARK 923 INTER-LIGAND FREE ENERGY PREDICTED BY IDOCK:   -5.50 KCAL/MOL
REMARK 924 INTRA-LIGAND FREE ENERGY PREDICTED BY IDOCK:   -0.33 KCAL/MOL
REMARK 927      BINDING AFFINITY PREDICTED BY RF-SCORE:    0.00 PKD
ROOT
HETATM    1  C   UNL     1      -8.090  18.994  67.997  1.00  0.00    -0.295 C  
HETATM    2  N   UNL     1      -9.506  18.898  67.633  1.00  0.00    -0.297 NA 
HETATM    3  C   UNL     1     -10.146  20.208  67.789  1.00  0.00    -0.400 C  
ENDROOT
BRANCH   2   4
HETATM    4  C   UNL     1      -9.690  18.424  66.248  1.00  0.00    -0.294 C  
BRANCH   4   5
HETATM    5  C   UNL     1     -10.546  17.157  66.111  1.00  0.00    -0.201 C  
HETATM    6  C   UNL     1      -9.737  15.855  65.887  1.00  0.00    -0.386 C  
HETATM    7  C   UNL     1      -8.864  15.508  67.090  1.00  0.00    -0.233 A  
HETATM    8  C   UNL     1     -10.662  14.707  65.483  1.00  0.00    -0.349 A  
HETATM    9  C   UNL     1      -9.430  15.237  68.347  1.00  0.00    -0.206 A  
HETATM   10  C   UNL     1     -10.169  13.657  64.706  1.00  0.00    -0.363 A  
HETATM   11  C   UNL     1     -11.043  12.649  64.302  1.00  0.00    -0.405 A  
HETATM   12  C   UNL     1      -8.617  14.974  69.452  1.00  0.00    -0.121 A  
HETATM   13  C   UNL     1     -12.375  12.706  64.684  1.00  0.00    -0.546 A  
HETATM   14  C   UNL     1      -7.233  14.967  69.308  1.00  0.00    -0.179 A  
HETATM   15  C   UNL     1     -12.782  13.767  65.473  1.00  0.00    -0.488 A  
HETATM   16  C   UNL     1      -6.653  15.216  68.067  1.00  0.00    -0.156 A  
HETATM   17 CL   UNL     1      -6.233  14.659  70.675  1.00  0.00    -0.158 Cl 
HETATM   18  N   UNL     1     -11.960  14.756  65.884  1.00  0.00    -0.223 NA 
HETATM   19  C   UNL     1      -7.463  15.487  66.962  1.00  0.00    -0.205 A  
ENDBRANCH   4   5
ENDBRANCH   2   4
TORSDOF 2
ENDMDL
MODEL       38
REMARK 921   NORMALIZED FREE ENERGY PREDICTED BY IDOCK:   -5.07 KCAL/MOL
REMARK 922        TOTAL FREE ENERGY PREDICTED BY IDOCK:   -5.82 KCAL/MOL
REMARK 923 INTER-LIGAND FREE ENERGY PREDICTED BY IDOCK:   -5.65 KCAL/MOL
REMARK 924 INTRA-LIGAND FREE ENERGY PREDICTED BY IDOCK:   -0.18 KCAL/MOL
REMARK 927      BINDING AFFINITY PREDICTED BY RF-SCORE:    0.00 PKD
ROOT
HETATM    1  C   UNL     1     -11.438  12.456  65.400  1.00  0.00    -0.358 C  
HETATM    2  N   UNL     1     -11.319  12.006  66.790  1.00  0.00    -0.326 NA 
HETATM    3  C   UNL     1      -9.957  11.522  67.037  1.00  0.00    -0.200 C  
ENDROOT
BRANCH   2   4
HETATM    4  C   UNL     1     -11.639  13.082  67.748  1.00  0.00    -0.340 C  
BRANCH   4   5
HETATM    5  C   UNL     1     -10.738  14.319  67.648  1.00  0.00    -0.259 C  
HETATM    6  C   UNL     1     -11.390  15.634  68.145  1.00  0.00    -0.340 C  
HETATM    7  C   UNL     1     -11.693  15.594  69.640  1.00  0.00    -0.373 A  
HETATM    8  C   UNL     1     -10.542  16.842  67.750  1.00  0.00    -0.341 A  
HETATM    9  C   UNL     1     -10.666  15.452  70.588  1.00  0.00    -0.255 A  
HETATM   10  C   UNL     1     -11.146  18.087  67.567  1.00  0.00     0.075 A  
HETATM   11  C   UNL     1     -10.363  19.163  67.153  1.00  0.00    -0.511 A  
HETATM   12  C   UNL     1     -10.960  15.362  71.951  1.00  0.00    -0.049 A  
HETATM   13  C   UNL     1      -9.005  18.977  66.939  1.00  0.00    -0.318 A  
HETATM   14  C   UNL     1     -12.283  15.426  72.379  1.00  0.00    -0.394 A  
HETATM   15  C   UNL     1      -8.476  17.718  67.163  1.00  0.00    -0.228 A  
HETATM   16  C   UNL     1     -13.314  15.584  71.457  1.00  0.00    -0.593 A  
HETATM   17 CL   UNL     1     -12.645  15.300  74.057  1.00  0.00    -0.702 Cl 
HETATM   18  N   UNL     1      -9.207  16.658  67.568  1.00  0.00    -0.206 NA 
HETATM   19  C   UNL     1     -13.023  15.667  70.093  1.00  0.00     0.072 A  
ENDBRANCH   4   5
ENDBRANCH   2   4
TORSDOF 2
ENDMDL
MODEL       39
REMARK 921   NORMALIZED FREE ENERGY PREDICTED BY IDOCK:   -5.04 KCAL/MOL
REMARK 922        TOTAL FREE ENERGY PREDICTED BY IDOCK:   -5.79 KCAL/MOL
REMARK 923 INTER-LIGAND FREE ENERGY PREDICTED BY IDOCK:   -5.43 KCAL/MOL
REMARK 924 INTRA-LIGAND FREE ENERGY PREDICTED BY IDOCK:   -0.36 KCAL/MOL
REMARK 927      BINDING AFFINITY PREDICTED BY RF-SCORE:    0.00 PKD
ROOT
HETATM    1  C   UNL     1      -8.052  17.303  66.086  1.00  0.00    -0.237 C  
HETATM    2  N   UNL     1      -8.947  18.163  66.866  1.00  0.00    -0.263 NA 
HETATM    3  C   UNL     1      -8.991  19.501  66.268  1.00  0.00    -0.364 C  
ENDROOT
BRANCH   2   4
HETATM    4  C   UNL     1     -10.314  17.614  66.942  1.00  0.00    -0.329 C  
BRANCH   4   5
HETATM    5  C   UNL     1     -10.758  17.191  68.348  1.00  0.00    -0.347 C  
HETATM    6  C   UNL     1     -10.875  15.659  68.553  1.00  0.00    -0.282 C  
HETATM    7  C   UNL     1      -9.525  14.959  68.434  1.00  0.00    -0.209 A  
HETATM    8  C   UNL     1     -11.586  15.343  69.869  1.00  0.00    -0.323 A  
HETATM    9  C   UNL     1      -8.473  15.250  69.319  1.00  0.00    -0.238 A  
HETATM   10  C   UNL     1     -12.296  14.149  70.006  1.00  0.00    -0.403 A  
HETATM   11  C   UNL     1     -12.983  13.905  71.194  1.00  0.00    -0.388 A  
HETATM   12  C   UNL     1      -7.224  14.642  69.166  1.00  0.00    -0.142 A  
HETATM   13  C   UNL     1     -12.941  14.846  72.213  1.00  0.00    -0.423 A  
HETATM   14  C   UNL     1      -7.020  13.731  68.135  1.00  0.00    -0.120 A  
HETATM   15  C   UNL     1     -12.197  15.995  72.009  1.00  0.00    -0.506 A  
HETATM   16  C   UNL     1      -8.054  13.417  67.257  1.00  0.00    -0.147 A  
HETATM   17 CL   UNL     1      -5.476  12.995  67.938  1.00  0.00    -0.106 Cl 
HETATM   18  N   UNL     1     -11.518  16.258  70.872  1.00  0.00    -0.382 NA 
HETATM   19  C   UNL     1      -9.301  14.028  67.403  1.00  0.00    -0.220 A  
ENDBRANCH   4   5
ENDBRANCH   2   4
TORSDOF 2
ENDMDL
MODEL       40
REMARK 921   NORMALIZED FREE ENERGY PREDICTED BY IDOCK:   -5.01 KCAL/MOL
REMARK 922        TOTAL FREE ENERGY PREDICTED BY IDOCK:   -5.76 KCAL/MOL
REMARK 923 INTER-LIGAND FREE ENERGY PREDICTED BY IDOCK:   -5.52 KCAL/MOL
REMARK 924 INTRA-LIGAND FREE ENERGY PREDICTED BY IDOCK:   -0.24 KCAL/MOL
REMARK 927      BINDING AFFINITY PREDICTED BY RF-SCORE:    0.00 PKD
ROOT
HETATM    1  C   UNL     1     -12.988  10.430  71.145  1.00  0.00    -0.412 C  
HETATM    2  N   UNL     1     -11.736  11.144  70.878  1.00  0.00    -0.143 NA 
HETATM    3  C   UNL     1     -10.835  10.287  70.102  1.00  0.00    -0.302 C  
ENDROOT
BRANCH   2   4
HETATM    4  C   UNL     1     -11.965  12.405  70.147  1.00  0.00    -0.298 C  
BRANCH   4   5
HETATM    5  C   UNL     1     -11.907  12.280  68.618  1.00  0.00    -0.354 C  
HETATM    6  C   UNL     1     -11.393  13.546  67.887  1.00  0.00    -0.320 C  
HETATM    7  C   UNL     1      -9.937  13.853  68.226  1.00  0.00    -0.238 A  
HETATM    8  C   UNL     1     -11.635  13.436  66.382  1.00  0.00    -0.346 A  
HETATM    9  C   UNL     1      -8.910  12.949  67.911  1.00  0.00    -0.190 A  
HETATM   10  C   UNL     1     -11.797  14.593  65.617  1.00  0.00    -0.273 A  
HETATM   11  C   UNL     1     -12.072  14.469  64.257  1.00  0.00    -0.448 A  
HETATM   12  C   UNL     1      -7.588  13.217  68.274  1.00  0.00    -0.139 A  
HETATM   13  C   UNL     1     -12.171  13.206  63.692  1.00  0.00    -0.553 A  
HETATM   14  C   UNL     1      -7.280  14.396  68.946  1.00  0.00    -0.125 A  
HETATM   15  C   UNL     1     -11.975  12.108  64.511  1.00  0.00    -0.337 A  
HETATM   16  C   UNL     1      -8.282  15.314  69.253  1.00  0.00    -0.244 A  
HETATM   17 CL   UNL     1      -5.653  14.718  69.407  1.00  0.00    -0.093 Cl 
HETATM   18  N   UNL     1     -11.704  12.195  65.831  1.00  0.00    -0.482 NA 
HETATM   19  C   UNL     1      -9.606  15.044  68.897  1.00  0.00    -0.221 A  
ENDBRANCH   4   5
ENDBRANCH   2   4
TORSDOF 2
ENDMDL
MODEL       41
REMARK 921   NORMALIZED FREE ENERGY PREDICTED BY IDOCK:   -4.99 KCAL/MOL
REMARK 922        TOTAL FREE ENERGY PREDICTED BY IDOCK:   -5.73 KCAL/MOL
REMARK 923 INTER-LIGAND FREE ENERGY PREDICTED BY IDOCK:   -5.43 KCAL/MOL
REMARK 924 INTRA-LIGAND FREE ENERGY PREDICTED BY IDOCK:   -0.31 KCAL/MOL
REMARK 927      BINDING AFFINITY PREDICTED BY RF-SCORE:    0.00 PKD
ROOT
HETATM    1  C   UNL     1      -7.608  15.833  69.302  1.00  0.00    -0.224 C  
HETATM    2  N   UNL     1      -8.724  15.252  68.550  1.00  0.00    -0.168 NA 
HETATM    3  C   UNL     1      -9.198  16.213  67.549  1.00  0.00    -0.208 C  
ENDROOT
BRANCH   2   4
HETATM    4  C   UNL     1      -8.344  13.993  67.882  1.00  0.00    -0.168 C  
BRANCH   4   5
HETATM    5  C   UNL     1      -8.890  12.723  68.547  1.00  0.00    -0.040 C  
HETATM    6  C   UNL     1     -10.436  12.657  68.638  1.00  0.00    -0.224 C  
HETATM    7  C   UNL     1     -11.089  12.587  67.260  1.00  0.00    -0.319 A  
HETATM    8  C   UNL     1     -10.875  11.514  69.553  1.00  0.00    -0.064 A  
HETATM    9  C   UNL     1     -10.844  11.511  66.391  1.00  0.00    -0.334 A  
HETATM   10  C   UNL     1     -12.094  11.593  70.229  1.00  0.00    -0.443 A  
HETATM   11  C   UNL     1     -12.450  10.567  71.102  1.00  0.00    -0.517 A  
HETATM   12  C   UNL     1     -11.405  11.486  65.112  1.00  0.00    -0.156 A  
HETATM   13  C   UNL     1     -11.593   9.490  71.276  1.00  0.00    -0.445 A  
HETATM   14  C   UNL     1     -12.225  12.530  64.695  1.00  0.00    -0.453 A  
HETATM   15  C   UNL     1     -10.412   9.473  70.553  1.00  0.00    -0.296 A  
HETATM   16  C   UNL     1     -12.494  13.598  65.548  1.00  0.00    -0.544 A  
HETATM   17 CL   UNL     1     -12.902  12.506  63.113  1.00  0.00    -0.146 Cl 
HETATM   18  N   UNL     1     -10.042  10.450  69.697  1.00  0.00    -0.220 NA 
HETATM   19  C   UNL     1     -11.928  13.629  66.825  1.00  0.00    -0.458 A  
ENDBRANCH   4   5
ENDBRANCH   2   4
TORSDOF 2
ENDMDL
MODEL       42
REMARK 921   NORMALIZED FREE ENERGY PREDICTED BY IDOCK:   -4.97 KCAL/MOL
REMARK 922        TOTAL FREE ENERGY PREDICTED BY IDOCK:   -5.72 KCAL/MOL
REMARK 923 INTER-LIGAND FREE ENERGY PREDICTED BY IDOCK:   -5.43 KCAL/MOL
REMARK 924 INTRA-LIGAND FREE ENERGY PREDICTED BY IDOCK:   -0.28 KCAL/MOL
REMARK 927      BINDING AFFINITY PREDICTED BY RF-SCORE:    0.00 PKD
ROOT
HETATM    1  C   UNL     1      -9.774   8.280  69.095  1.00  0.00    -0.171 C  
HETATM    2  N   UNL     1     -10.456   9.528  69.452  1.00  0.00    -0.209 NA 
HETATM    3  C   UNL     1     -10.991   9.426  70.813  1.00  0.00    -0.304 C  
ENDROOT
BRANCH   2   4
HETATM    4  C   UNL     1      -9.556  10.693  69.364  1.00  0.00    -0.096 C  
BRANCH   4   5
HETATM    5  C   UNL     1      -9.729  11.545  68.099  1.00  0.00    -0.192 C  
HETATM    6  C   UNL     1     -11.107  12.242  67.975  1.00  0.00    -0.285 C  
HETATM    7  C   UNL     1     -11.327  13.277  69.075  1.00  0.00    -0.334 A  
HETATM    8  C   UNL     1     -11.294  12.825  66.575  1.00  0.00    -0.322 A  
HETATM    9  C   UNL     1     -10.491  14.398  69.197  1.00  0.00    -0.199 A  
HETATM   10  C   UNL     1     -12.579  12.974  66.049  1.00  0.00    -0.089 A  
HETATM   11  C   UNL     1     -12.724  13.455  64.750  1.00  0.00    -0.310 A  
HETATM   12  C   UNL     1     -10.669  15.311  70.240  1.00  0.00    -0.283 A  
HETATM   13  C   UNL     1     -11.596  13.780  64.011  1.00  0.00    -0.307 A  
HETATM   14  C   UNL     1     -11.693  15.115  71.163  1.00  0.00    -0.353 A  
HETATM   15  C   UNL     1     -10.358  13.626  64.610  1.00  0.00    -0.384 A  
HETATM   16  C   UNL     1     -12.544  14.019  71.049  1.00  0.00    -0.437 A  
HETATM   17 CL   UNL     1     -11.901  16.231  72.457  1.00  0.00    -0.631 Cl 
HETATM   18  N   UNL     1     -10.184  13.166  65.867  1.00  0.00    -0.287 NA 
HETATM   19  C   UNL     1     -12.362  13.101  70.011  1.00  0.00    -0.241 A  
ENDBRANCH   4   5
ENDBRANCH   2   4
TORSDOF 2
ENDMDL
MODEL       43
REMARK 921   NORMALIZED FREE ENERGY PREDICTED BY IDOCK:   -4.94 KCAL/MOL
REMARK 922        TOTAL FREE ENERGY PREDICTED BY IDOCK:   -5.68 KCAL/MOL
REMARK 923 INTER-LIGAND FREE ENERGY PREDICTED BY IDOCK:   -5.41 KCAL/MOL
REMARK 924 INTRA-LIGAND FREE ENERGY PREDICTED BY IDOCK:   -0.26 KCAL/MOL
REMARK 927      BINDING AFFINITY PREDICTED BY RF-SCORE:    0.00 PKD
ROOT
HETATM    1  C   UNL     1     -12.278  13.818  63.680  1.00  0.00    -0.256 C  
HETATM    2  N   UNL     1     -12.619  13.291  65.004  1.00  0.00    -0.620 NA 
HETATM    3  C   UNL     1     -11.883  12.046  65.244  1.00  0.00    -0.205 C  
ENDROOT
BRANCH   2   4
HETATM    4  C   UNL     1     -12.314  14.256  66.078  1.00  0.00    -0.395 C  
BRANCH   4   5
HETATM    5  C   UNL     1     -10.829  14.348  66.456  1.00  0.00    -0.310 C  
HETATM    6  C   UNL     1     -10.562  14.618  67.958  1.00  0.00    -0.240 C  
HETATM    7  C   UNL     1     -11.033  13.466  68.841  1.00  0.00    -0.284 A  
HETATM    8  C   UNL     1      -9.094  14.973  68.190  1.00  0.00    -0.178 A  
HETATM    9  C   UNL     1     -10.481  12.181  68.717  1.00  0.00    -0.201 A  
HETATM   10  C   UNL     1      -8.735  15.778  69.273  1.00  0.00    -0.261 A  
HETATM   11  C   UNL     1      -7.398  16.136  69.435  1.00  0.00    -0.196 A  
HETATM   12  C   UNL     1     -10.958  11.122  69.494  1.00  0.00    -0.276 A  
HETATM   13  C   UNL     1      -6.454  15.681  68.525  1.00  0.00    -0.107 A  
HETATM   14  C   UNL     1     -11.983  11.342  70.409  1.00  0.00    -0.374 A  
HETATM   15  C   UNL     1      -6.884  14.868  67.491  1.00  0.00    -0.161 A  
HETATM   16  C   UNL     1     -12.532  12.613  70.559  1.00  0.00    -0.273 A  
HETATM   17 CL   UNL     1     -12.581  10.033  71.353  1.00  0.00    -0.477 Cl 
HETATM   18  N   UNL     1      -8.171  14.502  67.310  1.00  0.00    -0.204 NA 
HETATM   19  C   UNL     1     -12.062  13.671  69.778  1.00  0.00    -0.396 A  
ENDBRANCH   4   5
ENDBRANCH   2   4
TORSDOF 2
ENDMDL
MODEL       44
REMARK 921   NORMALIZED FREE ENERGY PREDICTED BY IDOCK:   -4.92 KCAL/MOL
REMARK 922        TOTAL FREE ENERGY PREDICTED BY IDOCK:   -5.65 KCAL/MOL
REMARK 923 INTER-LIGAND FREE ENERGY PREDICTED BY IDOCK:   -5.48 KCAL/MOL
REMARK 924 INTRA-LIGAND FREE ENERGY PREDICTED BY IDOCK:   -0.17 KCAL/MOL
REMARK 927      BINDING AFFINITY PREDICTED BY RF-SCORE:    0.00 PKD
ROOT
HETATM    1  C   UNL     1     -13.417  14.246  71.686  1.00  0.00    -0.376 C  
HETATM    2  N   UNL     1     -12.853  15.428  71.029  1.00  0.00    -0.433 NA 
HETATM    3  C   UNL     1     -12.146  16.251  72.016  1.00  0.00    -0.421 C  
ENDROOT
BRANCH   2   4
HETATM    4  C   UNL     1     -11.927  15.066  69.939  1.00  0.00    -0.334 C  
BRANCH   4   5
HETATM    5  C   UNL     1     -11.642  16.194  68.938  1.00  0.00    -0.298 C  
HETATM    6  C   UNL     1     -10.171  16.682  68.919  1.00  0.00    -0.284 C  
HETATM    7  C   UNL     1      -9.212  15.596  68.440  1.00  0.00    -0.191 A  
HETATM    8  C   UNL     1     -10.041  17.975  68.115  1.00  0.00    -0.372 A  
HETATM    9  C   UNL     1      -9.312  15.054  67.148  1.00  0.00    -0.225 A  
HETATM   10  C   UNL     1      -9.018  18.878  68.410  1.00  0.00    -0.377 A  
HETATM   11  C   UNL     1      -8.951  20.077  67.703  1.00  0.00    -0.420 A  
HETATM   12  C   UNL     1      -8.463  14.023  66.739  1.00  0.00    -0.019 A  
HETATM   13  C   UNL     1      -9.894  20.344  66.720  1.00  0.00    -0.541 A  
HETATM   14  C   UNL     1      -7.500  13.532  67.616  1.00  0.00    -0.181 A  
HETATM   15  C   UNL     1     -10.864  19.389  66.471  1.00  0.00    -0.337 A  
HETATM   16  C   UNL     1      -7.373  14.066  68.896  1.00  0.00    -0.113 A  
HETATM   17 CL   UNL     1      -6.465  12.250  67.117  1.00  0.00    -0.148 Cl 
HETATM   18  N   UNL     1     -10.953  18.218  67.136  1.00  0.00    -0.194 NA 
HETATM   19  C   UNL     1      -8.226  15.093  69.308  1.00  0.00    -0.216 A  
ENDBRANCH   4   5
ENDBRANCH   2   4
TORSDOF 2
ENDMDL
MODEL       45
REMARK 921   NORMALIZED FREE ENERGY PREDICTED BY IDOCK:   -4.90 KCAL/MOL
REMARK 922        TOTAL FREE ENERGY PREDICTED BY IDOCK:   -5.64 KCAL/MOL
REMARK 923 INTER-LIGAND FREE ENERGY PREDICTED BY IDOCK:   -5.29 KCAL/MOL
REMARK 924 INTRA-LIGAND FREE ENERGY PREDICTED BY IDOCK:   -0.35 KCAL/MOL
REMARK 927      BINDING AFFINITY PREDICTED BY RF-SCORE:    0.00 PKD
ROOT
HETATM    1  C   UNL     1     -11.711  11.573  69.824  1.00  0.00    -0.353 C  
HETATM    2  N   UNL     1     -10.745  10.527  69.476  1.00  0.00    -0.240 NA 
HETATM    3  C   UNL     1     -10.628   9.575  70.585  1.00  0.00    -0.308 C  
ENDROOT
BRANCH   2   4
HETATM    4  C   UNL     1     -11.131   9.805  68.249  1.00  0.00    -0.102 C  
BRANCH   4   5
HETATM    5  C   UNL     1     -10.111   9.893  67.105  1.00  0.00    -0.270 C  
HETATM    6  C   UNL     1     -10.519  10.843  65.951  1.00  0.00    -0.285 C  
HETATM    7  C   UNL     1     -10.598  12.298  66.405  1.00  0.00    -0.272 A  
HETATM    8  C   UNL     1      -9.599  10.654  64.745  1.00  0.00    -0.280 A  
HETATM    9  C   UNL     1      -9.466  12.970  66.894  1.00  0.00    -0.242 A  
HETATM   10  C   UNL     1     -10.068  10.934  63.460  1.00  0.00    -0.406 A  
HETATM   11  C   UNL     1      -9.231  10.702  62.371  1.00  0.00    -0.300 A  
HETATM   12  C   UNL     1      -9.562  14.285  67.357  1.00  0.00    -0.214 A  
HETATM   13  C   UNL     1      -7.953  10.206  62.584  1.00  0.00    -0.152 A  
HETATM   14  C   UNL     1     -10.789  14.941  67.325  1.00  0.00    -0.306 A  
HETATM   15  C   UNL     1      -7.553   9.976  63.888  1.00  0.00    -0.138 A  
HETATM   16  C   UNL     1     -11.920  14.298  66.829  1.00  0.00    -0.462 A  
HETATM   17 CL   UNL     1     -10.910  16.555  67.912  1.00  0.00    -0.344 Cl 
HETATM   18  N   UNL     1      -8.338  10.194  64.965  1.00  0.00    -0.149 NA 
HETATM   19  C   UNL     1     -11.827  12.981  66.372  1.00  0.00    -0.465 A  
ENDBRANCH   4   5
ENDBRANCH   2   4
TORSDOF 2
ENDMDL
MODEL       46
REMARK 921   NORMALIZED FREE ENERGY PREDICTED BY IDOCK:   -4.85 KCAL/MOL
REMARK 922        TOTAL FREE ENERGY PREDICTED BY IDOCK:   -5.58 KCAL/MOL
REMARK 923 INTER-LIGAND FREE ENERGY PREDICTED BY IDOCK:   -5.25 KCAL/MOL
REMARK 924 INTRA-LIGAND FREE ENERGY PREDICTED BY IDOCK:   -0.33 KCAL/MOL
REMARK 927      BINDING AFFINITY PREDICTED BY RF-SCORE:    0.00 PKD
ROOT
HETATM    1  C   UNL     1     -12.306  12.946  70.737  1.00  0.00    -0.299 C  
HETATM    2  N   UNL     1     -12.165  11.487  70.777  1.00  0.00    -0.381 NA 
HETATM    3  C   UNL     1     -13.092  10.929  71.767  1.00  0.00    -0.459 C  
ENDROOT
BRANCH   2   4
HETATM    4  C   UNL     1     -12.423  10.871  69.462  1.00  0.00    -0.057 C  
BRANCH   4   5
HETATM    5  C   UNL     1     -11.163  10.482  68.677  1.00  0.00    -0.328 C  
HETATM    6  C   UNL     1     -11.074  11.095  67.257  1.00  0.00    -0.366 C  
HETATM    7  C   UNL     1     -10.956  12.616  67.295  1.00  0.00    -0.291 A  
HETATM    8  C   UNL     1      -9.950  10.440  66.455  1.00  0.00    -0.221 A  
HETATM    9  C   UNL     1      -9.861  13.247  67.908  1.00  0.00    -0.234 A  
HETATM   10  C   UNL     1     -10.028  10.389  65.062  1.00  0.00    -0.399 A  
HETATM   11  C   UNL     1      -9.020   9.737  64.353  1.00  0.00    -0.284 A  
HETATM   12  C   UNL     1      -9.791  14.640  67.983  1.00  0.00    -0.216 A  
HETATM   13  C   UNL     1      -7.962   9.162  65.042  1.00  0.00    -0.120 A  
HETATM   14  C   UNL     1     -10.810  15.415  67.437  1.00  0.00    -0.309 A  
HETATM   15  C   UNL     1      -7.945   9.275  66.421  1.00  0.00    -0.107 A  
HETATM   16  C   UNL     1     -11.896  14.810  66.810  1.00  0.00    -0.272 A  
HETATM   17 CL   UNL     1     -10.731  17.131  67.545  1.00  0.00    -0.318 Cl 
HETATM   18  N   UNL     1      -8.904   9.902  67.136  1.00  0.00    -0.138 NA 
HETATM   19  C   UNL     1     -11.971  13.416  66.740  1.00  0.00    -0.447 A  
ENDBRANCH   4   5
ENDBRANCH   2   4
TORSDOF 2
ENDMDL
MODEL       47
REMARK 921   NORMALIZED FREE ENERGY PREDICTED BY IDOCK:   -4.82 KCAL/MOL
REMARK 922        TOTAL FREE ENERGY PREDICTED BY IDOCK:   -5.54 KCAL/MOL
REMARK 923 INTER-LIGAND FREE ENERGY PREDICTED BY IDOCK:   -5.43 KCAL/MOL
REMARK 924 INTRA-LIGAND FREE ENERGY PREDICTED BY IDOCK:   -0.11 KCAL/MOL
REMARK 927      BINDING AFFINITY PREDICTED BY RF-SCORE:    0.00 PKD
ROOT
HETATM    1  C   UNL     1     -10.425  12.325  65.604  1.00  0.00    -0.261 C  
HETATM    2  N   UNL     1     -10.727  13.323  64.573  1.00  0.00    -0.391 NA 
HETATM    3  C   UNL     1     -11.312  12.661  63.403  1.00  0.00    -0.394 C  
ENDROOT
BRANCH   2   4
HETATM    4  C   UNL     1     -11.653  14.361  65.064  1.00  0.00    -0.374 C  
BRANCH   4   5
HETATM    5  C   UNL     1     -11.010  15.734  65.301  1.00  0.00    -0.354 C  
HETATM    6  C   UNL     1     -10.704  16.054  66.786  1.00  0.00    -0.259 C  
HETATM    7  C   UNL     1      -9.651  15.116  67.370  1.00  0.00    -0.208 A  
HETATM    8  C   UNL     1     -10.336  17.527  66.957  1.00  0.00    -0.324 A  
HETATM    9  C   UNL     1      -8.347  15.072  66.851  1.00  0.00    -0.247 A  
HETATM   10  C   UNL     1     -10.574  18.168  68.174  1.00  0.00    -0.320 A  
HETATM   11  C   UNL     1     -10.283  19.525  68.291  1.00  0.00    -0.552 A  
HETATM   12  C   UNL     1      -7.408  14.170  67.358  1.00  0.00    -0.143 A  
HETATM   13  C   UNL     1      -9.759  20.208  67.203  1.00  0.00    -0.576 A  
HETATM   14  C   UNL     1      -7.761  13.314  68.397  1.00  0.00    -0.138 A  
HETATM   15  C   UNL     1      -9.530  19.499  66.037  1.00  0.00    -0.253 A  
HETATM   16  C   UNL     1      -9.044  13.354  68.937  1.00  0.00     0.245 A  
HETATM   17 CL   UNL     1      -6.608  12.193  69.010  1.00  0.00    -0.093 Cl 
HETATM   18  N   UNL     1      -9.798  18.183  65.894  1.00  0.00    -0.547 NA 
HETATM   19  C   UNL     1      -9.987  14.250  68.426  1.00  0.00    -0.240 A  
ENDBRANCH   4   5
ENDBRANCH   2   4
TORSDOF 2
ENDMDL
MODEL       48
REMARK 921   NORMALIZED FREE ENERGY PREDICTED BY IDOCK:   -4.79 KCAL/MOL
REMARK 922        TOTAL FREE ENERGY PREDICTED BY IDOCK:   -5.51 KCAL/MOL
REMARK 923 INTER-LIGAND FREE ENERGY PREDICTED BY IDOCK:   -5.23 KCAL/MOL
REMARK 924 INTRA-LIGAND FREE ENERGY PREDICTED BY IDOCK:   -0.28 KCAL/MOL
REMARK 927      BINDING AFFINITY PREDICTED BY RF-SCORE:    0.00 PKD
ROOT
HETATM    1  C   UNL     1      -5.448   9.958  71.492  1.00  0.00    -0.059 C  
HETATM    2  N   UNL     1      -6.667  10.358  70.783  1.00  0.00    -0.335 NA 
HETATM    3  C   UNL     1      -6.362  11.451  69.855  1.00  0.00    -0.141 C  
ENDROOT
BRANCH   2   4
HETATM    4  C   UNL     1      -7.266   9.234  70.038  1.00  0.00    -0.078 C  
BRANCH   4   5
HETATM    5  C   UNL     1      -8.705   8.889  70.446  1.00  0.00    -0.200 C  
HETATM    6  C   UNL     1      -9.757   9.960  70.062  1.00  0.00    -0.274 C  
HETATM    7  C   UNL     1      -9.894  10.114  68.549  1.00  0.00    -0.165 A  
HETATM    8  C   UNL     1     -11.094   9.674  70.745  1.00  0.00    -0.334 A  
HETATM    9  C   UNL     1     -10.321   9.045  67.744  1.00  0.00    -0.304 A  
HETATM   10  C   UNL     1     -11.972  10.723  71.024  1.00  0.00    -0.409 A  
HETATM   11  C   UNL     1     -13.160  10.448  71.698  1.00  0.00    -0.553 A  
HETATM   12  C   UNL     1     -10.391   9.181  66.356  1.00  0.00    -0.235 A  
HETATM   13  C   UNL     1     -13.448   9.143  72.070  1.00  0.00    -0.510 A  
HETATM   14  C   UNL     1     -10.045  10.391  65.761  1.00  0.00    -0.262 A  
HETATM   15  C   UNL     1     -12.538   8.154  71.738  1.00  0.00    -0.330 A  
HETATM   16  C   UNL     1      -9.636  11.469  66.543  1.00  0.00    -0.225 A  
HETATM   17 CL   UNL     1     -10.116  10.553  64.049  1.00  0.00    -0.379 Cl 
HETATM   18  N   UNL     1     -11.381   8.389  71.083  1.00  0.00    -0.261 NA 
HETATM   19  C   UNL     1      -9.559  11.332  67.931  1.00  0.00    -0.182 A  
ENDBRANCH   4   5
ENDBRANCH   2   4
TORSDOF 2
ENDMDL
MODEL       49
REMARK 921   NORMALIZED FREE ENERGY PREDICTED BY IDOCK:   -4.77 KCAL/MOL
REMARK 922        TOTAL FREE ENERGY PREDICTED BY IDOCK:   -5.49 KCAL/MOL
REMARK 923 INTER-LIGAND FREE ENERGY PREDICTED BY IDOCK:   -5.06 KCAL/MOL
REMARK 924 INTRA-LIGAND FREE ENERGY PREDICTED BY IDOCK:   -0.42 KCAL/MOL
REMARK 927      BINDING AFFINITY PREDICTED BY RF-SCORE:    0.00 PKD
ROOT
HETATM    1  C   UNL     1     -10.295   9.628  70.373  1.00  0.00    -0.291 C  
HETATM    2  N   UNL     1      -8.841   9.503  70.228  1.00  0.00    -0.233 NA 
HETATM    3  C   UNL     1      -8.487   8.098  70.002  1.00  0.00    -0.128 C  
ENDROOT
BRANCH   2   4
HETATM    4  C   UNL     1      -8.324  10.324  69.116  1.00  0.00    -0.154 C  
BRANCH   4   5
HETATM    5  C   UNL     1      -9.395  10.832  68.141  1.00  0.00    -0.155 C  
HETATM    6  C   UNL     1      -9.273  10.271  66.702  1.00  0.00    -0.179 C  
HETATM    7  C   UNL     1      -9.501   8.763  66.652  1.00  0.00    -0.263 A  
HETATM    8  C   UNL     1     -10.188  11.035  65.745  1.00  0.00    -0.260 A  
HETATM    9  C   UNL     1     -10.730   8.200  67.035  1.00  0.00    -0.247 A  
HETATM   10  C   UNL     1      -9.861  11.124  64.391  1.00  0.00    -0.334 A  
HETATM   11  C   UNL     1     -10.679  11.872  63.547  1.00  0.00    -0.504 A  
HETATM   12  C   UNL     1     -10.909   6.814  67.036  1.00  0.00    -0.453 A  
HETATM   13  C   UNL     1     -11.800  12.505  64.065  1.00  0.00    -0.510 A  
HETATM   14  C   UNL     1      -9.865   5.981  66.643  1.00  0.00    -0.164 A  
HETATM   15  C   UNL     1     -12.070  12.351  65.413  1.00  0.00    -0.365 A  
HETATM   16  C   UNL     1      -8.646   6.521  66.243  1.00  0.00    -0.141 A  
HETATM   17 CL   UNL     1     -10.082   4.274  66.660  1.00  0.00    -0.205 Cl 
HETATM   18  N   UNL     1     -11.299  11.630  66.256  1.00  0.00    -0.340 NA 
HETATM   19  C   UNL     1      -8.462   7.906  66.248  1.00  0.00    -0.139 A  
ENDBRANCH   4   5
ENDBRANCH   2   4
TORSDOF 2
ENDMDL
MODEL       50
REMARK 921   NORMALIZED FREE ENERGY PREDICTED BY IDOCK:   -4.76 KCAL/MOL
REMARK 922        TOTAL FREE ENERGY PREDICTED BY IDOCK:   -5.48 KCAL/MOL
REMARK 923 INTER-LIGAND FREE ENERGY PREDICTED BY IDOCK:   -5.22 KCAL/MOL
REMARK 924 INTRA-LIGAND FREE ENERGY PREDICTED BY IDOCK:   -0.26 KCAL/MOL
REMARK 927      BINDING AFFINITY PREDICTED BY RF-SCORE:    0.00 PKD
ROOT
HETATM    1  C   UNL     1      -9.423  11.281  62.747  1.00  0.00    -0.326 C  
HETATM    2  N   UNL     1     -10.036  10.584  63.881  1.00  0.00    -0.322 NA 
HETATM    3  C   UNL     1      -8.992  10.139  64.810  1.00  0.00    -0.203 C  
ENDROOT
BRANCH   2   4
HETATM    4  C   UNL     1     -11.000  11.438  64.599  1.00  0.00    -0.255 C  
BRANCH   4   5
HETATM    5  C   UNL     1     -10.415  12.746  65.148  1.00  0.00    -0.320 C  
HETATM    6  C   UNL     1     -10.970  13.169  66.532  1.00  0.00    -0.303 C  
HETATM    7  C   UNL     1     -10.592  12.179  67.629  1.00  0.00    -0.236 A  
HETATM    8  C   UNL     1     -10.553  14.601  66.866  1.00  0.00    -0.281 A  
HETATM    9  C   UNL     1      -9.249  11.938  67.962  1.00  0.00    -0.190 A  
HETATM   10  C   UNL     1     -11.347  15.378  67.712  1.00  0.00    -0.308 A  
HETATM   11  C   UNL     1     -10.979  16.699  67.959  1.00  0.00    -0.311 A  
HETATM   12  C   UNL     1      -8.914  10.989  68.932  1.00  0.00    -0.123 A  
HETATM   13  C   UNL     1      -9.834  17.211  67.367  1.00  0.00    -0.264 A  
HETATM   14  C   UNL     1      -9.919  10.281  69.584  1.00  0.00    -0.207 A  
HETATM   15  C   UNL     1      -9.087  16.372  66.558  1.00  0.00    -0.276 A  
HETATM   16  C   UNL     1     -11.258  10.517  69.280  1.00  0.00    -0.320 A  
HETATM   17 CL   UNL     1      -9.504   9.101  70.766  1.00  0.00    -0.307 Cl 
HETATM   18  N   UNL     1      -9.415  15.087  66.303  1.00  0.00    -0.294 NA 
HETATM   19  C   UNL     1     -11.594  11.460  68.306  1.00  0.00    -0.376 A  
ENDBRANCH   4   5
ENDBRANCH   2   4
TORSDOF 2
ENDMDL
MODEL       51
REMARK 921   NORMALIZED FREE ENERGY PREDICTED BY IDOCK:   -4.75 KCAL/MOL
REMARK 922        TOTAL FREE ENERGY PREDICTED BY IDOCK:   -5.47 KCAL/MOL
REMARK 923 INTER-LIGAND FREE ENERGY PREDICTED BY IDOCK:   -5.22 KCAL/MOL
REMARK 924 INTRA-LIGAND FREE ENERGY PREDICTED BY IDOCK:   -0.25 KCAL/MOL
REMARK 927      BINDING AFFINITY PREDICTED BY RF-SCORE:    0.00 PKD
ROOT
HETATM    1  C   UNL     1     -13.110  14.569  73.026  1.00  0.00    -0.510 C  
HETATM    2  N   UNL     1     -12.676  15.382  71.887  1.00  0.00    -0.356 NA 
HETATM    3  C   UNL     1     -11.245  15.680  72.010  1.00  0.00    -0.172 C  
ENDROOT
BRANCH   2   4
HETATM    4  C   UNL     1     -12.927  14.708  70.599  1.00  0.00    -0.313 C  
BRANCH   4   5
HETATM    5  C   UNL     1     -12.091  13.444  70.362  1.00  0.00    -0.405 C  
HETATM    6  C   UNL     1     -11.771  13.152  68.874  1.00  0.00    -0.368 C  
HETATM    7  C   UNL     1     -10.882  14.228  68.257  1.00  0.00    -0.256 A  
HETATM    8  C   UNL     1     -11.191  11.748  68.711  1.00  0.00    -0.251 A  
HETATM    9  C   UNL     1      -9.589  14.474  68.747  1.00  0.00    -0.193 A  
HETATM   10  C   UNL     1     -11.355  11.062  67.507  1.00  0.00    -0.332 A  
HETATM   11  C   UNL     1     -10.867   9.761  67.398  1.00  0.00    -0.265 A  
HETATM   12  C   UNL     1      -8.805  15.497  68.209  1.00  0.00    -0.179 A  
HETATM   13  C   UNL     1     -10.225   9.180  68.482  1.00  0.00    -0.223 A  
HETATM   14  C   UNL     1      -9.303  16.277  67.170  1.00  0.00    -0.222 A  
HETATM   15  C   UNL     1     -10.081   9.932  69.635  1.00  0.00    -0.230 A  
HETATM   16  C   UNL     1     -10.577  16.039  66.658  1.00  0.00    -0.297 A  
HETATM   17 CL   UNL     1      -8.343  17.549  66.518  1.00  0.00    -0.288 Cl 
HETATM   18  N   UNL     1     -10.540  11.195  69.769  1.00  0.00    -0.036 NA 
HETATM   19  C   UNL     1     -11.365  15.020  67.199  1.00  0.00    -0.323 A  
ENDBRANCH   4   5
ENDBRANCH   2   4
TORSDOF 2
ENDMDL
MODEL       52
REMARK 921   NORMALIZED FREE ENERGY PREDICTED BY IDOCK:   -4.74 KCAL/MOL
REMARK 922        TOTAL FREE ENERGY PREDICTED BY IDOCK:   -5.46 KCAL/MOL
REMARK 923 INTER-LIGAND FREE ENERGY PREDICTED BY IDOCK:   -5.02 KCAL/MOL
REMARK 924 INTRA-LIGAND FREE ENERGY PREDICTED BY IDOCK:   -0.44 KCAL/MOL
REMARK 927      BINDING AFFINITY PREDICTED BY RF-SCORE:    0.00 PKD
ROOT
HETATM    1  C   UNL     1      -7.646   9.687  67.116  1.00  0.00    -0.091 C  
HETATM    2  N   UNL     1      -7.197  10.836  67.908  1.00  0.00    -0.086 NA 
HETATM    3  C   UNL     1      -7.628  12.080  67.262  1.00  0.00    -0.157 C  
ENDROOT
BRANCH   2   4
HETATM    4  C   UNL     1      -7.717  10.794  69.288  1.00  0.00    -0.129 C  
BRANCH   4   5
HETATM    5  C   UNL     1      -8.802   9.737  69.533  1.00  0.00    -0.202 C  
HETATM    6  C   UNL     1     -10.173  10.310  69.968  1.00  0.00    -0.214 C  
HETATM    7  C   UNL     1     -10.814  11.160  68.875  1.00  0.00    -0.261 A  
HETATM    8  C   UNL     1     -11.095   9.194  70.459  1.00  0.00    -0.260 A  
HETATM    9  C   UNL     1     -11.159  10.607  67.631  1.00  0.00    -0.385 A  
HETATM   10  C   UNL     1     -12.095   9.475  71.391  1.00  0.00    -0.459 A  
HETATM   11  C   UNL     1     -12.887   8.433  71.867  1.00  0.00    -0.384 A  
HETATM   12  C   UNL     1     -11.695  11.407  66.618  1.00  0.00     0.178 A  
HETATM   13  C   UNL     1     -12.672   7.143  71.401  1.00  0.00    -0.433 A  
HETATM   14  C   UNL     1     -11.901  12.764  66.845  1.00  0.00    -0.371 A  
HETATM   15  C   UNL     1     -11.677   6.948  70.460  1.00  0.00    -0.350 A  
HETATM   16  C   UNL     1     -11.581  13.329  68.078  1.00  0.00    -0.371 A  
HETATM   17 CL   UNL     1     -12.546  13.752  65.592  1.00  0.00    -0.545 Cl 
HETATM   18  N   UNL     1     -10.895   7.938  69.978  1.00  0.00    -0.248 NA 
HETATM   19  C   UNL     1     -11.039  12.532  69.089  1.00  0.00    -0.254 A  
ENDBRANCH   4   5
ENDBRANCH   2   4
TORSDOF 2
ENDMDL
MODEL       53
REMARK 921   NORMALIZED FREE ENERGY PREDICTED BY IDOCK:   -4.73 KCAL/MOL
REMARK 922        TOTAL FREE ENERGY PREDICTED BY IDOCK:   -5.45 KCAL/MOL
REMARK 923 INTER-LIGAND FREE ENERGY PREDICTED BY IDOCK:   -5.27 KCAL/MOL
REMARK 924 INTRA-LIGAND FREE ENERGY PREDICTED BY IDOCK:   -0.18 KCAL/MOL
REMARK 927      BINDING AFFINITY PREDICTED BY RF-SCORE:    0.00 PKD
ROOT
HETATM    1  C   UNL     1      -7.426   9.925  70.115  1.00  0.00    -0.170 C  
HETATM    2  N   UNL     1      -8.455  10.186  69.106  1.00  0.00    -0.145 NA 
HETATM    3  C   UNL     1      -9.783   9.962  69.686  1.00  0.00    -0.229 C  
ENDROOT
BRANCH   2   4
HETATM    4  C   UNL     1      -8.376  11.561  68.578  1.00  0.00    -0.146 C  
BRANCH   4   5
HETATM    5  C   UNL     1      -8.977  11.747  67.178  1.00  0.00    -0.177 C  
HETATM    6  C   UNL     1     -10.203  12.694  67.124  1.00  0.00    -0.230 C  
HETATM    7  C   UNL     1      -9.836  14.128  67.495  1.00  0.00    -0.235 A  
HETATM    8  C   UNL     1     -10.900  12.598  65.768  1.00  0.00    -0.274 A  
HETATM    9  C   UNL     1      -8.917  14.866  66.730  1.00  0.00    -0.295 A  
HETATM   10  C   UNL     1     -12.264  12.875  65.666  1.00  0.00    -0.519 A  
HETATM   11  C   UNL     1     -12.893  12.728  64.431  1.00  0.00    -0.288 A  
HETATM   12  C   UNL     1      -8.549  16.159  67.110  1.00  0.00    -0.211 A  
HETATM   13  C   UNL     1     -12.151  12.318  63.332  1.00  0.00    -0.615 A  
HETATM   14  C   UNL     1      -9.106  16.729  68.251  1.00  0.00    -0.228 A  
HETATM   15  C   UNL     1     -10.799  12.084  63.508  1.00  0.00    -0.444 A  
HETATM   16  C   UNL     1     -10.031  16.021  69.014  1.00  0.00    -0.242 A  
HETATM   17 CL   UNL     1      -8.639  18.317  68.728  1.00  0.00    -0.285 Cl 
HETATM   18  N   UNL     1     -10.161  12.222  64.691  1.00  0.00    -0.289 NA 
HETATM   19  C   UNL     1     -10.395  14.725  68.639  1.00  0.00    -0.245 A  
ENDBRANCH   4   5
ENDBRANCH   2   4
TORSDOF 2
ENDMDL
MODEL       54
REMARK 921   NORMALIZED FREE ENERGY PREDICTED BY IDOCK:   -4.71 KCAL/MOL
REMARK 922        TOTAL FREE ENERGY PREDICTED BY IDOCK:   -5.42 KCAL/MOL
REMARK 923 INTER-LIGAND FREE ENERGY PREDICTED BY IDOCK:   -5.11 KCAL/MOL
REMARK 924 INTRA-LIGAND FREE ENERGY PREDICTED BY IDOCK:   -0.31 KCAL/MOL
REMARK 927      BINDING AFFINITY PREDICTED BY RF-SCORE:    0.00 PKD
ROOT
HETATM    1  C   UNL     1     -11.954  12.330  69.828  1.00  0.00    -0.295 C  
HETATM    2  N   UNL     1     -12.321  11.850  71.164  1.00  0.00    -0.271 NA 
HETATM    3  C   UNL     1     -13.270  12.782  71.780  1.00  0.00    -0.374 C  
ENDROOT
BRANCH   2   4
HETATM    4  C   UNL     1     -12.915  10.500  71.122  1.00  0.00    -0.411 C  
BRANCH   4   5
HETATM    5  C   UNL     1     -12.170   9.445  71.950  1.00  0.00    -0.440 C  
HETATM    6  C   UNL     1     -11.574   8.279  71.122  1.00  0.00    -0.310 C  
HETATM    7  C   UNL     1     -10.479   8.753  70.170  1.00  0.00    -0.230 A  
HETATM    8  C   UNL     1     -11.106   7.149  72.037  1.00  0.00    -0.245 A  
HETATM    9  C   UNL     1      -9.300   9.344  70.653  1.00  0.00    -0.314 A  
HETATM   10  C   UNL     1     -11.077   5.836  71.564  1.00  0.00    -0.281 A  
HETATM   11  C   UNL     1     -10.701   4.813  72.432  1.00  0.00    -0.216 A  
HETATM   12  C   UNL     1      -8.328   9.823  69.770  1.00  0.00    -0.189 A  
HETATM   13  C   UNL     1     -10.357   5.120  73.741  1.00  0.00    -0.275 A  
HETATM   14  C   UNL     1      -8.523   9.704  68.397  1.00  0.00    -0.118 A  
HETATM   15  C   UNL     1     -10.389   6.448  74.129  1.00  0.00    -0.317 A  
HETATM   16  C   UNL     1      -9.677   9.106  67.898  1.00  0.00    -0.182 A  
HETATM   17 CL   UNL     1      -7.333  10.309  67.310  1.00  0.00    -0.089 Cl 
HETATM   18  N   UNL     1     -10.745   7.461  73.311  1.00  0.00    -0.388 NA 
HETATM   19  C   UNL     1     -10.653   8.633  68.779  1.00  0.00    -0.169 A  
ENDBRANCH   4   5
ENDBRANCH   2   4
TORSDOF 2
ENDMDL
MODEL       55
REMARK 921   NORMALIZED FREE ENERGY PREDICTED BY IDOCK:   -4.68 KCAL/MOL
REMARK 922        TOTAL FREE ENERGY PREDICTED BY IDOCK:   -5.39 KCAL/MOL
REMARK 923 INTER-LIGAND FREE ENERGY PREDICTED BY IDOCK:   -5.13 KCAL/MOL
REMARK 924 INTRA-LIGAND FREE ENERGY PREDICTED BY IDOCK:   -0.26 KCAL/MOL
REMARK 927      BINDING AFFINITY PREDICTED BY RF-SCORE:    0.00 PKD
ROOT
HETATM    1  C   UNL     1      -8.399   5.425  74.452  1.00  0.00    -0.106 C  
HETATM    2  N   UNL     1      -9.524   6.336  74.221  1.00  0.00    -0.178 NA 
HETATM    3  C   UNL     1      -9.017   7.674  73.897  1.00  0.00    -0.267 C  
ENDROOT
BRANCH   2   4
HETATM    4  C   UNL     1     -10.401   5.867  73.131  1.00  0.00    -0.211 C  
BRANCH   4   5
HETATM    5  C   UNL     1      -9.848   6.095  71.718  1.00  0.00    -0.185 C  
HETATM    6  C   UNL     1     -10.917   6.464  70.660  1.00  0.00    -0.355 C  
HETATM    7  C   UNL     1     -11.574   7.810  70.953  1.00  0.00    -0.289 A  
HETATM    8  C   UNL     1     -10.329   6.394  69.251  1.00  0.00    -0.207 A  
HETATM    9  C   UNL     1     -10.824   8.997  70.975  1.00  0.00    -0.345 A  
HETATM   10  C   UNL     1     -11.161   6.121  68.163  1.00  0.00    -0.328 A  
HETATM   11  C   UNL     1     -10.596   6.005  66.894  1.00  0.00    -0.384 A  
HETATM   12  C   UNL     1     -11.427  10.216  71.298  1.00  0.00    -0.327 A  
HETATM   13  C   UNL     1      -9.227   6.170  66.738  1.00  0.00    -0.143 A  
HETATM   14  C   UNL     1     -12.787  10.258  71.591  1.00  0.00    -0.463 A  
HETATM   15  C   UNL     1      -8.473   6.461  67.861  1.00  0.00    -0.118 A  
HETATM   16  C   UNL     1     -13.552   9.095  71.558  1.00  0.00    -0.406 A  
HETATM   17 CL   UNL     1     -13.525  11.757  72.005  1.00  0.00    -0.461 Cl 
HETATM   18  N   UNL     1      -8.991   6.582  69.102  1.00  0.00    -0.130 NA 
HETATM   19  C   UNL     1     -12.949   7.875  71.242  1.00  0.00    -0.230 A  
ENDBRANCH   4   5
ENDBRANCH   2   4
TORSDOF 2
ENDMDL
MODEL       56
REMARK 921   NORMALIZED FREE ENERGY PREDICTED BY IDOCK:   -4.67 KCAL/MOL
REMARK 922        TOTAL FREE ENERGY PREDICTED BY IDOCK:   -5.38 KCAL/MOL
REMARK 923 INTER-LIGAND FREE ENERGY PREDICTED BY IDOCK:   -5.20 KCAL/MOL
REMARK 924 INTRA-LIGAND FREE ENERGY PREDICTED BY IDOCK:   -0.18 KCAL/MOL
REMARK 927      BINDING AFFINITY PREDICTED BY RF-SCORE:    0.00 PKD
ROOT
HETATM    1  C   UNL     1     -12.081  13.033  63.344  1.00  0.00    -0.515 C  
HETATM    2  N   UNL     1     -12.226  14.167  64.262  1.00  0.00    -0.601 NA 
HETATM    3  C   UNL     1     -13.034  13.766  65.418  1.00  0.00    -0.312 C  
ENDROOT
BRANCH   2   4
HETATM    4  C   UNL     1     -10.920  14.671  64.726  1.00  0.00    -0.386 C  
BRANCH   4   5
HETATM    5  C   UNL     1     -10.315  13.896  65.905  1.00  0.00    -0.318 C  
HETATM    6  C   UNL     1      -9.037  14.533  66.506  1.00  0.00    -0.248 C  
HETATM    7  C   UNL     1      -9.317  15.891  67.143  1.00  0.00    -0.223 A  
HETATM    8  C   UNL     1      -8.352  13.563  67.469  1.00  0.00    -0.184 A  
HETATM    9  C   UNL     1     -10.195  16.017  68.232  1.00  0.00    -0.237 A  
HETATM   10  C   UNL     1      -6.974  13.646  67.678  1.00  0.00    -0.183 A  
HETATM   11  C   UNL     1      -6.361  12.718  68.517  1.00  0.00    -0.075 A  
HETATM   12  C   UNL     1     -10.485  17.273  68.772  1.00  0.00    -0.340 A  
HETATM   13  C   UNL     1      -7.130  11.739  69.130  1.00  0.00    -0.071 A  
HETATM   14  C   UNL     1      -9.891  18.411  68.235  1.00  0.00    -0.359 A  
HETATM   15  C   UNL     1      -8.493  11.736  68.891  1.00  0.00     0.099 A  
HETATM   16  C   UNL     1      -9.005  18.306  67.166  1.00  0.00    -0.264 A  
HETATM   17 CL   UNL     1     -10.262  19.959  68.891  1.00  0.00    -0.498 Cl 
HETATM   18  N   UNL     1      -9.116  12.624  68.087  1.00  0.00    -0.202 NA 
HETATM   19  C   UNL     1      -8.719  17.052  66.620  1.00  0.00    -0.282 A  
ENDBRANCH   4   5
ENDBRANCH   2   4
TORSDOF 2
ENDMDL
MODEL       57
REMARK 921   NORMALIZED FREE ENERGY PREDICTED BY IDOCK:   -4.59 KCAL/MOL
REMARK 922        TOTAL FREE ENERGY PREDICTED BY IDOCK:   -5.29 KCAL/MOL
REMARK 923 INTER-LIGAND FREE ENERGY PREDICTED BY IDOCK:   -5.00 KCAL/MOL
REMARK 924 INTRA-LIGAND FREE ENERGY PREDICTED BY IDOCK:   -0.29 KCAL/MOL
REMARK 927      BINDING AFFINITY PREDICTED BY RF-SCORE:    0.00 PKD
ROOT
HETATM    1  C   UNL     1     -10.498   5.751  68.649  1.00  0.00    -0.229 C  
HETATM    2  N   UNL     1      -9.744   6.794  67.948  1.00  0.00    -0.127 NA 
HETATM    3  C   UNL     1      -8.923   6.187  66.896  1.00  0.00    -0.118 C  
ENDROOT
BRANCH   2   4
HETATM    4  C   UNL     1     -10.631   7.812  67.352  1.00  0.00    -0.275 C  
BRANCH   4   5
HETATM    5  C   UNL     1     -10.220   9.264  67.630  1.00  0.00    -0.285 C  
HETATM    6  C   UNL     1     -10.990   9.940  68.792  1.00  0.00    -0.217 C  
HETATM    7  C   UNL     1     -10.701   9.276  70.136  1.00  0.00    -0.269 A  
HETATM    8  C   UNL     1     -10.724  11.445  68.813  1.00  0.00    -0.203 A  
HETATM    9  C   UNL     1      -9.403   9.257  70.674  1.00  0.00    -0.329 A  
HETATM   10  C   UNL     1     -11.680  12.313  69.343  1.00  0.00    -0.392 A  
HETATM   11  C   UNL     1     -11.443  13.686  69.301  1.00  0.00    -0.344 A  
HETATM   12  C   UNL     1      -9.141   8.599  71.878  1.00  0.00    -0.326 A  
HETATM   13  C   UNL     1     -10.264  14.159  68.742  1.00  0.00    -0.216 A  
HETATM   14  C   UNL     1     -10.176   7.966  72.560  1.00  0.00    -0.278 A  
HETATM   15  C   UNL     1      -9.356  13.234  68.257  1.00  0.00    -0.205 A  
HETATM   16  C   UNL     1     -11.472   7.988  72.052  1.00  0.00    -0.364 A  
HETATM   17 CL   UNL     1      -9.849   7.142  74.036  1.00  0.00    -0.336 Cl 
HETATM   18  N   UNL     1      -9.555  11.899  68.287  1.00  0.00    -0.198 NA 
HETATM   19  C   UNL     1     -11.735   8.639  70.844  1.00  0.00    -0.287 A  
ENDBRANCH   4   5
ENDBRANCH   2   4
TORSDOF 2
ENDMDL
MODEL       58
REMARK 921   NORMALIZED FREE ENERGY PREDICTED BY IDOCK:   -4.58 KCAL/MOL
REMARK 922        TOTAL FREE ENERGY PREDICTED BY IDOCK:   -5.28 KCAL/MOL
REMARK 923 INTER-LIGAND FREE ENERGY PREDICTED BY IDOCK:   -5.02 KCAL/MOL
REMARK 924 INTRA-LIGAND FREE ENERGY PREDICTED BY IDOCK:   -0.26 KCAL/MOL
REMARK 927      BINDING AFFINITY PREDICTED BY RF-SCORE:    0.00 PKD
ROOT
HETATM    1  C   UNL     1      -6.787  11.930  69.146  1.00  0.00    -0.099 C  
HETATM    2  N   UNL     1      -7.294  12.535  67.911  1.00  0.00    -0.103 NA 
HETATM    3  C   UNL     1      -8.125  11.565  67.192  1.00  0.00    -0.159 C  
ENDROOT
BRANCH   2   4
HETATM    4  C   UNL     1      -8.081  13.755  68.176  1.00  0.00    -0.155 C  
BRANCH   4   5
HETATM    5  C   UNL     1      -9.343  13.533  69.020  1.00  0.00     0.321 C  
HETATM    6  C   UNL     1     -10.550  14.418  68.617  1.00  0.00    -0.253 C  
HETATM    7  C   UNL     1     -11.057  14.093  67.215  1.00  0.00    -0.315 A  
HETATM    8  C   UNL     1     -11.653  14.339  69.672  1.00  0.00    -0.296 A  
HETATM    9  C   UNL     1     -11.563  12.821  66.899  1.00  0.00    -0.428 A  
HETATM   10  C   UNL     1     -12.532  15.411  69.841  1.00  0.00    -0.274 A  
HETATM   11  C   UNL     1     -13.495  15.342  70.846  1.00  0.00    -0.441 A  
HETATM   12  C   UNL     1     -11.974  12.520  65.599  1.00  0.00    -0.492 A  
HETATM   13  C   UNL     1     -13.565  14.213  71.649  1.00  0.00    -0.446 A  
HETATM   14  C   UNL     1     -11.892  13.491  64.605  1.00  0.00    -0.394 A  
HETATM   15  C   UNL     1     -12.674  13.183  71.404  1.00  0.00    -0.297 A  
HETATM   16  C   UNL     1     -11.409  14.763  64.900  1.00  0.00    -0.411 A  
HETATM   17 CL   UNL     1     -12.383  13.113  62.999  1.00  0.00    -0.276 Cl 
HETATM   18  N   UNL     1     -11.732  13.218  70.437  1.00  0.00    -0.168 NA 
HETATM   19  C   UNL     1     -10.991  15.064  66.199  1.00  0.00    -0.334 A  
ENDBRANCH   4   5
ENDBRANCH   2   4
TORSDOF 2
ENDMDL
MODEL       59
REMARK 921   NORMALIZED FREE ENERGY PREDICTED BY IDOCK:   -4.57 KCAL/MOL
REMARK 922        TOTAL FREE ENERGY PREDICTED BY IDOCK:   -5.26 KCAL/MOL
REMARK 923 INTER-LIGAND FREE ENERGY PREDICTED BY IDOCK:   -4.96 KCAL/MOL
REMARK 924 INTRA-LIGAND FREE ENERGY PREDICTED BY IDOCK:   -0.30 KCAL/MOL
REMARK 927      BINDING AFFINITY PREDICTED BY RF-SCORE:    0.00 PKD
ROOT
HETATM    1  C   UNL     1      -8.441   9.877  69.813  1.00  0.00    -0.192 C  
HETATM    2  N   UNL     1      -9.126  10.386  68.622  1.00  0.00    -0.149 NA 
HETATM    3  C   UNL     1      -8.639   9.680  67.433  1.00  0.00    -0.125 C  
ENDROOT
BRANCH   2   4
HETATM    4  C   UNL     1     -10.590  10.233  68.719  1.00  0.00    -0.209 C  
BRANCH   4   5
HETATM    5  C   UNL     1     -11.319  11.421  69.360  1.00  0.00    -0.365 C  
HETATM    6  C   UNL     1     -10.857  12.811  68.853  1.00  0.00    -0.236 C  
HETATM    7  C   UNL     1     -11.175  13.017  67.375  1.00  0.00    -0.325 A  
HETATM    8  C   UNL     1     -11.421  13.923  69.735  1.00  0.00    -0.215 A  
HETATM    9  C   UNL     1     -12.500  13.008  66.907  1.00  0.00     0.168 A  
HETATM   10  C   UNL     1     -10.737  15.135  69.851  1.00  0.00    -0.274 A  
HETATM   11  C   UNL     1     -11.240  16.115  70.704  1.00  0.00    -0.371 A  
HETATM   12  C   UNL     1     -12.775  13.144  65.544  1.00  0.00    -0.367 A  
HETATM   13  C   UNL     1     -12.408  15.872  71.412  1.00  0.00    -0.485 A  
HETATM   14  C   UNL     1     -11.730  13.300  64.639  1.00  0.00    -0.364 A  
HETATM   15  C   UNL     1     -13.041  14.655  71.226  1.00  0.00    -0.359 A  
HETATM   16  C   UNL     1     -10.411  13.329  65.084  1.00  0.00    -0.336 A  
HETATM   17 CL   UNL     1     -12.070  13.451  62.958  1.00  0.00    -0.209 Cl 
HETATM   18  N   UNL     1     -12.581  13.687  70.404  1.00  0.00    -0.270 NA 
HETATM   19  C   UNL     1     -10.133  13.186  66.446  1.00  0.00    -0.281 A  
ENDBRANCH   4   5
ENDBRANCH   2   4
TORSDOF 2
ENDMDL
MODEL       60
REMARK 921   NORMALIZED FREE ENERGY PREDICTED BY IDOCK:   -4.56 KCAL/MOL
REMARK 922        TOTAL FREE ENERGY PREDICTED BY IDOCK:   -5.26 KCAL/MOL
REMARK 923 INTER-LIGAND FREE ENERGY PREDICTED BY IDOCK:   -5.10 KCAL/MOL
REMARK 924 INTRA-LIGAND FREE ENERGY PREDICTED BY IDOCK:   -0.15 KCAL/MOL
REMARK 927      BINDING AFFINITY PREDICTED BY RF-SCORE:    0.00 PKD
ROOT
HETATM    1  C   UNL     1     -11.867  13.472  68.134  1.00  0.00    -0.365 C  
HETATM    2  N   UNL     1     -12.270  12.853  66.868  1.00  0.00    -0.410 NA 
HETATM    3  C   UNL     1     -12.534  13.895  65.871  1.00  0.00    -0.481 C  
ENDROOT
BRANCH   2   4
HETATM    4  C   UNL     1     -11.241  11.930  66.352  1.00  0.00    -0.331 C  
BRANCH   4   5
HETATM    5  C   UNL     1     -10.968  10.710  67.243  1.00  0.00    -0.348 C  
HETATM    6  C   UNL     1     -10.498   9.447  66.479  1.00  0.00    -0.199 C  
HETATM    7  C   UNL     1      -9.140   9.651  65.812  1.00  0.00    -0.230 A  
HETATM    8  C   UNL     1     -10.524   8.222  67.392  1.00  0.00    -0.283 A  
HETATM    9  C   UNL     1      -7.990   9.926  66.571  1.00  0.00    -0.110 A  
HETATM   10  C   UNL     1     -10.705   6.950  66.845  1.00  0.00    -0.386 A  
HETATM   11  C   UNL     1     -10.782   5.852  67.700  1.00  0.00    -0.352 A  
HETATM   12  C   UNL     1      -6.764  10.165  65.947  1.00  0.00    -0.107 A  
HETATM   13  C   UNL     1     -10.672   6.044  69.070  1.00  0.00    -0.393 A  
HETATM   14  C   UNL     1      -6.674  10.119  64.559  1.00  0.00    -0.117 A  
HETATM   15  C   UNL     1     -10.472   7.333  69.534  1.00  0.00    -0.230 A  
HETATM   16  C   UNL     1      -7.798   9.832  63.789  1.00  0.00    -0.143 A  
HETATM   17 CL   UNL     1      -5.165  10.429  63.789  1.00  0.00    -0.133 Cl 
HETATM   18  N   UNL     1     -10.389   8.415  68.731  1.00  0.00    -0.211 NA 
HETATM   19  C   UNL     1      -9.027   9.600  64.411  1.00  0.00    -0.276 A  
ENDBRANCH   4   5
ENDBRANCH   2   4
TORSDOF 2
ENDMDL
MODEL       61
REMARK 921   NORMALIZED FREE ENERGY PREDICTED BY IDOCK:   -4.54 KCAL/MOL
REMARK 922        TOTAL FREE ENERGY PREDICTED BY IDOCK:   -5.23 KCAL/MOL
REMARK 923 INTER-LIGAND FREE ENERGY PREDICTED BY IDOCK:   -5.08 KCAL/MOL
REMARK 924 INTRA-LIGAND FREE ENERGY PREDICTED BY IDOCK:   -0.15 KCAL/MOL
REMARK 927      BINDING AFFINITY PREDICTED BY RF-SCORE:    0.00 PKD
ROOT
HETATM    1  C   UNL     1     -13.095   7.673  71.342  1.00  0.00    -0.296 C  
HETATM    2  N   UNL     1     -12.202   8.772  71.718  1.00  0.00    -0.325 NA 
HETATM    3  C   UNL     1     -10.909   8.232  72.151  1.00  0.00    -0.320 C  
ENDROOT
BRANCH   2   4
HETATM    4  C   UNL     1     -11.990   9.718  70.605  1.00  0.00    -0.259 C  
BRANCH   4   5
HETATM    5  C   UNL     1     -12.621  11.101  70.810  1.00  0.00    -0.445 C  
HETATM    6  C   UNL     1     -11.683  12.292  70.488  1.00  0.00     0.009 C  
HETATM    7  C   UNL     1     -11.306  12.341  69.010  1.00  0.00    -0.333 A  
HETATM    8  C   UNL     1     -12.286  13.605  70.984  1.00  0.00    -0.354 A  
HETATM    9  C   UNL     1     -12.282  12.517  68.015  1.00  0.00     0.109 A  
HETATM   10  C   UNL     1     -11.451  14.669  71.328  1.00  0.00    -0.163 A  
HETATM   11  C   UNL     1     -12.018  15.838  71.830  1.00  0.00    -0.552 A  
HETATM   12  C   UNL     1     -11.931  12.506  66.663  1.00  0.00    -0.351 A  
HETATM   13  C   UNL     1     -13.396  15.923  71.972  1.00  0.00    -0.348 A  
HETATM   14  C   UNL     1     -10.600  12.332  66.294  1.00  0.00    -0.251 A  
HETATM   15  C   UNL     1     -14.159  14.834  71.588  1.00  0.00    -0.503 A  
HETATM   16  C   UNL     1      -9.615  12.174  67.266  1.00  0.00    -0.185 A  
HETATM   17 CL   UNL     1     -10.171  12.303  64.627  1.00  0.00    -0.310 Cl 
HETATM   18  N   UNL     1     -13.639  13.690  71.094  1.00  0.00    -0.065 NA 
HETATM   19  C   UNL     1      -9.965  12.176  68.619  1.00  0.00    -0.137 A  
ENDBRANCH   4   5
ENDBRANCH   2   4
TORSDOF 2
ENDMDL
MODEL       62
REMARK 921   NORMALIZED FREE ENERGY PREDICTED BY IDOCK:   -4.53 KCAL/MOL
REMARK 922        TOTAL FREE ENERGY PREDICTED BY IDOCK:   -5.23 KCAL/MOL
REMARK 923 INTER-LIGAND FREE ENERGY PREDICTED BY IDOCK:   -5.01 KCAL/MOL
REMARK 924 INTRA-LIGAND FREE ENERGY PREDICTED BY IDOCK:   -0.21 KCAL/MOL
REMARK 927      BINDING AFFINITY PREDICTED BY RF-SCORE:    0.00 PKD
ROOT
HETATM    1  C   UNL     1      -9.985   5.002  67.323  1.00  0.00    -0.186 C  
HETATM    2  N   UNL     1      -9.591   6.413  67.282  1.00  0.00    -0.121 NA 
HETATM    3  C   UNL     1      -8.679   6.638  66.156  1.00  0.00    -0.148 C  
ENDROOT
BRANCH   2   4
HETATM    4  C   UNL     1     -10.756   7.309  67.157  1.00  0.00    -0.343 C  
BRANCH   4   5
HETATM    5  C   UNL     1     -10.409   8.797  67.014  1.00  0.00    -0.353 C  
HETATM    6  C   UNL     1     -11.014   9.708  68.111  1.00  0.00    -0.185 C  
HETATM    7  C   UNL     1     -10.451   9.392  69.494  1.00  0.00    -0.229 A  
HETATM    8  C   UNL     1     -10.859  11.181  67.737  1.00  0.00    -0.239 A  
HETATM    9  C   UNL     1      -9.083   9.540  69.774  1.00  0.00    -0.219 A  
HETATM   10  C   UNL     1     -11.770  12.122  68.221  1.00  0.00    -0.401 A  
HETATM   11  C   UNL     1     -11.643  13.451  67.823  1.00  0.00    -0.375 A  
HETATM   12  C   UNL     1      -8.570   9.197  71.028  1.00  0.00    -0.236 A  
HETATM   13  C   UNL     1     -10.615  13.812  66.963  1.00  0.00    -0.278 A  
HETATM   14  C   UNL     1      -9.424   8.713  72.015  1.00  0.00    -0.300 A  
HETATM   15  C   UNL     1      -9.739  12.826  66.544  1.00  0.00    -0.255 A  
HETATM   16  C   UNL     1     -10.786   8.576  71.763  1.00  0.00    -0.374 A  
HETATM   17 CL   UNL     1      -8.789   8.275  73.554  1.00  0.00    -0.305 Cl 
HETATM   18  N   UNL     1      -9.834  11.531  66.915  1.00  0.00    -0.195 NA 
HETATM   19  C   UNL     1     -11.300   8.912  70.508  1.00  0.00    -0.268 A  
ENDBRANCH   4   5
ENDBRANCH   2   4
TORSDOF 2
ENDMDL
MODEL       63
REMARK 921   NORMALIZED FREE ENERGY PREDICTED BY IDOCK:   -4.51 KCAL/MOL
REMARK 922        TOTAL FREE ENERGY PREDICTED BY IDOCK:   -5.20 KCAL/MOL
REMARK 923 INTER-LIGAND FREE ENERGY PREDICTED BY IDOCK:   -4.91 KCAL/MOL
REMARK 924 INTRA-LIGAND FREE ENERGY PREDICTED BY IDOCK:   -0.29 KCAL/MOL
REMARK 927      BINDING AFFINITY PREDICTED BY RF-SCORE:    0.00 PKD
ROOT
HETATM    1  C   UNL     1      -5.295  14.649  70.199  1.00  0.00    -0.102 C  
HETATM    2  N   UNL     1      -6.314  15.419  69.480  1.00  0.00    -0.137 NA 
HETATM    3  C   UNL     1      -6.110  16.851  69.719  1.00  0.00    -0.229 C  
ENDROOT
BRANCH   2   4
HETATM    4  C   UNL     1      -6.285  15.155  68.029  1.00  0.00    -0.147 C  
BRANCH   4   5
HETATM    5  C   UNL     1      -7.381  14.204  67.528  1.00  0.00    -0.193 C  
HETATM    6  C   UNL     1      -8.784  14.463  68.132  1.00  0.00    -0.175 C  
HETATM    7  C   UNL     1      -9.344  15.822  67.722  1.00  0.00    -0.206 A  
HETATM    8  C   UNL     1      -9.734  13.312  67.803  1.00  0.00    -0.217 A  
HETATM    9  C   UNL     1      -9.592  16.130  66.374  1.00  0.00    -0.312 A  
HETATM   10  C   UNL     1     -10.802  13.026  68.655  1.00  0.00    -0.287 A  
HETATM   11  C   UNL     1     -11.624  11.939  68.366  1.00  0.00    -0.376 A  
HETATM   12  C   UNL     1     -10.054  17.396  66.005  1.00  0.00    -0.273 A  
HETATM   13  C   UNL     1     -11.369  11.170  67.239  1.00  0.00    -0.302 A  
HETATM   14  C   UNL     1     -10.283  18.360  66.982  1.00  0.00    -0.379 A  
HETATM   15  C   UNL     1     -10.305  11.531  66.431  1.00  0.00    -0.237 A  
HETATM   16  C   UNL     1     -10.059  18.069  68.325  1.00  0.00    -0.390 A  
HETATM   17 CL   UNL     1     -10.836  19.925  66.525  1.00  0.00    -0.454 Cl 
HETATM   18  N   UNL     1      -9.494  12.581  66.683  1.00  0.00    -0.237 NA 
HETATM   19  C   UNL     1      -9.590  16.806  68.695  1.00  0.00    -0.255 A  
ENDBRANCH   4   5
ENDBRANCH   2   4
TORSDOF 2
ENDMDL
MODEL       64
REMARK 921   NORMALIZED FREE ENERGY PREDICTED BY IDOCK:   -4.51 KCAL/MOL
REMARK 922        TOTAL FREE ENERGY PREDICTED BY IDOCK:   -5.20 KCAL/MOL
REMARK 923 INTER-LIGAND FREE ENERGY PREDICTED BY IDOCK:   -4.75 KCAL/MOL
REMARK 924 INTRA-LIGAND FREE ENERGY PREDICTED BY IDOCK:   -0.44 KCAL/MOL
REMARK 927      BINDING AFFINITY PREDICTED BY RF-SCORE:    0.00 PKD
ROOT
HETATM    1  C   UNL     1      -6.659  10.925  69.190  1.00  0.00    -0.069 C  
HETATM    2  N   UNL     1      -6.265  10.079  68.060  1.00  0.00    -0.053 NA 
HETATM    3  C   UNL     1      -6.611   8.683  68.344  1.00  0.00    -0.060 C  
ENDROOT
BRANCH   2   4
HETATM    4  C   UNL     1      -6.913  10.499  66.803  1.00  0.00    -0.104 C  
BRANCH   4   5
HETATM    5  C   UNL     1      -8.096  11.460  66.981  1.00  0.00    -0.157 C  
HETATM    6  C   UNL     1      -9.449  10.921  66.451  1.00  0.00    -0.214 C  
HETATM    7  C   UNL     1      -9.925   9.699  67.231  1.00  0.00    -0.250 A  
HETATM    8  C   UNL     1     -10.495  12.035  66.409  1.00  0.00    -0.233 A  
HETATM    9  C   UNL     1     -10.208   9.778  68.605  1.00  0.00    -0.210 A  
HETATM   10  C   UNL     1     -11.543  11.970  65.489  1.00  0.00    -0.352 A  
HETATM   11  C   UNL     1     -12.454  13.023  65.429  1.00  0.00    -0.531 A  
HETATM   12  C   UNL     1     -10.592   8.640  69.320  1.00  0.00    -0.204 A  
HETATM   13  C   UNL     1     -12.305  14.105  66.285  1.00  0.00    -0.451 A  
HETATM   14  C   UNL     1     -10.706   7.417  68.665  1.00  0.00    -0.101 A  
HETATM   15  C   UNL     1     -11.254  14.085  67.185  1.00  0.00    -0.313 A  
HETATM   16  C   UNL     1     -10.446   7.322  67.300  1.00  0.00    -0.380 A  
HETATM   17 CL   UNL     1     -11.163   6.013  69.550  1.00  0.00    -0.474 Cl 
HETATM   18  N   UNL     1     -10.357  13.078  67.269  1.00  0.00    -0.238 NA 
HETATM   19  C   UNL     1     -10.055   8.457  66.585  1.00  0.00    -0.358 A  
ENDBRANCH   4   5
ENDBRANCH   2   4
TORSDOF 2
ENDMDL
MODEL       65
REMARK 921   NORMALIZED FREE ENERGY PREDICTED BY IDOCK:   -4.49 KCAL/MOL
REMARK 922        TOTAL FREE ENERGY PREDICTED BY IDOCK:   -5.18 KCAL/MOL
REMARK 923 INTER-LIGAND FREE ENERGY PREDICTED BY IDOCK:   -5.33 KCAL/MOL
REMARK 924 INTRA-LIGAND FREE ENERGY PREDICTED BY IDOCK:    0.14 KCAL/MOL
REMARK 927      BINDING AFFINITY PREDICTED BY RF-SCORE:    0.00 PKD
ROOT
HETATM    1  C   UNL     1     -13.094  15.397  70.975  1.00  0.00    -0.501 C  
HETATM    2  N   UNL     1     -12.230  15.223  69.804  1.00  0.00    -0.315 NA 
HETATM    3  C   UNL     1     -11.129  16.191  69.855  1.00  0.00    -0.357 C  
ENDROOT
BRANCH   2   4
HETATM    4  C   UNL     1     -11.678  13.857  69.722  1.00  0.00    -0.309 C  
BRANCH   4   5
HETATM    5  C   UNL     1     -11.785  13.204  68.337  1.00  0.00    -0.386 C  
HETATM    6  C   UNL     1     -11.127  14.014  67.192  1.00  0.00    -0.313 C  
HETATM    7  C   UNL     1      -9.615  14.126  67.363  1.00  0.00    -0.229 A  
HETATM    8  C   UNL     1     -11.522  13.442  65.830  1.00  0.00    -0.321 A  
HETATM    9  C   UNL     1      -8.795  12.985  67.365  1.00  0.00    -0.203 A  
HETATM   10  C   UNL     1     -11.549  14.272  64.708  1.00  0.00    -0.404 A  
HETATM   11  C   UNL     1     -11.965  13.744  63.488  1.00  0.00    -0.197 A  
HETATM   12  C   UNL     1      -7.419  13.097  67.577  1.00  0.00    -0.164 A  
HETATM   13  C   UNL     1     -12.336  12.409  63.412  1.00  0.00    -0.603 A  
HETATM   14  C   UNL     1      -6.849  14.350  67.777  1.00  0.00    -0.178 A  
HETATM   15  C   UNL     1     -12.261  11.645  64.563  1.00  0.00     0.135 A  
HETATM   16  C   UNL     1      -7.641  15.495  67.762  1.00  0.00    -0.162 A  
HETATM   17 CL   UNL     1      -5.155  14.485  68.055  1.00  0.00    -0.114 Cl 
HETATM   18  N   UNL     1     -11.858  12.127  65.759  1.00  0.00    -0.513 NA 
HETATM   19  C   UNL     1      -9.019  15.385  67.558  1.00  0.00    -0.191 A  
ENDBRANCH   4   5
ENDBRANCH   2   4
TORSDOF 2
ENDMDL
MODEL       66
REMARK 921   NORMALIZED FREE ENERGY PREDICTED BY IDOCK:   -4.48 KCAL/MOL
REMARK 922        TOTAL FREE ENERGY PREDICTED BY IDOCK:   -5.16 KCAL/MOL
REMARK 923 INTER-LIGAND FREE ENERGY PREDICTED BY IDOCK:   -5.01 KCAL/MOL
REMARK 924 INTRA-LIGAND FREE ENERGY PREDICTED BY IDOCK:   -0.15 KCAL/MOL
REMARK 927      BINDING AFFINITY PREDICTED BY RF-SCORE:    0.00 PKD
ROOT
HETATM    1  C   UNL     1     -13.485  14.823  70.716  1.00  0.00    -0.189 C  
HETATM    2  N   UNL     1     -12.292  15.656  70.543  1.00  0.00    -0.411 NA 
HETATM    3  C   UNL     1     -11.819  16.119  71.852  1.00  0.00    -0.525 C  
ENDROOT
BRANCH   2   4
HETATM    4  C   UNL     1     -11.205  14.930  69.858  1.00  0.00    -0.275 C  
BRANCH   4   5
HETATM    5  C   UNL     1     -11.631  14.196  68.579  1.00  0.00    -0.351 C  
HETATM    6  C   UNL     1     -10.478  13.914  67.584  1.00  0.00    -0.245 C  
HETATM    7  C   UNL     1      -9.444  12.952  68.161  1.00  0.00    -0.218 A  
HETATM    8  C   UNL     1     -11.029  13.446  66.237  1.00  0.00    -0.288 A  
HETATM    9  C   UNL     1      -9.792  11.638  68.519  1.00  0.00    -0.196 A  
HETATM   10  C   UNL     1     -10.299  13.674  65.069  1.00  0.00    -0.393 A  
HETATM   11  C   UNL     1     -10.844  13.289  63.846  1.00  0.00    -0.178 A  
HETATM   12  C   UNL     1      -8.850  10.783  69.096  1.00  0.00    -0.098 A  
HETATM   13  C   UNL     1     -12.092  12.683  63.815  1.00  0.00    -0.604 A  
HETATM   14  C   UNL     1      -7.550  11.231  69.311  1.00  0.00    -0.019 A  
HETATM   15  C   UNL     1     -12.744  12.470  65.018  1.00  0.00    -0.219 A  
HETATM   16  C   UNL     1      -7.180  12.523  68.948  1.00  0.00    -0.050 A  
HETATM   17 CL   UNL     1      -6.394  10.182  70.037  1.00  0.00    -0.074 Cl 
HETATM   18  N   UNL     1     -12.240  12.828  66.218  1.00  0.00    -0.538 NA 
HETATM   19  C   UNL     1      -8.123  13.382  68.377  1.00  0.00    -0.138 A  
ENDBRANCH   4   5
ENDBRANCH   2   4
TORSDOF 2
ENDMDL
MODEL       67
REMARK 921   NORMALIZED FREE ENERGY PREDICTED BY IDOCK:   -4.46 KCAL/MOL
REMARK 922        TOTAL FREE ENERGY PREDICTED BY IDOCK:   -5.14 KCAL/MOL
REMARK 923 INTER-LIGAND FREE ENERGY PREDICTED BY IDOCK:   -4.94 KCAL/MOL
REMARK 924 INTRA-LIGAND FREE ENERGY PREDICTED BY IDOCK:   -0.21 KCAL/MOL
REMARK 927      BINDING AFFINITY PREDICTED BY RF-SCORE:    0.00 PKD
ROOT
HETATM    1  C   UNL     1     -13.254   9.703  72.055  1.00  0.00    -0.453 C  
HETATM    2  N   UNL     1     -12.086   8.827  72.186  1.00  0.00    -0.367 NA 
HETATM    3  C   UNL     1     -12.398   7.504  71.635  1.00  0.00    -0.333 C  
ENDROOT
BRANCH   2   4
HETATM    4  C   UNL     1     -10.903   9.378  71.499  1.00  0.00    -0.328 C  
BRANCH   4   5
HETATM    5  C   UNL     1     -11.218  10.232  70.263  1.00  0.00    -0.395 C  
HETATM    6  C   UNL     1     -10.078  10.294  69.216  1.00  0.00    -0.244 C  
HETATM    7  C   UNL     1      -9.802   8.931  68.586  1.00  0.00    -0.179 A  
HETATM    8  C   UNL     1     -10.360  11.375  68.174  1.00  0.00    -0.188 A  
HETATM    9  C   UNL     1     -10.787   8.260  67.843  1.00  0.00    -0.037 A  
HETATM   10  C   UNL     1      -9.300  11.998  67.513  1.00  0.00    -0.179 A  
HETATM   11  C   UNL     1      -9.576  13.021  66.607  1.00  0.00    -0.259 A  
HETATM   12  C   UNL     1     -10.541   6.989  67.317  1.00  0.00    -0.395 A  
HETATM   13  C   UNL     1     -10.893  13.392  66.377  1.00  0.00    -0.294 A  
HETATM   14  C   UNL     1      -9.304   6.384  67.520  1.00  0.00    -0.118 A  
HETATM   15  C   UNL     1     -11.890  12.712  67.054  1.00  0.00    -0.345 A  
HETATM   16  C   UNL     1      -8.308   7.040  68.239  1.00  0.00    -0.123 A  
HETATM   17 CL   UNL     1      -9.007   4.812  66.885  1.00  0.00    -0.110 Cl 
HETATM   18  N   UNL     1     -11.654  11.715  67.934  1.00  0.00    -0.457 NA 
HETATM   19  C   UNL     1      -8.555   8.308  68.772  1.00  0.00    -0.133 A  
ENDBRANCH   4   5
ENDBRANCH   2   4
TORSDOF 2
ENDMDL
MODEL       68
REMARK 921   NORMALIZED FREE ENERGY PREDICTED BY IDOCK:   -4.45 KCAL/MOL
REMARK 922        TOTAL FREE ENERGY PREDICTED BY IDOCK:   -5.13 KCAL/MOL
REMARK 923 INTER-LIGAND FREE ENERGY PREDICTED BY IDOCK:   -4.82 KCAL/MOL
REMARK 924 INTRA-LIGAND FREE ENERGY PREDICTED BY IDOCK:   -0.31 KCAL/MOL
REMARK 927      BINDING AFFINITY PREDICTED BY RF-SCORE:    0.00 PKD
ROOT
HETATM    1  C   UNL     1      -9.343   2.912  70.203  1.00  0.00    -0.142 C  
HETATM    2  N   UNL     1      -9.757   3.097  71.597  1.00  0.00    -0.161 NA 
HETATM    3  C   UNL     1      -9.017   2.169  72.458  1.00  0.00    -0.066 C  
ENDROOT
BRANCH   2   4
HETATM    4  C   UNL     1      -9.535   4.480  72.061  1.00  0.00    -0.143 C  
BRANCH   4   5
HETATM    5  C   UNL     1     -10.748   5.408  71.916  1.00  0.00    -0.275 C  
HETATM    6  C   UNL     1     -10.446   6.760  71.224  1.00  0.00    -0.237 C  
HETATM    7  C   UNL     1     -10.023   6.579  69.769  1.00  0.00    -0.189 A  
HETATM    8  C   UNL     1     -11.625   7.721  71.376  1.00  0.00    -0.276 A  
HETATM    9  C   UNL     1     -10.889   6.003  68.825  1.00  0.00    -0.391 A  
HETATM   10  C   UNL     1     -11.406   9.100  71.364  1.00  0.00    -0.414 A  
HETATM   11  C   UNL     1     -12.486   9.957  71.560  1.00  0.00    -0.506 A  
HETATM   12  C   UNL     1     -10.471   5.793  67.509  1.00  0.00    -0.310 A  
HETATM   13  C   UNL     1     -13.753   9.426  71.756  1.00  0.00    -0.418 A  
HETATM   14  C   UNL     1      -9.187   6.165  67.122  1.00  0.00    -0.118 A  
HETATM   15  C   UNL     1     -13.893   8.049  71.732  1.00  0.00    -0.386 A  
HETATM   16  C   UNL     1      -8.319   6.753  68.039  1.00  0.00    -0.120 A  
HETATM   17 CL   UNL     1      -8.668   5.890  65.504  1.00  0.00    -0.151 Cl 
HETATM   18  N   UNL     1     -12.867   7.193  71.541  1.00  0.00    -0.386 NA 
HETATM   19  C   UNL     1      -8.732   6.958  69.357  1.00  0.00    -0.133 A  
ENDBRANCH   4   5
ENDBRANCH   2   4
TORSDOF 2
ENDMDL
MODEL       69
REMARK 921   NORMALIZED FREE ENERGY PREDICTED BY IDOCK:   -4.44 KCAL/MOL
REMARK 922        TOTAL FREE ENERGY PREDICTED BY IDOCK:   -5.13 KCAL/MOL
REMARK 923 INTER-LIGAND FREE ENERGY PREDICTED BY IDOCK:   -4.78 KCAL/MOL
REMARK 924 INTRA-LIGAND FREE ENERGY PREDICTED BY IDOCK:   -0.34 KCAL/MOL
REMARK 927      BINDING AFFINITY PREDICTED BY RF-SCORE:    0.00 PKD
ROOT
HETATM    1  C   UNL     1      -7.592   7.812  65.859  1.00  0.00    -0.090 C  
HETATM    2  N   UNL     1      -7.361   8.980  65.004  1.00  0.00    -0.094 NA 
HETATM    3  C   UNL     1      -6.243   8.712  64.094  1.00  0.00    -0.071 C  
ENDROOT
BRANCH   2   4
HETATM    4  C   UNL     1      -8.559   9.336  64.219  1.00  0.00    -0.193 C  
BRANCH   4   5
HETATM    5  C   UNL     1      -9.048  10.777  64.413  1.00  0.00    -0.217 C  
HETATM    6  C   UNL     1     -10.311  10.916  65.300  1.00  0.00    -0.334 C  
HETATM    7  C   UNL     1     -10.051  10.483  66.740  1.00  0.00    -0.270 A  
HETATM    8  C   UNL     1     -10.885  12.329  65.206  1.00  0.00    -0.293 A  
HETATM    9  C   UNL     1      -9.109  11.149  67.541  1.00  0.00    -0.146 A  
HETATM   10  C   UNL     1     -12.248  12.542  65.419  1.00  0.00    -0.475 A  
HETATM   11  C   UNL     1     -12.761  13.829  65.274  1.00  0.00    -0.481 A  
HETATM   12  C   UNL     1      -8.840  10.711  68.840  1.00  0.00    -0.160 A  
HETATM   13  C   UNL     1     -11.909  14.869  64.929  1.00  0.00    -0.337 A  
HETATM   14  C   UNL     1      -9.520   9.610  69.353  1.00  0.00    -0.192 A  
HETATM   15  C   UNL     1     -10.566  14.582  64.757  1.00  0.00    -0.377 A  
HETATM   16  C   UNL     1     -10.469   8.946  68.581  1.00  0.00    -0.223 A  
HETATM   17 CL   UNL     1      -9.177   9.060  70.948  1.00  0.00    -0.292 Cl 
HETATM   18  N   UNL     1     -10.039  13.347  64.894  1.00  0.00    -0.277 NA 
HETATM   19  C   UNL     1     -10.734   9.378  67.279  1.00  0.00    -0.258 A  
ENDBRANCH   4   5
ENDBRANCH   2   4
TORSDOF 2
ENDMDL
MODEL       70
REMARK 921   NORMALIZED FREE ENERGY PREDICTED BY IDOCK:   -4.43 KCAL/MOL
REMARK 922        TOTAL FREE ENERGY PREDICTED BY IDOCK:   -5.11 KCAL/MOL
REMARK 923 INTER-LIGAND FREE ENERGY PREDICTED BY IDOCK:   -4.95 KCAL/MOL
REMARK 924 INTRA-LIGAND FREE ENERGY PREDICTED BY IDOCK:   -0.16 KCAL/MOL
REMARK 927      BINDING AFFINITY PREDICTED BY RF-SCORE:    0.00 PKD
ROOT
HETATM    1  C   UNL     1     -11.908  13.616  68.262  1.00  0.00    -0.369 C  
HETATM    2  N   UNL     1     -11.572  12.772  69.412  1.00  0.00    -0.297 NA 
HETATM    3  C   UNL     1     -12.274  13.259  70.604  1.00  0.00    -0.338 C  
ENDROOT
BRANCH   2   4
HETATM    4  C   UNL     1     -11.921  11.357  69.180  1.00  0.00    -0.328 C  
BRANCH   4   5
HETATM    5  C   UNL     1     -11.437  10.390  70.269  1.00  0.00    -0.406 C  
HETATM    6  C   UNL     1     -11.275   8.922  69.800  1.00  0.00    -0.018 C  
HETATM    7  C   UNL     1     -10.181   8.773  68.747  1.00  0.00    -0.224 A  
HETATM    8  C   UNL     1     -11.069   7.992  70.995  1.00  0.00    -0.253 A  
HETATM    9  C   UNL     1      -8.843   9.091  69.036  1.00  0.00    -0.136 A  
HETATM   10  C   UNL     1     -11.459   6.654  70.912  1.00  0.00    -0.401 A  
HETATM   11  C   UNL     1     -11.313   5.838  72.032  1.00  0.00    -0.289 A  
HETATM   12  C   UNL     1      -7.860   9.002  68.048  1.00  0.00    -0.101 A  
HETATM   13  C   UNL     1     -10.780   6.367  73.199  1.00  0.00    -0.294 A  
HETATM   14  C   UNL     1      -8.202   8.584  66.766  1.00  0.00    -0.105 A  
HETATM   15  C   UNL     1     -10.396   7.697  73.196  1.00  0.00    -0.352 A  
HETATM   16  C   UNL     1      -9.519   8.247  66.463  1.00  0.00    -0.284 A  
HETATM   17 CL   UNL     1      -6.992   8.490  65.545  1.00  0.00    -0.073 Cl 
HETATM   18  N   UNL     1     -10.521   8.512  72.126  1.00  0.00    -0.325 NA 
HETATM   19  C   UNL     1     -10.506   8.342  67.448  1.00  0.00    -0.354 A  
ENDBRANCH   4   5
ENDBRANCH   2   4
TORSDOF 2
ENDMDL
MODEL       71
REMARK 921   NORMALIZED FREE ENERGY PREDICTED BY IDOCK:   -4.41 KCAL/MOL
REMARK 922        TOTAL FREE ENERGY PREDICTED BY IDOCK:   -5.09 KCAL/MOL
REMARK 923 INTER-LIGAND FREE ENERGY PREDICTED BY IDOCK:   -4.90 KCAL/MOL
REMARK 924 INTRA-LIGAND FREE ENERGY PREDICTED BY IDOCK:   -0.18 KCAL/MOL
REMARK 927      BINDING AFFINITY PREDICTED BY RF-SCORE:    0.00 PKD
ROOT
HETATM    1  C   UNL     1      -8.614  17.922  68.166  1.00  0.00    -0.264 C  
HETATM    2  N   UNL     1      -9.795  17.112  67.851  1.00  0.00    -0.274 NA 
HETATM    3  C   UNL     1     -10.278  17.444  66.507  1.00  0.00    -0.329 C  
ENDROOT
BRANCH   2   4
HETATM    4  C   UNL     1      -9.510  15.666  67.927  1.00  0.00    -0.204 C  
BRANCH   4   5
HETATM    5  C   UNL     1     -10.443  14.783  67.088  1.00  0.00    -0.265 C  
HETATM    6  C   UNL     1      -9.730  13.646  66.313  1.00  0.00    -0.295 C  
HETATM    7  C   UNL     1      -9.098  12.622  67.251  1.00  0.00    -0.191 A  
HETATM    8  C   UNL     1     -10.677  13.007  65.298  1.00  0.00    -0.299 A  
HETATM    9  C   UNL     1      -9.883  11.866  68.138  1.00  0.00    -0.192 A  
HETATM   10  C   UNL     1     -10.162  12.408  64.147  1.00  0.00    -0.377 A  
HETATM   11  C   UNL     1     -11.046  11.880  63.208  1.00  0.00    -0.390 A  
HETATM   12  C   UNL     1      -9.288  10.970  69.030  1.00  0.00    -0.105 A  
HETATM   13  C   UNL     1     -12.412  11.955  63.438  1.00  0.00    -0.582 A  
HETATM   14  C   UNL     1      -7.905  10.813  69.034  1.00  0.00    -0.138 A  
HETATM   15  C   UNL     1     -12.844  12.545  64.613  1.00  0.00    -0.236 A  
HETATM   16  C   UNL     1      -7.111  11.541  68.151  1.00  0.00    -0.076 A  
HETATM   17 CL   UNL     1      -7.171   9.721  70.144  1.00  0.00    -0.128 Cl 
HETATM   18  N   UNL     1     -12.013  13.061  65.543  1.00  0.00    -0.398 NA 
HETATM   19  C   UNL     1      -7.703  12.443  67.264  1.00  0.00    -0.158 A  
ENDBRANCH   4   5
ENDBRANCH   2   4
TORSDOF 2
ENDMDL
MODEL       72
REMARK 921   NORMALIZED FREE ENERGY PREDICTED BY IDOCK:   -4.39 KCAL/MOL
REMARK 922        TOTAL FREE ENERGY PREDICTED BY IDOCK:   -5.06 KCAL/MOL
REMARK 923 INTER-LIGAND FREE ENERGY PREDICTED BY IDOCK:   -4.78 KCAL/MOL
REMARK 924 INTRA-LIGAND FREE ENERGY PREDICTED BY IDOCK:   -0.28 KCAL/MOL
REMARK 927      BINDING AFFINITY PREDICTED BY RF-SCORE:    0.00 PKD
ROOT
HETATM    1  C   UNL     1      -7.996   4.150  74.413  1.00  0.00    -0.091 C  
HETATM    2  N   UNL     1      -9.022   4.799  73.591  1.00  0.00    -0.105 NA 
HETATM    3  C   UNL     1     -10.347   4.291  73.964  1.00  0.00    -0.215 C  
ENDROOT
BRANCH   2   4
HETATM    4  C   UNL     1      -9.001   6.266  73.737  1.00  0.00    -0.128 C  
BRANCH   4   5
HETATM    5  C   UNL     1     -10.299   6.971  73.322  1.00  0.00    -0.343 C  
HETATM    6  C   UNL     1     -10.173   7.864  72.061  1.00  0.00    -0.270 C  
HETATM    7  C   UNL     1      -9.852   7.049  70.811  1.00  0.00    -0.190 A  
HETATM    8  C   UNL     1     -11.416   8.736  71.890  1.00  0.00    -0.358 A  
HETATM    9  C   UNL     1     -10.737   6.067  70.335  1.00  0.00    -0.358 A  
HETATM   10  C   UNL     1     -11.321   9.961  71.227  1.00  0.00    -0.404 A  
HETATM   11  C   UNL     1     -12.454  10.766  71.131  1.00  0.00    -0.519 A  
HETATM   12  C   UNL     1     -10.408   5.291  69.221  1.00  0.00    -0.286 A  
HETATM   13  C   UNL     1     -13.650  10.333  71.686  1.00  0.00    -0.242 A  
HETATM   14  C   UNL     1      -9.197   5.497  68.568  1.00  0.00    -0.118 A  
HETATM   15  C   UNL     1     -13.670   9.096  72.307  1.00  0.00    -0.487 A  
HETATM   16  C   UNL     1      -8.313   6.476  69.014  1.00  0.00    -0.116 A  
HETATM   17 CL   UNL     1      -8.785   4.528  67.205  1.00  0.00    -0.104 Cl 
HETATM   18  N   UNL     1     -12.590   8.292  72.413  1.00  0.00    -0.310 NA 
HETATM   19  C   UNL     1      -8.637   7.249  70.132  1.00  0.00    -0.140 A  
ENDBRANCH   4   5
ENDBRANCH   2   4
TORSDOF 2
ENDMDL
MODEL       73
REMARK 921   NORMALIZED FREE ENERGY PREDICTED BY IDOCK:   -4.39 KCAL/MOL
REMARK 922        TOTAL FREE ENERGY PREDICTED BY IDOCK:   -5.06 KCAL/MOL
REMARK 923 INTER-LIGAND FREE ENERGY PREDICTED BY IDOCK:   -4.78 KCAL/MOL
REMARK 924 INTRA-LIGAND FREE ENERGY PREDICTED BY IDOCK:   -0.28 KCAL/MOL
REMARK 927      BINDING AFFINITY PREDICTED BY RF-SCORE:    0.00 PKD
ROOT
HETATM    1  C   UNL     1      -8.299   6.897  66.244  1.00  0.00    -0.126 C  
HETATM    2  N   UNL     1      -8.778   8.279  66.342  1.00  0.00    -0.135 NA 
HETATM    3  C   UNL     1      -8.458   9.001  65.106  1.00  0.00    -0.167 C  
ENDROOT
BRANCH   2   4
HETATM    4  C   UNL     1     -10.232   8.344  66.585  1.00  0.00    -0.265 C  
BRANCH   4   5
HETATM    5  C   UNL     1     -10.647   8.142  68.049  1.00  0.00    -0.188 C  
HETATM    6  C   UNL     1      -9.946   9.090  69.054  1.00  0.00    -0.191 C  
HETATM    7  C   UNL     1     -10.324  10.550  68.826  1.00  0.00    -0.208 A  
HETATM    8  C   UNL     1     -10.198   8.636  70.491  1.00  0.00    -0.197 A  
HETATM    9  C   UNL     1     -11.653  10.987  68.957  1.00  0.00    -0.392 A  
HETATM   10  C   UNL     1      -9.270   8.937  71.490  1.00  0.00    -0.322 A  
HETATM   11  C   UNL     1      -9.492   8.466  72.782  1.00  0.00    -0.312 A  
HETATM   12  C   UNL     1     -11.997  12.315  68.693  1.00  0.00    -0.276 A  
HETATM   13  C   UNL     1     -10.629   7.717  73.051  1.00  0.00    -0.433 A  
HETATM   14  C   UNL     1     -11.013  13.220  68.307  1.00  0.00    -0.256 A  
HETATM   15  C   UNL     1     -11.513   7.480  72.013  1.00  0.00    -0.279 A  
HETATM   16  C   UNL     1      -9.687  12.812  68.188  1.00  0.00    -0.223 A  
HETATM   17 CL   UNL     1     -11.440  14.853  67.966  1.00  0.00    -0.340 Cl 
HETATM   18  N   UNL     1     -11.328   7.925  70.752  1.00  0.00    -0.275 NA 
HETATM   19  C   UNL     1      -9.343  11.482  68.444  1.00  0.00    -0.194 A  
ENDBRANCH   4   5
ENDBRANCH   2   4
TORSDOF 2
ENDMDL
MODEL       74
REMARK 921   NORMALIZED FREE ENERGY PREDICTED BY IDOCK:   -4.38 KCAL/MOL
REMARK 922        TOTAL FREE ENERGY PREDICTED BY IDOCK:   -5.05 KCAL/MOL
REMARK 923 INTER-LIGAND FREE ENERGY PREDICTED BY IDOCK:   -4.78 KCAL/MOL
REMARK 924 INTRA-LIGAND FREE ENERGY PREDICTED BY IDOCK:   -0.28 KCAL/MOL
REMARK 927      BINDING AFFINITY PREDICTED BY RF-SCORE:    0.00 PKD
ROOT
HETATM    1  C   UNL     1     -11.595   9.512  71.263  1.00  0.00    -0.374 C  
HETATM    2  N   UNL     1     -12.297   8.610  72.180  1.00  0.00    -0.365 NA 
HETATM    3  C   UNL     1     -13.653   9.111  72.425  1.00  0.00    -0.483 C  
ENDROOT
BRANCH   2   4
HETATM    4  C   UNL     1     -12.370   7.234  71.654  1.00  0.00    -0.352 C  
BRANCH   4   5
HETATM    5  C   UNL     1     -11.093   6.405  71.844  1.00  0.00    -0.311 C  
HETATM    6  C   UNL     1     -10.706   5.529  70.626  1.00  0.00    -0.303 C  
HETATM    7  C   UNL     1     -10.347   6.371  69.405  1.00  0.00    -0.252 A  
HETATM    8  C   UNL     1      -9.603   4.539  71.001  1.00  0.00    -0.178 A  
HETATM    9  C   UNL     1      -9.260   7.261  69.428  1.00  0.00    -0.148 A  
HETATM   10  C   UNL     1      -9.492   3.329  70.314  1.00  0.00    -0.234 A  
HETATM   11  C   UNL     1      -8.515   2.417  70.708  1.00  0.00    -0.087 A  
HETATM   12  C   UNL     1      -8.974   8.066  68.323  1.00  0.00    -0.132 A  
HETATM   13  C   UNL     1      -7.673   2.731  71.766  1.00  0.00    -0.048 A  
HETATM   14  C   UNL     1      -9.765   7.980  67.181  1.00  0.00    -0.195 A  
HETATM   15  C   UNL     1      -7.832   3.960  72.382  1.00  0.00    -0.080 A  
HETATM   16  C   UNL     1     -10.836   7.092  67.131  1.00  0.00    -0.427 A  
HETATM   17 CL   UNL     1      -9.421   8.984  65.825  1.00  0.00    -0.316 Cl 
HETATM   18  N   UNL     1      -8.766   4.866  72.021  1.00  0.00    -0.127 NA 
HETATM   19  C   UNL     1     -11.128   6.291  68.239  1.00  0.00    -0.364 A  
ENDBRANCH   4   5
ENDBRANCH   2   4
TORSDOF 2
ENDMDL
MODEL       75
REMARK 921   NORMALIZED FREE ENERGY PREDICTED BY IDOCK:   -4.37 KCAL/MOL
REMARK 922        TOTAL FREE ENERGY PREDICTED BY IDOCK:   -5.04 KCAL/MOL
REMARK 923 INTER-LIGAND FREE ENERGY PREDICTED BY IDOCK:   -4.84 KCAL/MOL
REMARK 924 INTRA-LIGAND FREE ENERGY PREDICTED BY IDOCK:   -0.20 KCAL/MOL
REMARK 927      BINDING AFFINITY PREDICTED BY RF-SCORE:    0.00 PKD
ROOT
HETATM    1  C   UNL     1      -6.865  14.388  69.224  1.00  0.00    -0.129 C  
HETATM    2  N   UNL     1      -7.359  13.336  68.331  1.00  0.00    -0.105 NA 
HETATM    3  C   UNL     1      -6.826  12.037  68.756  1.00  0.00    -0.094 C  
ENDROOT
BRANCH   2   4
HETATM    4  C   UNL     1      -8.833  13.277  68.309  1.00  0.00    -0.168 C  
BRANCH   4   5
HETATM    5  C   UNL     1      -9.529  14.644  68.257  1.00  0.00    -0.211 C  
HETATM    6  C   UNL     1      -9.682  15.236  66.833  1.00  0.00    -0.243 C  
HETATM    7  C   UNL     1     -10.601  14.390  65.956  1.00  0.00    -0.304 A  
HETATM    8  C   UNL     1     -10.119  16.699  66.900  1.00  0.00    -0.280 A  
HETATM    9  C   UNL     1     -11.951  14.194  66.292  1.00  0.00    -0.448 A  
HETATM   10  C   UNL     1      -9.783  17.573  65.865  1.00  0.00    -0.066 A  
HETATM   11  C   UNL     1     -10.143  18.915  65.972  1.00  0.00    -0.372 A  
HETATM   12  C   UNL     1     -12.768  13.374  65.510  1.00  0.00    -0.469 A  
HETATM   13  C   UNL     1     -10.829  19.351  67.096  1.00  0.00    -0.561 A  
HETATM   14  C   UNL     1     -12.246  12.751  64.381  1.00  0.00    -0.428 A  
HETATM   15  C   UNL     1     -11.145  18.419  68.069  1.00  0.00     0.243 A  
HETATM   16  C   UNL     1     -10.914  12.946  64.021  1.00  0.00    -0.447 A  
HETATM   17 CL   UNL     1     -13.249  11.728  63.427  1.00  0.00    -0.138 Cl 
HETATM   18  N   UNL     1     -10.814  17.112  67.993  1.00  0.00    -0.366 NA 
HETATM   19  C   UNL     1     -10.093  13.760  64.806  1.00  0.00    -0.259 A  
ENDBRANCH   4   5
ENDBRANCH   2   4
TORSDOF 2
ENDMDL
MODEL       76
REMARK 921   NORMALIZED FREE ENERGY PREDICTED BY IDOCK:   -4.37 KCAL/MOL
REMARK 922        TOTAL FREE ENERGY PREDICTED BY IDOCK:   -5.04 KCAL/MOL
REMARK 923 INTER-LIGAND FREE ENERGY PREDICTED BY IDOCK:   -4.84 KCAL/MOL
REMARK 924 INTRA-LIGAND FREE ENERGY PREDICTED BY IDOCK:   -0.20 KCAL/MOL
REMARK 927      BINDING AFFINITY PREDICTED BY RF-SCORE:    0.00 PKD
ROOT
HETATM    1  C   UNL     1      -7.485   7.318  66.658  1.00  0.00    -0.088 C  
HETATM    2  N   UNL     1      -8.804   7.194  66.030  1.00  0.00    -0.151 NA 
HETATM    3  C   UNL     1      -9.392   5.894  66.368  1.00  0.00    -0.157 C  
ENDROOT
BRANCH   2   4
HETATM    4  C   UNL     1      -9.720   8.271  66.451  1.00  0.00    -0.230 C  
BRANCH   4   5
HETATM    5  C   UNL     1     -10.364   8.064  67.828  1.00  0.00    -0.294 C  
HETATM    6  C   UNL     1      -9.841   9.015  68.934  1.00  0.00    -0.181 C  
HETATM    7  C   UNL     1     -10.189  10.473  68.648  1.00  0.00    -0.197 A  
HETATM    8  C   UNL     1     -10.319   8.557  70.311  1.00  0.00    -0.205 A  
HETATM    9  C   UNL     1     -11.525  10.900  68.563  1.00  0.00    -0.380 A  
HETATM   10  C   UNL     1      -9.567   8.863  71.446  1.00  0.00    -0.359 A  
HETATM   11  C   UNL     1      -9.991   8.389  72.686  1.00  0.00    -0.329 A  
HETATM   12  C   UNL     1     -11.831  12.226  68.247  1.00  0.00    -0.367 A  
HETATM   13  C   UNL     1     -11.151   7.631  72.767  1.00  0.00    -0.437 A  
HETATM   14  C   UNL     1     -10.804  13.139  68.025  1.00  0.00    -0.242 A  
HETATM   15  C   UNL     1     -11.854   7.389  71.600  1.00  0.00    -0.291 A  
HETATM   16  C   UNL     1      -9.474  12.740  68.122  1.00  0.00    -0.219 A  
HETATM   17 CL   UNL     1     -11.183  14.769  67.620  1.00  0.00    -0.316 Cl 
HETATM   18  N   UNL     1     -11.471   7.838  70.386  1.00  0.00    -0.213 NA 
HETATM   19  C   UNL     1      -9.166  11.413  68.430  1.00  0.00    -0.183 A  
ENDBRANCH   4   5
ENDBRANCH   2   4
TORSDOF 2
ENDMDL
MODEL       77
REMARK 921   NORMALIZED FREE ENERGY PREDICTED BY IDOCK:   -4.32 KCAL/MOL
REMARK 922        TOTAL FREE ENERGY PREDICTED BY IDOCK:   -4.99 KCAL/MOL
REMARK 923 INTER-LIGAND FREE ENERGY PREDICTED BY IDOCK:   -4.91 KCAL/MOL
REMARK 924 INTRA-LIGAND FREE ENERGY PREDICTED BY IDOCK:   -0.08 KCAL/MOL
REMARK 927      BINDING AFFINITY PREDICTED BY RF-SCORE:    0.00 PKD
ROOT
HETATM    1  C   UNL     1      -7.484  17.026  66.083  1.00  0.00    -0.220 C  
HETATM    2  N   UNL     1      -8.729  17.453  66.728  1.00  0.00    -0.245 NA 
HETATM    3  C   UNL     1      -8.866  18.909  66.621  1.00  0.00    -0.316 C  
ENDROOT
BRANCH   2   4
HETATM    4  C   UNL     1      -9.911  16.803  66.132  1.00  0.00    -0.327 C  
BRANCH   4   5
HETATM    5  C   UNL     1      -9.828  15.274  66.046  1.00  0.00    -0.357 C  
HETATM    6  C   UNL     1      -9.381  14.578  67.356  1.00  0.00    -0.197 C  
HETATM    7  C   UNL     1     -10.393  14.768  68.482  1.00  0.00    -0.237 A  
HETATM    8  C   UNL     1      -9.054  13.107  67.103  1.00  0.00    -0.230 A  
HETATM    9  C   UNL     1     -11.704  14.275  68.373  1.00  0.00    -0.373 A  
HETATM   10  C   UNL     1      -8.133  12.447  67.919  1.00  0.00    -0.161 A  
HETATM   11  C   UNL     1      -7.808  11.122  67.636  1.00  0.00    -0.115 A  
HETATM   12  C   UNL     1     -12.638  14.502  69.387  1.00  0.00     0.024 A  
HETATM   13  C   UNL     1      -8.409  10.486  66.560  1.00  0.00    -0.141 A  
HETATM   14  C   UNL     1     -12.266  15.214  70.523  1.00  0.00    -0.341 A  
HETATM   15  C   UNL     1      -9.329  11.199  65.812  1.00  0.00    -0.214 A  
HETATM   16  C   UNL     1     -10.967  15.697  70.658  1.00  0.00    -0.364 A  
HETATM   17 CL   UNL     1     -13.422  15.507  71.765  1.00  0.00    -0.554 Cl 
HETATM   18  N   UNL     1      -9.667  12.482  66.062  1.00  0.00    -0.256 NA 
HETATM   19  C   UNL     1     -10.034  15.477  69.642  1.00  0.00    -0.287 A  
ENDBRANCH   4   5
ENDBRANCH   2   4
TORSDOF 2
ENDMDL
MODEL       78
REMARK 921   NORMALIZED FREE ENERGY PREDICTED BY IDOCK:   -4.32 KCAL/MOL
REMARK 922        TOTAL FREE ENERGY PREDICTED BY IDOCK:   -4.98 KCAL/MOL
REMARK 923 INTER-LIGAND FREE ENERGY PREDICTED BY IDOCK:   -4.74 KCAL/MOL
REMARK 924 INTRA-LIGAND FREE ENERGY PREDICTED BY IDOCK:   -0.24 KCAL/MOL
REMARK 927      BINDING AFFINITY PREDICTED BY RF-SCORE:    0.00 PKD
ROOT
HETATM    1  C   UNL     1      -8.580  13.973  67.761  1.00  0.00    -0.183 C  
HETATM    2  N   UNL     1      -7.735  12.821  67.431  1.00  0.00    -0.170 NA 
HETATM    3  C   UNL     1      -6.325  13.220  67.457  1.00  0.00    -0.121 C  
ENDROOT
BRANCH   2   4
HETATM    4  C   UNL     1      -7.944  11.698  68.364  1.00  0.00    -0.140 C  
BRANCH   4   5
HETATM    5  C   UNL     1      -8.068  10.322  67.695  1.00  0.00    -0.106 C  
HETATM    6  C   UNL     1      -9.522   9.887  67.382  1.00  0.00    -0.173 C  
HETATM    7  C   UNL     1     -10.182  10.793  66.346  1.00  0.00    -0.294 A  
HETATM    8  C   UNL     1      -9.570   8.411  66.986  1.00  0.00    -0.190 A  
HETATM    9  C   UNL     1      -9.668  10.904  65.043  1.00  0.00    -0.319 A  
HETATM   10  C   UNL     1     -10.731   7.668  67.211  1.00  0.00    -0.344 A  
HETATM   11  C   UNL     1     -10.735   6.311  66.894  1.00  0.00    -0.411 A  
HETATM   12  C   UNL     1     -10.249  11.778  64.120  1.00  0.00    -0.363 A  
HETATM   13  C   UNL     1      -9.595   5.731  66.359  1.00  0.00    -0.175 A  
HETATM   14  C   UNL     1     -11.354  12.539  64.489  1.00  0.00    -0.330 A  
HETATM   15  C   UNL     1      -8.491   6.538  66.144  1.00  0.00    -0.137 A  
HETATM   16  C   UNL     1     -11.889  12.430  65.770  1.00  0.00    -0.467 A  
HETATM   17 CL   UNL     1     -12.059  13.627  63.356  1.00  0.00    -0.400 Cl 
HETATM   18  N   UNL     1      -8.457   7.856  66.437  1.00  0.00    -0.131 NA 
HETATM   19  C   UNL     1     -11.305  11.562  66.697  1.00  0.00    -0.285 A  
ENDBRANCH   4   5
ENDBRANCH   2   4
TORSDOF 2
ENDMDL
MODEL       79
REMARK 921   NORMALIZED FREE ENERGY PREDICTED BY IDOCK:   -4.31 KCAL/MOL
REMARK 922        TOTAL FREE ENERGY PREDICTED BY IDOCK:   -4.98 KCAL/MOL
REMARK 923 INTER-LIGAND FREE ENERGY PREDICTED BY IDOCK:   -4.72 KCAL/MOL
REMARK 924 INTRA-LIGAND FREE ENERGY PREDICTED BY IDOCK:   -0.26 KCAL/MOL
REMARK 927      BINDING AFFINITY PREDICTED BY RF-SCORE:    0.00 PKD
ROOT
HETATM    1  C   UNL     1     -10.173  10.644  64.622  1.00  0.00    -0.334 C  
HETATM    2  N   UNL     1      -9.556   9.773  65.626  1.00  0.00    -0.244 NA 
HETATM    3  C   UNL     1      -8.464  10.488  66.295  1.00  0.00    -0.150 C  
ENDROOT
BRANCH   2   4
HETATM    4  C   UNL     1     -10.531   9.312  66.633  1.00  0.00    -0.167 C  
BRANCH   4   5
HETATM    5  C   UNL     1     -10.921  10.366  67.678  1.00  0.00    -0.374 C  
HETATM    6  C   UNL     1     -11.136   9.808  69.107  1.00  0.00    -0.158 C  
HETATM    7  C   UNL     1      -9.848   9.246  69.703  1.00  0.00    -0.196 A  
HETATM    8  C   UNL     1     -11.789  10.858  70.005  1.00  0.00    -0.347 A  
HETATM    9  C   UNL     1      -8.728  10.066  69.921  1.00  0.00    -0.169 A  
HETATM   10  C   UNL     1     -12.573  10.458  71.088  1.00  0.00    -0.512 A  
HETATM   11  C   UNL     1     -13.205  11.430  71.860  1.00  0.00    -0.485 A  
HETATM   12  C   UNL     1      -7.538   9.530  70.417  1.00  0.00    -0.169 A  
HETATM   13  C   UNL     1     -13.036  12.770  71.543  1.00  0.00    -0.380 A  
HETATM   14  C   UNL     1      -7.460   8.172  70.710  1.00  0.00    -0.066 A  
HETATM   15  C   UNL     1     -12.225  13.089  70.469  1.00  0.00    -0.313 A  
HETATM   16  C   UNL     1      -8.564   7.345  70.517  1.00  0.00    -0.139 A  
HETATM   17 CL   UNL     1      -5.987   7.508  71.306  1.00  0.00    -0.035 Cl 
HETATM   18  N   UNL     1     -11.597  12.170  69.704  1.00  0.00    -0.303 NA 
HETATM   19  C   UNL     1      -9.753   7.878  70.014  1.00  0.00    -0.179 A  
ENDBRANCH   4   5
ENDBRANCH   2   4
TORSDOF 2
ENDMDL
MODEL       80
REMARK 921   NORMALIZED FREE ENERGY PREDICTED BY IDOCK:   -4.30 KCAL/MOL
REMARK 922        TOTAL FREE ENERGY PREDICTED BY IDOCK:   -4.97 KCAL/MOL
REMARK 923 INTER-LIGAND FREE ENERGY PREDICTED BY IDOCK:   -4.73 KCAL/MOL
REMARK 924 INTRA-LIGAND FREE ENERGY PREDICTED BY IDOCK:   -0.24 KCAL/MOL
REMARK 927      BINDING AFFINITY PREDICTED BY RF-SCORE:    0.00 PKD
ROOT
HETATM    1  C   UNL     1     -12.052  14.989  72.239  1.00  0.00    -0.362 C  
HETATM    2  N   UNL     1     -12.113  15.117  70.780  1.00  0.00    -0.308 NA 
HETATM    3  C   UNL     1     -10.786  15.461  70.259  1.00  0.00    -0.311 C  
ENDROOT
BRANCH   2   4
HETATM    4  C   UNL     1     -12.587  13.878  70.136  1.00  0.00    -0.224 C  
BRANCH   4   5
HETATM    5  C   UNL     1     -11.479  12.884  69.763  1.00  0.00    -0.203 C  
HETATM    6  C   UNL     1     -11.647  12.224  68.371  1.00  0.00    -0.377 C  
HETATM    7  C   UNL     1     -11.543  13.241  67.237  1.00  0.00    -0.404 A  
HETATM    8  C   UNL     1     -10.673  11.058  68.204  1.00  0.00    -0.205 A  
HETATM    9  C   UNL     1     -10.365  13.976  67.024  1.00  0.00    -0.267 A  
HETATM   10  C   UNL     1     -10.992  10.001  67.350  1.00  0.00    -0.258 A  
HETATM   11  C   UNL     1     -10.116   8.922  67.255  1.00  0.00    -0.303 A  
HETATM   12  C   UNL     1     -10.300  14.942  66.017  1.00  0.00    -0.313 A  
HETATM   13  C   UNL     1      -8.947   8.923  68.003  1.00  0.00    -0.140 A  
HETATM   14  C   UNL     1     -11.408  15.174  65.208  1.00  0.00    -0.318 A  
HETATM   15  C   UNL     1      -8.690  10.018  68.809  1.00  0.00    -0.136 A  
HETATM   16  C   UNL     1     -12.580  14.444  65.392  1.00  0.00    -0.339 A  
HETATM   17 CL   UNL     1     -11.332  16.376  63.978  1.00  0.00     0.163 Cl 
HETATM   18  N   UNL     1      -9.517  11.079  68.919  1.00  0.00    -0.184 NA 
HETATM   19  C   UNL     1     -12.649  13.482  66.403  1.00  0.00    -0.244 A  
ENDBRANCH   4   5
ENDBRANCH   2   4
TORSDOF 2
ENDMDL
MODEL       81
REMARK 921   NORMALIZED FREE ENERGY PREDICTED BY IDOCK:   -4.29 KCAL/MOL
REMARK 922        TOTAL FREE ENERGY PREDICTED BY IDOCK:   -4.95 KCAL/MOL
REMARK 923 INTER-LIGAND FREE ENERGY PREDICTED BY IDOCK:   -4.80 KCAL/MOL
REMARK 924 INTRA-LIGAND FREE ENERGY PREDICTED BY IDOCK:   -0.15 KCAL/MOL
REMARK 927      BINDING AFFINITY PREDICTED BY RF-SCORE:    0.00 PKD
ROOT
HETATM    1  C   UNL     1      -9.683   7.843  66.345  1.00  0.00    -0.165 C  
HETATM    2  N   UNL     1     -10.730   7.164  67.114  1.00  0.00    -0.340 NA 
HETATM    3  C   UNL     1     -10.730   5.734  66.793  1.00  0.00    -0.297 C  
ENDROOT
BRANCH   2   4
HETATM    4  C   UNL     1     -10.551   7.341  68.568  1.00  0.00    -0.175 C  
BRANCH   4   5
HETATM    5  C   UNL     1     -10.825   8.761  69.080  1.00  0.00    -0.074 C  
HETATM    6  C   UNL     1     -11.395   8.827  70.520  1.00  0.00    -0.255 C  
HETATM    7  C   UNL     1     -10.400   8.313  71.556  1.00  0.00    -0.276 A  
HETATM    8  C   UNL     1     -11.898  10.235  70.838  1.00  0.00    -0.377 A  
HETATM    9  C   UNL     1      -9.159   8.944  71.749  1.00  0.00    -0.241 A  
HETATM   10  C   UNL     1     -12.919  10.415  71.773  1.00  0.00    -0.580 A  
HETATM   11  C   UNL     1     -13.401  11.702  72.007  1.00  0.00    -0.405 A  
HETATM   12  C   UNL     1      -8.234   8.432  72.662  1.00  0.00    -0.190 A  
HETATM   13  C   UNL     1     -12.855  12.772  71.314  1.00  0.00    -0.355 A  
HETATM   14  C   UNL     1      -8.545   7.292  73.397  1.00  0.00    -0.141 A  
HETATM   15  C   UNL     1     -11.830  12.516  70.420  1.00  0.00    -0.160 A  
HETATM   16  C   UNL     1      -9.776   6.662  73.233  1.00  0.00    -0.189 A  
HETATM   17 CL   UNL     1      -7.398   6.653  74.510  1.00  0.00    -0.102 Cl 
HETATM   18  N   UNL     1     -11.339  11.282  70.174  1.00  0.00    -0.228 NA 
HETATM   19  C   UNL     1     -10.700   7.168  72.315  1.00  0.00    -0.252 A  
ENDBRANCH   4   5
ENDBRANCH   2   4
TORSDOF 2
ENDMDL
MODEL       82
REMARK 921   NORMALIZED FREE ENERGY PREDICTED BY IDOCK:   -4.29 KCAL/MOL
REMARK 922        TOTAL FREE ENERGY PREDICTED BY IDOCK:   -4.95 KCAL/MOL
REMARK 923 INTER-LIGAND FREE ENERGY PREDICTED BY IDOCK:   -4.59 KCAL/MOL
REMARK 924 INTRA-LIGAND FREE ENERGY PREDICTED BY IDOCK:   -0.37 KCAL/MOL
REMARK 927      BINDING AFFINITY PREDICTED BY RF-SCORE:    0.00 PKD
ROOT
HETATM    1  C   UNL     1     -12.739  11.769  63.744  1.00  0.00    -0.255 C  
HETATM    2  N   UNL     1     -12.229  13.100  64.085  1.00  0.00    -0.521 NA 
HETATM    3  C   UNL     1     -12.727  13.495  65.407  1.00  0.00    -0.442 C  
ENDROOT
BRANCH   2   4
HETATM    4  C   UNL     1     -10.754  13.144  64.083  1.00  0.00    -0.374 C  
BRANCH   4   5
HETATM    5  C   UNL     1     -10.071  11.785  64.283  1.00  0.00    -0.326 C  
HETATM    6  C   UNL     1      -9.177  11.693  65.545  1.00  0.00    -0.111 C  
HETATM    7  C   UNL     1      -9.985  11.822  66.832  1.00  0.00    -0.220 A  
HETATM    8  C   UNL     1      -8.325  10.424  65.512  1.00  0.00    -0.168 A  
HETATM    9  C   UNL     1     -10.981  10.889  67.164  1.00  0.00    -0.334 A  
HETATM   10  C   UNL     1      -7.098  10.391  66.177  1.00  0.00    -0.130 A  
HETATM   11  C   UNL     1      -6.312   9.244  66.088  1.00  0.00    -0.064 A  
HETATM   12  C   UNL     1     -11.752  11.048  68.318  1.00  0.00    -0.301 A  
HETATM   13  C   UNL     1      -6.766   8.161  65.350  1.00  0.00    -0.052 A  
HETATM   14  C   UNL     1     -11.525  12.136  69.157  1.00  0.00    -0.296 A  
HETATM   15  C   UNL     1      -8.003   8.261  64.738  1.00  0.00    -0.146 A  
HETATM   16  C   UNL     1     -10.531  13.063  68.855  1.00  0.00    -0.110 A  
HETATM   17 CL   UNL     1     -12.486  12.340  70.571  1.00  0.00    -0.321 Cl 
HETATM   18  N   UNL     1      -8.789   9.357  64.808  1.00  0.00    -0.201 NA 
HETATM   19  C   UNL     1      -9.764  12.909  67.697  1.00  0.00    -0.212 A  
ENDBRANCH   4   5
ENDBRANCH   2   4
TORSDOF 2
ENDMDL
MODEL       83
REMARK 921   NORMALIZED FREE ENERGY PREDICTED BY IDOCK:   -4.29 KCAL/MOL
REMARK 922        TOTAL FREE ENERGY PREDICTED BY IDOCK:   -4.95 KCAL/MOL
REMARK 923 INTER-LIGAND FREE ENERGY PREDICTED BY IDOCK:   -4.73 KCAL/MOL
REMARK 924 INTRA-LIGAND FREE ENERGY PREDICTED BY IDOCK:   -0.22 KCAL/MOL
REMARK 927      BINDING AFFINITY PREDICTED BY RF-SCORE:    0.00 PKD
ROOT
HETATM    1  C   UNL     1      -6.524   8.425  72.587  1.00  0.00    -0.091 C  
HETATM    2  N   UNL     1      -7.266   7.338  73.230  1.00  0.00    -0.072 NA 
HETATM    3  C   UNL     1      -7.989   7.856  74.397  1.00  0.00    -0.234 C  
ENDROOT
BRANCH   2   4
HETATM    4  C   UNL     1      -8.221   6.698  72.306  1.00  0.00    -0.104 C  
BRANCH   4   5
HETATM    5  C   UNL     1      -9.629   7.310  72.313  1.00  0.00    -0.173 C  
HETATM    6  C   UNL     1      -9.927   8.255  71.122  1.00  0.00    -0.230 C  
HETATM    7  C   UNL     1      -9.919   7.516  69.787  1.00  0.00    -0.186 A  
HETATM    8  C   UNL     1     -11.224   9.028  71.357  1.00  0.00    -0.324 A  
HETATM    9  C   UNL     1     -10.834   6.483  69.521  1.00  0.00    -0.360 A  
HETATM   10  C   UNL     1     -11.404  10.281  70.767  1.00  0.00    -0.421 A  
HETATM   11  C   UNL     1     -12.570  10.994  71.039  1.00  0.00    -0.512 A  
HETATM   12  C   UNL     1     -10.783   5.778  68.316  1.00  0.00    -0.285 A  
HETATM   13  C   UNL     1     -13.526  10.444  71.881  1.00  0.00    -0.384 A  
HETATM   14  C   UNL     1      -9.824   6.106  67.362  1.00  0.00    -0.132 A  
HETATM   15  C   UNL     1     -13.285   9.187  72.409  1.00  0.00    -0.444 A  
HETATM   16  C   UNL     1      -8.918   7.137  67.600  1.00  0.00    -0.125 A  
HETATM   17 CL   UNL     1      -9.751   5.225  65.885  1.00  0.00    -0.155 Cl 
HETATM   18  N   UNL     1     -12.167   8.471  72.161  1.00  0.00    -0.358 NA 
HETATM   19  C   UNL     1      -8.964   7.839  68.807  1.00  0.00    -0.141 A  
ENDBRANCH   4   5
ENDBRANCH   2   4
TORSDOF 2
ENDMDL
MODEL       84
REMARK 921   NORMALIZED FREE ENERGY PREDICTED BY IDOCK:   -4.27 KCAL/MOL
REMARK 922        TOTAL FREE ENERGY PREDICTED BY IDOCK:   -4.93 KCAL/MOL
REMARK 923 INTER-LIGAND FREE ENERGY PREDICTED BY IDOCK:   -4.71 KCAL/MOL
REMARK 924 INTRA-LIGAND FREE ENERGY PREDICTED BY IDOCK:   -0.23 KCAL/MOL
REMARK 927      BINDING AFFINITY PREDICTED BY RF-SCORE:    0.00 PKD
ROOT
HETATM    1  C   UNL     1      -8.651   5.797  65.652  1.00  0.00    -0.151 C  
HETATM    2  N   UNL     1      -9.516   6.668  66.453  1.00  0.00    -0.154 NA 
HETATM    3  C   UNL     1     -10.717   5.931  66.860  1.00  0.00    -0.321 C  
ENDROOT
BRANCH   2   4
HETATM    4  C   UNL     1      -8.826   7.182  67.651  1.00  0.00    -0.119 C  
BRANCH   4   5
HETATM    5  C   UNL     1      -8.978   8.692  67.881  1.00  0.00    -0.142 C  
HETATM    6  C   UNL     1     -10.267   9.103  68.636  1.00  0.00    -0.225 C  
HETATM    7  C   UNL     1     -10.287   8.570  70.066  1.00  0.00    -0.213 A  
HETATM    8  C   UNL     1     -10.473  10.615  68.570  1.00  0.00    -0.191 A  
HETATM    9  C   UNL     1      -9.315   8.960  71.002  1.00  0.00    -0.313 A  
HETATM   10  C   UNL     1     -11.762  11.146  68.651  1.00  0.00    -0.389 A  
HETATM   11  C   UNL     1     -11.933  12.524  68.533  1.00  0.00    -0.266 A  
HETATM   12  C   UNL     1      -9.313   8.424  72.293  1.00  0.00    -0.356 A  
HETATM   13  C   UNL     1     -10.824  13.337  68.345  1.00  0.00    -0.279 A  
HETATM   14  C   UNL     1     -10.289   7.504  72.662  1.00  0.00    -0.259 A  
HETATM   15  C   UNL     1      -9.578  12.738  68.298  1.00  0.00    -0.211 A  
HETATM   16  C   UNL     1     -11.273   7.118  71.754  1.00  0.00    -0.278 A  
HETATM   17 CL   UNL     1     -10.276   6.833  74.247  1.00  0.00    -0.376 Cl 
HETATM   18  N   UNL     1      -9.379  11.407  68.413  1.00  0.00    -0.189 NA 
HETATM   19  C   UNL     1     -11.272   7.647  70.461  1.00  0.00    -0.275 A  
ENDBRANCH   4   5
ENDBRANCH   2   4
TORSDOF 2
ENDMDL
MODEL       85
REMARK 921   NORMALIZED FREE ENERGY PREDICTED BY IDOCK:   -4.27 KCAL/MOL
REMARK 922        TOTAL FREE ENERGY PREDICTED BY IDOCK:   -4.93 KCAL/MOL
REMARK 923 INTER-LIGAND FREE ENERGY PREDICTED BY IDOCK:   -4.77 KCAL/MOL
REMARK 924 INTRA-LIGAND FREE ENERGY PREDICTED BY IDOCK:   -0.16 KCAL/MOL
REMARK 927      BINDING AFFINITY PREDICTED BY RF-SCORE:    0.00 PKD
ROOT
HETATM    1  C   UNL     1     -12.858   9.395  71.410  1.00  0.00    -0.345 C  
HETATM    2  N   UNL     1     -11.472   9.803  71.160  1.00  0.00    -0.373 NA 
HETATM    3  C   UNL     1     -10.559   8.921  71.893  1.00  0.00    -0.349 C  
ENDROOT
BRANCH   2   4
HETATM    4  C   UNL     1     -11.137   9.771  69.723  1.00  0.00    -0.237 C  
BRANCH   4   5
HETATM    5  C   UNL     1     -11.338  11.103  68.988  1.00  0.00    -0.343 C  
HETATM    6  C   UNL     1     -10.045  11.710  68.389  1.00  0.00    -0.207 C  
HETATM    7  C   UNL     1      -9.458  10.835  67.285  1.00  0.00    -0.177 A  
HETATM    8  C   UNL     1     -10.284  13.148  67.932  1.00  0.00    -0.233 A  
HETATM    9  C   UNL     1     -10.176  10.568  66.108  1.00  0.00    -0.299 A  
HETATM   10  C   UNL     1      -9.223  14.055  67.904  1.00  0.00    -0.195 A  
HETATM   11  C   UNL     1      -9.473  15.376  67.538  1.00  0.00    -0.205 A  
HETATM   12  C   UNL     1      -9.651   9.721  65.128  1.00  0.00    -0.356 A  
HETATM   13  C   UNL     1     -10.764  15.760  67.204  1.00  0.00    -0.312 A  
HETATM   14  C   UNL     1      -8.398   9.144  65.312  1.00  0.00    -0.146 A  
HETATM   15  C   UNL     1     -11.758  14.797  67.234  1.00  0.00    -0.347 A  
HETATM   16  C   UNL     1      -7.662   9.409  66.465  1.00  0.00    -0.094 A  
HETATM   17 CL   UNL     1      -7.759   8.088  64.112  1.00  0.00    -0.123 Cl 
HETATM   18  N   UNL     1     -11.546  13.510  67.580  1.00  0.00    -0.318 NA 
HETATM   19  C   UNL     1      -8.189  10.250  67.449  1.00  0.00    -0.114 A  
ENDBRANCH   4   5
ENDBRANCH   2   4
TORSDOF 2
ENDMDL
MODEL       86
REMARK 921   NORMALIZED FREE ENERGY PREDICTED BY IDOCK:   -4.26 KCAL/MOL
REMARK 922        TOTAL FREE ENERGY PREDICTED BY IDOCK:   -4.92 KCAL/MOL
REMARK 923 INTER-LIGAND FREE ENERGY PREDICTED BY IDOCK:   -4.77 KCAL/MOL
REMARK 924 INTRA-LIGAND FREE ENERGY PREDICTED BY IDOCK:   -0.16 KCAL/MOL
REMARK 927      BINDING AFFINITY PREDICTED BY RF-SCORE:    0.00 PKD
ROOT
HETATM    1  C   UNL     1      -6.517   5.196  70.016  1.00  0.00    -0.035 C  
HETATM    2  N   UNL     1      -7.655   5.311  70.932  1.00  0.00    -0.085 NA 
HETATM    3  C   UNL     1      -7.270   4.827  72.262  1.00  0.00    -0.080 C  
ENDROOT
BRANCH   2   4
HETATM    4  C   UNL     1      -8.142   6.700  71.037  1.00  0.00    -0.119 C  
BRANCH   4   5
HETATM    5  C   UNL     1      -9.666   6.839  71.155  1.00  0.00    -0.181 C  
HETATM    6  C   UNL     1     -10.218   8.233  70.765  1.00  0.00    -0.219 C  
HETATM    7  C   UNL     1      -9.994   8.546  69.288  1.00  0.00    -0.195 A  
HETATM    8  C   UNL     1     -11.683   8.369  71.178  1.00  0.00    -0.280 A  
HETATM    9  C   UNL     1     -10.574   7.757  68.281  1.00  0.00    -0.169 A  
HETATM   10  C   UNL     1     -12.212   9.630  71.460  1.00  0.00    -0.483 A  
HETATM   11  C   UNL     1     -13.534   9.726  71.888  1.00  0.00    -0.485 A  
HETATM   12  C   UNL     1     -10.318   8.020  66.933  1.00  0.00    -0.408 A  
HETATM   13  C   UNL     1     -14.296   8.574  72.020  1.00  0.00    -0.537 A  
HETATM   14  C   UNL     1      -9.490   9.082  66.581  1.00  0.00    -0.194 A  
HETATM   15  C   UNL     1     -13.707   7.363  71.700  1.00  0.00    -0.373 A  
HETATM   16  C   UNL     1      -8.919   9.886  67.563  1.00  0.00    -0.141 A  
HETATM   17 CL   UNL     1      -9.162   9.395  64.920  1.00  0.00    -0.274 Cl 
HETATM   18  N   UNL     1     -12.430   7.238  71.278  1.00  0.00    -0.361 NA 
HETATM   19  C   UNL     1      -9.167   9.620  68.912  1.00  0.00    -0.147 A  
ENDBRANCH   4   5
ENDBRANCH   2   4
TORSDOF 2
ENDMDL
MODEL       87
REMARK 921   NORMALIZED FREE ENERGY PREDICTED BY IDOCK:   -4.26 KCAL/MOL
REMARK 922        TOTAL FREE ENERGY PREDICTED BY IDOCK:   -4.92 KCAL/MOL
REMARK 923 INTER-LIGAND FREE ENERGY PREDICTED BY IDOCK:   -4.75 KCAL/MOL
REMARK 924 INTRA-LIGAND FREE ENERGY PREDICTED BY IDOCK:   -0.17 KCAL/MOL
REMARK 927      BINDING AFFINITY PREDICTED BY RF-SCORE:    0.00 PKD
ROOT
HETATM    1  C   UNL     1      -8.562  18.468  67.430  1.00  0.00    -0.258 C  
HETATM    2  N   UNL     1     -10.001  18.240  67.272  1.00  0.00    -0.320 NA 
HETATM    3  C   UNL     1     -10.490  18.972  66.099  1.00  0.00    -0.467 C  
ENDROOT
BRANCH   2   4
HETATM    4  C   UNL     1     -10.321  16.807  67.125  1.00  0.00    -0.297 C  
BRANCH   4   5
HETATM    5  C   UNL     1      -9.106  15.871  67.165  1.00  0.00    -0.226 C  
HETATM    6  C   UNL     1      -9.440  14.396  67.502  1.00  0.00    -0.207 C  
HETATM    7  C   UNL     1     -10.298  13.741  66.423  1.00  0.00    -0.290 A  
HETATM    8  C   UNL     1      -8.166  13.607  67.798  1.00  0.00    -0.179 A  
HETATM    9  C   UNL     1      -9.827  13.596  65.107  1.00  0.00    -0.115 A  
HETATM   10  C   UNL     1      -8.215  12.495  68.641  1.00  0.00     0.001 A  
HETATM   11  C   UNL     1      -7.032  11.823  68.942  1.00  0.00    -0.109 A  
HETATM   12  C   UNL     1     -10.641  13.044  64.115  1.00  0.00    -0.421 A  
HETATM   13  C   UNL     1      -5.836  12.266  68.395  1.00  0.00    -0.054 A  
HETATM   14  C   UNL     1     -11.929  12.622  64.433  1.00  0.00    -0.400 A  
HETATM   15  C   UNL     1      -5.872  13.361  67.550  1.00  0.00    -0.016 A  
HETATM   16  C   UNL     1     -12.409  12.741  65.735  1.00  0.00    -0.388 A  
HETATM   17 CL   UNL     1     -12.937  11.957  63.206  1.00  0.00    -0.436 Cl 
HETATM   18  N   UNL     1      -7.002  14.031  67.236  1.00  0.00    -0.158 NA 
HETATM   19  C   UNL     1     -11.598  13.300  66.726  1.00  0.00    -0.408 A  
ENDBRANCH   4   5
ENDBRANCH   2   4
TORSDOF 2
ENDMDL
MODEL       88
REMARK 921   NORMALIZED FREE ENERGY PREDICTED BY IDOCK:   -4.24 KCAL/MOL
REMARK 922        TOTAL FREE ENERGY PREDICTED BY IDOCK:   -4.90 KCAL/MOL
REMARK 923 INTER-LIGAND FREE ENERGY PREDICTED BY IDOCK:   -4.71 KCAL/MOL
REMARK 924 INTRA-LIGAND FREE ENERGY PREDICTED BY IDOCK:   -0.19 KCAL/MOL
REMARK 927      BINDING AFFINITY PREDICTED BY RF-SCORE:    0.00 PKD
ROOT
HETATM    1  C   UNL     1      -9.316   5.795  66.414  1.00  0.00    -0.156 C  
HETATM    2  N   UNL     1     -10.065   5.026  67.413  1.00  0.00    -0.179 NA 
HETATM    3  C   UNL     1      -9.198   4.000  67.999  1.00  0.00    -0.154 C  
ENDROOT
BRANCH   2   4
HETATM    4  C   UNL     1     -10.601   5.887  68.484  1.00  0.00    -0.252 C  
BRANCH   4   5
HETATM    5  C   UNL     1     -10.632   5.237  69.874  1.00  0.00    -0.292 C  
HETATM    6  C   UNL     1     -10.029   6.107  71.005  1.00  0.00    -0.221 C  
HETATM    7  C   UNL     1     -10.837   7.380  71.243  1.00  0.00    -0.258 A  
HETATM    8  C   UNL     1      -9.842   5.284  72.280  1.00  0.00    -0.168 A  
HETATM    9  C   UNL     1     -12.177   7.324  71.659  1.00  0.00    -0.377 A  
HETATM   10  C   UNL     1      -8.848   5.634  73.195  1.00  0.00    -0.122 A  
HETATM   11  C   UNL     1      -8.658   4.838  74.323  1.00  0.00    -0.107 A  
HETATM   12  C   UNL     1     -12.923   8.494  71.821  1.00  0.00    -0.380 A  
HETATM   13  C   UNL     1      -9.461   3.723  74.515  1.00  0.00    -0.132 A  
HETATM   14  C   UNL     1     -12.331   9.731  71.580  1.00  0.00    -0.408 A  
HETATM   15  C   UNL     1     -10.440   3.455  73.574  1.00  0.00    -0.174 A  
HETATM   16  C   UNL     1     -10.998   9.809  71.184  1.00  0.00    -0.386 A  
HETATM   17 CL   UNL     1     -13.255  11.171  71.765  1.00  0.00    -0.534 Cl 
HETATM   18  N   UNL     1     -10.650   4.209  72.474  1.00  0.00    -0.135 NA 
HETATM   19  C   UNL     1     -10.253   8.639  71.014  1.00  0.00    -0.278 A  
ENDBRANCH   4   5
ENDBRANCH   2   4
TORSDOF 2
ENDMDL
MODEL       89
REMARK 921   NORMALIZED FREE ENERGY PREDICTED BY IDOCK:   -4.24 KCAL/MOL
REMARK 922        TOTAL FREE ENERGY PREDICTED BY IDOCK:   -4.90 KCAL/MOL
REMARK 923 INTER-LIGAND FREE ENERGY PREDICTED BY IDOCK:   -4.57 KCAL/MOL
REMARK 924 INTRA-LIGAND FREE ENERGY PREDICTED BY IDOCK:   -0.33 KCAL/MOL
REMARK 927      BINDING AFFINITY PREDICTED BY RF-SCORE:    0.00 PKD
ROOT
HETATM    1  C   UNL     1     -10.292   5.487  66.526  1.00  0.00    -0.256 C  
HETATM    2  N   UNL     1      -9.977   5.225  67.934  1.00  0.00    -0.156 NA 
HETATM    3  C   UNL     1      -9.287   3.937  68.053  1.00  0.00    -0.174 C  
ENDROOT
BRANCH   2   4
HETATM    4  C   UNL     1      -9.138   6.287  68.519  1.00  0.00    -0.125 C  
BRANCH   4   5
HETATM    5  C   UNL     1      -9.902   7.320  69.358  1.00  0.00    -0.163 C  
HETATM    6  C   UNL     1     -10.847   6.712  70.425  1.00  0.00    -0.316 C  
HETATM    7  C   UNL     1     -10.080   5.948  71.501  1.00  0.00    -0.238 A  
HETATM    8  C   UNL     1     -11.766   7.784  71.009  1.00  0.00    -0.281 A  
HETATM    9  C   UNL     1      -9.151   6.596  72.332  1.00  0.00    -0.139 A  
HETATM   10  C   UNL     1     -13.016   7.428  71.517  1.00  0.00    -0.421 A  
HETATM   11  C   UNL     1     -13.861   8.429  71.993  1.00  0.00    -0.439 A  
HETATM   12  C   UNL     1      -8.416   5.877  73.277  1.00  0.00    -0.118 A  
HETATM   13  C   UNL     1     -13.442   9.751  71.959  1.00  0.00    -0.498 A  
HETATM   14  C   UNL     1      -8.612   4.505  73.408  1.00  0.00    -0.101 A  
HETATM   15  C   UNL     1     -12.179  10.021  71.461  1.00  0.00    -0.405 A  
HETATM   16  C   UNL     1      -9.541   3.847  72.607  1.00  0.00    -0.188 A  
HETATM   17 CL   UNL     1      -7.694   3.617  74.562  1.00  0.00    -0.062 Cl 
HETATM   18  N   UNL     1     -11.336   9.074  70.996  1.00  0.00    -0.278 NA 
HETATM   19  C   UNL     1     -10.272   4.563  71.655  1.00  0.00    -0.214 A  
ENDBRANCH   4   5
ENDBRANCH   2   4
TORSDOF 2
ENDMDL
MODEL       90
REMARK 921   NORMALIZED FREE ENERGY PREDICTED BY IDOCK:   -4.22 KCAL/MOL
REMARK 922        TOTAL FREE ENERGY PREDICTED BY IDOCK:   -4.88 KCAL/MOL
REMARK 923 INTER-LIGAND FREE ENERGY PREDICTED BY IDOCK:   -4.70 KCAL/MOL
REMARK 924 INTRA-LIGAND FREE ENERGY PREDICTED BY IDOCK:   -0.18 KCAL/MOL
REMARK 927      BINDING AFFINITY PREDICTED BY RF-SCORE:    0.00 PKD
ROOT
HETATM    1  C   UNL     1      -5.739  14.635  69.551  1.00  0.00    -0.095 C  
HETATM    2  N   UNL     1      -5.818  14.378  68.110  1.00  0.00    -0.123 NA 
HETATM    3  C   UNL     1      -5.902  12.934  67.870  1.00  0.00    -0.123 C  
ENDROOT
BRANCH   2   4
HETATM    4  C   UNL     1      -6.980  15.047  67.493  1.00  0.00    -0.186 C  
BRANCH   4   5
HETATM    5  C   UNL     1      -8.344  14.525  67.962  1.00  0.00    -0.153 C  
HETATM    6  C   UNL     1      -9.193  15.556  68.748  1.00  0.00    -0.210 C  
HETATM    7  C   UNL     1      -9.599  16.745  67.882  1.00  0.00    -0.236 A  
HETATM    8  C   UNL     1     -10.390  14.878  69.411  1.00  0.00    -0.208 A  
HETATM    9  C   UNL     1     -10.405  16.575  66.744  1.00  0.00    -0.296 A  
HETATM   10  C   UNL     1     -10.941  15.419  70.574  1.00  0.00    -0.350 A  
HETATM   11  C   UNL     1     -11.997  14.754  71.194  1.00  0.00    -0.392 A  
HETATM   12  C   UNL     1     -10.725  17.663  65.928  1.00  0.00    -0.113 A  
HETATM   13  C   UNL     1     -12.481  13.577  70.642  1.00  0.00    -0.405 A  
HETATM   14  C   UNL     1     -10.253  18.932  66.249  1.00  0.00    -0.438 A  
HETATM   15  C   UNL     1     -11.897  13.115  69.475  1.00  0.00    -0.322 A  
HETATM   16  C   UNL     1      -9.466  19.124  67.382  1.00  0.00    -0.362 A  
HETATM   17 CL   UNL     1     -10.635  20.269  65.235  1.00  0.00    -0.158 Cl 
HETATM   18  N   UNL     1     -10.876  13.739  68.850  1.00  0.00    -0.249 NA 
HETATM   19  C   UNL     1      -9.139  18.036  68.195  1.00  0.00    -0.279 A  
ENDBRANCH   4   5
ENDBRANCH   2   4
TORSDOF 2
ENDMDL
MODEL       91
REMARK 921   NORMALIZED FREE ENERGY PREDICTED BY IDOCK:   -4.22 KCAL/MOL
REMARK 922        TOTAL FREE ENERGY PREDICTED BY IDOCK:   -4.87 KCAL/MOL
REMARK 923 INTER-LIGAND FREE ENERGY PREDICTED BY IDOCK:   -4.63 KCAL/MOL
REMARK 924 INTRA-LIGAND FREE ENERGY PREDICTED BY IDOCK:   -0.24 KCAL/MOL
REMARK 927      BINDING AFFINITY PREDICTED BY RF-SCORE:    0.00 PKD
ROOT
HETATM    1  C   UNL     1     -12.203  13.844  63.721  1.00  0.00    -0.261 C  
HETATM    2  N   UNL     1     -12.667  13.084  64.885  1.00  0.00    -0.706 NA 
HETATM    3  C   UNL     1     -11.967  11.797  64.945  1.00  0.00     0.004 C  
ENDROOT
BRANCH   2   4
HETATM    4  C   UNL     1     -12.453  13.819  66.146  1.00  0.00    -0.418 C  
BRANCH   4   5
HETATM    5  C   UNL     1     -11.106  14.548  66.243  1.00  0.00    -0.332 C  
HETATM    6  C   UNL     1     -10.341  14.314  67.570  1.00  0.00    -0.248 C  
HETATM    7  C   UNL     1      -9.915  12.859  67.738  1.00  0.00    -0.230 A  
HETATM    8  C   UNL     1      -9.169  15.287  67.697  1.00  0.00    -0.187 A  
HETATM    9  C   UNL     1      -9.033  12.249  66.831  1.00  0.00    -0.207 A  
HETATM   10  C   UNL     1      -8.710  15.663  68.960  1.00  0.00    -0.240 A  
HETATM   11  C   UNL     1      -7.677  16.594  69.054  1.00  0.00    -0.221 A  
HETATM   12  C   UNL     1      -8.692  10.900  66.964  1.00  0.00    -0.141 A  
HETATM   13  C   UNL     1      -7.124  17.119  67.895  1.00  0.00    -0.170 A  
HETATM   14  C   UNL     1      -9.222  10.153  68.012  1.00  0.00    -0.138 A  
HETATM   15  C   UNL     1      -7.618  16.680  66.679  1.00  0.00    -0.279 A  
HETATM   16  C   UNL     1     -10.085  10.744  68.932  1.00  0.00    -0.217 A  
HETATM   17 CL   UNL     1      -8.815   8.488  68.166  1.00  0.00    -0.142 Cl 
HETATM   18  N   UNL     1      -8.615  15.777  66.556  1.00  0.00    -0.286 NA 
HETATM   19  C   UNL     1     -10.432  12.090  68.796  1.00  0.00    -0.207 A  
ENDBRANCH   4   5
ENDBRANCH   2   4
TORSDOF 2
ENDMDL
MODEL       92
REMARK 921   NORMALIZED FREE ENERGY PREDICTED BY IDOCK:   -4.20 KCAL/MOL
REMARK 922        TOTAL FREE ENERGY PREDICTED BY IDOCK:   -4.85 KCAL/MOL
REMARK 923 INTER-LIGAND FREE ENERGY PREDICTED BY IDOCK:   -4.67 KCAL/MOL
REMARK 924 INTRA-LIGAND FREE ENERGY PREDICTED BY IDOCK:   -0.18 KCAL/MOL
REMARK 927      BINDING AFFINITY PREDICTED BY RF-SCORE:    0.00 PKD
ROOT
HETATM    1  C   UNL     1     -11.704  13.579  69.696  1.00  0.00    -0.314 C  
HETATM    2  N   UNL     1     -12.032  12.808  68.494  1.00  0.00    -0.284 NA 
HETATM    3  C   UNL     1     -11.777  13.622  67.301  1.00  0.00    -0.380 C  
ENDROOT
BRANCH   2   4
HETATM    4  C   UNL     1     -11.253  11.557  68.410  1.00  0.00    -0.255 C  
BRANCH   4   5
HETATM    5  C   UNL     1     -10.791  11.183  66.996  1.00  0.00    -0.338 C  
HETATM    6  C   UNL     1      -9.491  10.341  66.945  1.00  0.00    -0.200 C  
HETATM    7  C   UNL     1      -9.672   8.967  67.583  1.00  0.00    -0.202 A  
HETATM    8  C   UNL     1      -8.956  10.258  65.516  1.00  0.00    -0.173 A  
HETATM    9  C   UNL     1     -10.591   8.039  67.065  1.00  0.00    -0.364 A  
HETATM   10  C   UNL     1      -7.590  10.076  65.293  1.00  0.00    -0.137 A  
HETATM   11  C   UNL     1      -7.116  10.059  63.983  1.00  0.00    -0.126 A  
HETATM   12  C   UNL     1     -10.787   6.805  67.690  1.00  0.00    -0.361 A  
HETATM   13  C   UNL     1      -8.008  10.216  62.931  1.00  0.00    -0.148 A  
HETATM   14  C   UNL     1     -10.058   6.483  68.831  1.00  0.00    -0.164 A  
HETATM   15  C   UNL     1      -9.350  10.368  63.232  1.00  0.00    -0.304 A  
HETATM   16  C   UNL     1      -9.130   7.382  69.350  1.00  0.00    -0.139 A  
HETATM   17 CL   UNL     1     -10.312   4.969  69.609  1.00  0.00    -0.316 Cl 
HETATM   18  N   UNL     1      -9.840  10.385  64.490  1.00  0.00    -0.330 NA 
HETATM   19  C   UNL     1      -8.938   8.620  68.731  1.00  0.00    -0.138 A  
ENDBRANCH   4   5
ENDBRANCH   2   4
TORSDOF 2
ENDMDL
MODEL       93
REMARK 921   NORMALIZED FREE ENERGY PREDICTED BY IDOCK:   -4.20 KCAL/MOL
REMARK 922        TOTAL FREE ENERGY PREDICTED BY IDOCK:   -4.85 KCAL/MOL
REMARK 923 INTER-LIGAND FREE ENERGY PREDICTED BY IDOCK:   -4.58 KCAL/MOL
REMARK 924 INTRA-LIGAND FREE ENERGY PREDICTED BY IDOCK:   -0.26 KCAL/MOL
REMARK 927      BINDING AFFINITY PREDICTED BY RF-SCORE:    0.00 PKD
ROOT
HETATM    1  C   UNL     1     -13.043  11.442  71.963  1.00  0.00    -0.318 C  
HETATM    2  N   UNL     1     -13.101  10.420  70.914  1.00  0.00    -0.379 NA 
HETATM    3  C   UNL     1     -12.139  10.744  69.856  1.00  0.00    -0.337 C  
ENDROOT
BRANCH   2   4
HETATM    4  C   UNL     1     -12.816   9.071  71.441  1.00  0.00    -0.300 C  
BRANCH   4   5
HETATM    5  C   UNL     1     -11.433   8.914  72.088  1.00  0.00    -0.387 C  
HETATM    6  C   UNL     1     -10.766   7.535  71.855  1.00  0.00    -0.253 C  
HETATM    7  C   UNL     1     -10.446   7.294  70.382  1.00  0.00    -0.232 A  
HETATM    8  C   UNL     1      -9.544   7.367  72.756  1.00  0.00    -0.165 A  
HETATM    9  C   UNL     1      -9.552   8.124  69.686  1.00  0.00    -0.168 A  
HETATM   10  C   UNL     1      -9.139   6.090  73.149  1.00  0.00    -0.130 A  
HETATM   11  C   UNL     1      -8.055   5.962  74.016  1.00  0.00    -0.104 A  
HETATM   12  C   UNL     1      -9.308   7.926  68.325  1.00  0.00    -0.145 A  
HETATM   13  C   UNL     1      -7.401   7.101  74.464  1.00  0.00    -0.124 A  
HETATM   14  C   UNL     1      -9.947   6.889  67.651  1.00  0.00    -0.144 A  
HETATM   15  C   UNL     1      -7.847   8.330  74.012  1.00  0.00    -0.205 A  
HETATM   16  C   UNL     1     -10.824   6.045  68.327  1.00  0.00    -0.366 A  
HETATM   17 CL   UNL     1      -9.658   6.656  65.970  1.00  0.00    -0.012 Cl 
HETATM   18  N   UNL     1      -8.891   8.486  73.169  1.00  0.00    -0.337 NA 
HETATM   19  C   UNL     1     -11.075   6.246  69.687  1.00  0.00    -0.479 A  
ENDBRANCH   4   5
ENDBRANCH   2   4
TORSDOF 2
ENDMDL
MODEL       94
REMARK 921   NORMALIZED FREE ENERGY PREDICTED BY IDOCK:   -4.18 KCAL/MOL
REMARK 922        TOTAL FREE ENERGY PREDICTED BY IDOCK:   -4.83 KCAL/MOL
REMARK 923 INTER-LIGAND FREE ENERGY PREDICTED BY IDOCK:   -4.42 KCAL/MOL
REMARK 924 INTRA-LIGAND FREE ENERGY PREDICTED BY IDOCK:   -0.41 KCAL/MOL
REMARK 927      BINDING AFFINITY PREDICTED BY RF-SCORE:    0.00 PKD
ROOT
HETATM    1  C   UNL     1     -11.042   7.965  72.939  1.00  0.00    -0.379 C  
HETATM    2  N   UNL     1     -12.233   8.405  72.206  1.00  0.00    -0.372 NA 
HETATM    3  C   UNL     1     -11.981   9.713  71.595  1.00  0.00    -0.394 C  
ENDROOT
BRANCH   2   4
HETATM    4  C   UNL     1     -12.625   7.441  71.160  1.00  0.00    -0.293 C  
BRANCH   4   5
HETATM    5  C   UNL     1     -11.564   6.381  70.833  1.00  0.00    -0.393 C  
HETATM    6  C   UNL     1     -10.977   6.476  69.403  1.00  0.00    -0.395 C  
HETATM    7  C   UNL     1     -10.196   7.770  69.187  1.00  0.00    -0.210 A  
HETATM    8  C   UNL     1     -10.154   5.232  69.072  1.00  0.00    -0.202 A  
HETATM    9  C   UNL     1      -9.052   8.064  69.946  1.00  0.00    -0.145 A  
HETATM   10  C   UNL     1     -10.017   4.820  67.746  1.00  0.00    -0.169 A  
HETATM   11  C   UNL     1      -9.309   3.652  67.471  1.00  0.00    -0.244 A  
HETATM   12  C   UNL     1      -8.376   9.275  69.778  1.00  0.00    -0.143 A  
HETATM   13  C   UNL     1      -8.752   2.929  68.516  1.00  0.00    -0.138 A  
HETATM   14  C   UNL     1      -8.833  10.197  68.841  1.00  0.00    -0.154 A  
HETATM   15  C   UNL     1      -8.912   3.414  69.803  1.00  0.00    -0.111 A  
HETATM   16  C   UNL     1      -9.956   9.918  68.066  1.00  0.00    -0.179 A  
HETATM   17 CL   UNL     1      -8.010  11.697  68.645  1.00  0.00    -0.144 Cl 
HETATM   18  N   UNL     1      -9.589   4.544  70.100  1.00  0.00    -0.175 NA 
HETATM   19  C   UNL     1     -10.637   8.710  68.239  1.00  0.00    -0.181 A  
ENDBRANCH   4   5
ENDBRANCH   2   4
TORSDOF 2
ENDMDL
MODEL       95
REMARK 921   NORMALIZED FREE ENERGY PREDICTED BY IDOCK:   -4.17 KCAL/MOL
REMARK 922        TOTAL FREE ENERGY PREDICTED BY IDOCK:   -4.82 KCAL/MOL
REMARK 923 INTER-LIGAND FREE ENERGY PREDICTED BY IDOCK:   -4.47 KCAL/MOL
REMARK 924 INTRA-LIGAND FREE ENERGY PREDICTED BY IDOCK:   -0.34 KCAL/MOL
REMARK 927      BINDING AFFINITY PREDICTED BY RF-SCORE:    0.00 PKD
ROOT
HETATM    1  C   UNL     1      -6.191  10.519  67.095  1.00  0.00    -0.063 C  
HETATM    2  N   UNL     1      -6.591  11.686  67.886  1.00  0.00    -0.062 NA 
HETATM    3  C   UNL     1      -7.419  12.577  67.066  1.00  0.00    -0.003 C  
ENDROOT
BRANCH   2   4
HETATM    4  C   UNL     1      -7.337  11.302  69.100  1.00  0.00    -0.104 C  
BRANCH   4   5
HETATM    5  C   UNL     1      -8.098   9.975  68.992  1.00  0.00    -0.118 C  
HETATM    6  C   UNL     1      -9.583  10.046  69.430  1.00  0.00    -0.237 C  
HETATM    7  C   UNL     1     -10.408  10.949  68.517  1.00  0.00    -0.203 A  
HETATM    8  C   UNL     1     -10.176   8.644  69.561  1.00  0.00    -0.209 A  
HETATM    9  C   UNL     1     -10.565  10.656  67.152  1.00  0.00    -0.312 A  
HETATM   10  C   UNL     1     -11.234   8.415  70.443  1.00  0.00    -0.220 A  
HETATM   11  C   UNL     1     -11.723   7.118  70.588  1.00  0.00    -0.348 A  
HETATM   12  C   UNL     1     -11.277  11.519  66.315  1.00  0.00    -0.286 A  
HETATM   13  C   UNL     1     -11.157   6.088  69.851  1.00  0.00    -0.469 A  
HETATM   14  C   UNL     1     -11.848  12.675  66.838  1.00  0.00    -0.355 A  
HETATM   15  C   UNL     1     -10.127   6.399  68.980  1.00  0.00    -0.165 A  
HETATM   16  C   UNL     1     -11.719  12.975  68.192  1.00  0.00    -0.391 A  
HETATM   17 CL   UNL     1     -12.712  13.745  65.803  1.00  0.00    -0.522 Cl 
HETATM   18  N   UNL     1      -9.634   7.645  68.815  1.00  0.00    -0.152 NA 
HETATM   19  C   UNL     1     -11.001  12.117  69.029  1.00  0.00    -0.255 A  
ENDBRANCH   4   5
ENDBRANCH   2   4
TORSDOF 2
ENDMDL
MODEL       96
REMARK 921   NORMALIZED FREE ENERGY PREDICTED BY IDOCK:   -4.15 KCAL/MOL
REMARK 922        TOTAL FREE ENERGY PREDICTED BY IDOCK:   -4.79 KCAL/MOL
REMARK 923 INTER-LIGAND FREE ENERGY PREDICTED BY IDOCK:   -4.50 KCAL/MOL
REMARK 924 INTRA-LIGAND FREE ENERGY PREDICTED BY IDOCK:   -0.30 KCAL/MOL
REMARK 927      BINDING AFFINITY PREDICTED BY RF-SCORE:    0.00 PKD
ROOT
HETATM    1  C   UNL     1     -11.173  14.832  70.436  1.00  0.00    -0.169 C  
HETATM    2  N   UNL     1     -11.754  15.822  69.524  1.00  0.00    -0.358 NA 
HETATM    3  C   UNL     1     -10.762  16.859  69.224  1.00  0.00    -0.288 C  
ENDROOT
BRANCH   2   4
HETATM    4  C   UNL     1     -12.217  15.207  68.265  1.00  0.00     0.126 C  
BRANCH   4   5
HETATM    5  C   UNL     1     -11.662  13.803  67.994  1.00  0.00    -0.390 C  
HETATM    6  C   UNL     1     -10.655  13.724  66.819  1.00  0.00    -0.273 C  
HETATM    7  C   UNL     1      -9.378  14.510  67.103  1.00  0.00    -0.225 A  
HETATM    8  C   UNL     1     -10.377  12.269  66.442  1.00  0.00    -0.225 A  
HETATM    9  C   UNL     1      -8.537  14.169  68.176  1.00  0.00    -0.175 A  
HETATM   10  C   UNL     1      -9.999  11.948  65.137  1.00  0.00    -0.276 A  
HETATM   11  C   UNL     1      -9.804  10.610  64.801  1.00  0.00    -0.372 A  
HETATM   12  C   UNL     1      -7.400  14.928  68.459  1.00  0.00    -0.119 A  
HETATM   13  C   UNL     1      -9.983   9.629  65.766  1.00  0.00    -0.342 A  
HETATM   14  C   UNL     1      -7.087  16.028  67.665  1.00  0.00    -0.154 A  
HETATM   15  C   UNL     1     -10.337  10.029  67.043  1.00  0.00    -0.243 A  
HETATM   16  C   UNL     1      -7.899  16.373  66.587  1.00  0.00    -0.316 A  
HETATM   17 CL   UNL     1      -5.694  16.973  68.025  1.00  0.00    -0.118 Cl 
HETATM   18  N   UNL     1     -10.529  11.317  67.400  1.00  0.00    -0.203 NA 
HETATM   19  C   UNL     1      -9.041  15.619  66.307  1.00  0.00    -0.376 A  
ENDBRANCH   4   5
ENDBRANCH   2   4
TORSDOF 2
ENDMDL
MODEL       97
REMARK 921   NORMALIZED FREE ENERGY PREDICTED BY IDOCK:   -4.11 KCAL/MOL
REMARK 922        TOTAL FREE ENERGY PREDICTED BY IDOCK:   -4.76 KCAL/MOL
REMARK 923 INTER-LIGAND FREE ENERGY PREDICTED BY IDOCK:   -4.61 KCAL/MOL
REMARK 924 INTRA-LIGAND FREE ENERGY PREDICTED BY IDOCK:   -0.15 KCAL/MOL
REMARK 927      BINDING AFFINITY PREDICTED BY RF-SCORE:    0.00 PKD
ROOT
HETATM    1  C   UNL     1     -11.881  15.019  71.801  1.00  0.00    -0.388 C  
HETATM    2  N   UNL     1     -13.006  14.141  71.465  1.00  0.00    -0.327 NA 
HETATM    3  C   UNL     1     -14.176  14.951  71.112  1.00  0.00    -0.269 C  
ENDROOT
BRANCH   2   4
HETATM    4  C   UNL     1     -12.683  13.233  70.348  1.00  0.00    -0.033 C  
BRANCH   4   5
HETATM    5  C   UNL     1     -12.138  13.928  69.093  1.00  0.00    -0.377 C  
HETATM    6  C   UNL     1     -10.665  13.583  68.754  1.00  0.00    -0.261 C  
HETATM    7  C   UNL     1     -10.489  12.111  68.392  1.00  0.00    -0.242 A  
HETATM    8  C   UNL     1     -10.125  14.522  67.675  1.00  0.00    -0.228 A  
HETATM    9  C   UNL     1     -11.138  11.553  67.279  1.00  0.00    -0.351 A  
HETATM   10  C   UNL     1      -8.758  14.796  67.613  1.00  0.00    -0.183 A  
HETATM   11  C   UNL     1      -8.294  15.698  66.657  1.00  0.00    -0.310 A  
HETATM   12  C   UNL     1     -11.012  10.192  66.988  1.00  0.00    -0.162 A  
HETATM   13  C   UNL     1      -9.194  16.296  65.787  1.00  0.00    -0.151 A  
HETATM   14  C   UNL     1     -10.226   9.381  67.802  1.00  0.00    -0.222 A  
HETATM   15  C   UNL     1     -10.531  15.955  65.897  1.00  0.00    -0.359 A  
HETATM   16  C   UNL     1      -9.561   9.919  68.901  1.00  0.00    -0.172 A  
HETATM   17 CL   UNL     1     -10.085   7.701  67.453  1.00  0.00    -0.259 Cl 
HETATM   18  N   UNL     1     -11.011  15.083  66.810  1.00  0.00    -0.320 NA 
HETATM   19  C   UNL     1      -9.692  11.278  69.197  1.00  0.00     0.008 A  
ENDBRANCH   4   5
ENDBRANCH   2   4
TORSDOF 2
ENDMDL
MODEL       98
REMARK 921   NORMALIZED FREE ENERGY PREDICTED BY IDOCK:   -4.11 KCAL/MOL
REMARK 922        TOTAL FREE ENERGY PREDICTED BY IDOCK:   -4.76 KCAL/MOL
REMARK 923 INTER-LIGAND FREE ENERGY PREDICTED BY IDOCK:   -4.60 KCAL/MOL
REMARK 924 INTRA-LIGAND FREE ENERGY PREDICTED BY IDOCK:   -0.15 KCAL/MOL
REMARK 927      BINDING AFFINITY PREDICTED BY RF-SCORE:    0.00 PKD
ROOT
HETATM    1  C   UNL     1      -6.136  15.053  68.085  1.00  0.00    -0.137 C  
HETATM    2  N   UNL     1      -7.204  15.632  68.906  1.00  0.00    -0.135 NA 
HETATM    3  C   UNL     1      -6.997  17.078  69.036  1.00  0.00    -0.229 C  
ENDROOT
BRANCH   2   4
HETATM    4  C   UNL     1      -8.540  15.378  68.334  1.00  0.00    -0.162 C  
BRANCH   4   5
HETATM    5  C   UNL     1      -9.580  14.864  69.339  1.00  0.00    -0.080 C  
HETATM    6  C   UNL     1     -11.051  15.010  68.875  1.00  0.00    -0.274 C  
HETATM    7  C   UNL     1     -11.355  14.151  67.651  1.00  0.00    -0.342 A  
HETATM    8  C   UNL     1     -12.012  14.742  70.032  1.00  0.00    -0.316 A  
HETATM    9  C   UNL     1     -11.247  12.752  67.698  1.00  0.00    -0.323 A  
HETATM   10  C   UNL     1     -13.274  15.339  70.042  1.00  0.00     0.206 A  
HETATM   11  C   UNL     1     -14.113  15.127  71.133  1.00  0.00    -0.463 A  
HETATM   12  C   UNL     1     -11.475  11.980  66.556  1.00  0.00    -0.413 A  
HETATM   13  C   UNL     1     -13.682  14.325  72.181  1.00  0.00    -0.569 A  
HETATM   14  C   UNL     1     -11.825  12.600  65.360  1.00  0.00    -0.427 A  
HETATM   15  C   UNL     1     -12.427  13.750  72.088  1.00  0.00     0.001 A  
HETATM   16  C   UNL     1     -11.954  13.985  65.296  1.00  0.00    -0.384 A  
HETATM   17 CL   UNL     1     -12.090  11.649  63.950  1.00  0.00    -0.379 Cl 
HETATM   18  N   UNL     1     -11.592  13.934  71.042  1.00  0.00     0.092 NA 
HETATM   19  C   UNL     1     -11.719  14.759  66.436  1.00  0.00    -0.268 A  
ENDBRANCH   4   5
ENDBRANCH   2   4
TORSDOF 2
ENDMDL
MODEL       99
REMARK 921   NORMALIZED FREE ENERGY PREDICTED BY IDOCK:   -4.11 KCAL/MOL
REMARK 922        TOTAL FREE ENERGY PREDICTED BY IDOCK:   -4.75 KCAL/MOL
REMARK 923 INTER-LIGAND FREE ENERGY PREDICTED BY IDOCK:   -4.61 KCAL/MOL
REMARK 924 INTRA-LIGAND FREE ENERGY PREDICTED BY IDOCK:   -0.15 KCAL/MOL
REMARK 927      BINDING AFFINITY PREDICTED BY RF-SCORE:    0.00 PKD
ROOT
HETATM    1  C   UNL     1      -6.996  19.244  65.604  1.00  0.00    -0.270 C  
HETATM    2  N   UNL     1      -8.010  18.726  66.526  1.00  0.00    -0.270 NA 
HETATM    3  C   UNL     1      -9.312  19.324  66.214  1.00  0.00    -0.339 C  
ENDROOT
BRANCH   2   4
HETATM    4  C   UNL     1      -8.116  17.256  66.461  1.00  0.00    -0.278 C  
BRANCH   4   5
HETATM    5  C   UNL     1      -8.743  16.603  67.700  1.00  0.00    -0.206 C  
HETATM    6  C   UNL     1     -10.191  16.089  67.495  1.00  0.00    -0.275 C  
HETATM    7  C   UNL     1     -10.257  14.951  66.480  1.00  0.00    -0.281 A  
HETATM    8  C   UNL     1     -10.828  15.719  68.833  1.00  0.00    -0.260 A  
HETATM    9  C   UNL     1      -9.590  13.735  66.705  1.00  0.00    -0.283 A  
HETATM   10  C   UNL     1     -12.214  15.787  68.987  1.00  0.00    -0.050 A  
HETATM   11  C   UNL     1     -12.771  15.499  70.231  1.00  0.00    -0.310 A  
HETATM   12  C   UNL     1      -9.614  12.721  65.745  1.00  0.00    -0.102 A  
HETATM   13  C   UNL     1     -11.941  15.147  71.286  1.00  0.00    -0.399 A  
HETATM   14  C   UNL     1     -10.313  12.909  64.557  1.00  0.00    -0.357 A  
HETATM   15  C   UNL     1     -10.579  15.081  71.049  1.00  0.00     0.293 A  
HETATM   16  C   UNL     1     -10.995  14.101  64.321  1.00  0.00    -0.104 A  
HETATM   17 CL   UNL     1     -10.328  11.665  63.367  1.00  0.00    -0.452 Cl 
HETATM   18  N   UNL     1     -10.010  15.350  69.855  1.00  0.00    -0.261 NA 
HETATM   19  C   UNL     1     -10.967  15.119  65.278  1.00  0.00    -0.405 A  
ENDBRANCH   4   5
ENDBRANCH   2   4
TORSDOF 2
ENDMDL
MODEL      100
REMARK 921   NORMALIZED FREE ENERGY PREDICTED BY IDOCK:   -4.06 KCAL/MOL
REMARK 922        TOTAL FREE ENERGY PREDICTED BY IDOCK:   -4.69 KCAL/MOL
REMARK 923 INTER-LIGAND FREE ENERGY PREDICTED BY IDOCK:   -4.51 KCAL/MOL
REMARK 924 INTRA-LIGAND FREE ENERGY PREDICTED BY IDOCK:   -0.18 KCAL/MOL
REMARK 927      BINDING AFFINITY PREDICTED BY RF-SCORE:    0.00 PKD
ROOT
HETATM    1  C   UNL     1     -12.187  13.965  70.127  1.00  0.00    -0.358 C  
HETATM    2  N   UNL     1     -11.807  13.900  68.713  1.00  0.00    -0.344 NA 
HETATM    3  C   UNL     1     -10.523  14.580  68.516  1.00  0.00    -0.250 C  
ENDROOT
BRANCH   2   4
HETATM    4  C   UNL     1     -11.705  12.510  68.231  1.00  0.00    -0.340 C  
BRANCH   4   5
HETATM    5  C   UNL     1     -11.339  11.482  69.310  1.00  0.00    -0.353 C  
HETATM    6  C   UNL     1     -10.771  10.148  68.763  1.00  0.00    -0.247 C  
HETATM    7  C   UNL     1      -9.433  10.341  68.055  1.00  0.00    -0.156 A  
HETATM    8  C   UNL     1     -10.703   9.095  69.869  1.00  0.00    -0.231 A  
HETATM    9  C   UNL     1      -8.309  10.827  68.744  1.00  0.00    -0.147 A  
HETATM   10  C   UNL     1     -10.783   7.740  69.546  1.00  0.00    -0.200 A  
HETATM   11  C   UNL     1     -10.776   6.799  70.573  1.00  0.00    -0.277 A  
HETATM   12  C   UNL     1      -7.104  11.051  68.073  1.00  0.00    -0.077 A  
HETATM   13  C   UNL     1     -10.682   7.226  71.890  1.00  0.00    -0.243 A  
HETATM   14  C   UNL     1      -7.010  10.780  66.711  1.00  0.00    -0.119 A  
HETATM   15  C   UNL     1     -10.584   8.585  72.129  1.00  0.00    -0.349 A  
HETATM   16  C   UNL     1      -8.107  10.281  66.014  1.00  0.00    -0.139 A  
HETATM   17 CL   UNL     1      -5.529  11.071  65.882  1.00  0.00    -0.146 Cl 
HETATM   18  N   UNL     1     -10.585   9.521  71.155  1.00  0.00    -0.332 NA 
HETATM   19  C   UNL     1      -9.315  10.064  66.682  1.00  0.00    -0.202 A  
ENDBRANCH   4   5
ENDBRANCH   2   4
TORSDOF 2
ENDMDL
MODEL      101
REMARK 921   NORMALIZED FREE ENERGY PREDICTED BY IDOCK:   -4.04 KCAL/MOL
REMARK 922        TOTAL FREE ENERGY PREDICTED BY IDOCK:   -4.67 KCAL/MOL
REMARK 923 INTER-LIGAND FREE ENERGY PREDICTED BY IDOCK:   -4.49 KCAL/MOL
REMARK 924 INTRA-LIGAND FREE ENERGY PREDICTED BY IDOCK:   -0.18 KCAL/MOL
REMARK 927      BINDING AFFINITY PREDICTED BY RF-SCORE:    0.00 PKD
ROOT
HETATM    1  C   UNL     1      -6.871   6.428  72.350  1.00  0.00    -0.069 C  
HETATM    2  N   UNL     1      -7.763   7.011  73.356  1.00  0.00    -0.086 NA 
HETATM    3  C   UNL     1      -6.974   7.745  74.350  1.00  0.00    -0.120 C  
ENDROOT
BRANCH   2   4
HETATM    4  C   UNL     1      -8.759   7.917  72.754  1.00  0.00    -0.174 C  
BRANCH   4   5
HETATM    5  C   UNL     1      -8.843   7.852  71.223  1.00  0.00    -0.152 C  
HETATM    6  C   UNL     1     -10.264   7.583  70.666  1.00  0.00    -0.202 C  
HETATM    7  C   UNL     1     -11.228   8.724  70.979  1.00  0.00    -0.329 A  
HETATM    8  C   UNL     1     -10.207   7.255  69.175  1.00  0.00    -0.197 A  
HETATM    9  C   UNL     1     -11.008  10.020  70.484  1.00  0.00    -0.392 A  
HETATM   10  C   UNL     1     -11.195   6.455  68.599  1.00  0.00    -0.338 A  
HETATM   11  C   UNL     1     -11.094   6.122  67.250  1.00  0.00    -0.334 A  
HETATM   12  C   UNL     1     -11.868  11.068  70.821  1.00  0.00    -0.383 A  
HETATM   13  C   UNL     1     -10.022   6.596  66.508  1.00  0.00    -0.148 A  
HETATM   14  C   UNL     1     -12.962  10.826  71.646  1.00  0.00    -0.476 A  
HETATM   15  C   UNL     1      -9.095   7.403  67.144  1.00  0.00    -0.130 A  
HETATM   16  C   UNL     1     -13.208   9.545  72.134  1.00  0.00    -0.539 A  
HETATM   17 CL   UNL     1     -14.012  12.121  72.075  1.00  0.00     0.104 Cl 
HETATM   18  N   UNL     1      -9.168   7.746  68.448  1.00  0.00    -0.137 NA 
HETATM   19  C   UNL     1     -12.345   8.497  71.803  1.00  0.00    -0.388 A  
ENDBRANCH   4   5
ENDBRANCH   2   4
TORSDOF 2
ENDMDL
MODEL      102
REMARK 921   NORMALIZED FREE ENERGY PREDICTED BY IDOCK:   -4.03 KCAL/MOL
REMARK 922        TOTAL FREE ENERGY PREDICTED BY IDOCK:   -4.67 KCAL/MOL
REMARK 923 INTER-LIGAND FREE ENERGY PREDICTED BY IDOCK:   -4.48 KCAL/MOL
REMARK 924 INTRA-LIGAND FREE ENERGY PREDICTED BY IDOCK:   -0.19 KCAL/MOL
REMARK 927      BINDING AFFINITY PREDICTED BY RF-SCORE:    0.00 PKD
ROOT
HETATM    1  C   UNL     1     -11.821  13.403  68.836  1.00  0.00    -0.334 C  
HETATM    2  N   UNL     1     -12.135  12.236  68.007  1.00  0.00    -0.409 NA 
HETATM    3  C   UNL     1     -11.503  12.379  66.692  1.00  0.00    -0.370 C  
ENDROOT
BRANCH   2   4
HETATM    4  C   UNL     1     -11.688  10.977  68.633  1.00  0.00    -0.296 C  
BRANCH   4   5
HETATM    5  C   UNL     1     -10.830  10.081  67.729  1.00  0.00    -0.337 C  
HETATM    6  C   UNL     1      -9.647   9.385  68.448  1.00  0.00    -0.157 C  
HETATM    7  C   UNL     1     -10.122   8.391  69.504  1.00  0.00    -0.200 A  
HETATM    8  C   UNL     1      -8.695   8.752  67.434  1.00  0.00    -0.130 A  
HETATM    9  C   UNL     1     -10.896   7.272  69.156  1.00  0.00    -0.156 A  
HETATM   10  C   UNL     1      -7.346   8.588  67.753  1.00  0.00    -0.093 A  
HETATM   11  C   UNL     1      -6.484   8.060  66.794  1.00  0.00    -0.056 A  
HETATM   12  C   UNL     1     -11.370   6.399  70.138  1.00  0.00    -0.485 A  
HETATM   13  C   UNL     1      -6.983   7.704  65.549  1.00  0.00    -0.056 A  
HETATM   14  C   UNL     1     -11.066   6.632  71.476  1.00  0.00    -0.256 A  
HETATM   15  C   UNL     1      -8.337   7.876  65.316  1.00  0.00    -0.133 A  
HETATM   16  C   UNL     1     -10.286   7.726  71.841  1.00  0.00    -0.256 A  
HETATM   17 CL   UNL     1     -11.664   5.565  72.687  1.00  0.00    -0.310 Cl 
HETATM   18  N   UNL     1      -9.197   8.381  66.226  1.00  0.00    -0.195 NA 
HETATM   19  C   UNL     1      -9.817   8.604  70.861  1.00  0.00    -0.256 A  
ENDBRANCH   4   5
ENDBRANCH   2   4
TORSDOF 2
ENDMDL
MODEL      103
REMARK 921   NORMALIZED FREE ENERGY PREDICTED BY IDOCK:   -4.01 KCAL/MOL
REMARK 922        TOTAL FREE ENERGY PREDICTED BY IDOCK:   -4.65 KCAL/MOL
REMARK 923 INTER-LIGAND FREE ENERGY PREDICTED BY IDOCK:   -4.45 KCAL/MOL
REMARK 924 INTRA-LIGAND FREE ENERGY PREDICTED BY IDOCK:   -0.19 KCAL/MOL
REMARK 927      BINDING AFFINITY PREDICTED BY RF-SCORE:    0.00 PKD
ROOT
HETATM    1  C   UNL     1     -13.764   8.816  71.489  1.00  0.00    -0.338 C  
HETATM    2  N   UNL     1     -12.517   9.432  71.953  1.00  0.00    -0.381 NA 
HETATM    3  C   UNL     1     -11.563   8.387  72.335  1.00  0.00    -0.380 C  
ENDROOT
BRANCH   2   4
HETATM    4  C   UNL     1     -11.912  10.297  70.922  1.00  0.00    -0.375 C  
BRANCH   4   5
HETATM    5  C   UNL     1     -10.464   9.942  70.556  1.00  0.00    -0.330 C  
HETATM    6  C   UNL     1     -10.198   9.811  69.035  1.00  0.00    -0.214 C  
HETATM    7  C   UNL     1     -10.383  11.138  68.304  1.00  0.00    -0.198 A  
HETATM    8  C   UNL     1      -8.828   9.186  68.777  1.00  0.00    -0.132 A  
HETATM    9  C   UNL     1      -9.582  12.252  68.603  1.00  0.00    -0.051 A  
HETATM   10  C   UNL     1      -8.600   8.466  67.604  1.00  0.00    -0.130 A  
HETATM   11  C   UNL     1      -7.361   7.857  67.414  1.00  0.00    -0.092 A  
HETATM   12  C   UNL     1      -9.796  13.477  67.966  1.00  0.00    -0.238 A  
HETATM   13  C   UNL     1      -6.382   7.984  68.388  1.00  0.00    -0.050 A  
HETATM   14  C   UNL     1     -10.807  13.594  67.016  1.00  0.00    -0.286 A  
HETATM   15  C   UNL     1      -6.675   8.733  69.514  1.00  0.00    -0.047 A  
HETATM   16  C   UNL     1     -11.602  12.498  66.693  1.00  0.00    -0.442 A  
HETATM   17 CL   UNL     1     -11.081  15.108  66.243  1.00  0.00    -0.333 Cl 
HETATM   18  N   UNL     1      -7.864   9.338  69.725  1.00  0.00    -0.089 NA 
HETATM   19  C   UNL     1     -11.393  11.274  67.334  1.00  0.00    -0.349 A  
ENDBRANCH   4   5
ENDBRANCH   2   4
TORSDOF 2
ENDMDL
MODEL      104
REMARK 921   NORMALIZED FREE ENERGY PREDICTED BY IDOCK:   -4.01 KCAL/MOL
REMARK 922        TOTAL FREE ENERGY PREDICTED BY IDOCK:   -4.64 KCAL/MOL
REMARK 923 INTER-LIGAND FREE ENERGY PREDICTED BY IDOCK:   -4.48 KCAL/MOL
REMARK 924 INTRA-LIGAND FREE ENERGY PREDICTED BY IDOCK:   -0.17 KCAL/MOL
REMARK 927      BINDING AFFINITY PREDICTED BY RF-SCORE:    0.00 PKD
ROOT
HETATM    1  C   UNL     1     -12.110  12.914  63.361  1.00  0.00    -0.530 C  
HETATM    2  N   UNL     1     -11.608  13.623  64.541  1.00  0.00    -0.374 NA 
HETATM    3  C   UNL     1     -12.724  13.948  65.434  1.00  0.00    -0.490 C  
ENDROOT
BRANCH   2   4
HETATM    4  C   UNL     1     -10.605  12.829  65.277  1.00  0.00    -0.290 C  
BRANCH   4   5
HETATM    5  C   UNL     1     -10.051  11.623  64.507  1.00  0.00    -0.321 C  
HETATM    6  C   UNL     1      -8.823  10.947  65.168  1.00  0.00    -0.167 C  
HETATM    7  C   UNL     1      -9.170  10.319  66.515  1.00  0.00    -0.179 A  
HETATM    8  C   UNL     1      -8.172   9.952  64.207  1.00  0.00    -0.161 A  
HETATM    9  C   UNL     1     -10.110   9.280  66.614  1.00  0.00    -0.341 A  
HETATM   10  C   UNL     1      -6.811   9.665  64.320  1.00  0.00    -0.112 A  
HETATM   11  C   UNL     1      -6.225   8.798  63.399  1.00  0.00    -0.085 A  
HETATM   12  C   UNL     1     -10.459   8.750  67.858  1.00  0.00    -0.275 A  
HETATM   13  C   UNL     1      -7.005   8.236  62.398  1.00  0.00    -0.090 A  
HETATM   14  C   UNL     1      -9.862   9.246  69.014  1.00  0.00    -0.166 A  
HETATM   15  C   UNL     1      -8.352   8.552  62.367  1.00  0.00    -0.192 A  
HETATM   16  C   UNL     1      -8.915  10.264  68.936  1.00  0.00    -0.164 A  
HETATM   17 CL   UNL     1     -10.304   8.604  70.548  1.00  0.00    -0.221 Cl 
HETATM   18  N   UNL     1      -8.949   9.385  63.246  1.00  0.00    -0.194 NA 
HETATM   19  C   UNL     1      -8.570  10.800  67.692  1.00  0.00    -0.123 A  
ENDBRANCH   4   5
ENDBRANCH   2   4
TORSDOF 2
ENDMDL
MODEL      105
REMARK 921   NORMALIZED FREE ENERGY PREDICTED BY IDOCK:   -4.00 KCAL/MOL
REMARK 922        TOTAL FREE ENERGY PREDICTED BY IDOCK:   -4.63 KCAL/MOL
REMARK 923 INTER-LIGAND FREE ENERGY PREDICTED BY IDOCK:   -4.41 KCAL/MOL
REMARK 924 INTRA-LIGAND FREE ENERGY PREDICTED BY IDOCK:   -0.22 KCAL/MOL
REMARK 927      BINDING AFFINITY PREDICTED BY RF-SCORE:    0.00 PKD
ROOT
HETATM    1  C   UNL     1      -6.432   8.907  67.850  1.00  0.00    -0.057 C  
HETATM    2  N   UNL     1      -6.977  10.051  67.114  1.00  0.00    -0.083 NA 
HETATM    3  C   UNL     1      -7.961   9.583  66.133  1.00  0.00    -0.107 C  
ENDROOT
BRANCH   2   4
HETATM    4  C   UNL     1      -7.610  11.035  68.012  1.00  0.00    -0.092 C  
BRANCH   4   5
HETATM    5  C   UNL     1      -8.883  10.540  68.712  1.00  0.00    -0.158 C  
HETATM    6  C   UNL     1     -10.023  11.586  68.791  1.00  0.00    -0.169 C  
HETATM    7  C   UNL     1     -10.557  11.960  67.411  1.00  0.00    -0.257 A  
HETATM    8  C   UNL     1     -11.126  11.114  69.738  1.00  0.00    -0.202 A  
HETATM    9  C   UNL     1     -11.156  11.000  66.578  1.00  0.00    -0.174 A  
HETATM   10  C   UNL     1     -11.923  12.049  70.400  1.00  0.00    -0.379 A  
HETATM   11  C   UNL     1     -12.886  11.598  71.301  1.00  0.00    -0.430 A  
HETATM   12  C   UNL     1     -11.591  11.342  65.295  1.00  0.00     0.121 A  
HETATM   13  C   UNL     1     -13.036  10.235  71.516  1.00  0.00    -0.556 A  
HETATM   14  C   UNL     1     -11.442  12.649  64.839  1.00  0.00    -0.322 A  
HETATM   15  C   UNL     1     -12.223   9.370  70.804  1.00  0.00    -0.162 A  
HETATM   16  C   UNL     1     -10.866  13.619  65.656  1.00  0.00    -0.280 A  
HETATM   17 CL   UNL     1     -11.964  13.065  63.252  1.00  0.00    -0.601 Cl 
HETATM   18  N   UNL     1     -11.285   9.776  69.922  1.00  0.00    -0.242 NA 
HETATM   19  C   UNL     1     -10.423  13.277  66.936  1.00  0.00    -0.261 A  
ENDBRANCH   4   5
ENDBRANCH   2   4
TORSDOF 2
ENDMDL
MODEL      106
REMARK 921   NORMALIZED FREE ENERGY PREDICTED BY IDOCK:   -3.99 KCAL/MOL
REMARK 922        TOTAL FREE ENERGY PREDICTED BY IDOCK:   -4.61 KCAL/MOL
REMARK 923 INTER-LIGAND FREE ENERGY PREDICTED BY IDOCK:   -4.44 KCAL/MOL
REMARK 924 INTRA-LIGAND FREE ENERGY PREDICTED BY IDOCK:   -0.18 KCAL/MOL
REMARK 927      BINDING AFFINITY PREDICTED BY RF-SCORE:    0.00 PKD
ROOT
HETATM    1  C   UNL     1     -10.415   4.236  65.173  1.00  0.00    -0.173 C  
HETATM    2  N   UNL     1     -10.111   4.656  66.544  1.00  0.00    -0.240 NA 
HETATM    3  C   UNL     1      -8.726   4.304  66.872  1.00  0.00    -0.113 C  
ENDROOT
BRANCH   2   4
HETATM    4  C   UNL     1     -10.307   6.106  66.734  1.00  0.00    -0.231 C  
BRANCH   4   5
HETATM    5  C   UNL     1     -10.825   6.507  68.121  1.00  0.00    -0.370 C  
HETATM    6  C   UNL     1      -9.954   7.557  68.856  1.00  0.00    -0.168 C  
HETATM    7  C   UNL     1      -9.942   8.901  68.132  1.00  0.00    -0.208 A  
HETATM    8  C   UNL     1     -10.377   7.683  70.319  1.00  0.00    -0.214 A  
HETATM    9  C   UNL     1     -11.123   9.640  67.949  1.00  0.00    -0.102 A  
HETATM   10  C   UNL     1      -9.449   8.088  71.280  1.00  0.00    -0.190 A  
HETATM   11  C   UNL     1      -9.841   8.143  72.616  1.00  0.00    -0.364 A  
HETATM   12  C   UNL     1     -11.108  10.842  67.238  1.00  0.00    -0.350 A  
HETATM   13  C   UNL     1     -11.141   7.801  72.961  1.00  0.00    -0.419 A  
HETATM   14  C   UNL     1      -9.911  11.321  66.713  1.00  0.00    -0.206 A  
HETATM   15  C   UNL     1     -12.008   7.431  71.949  1.00  0.00    -0.302 A  
HETATM   16  C   UNL     1      -8.727  10.612  66.898  1.00  0.00    -0.133 A  
HETATM   17 CL   UNL     1      -9.897  12.794  65.823  1.00  0.00    -0.248 Cl 
HETATM   18  N   UNL     1     -11.660   7.372  70.646  1.00  0.00    -0.288 NA 
HETATM   19  C   UNL     1      -8.741   9.406  67.602  1.00  0.00    -0.116 A  
ENDBRANCH   4   5
ENDBRANCH   2   4
TORSDOF 2
ENDMDL
MODEL      107
REMARK 921   NORMALIZED FREE ENERGY PREDICTED BY IDOCK:   -3.96 KCAL/MOL
REMARK 922        TOTAL FREE ENERGY PREDICTED BY IDOCK:   -4.59 KCAL/MOL
REMARK 923 INTER-LIGAND FREE ENERGY PREDICTED BY IDOCK:   -4.42 KCAL/MOL
REMARK 924 INTRA-LIGAND FREE ENERGY PREDICTED BY IDOCK:   -0.17 KCAL/MOL
REMARK 927      BINDING AFFINITY PREDICTED BY RF-SCORE:    0.00 PKD
ROOT
HETATM    1  C   UNL     1     -13.618   9.498  71.831  1.00  0.00    -0.391 C  
HETATM    2  N   UNL     1     -12.460   8.661  72.157  1.00  0.00    -0.366 NA 
HETATM    3  C   UNL     1     -12.685   7.297  71.671  1.00  0.00    -0.375 C  
ENDROOT
BRANCH   2   4
HETATM    4  C   UNL     1     -11.213   9.191  71.573  1.00  0.00    -0.360 C  
BRANCH   4   5
HETATM    5  C   UNL     1     -11.401   9.995  70.279  1.00  0.00    -0.376 C  
HETATM    6  C   UNL     1     -10.118  10.691  69.761  1.00  0.00    -0.052 C  
HETATM    7  C   UNL     1      -9.047   9.686  69.346  1.00  0.00    -0.194 A  
HETATM    8  C   UNL     1     -10.453  11.683  68.648  1.00  0.00    -0.213 A  
HETATM    9  C   UNL     1      -9.272   8.770  68.305  1.00  0.00    -0.143 A  
HETATM   10  C   UNL     1      -9.630  12.789  68.430  1.00  0.00    -0.175 A  
HETATM   11  C   UNL     1      -9.984  13.712  67.448  1.00  0.00    -0.234 A  
HETATM   12  C   UNL     1      -8.305   7.819  67.970  1.00  0.00    -0.124 A  
HETATM   13  C   UNL     1     -11.138  13.510  66.705  1.00  0.00    -0.311 A  
HETATM   14  C   UNL     1      -7.101   7.783  68.666  1.00  0.00    -0.076 A  
HETATM   15  C   UNL     1     -11.890  12.377  66.965  1.00  0.00    -0.297 A  
HETATM   16  C   UNL     1      -6.851   8.692  69.690  1.00  0.00    -0.046 A  
HETATM   17 CL   UNL     1      -5.916   6.600  68.263  1.00  0.00    -0.020 Cl 
HETATM   18  N   UNL     1     -11.572  11.464  67.907  1.00  0.00    -0.496 NA 
HETATM   19  C   UNL     1      -7.820   9.640  70.031  1.00  0.00    -0.173 A  
ENDBRANCH   4   5
ENDBRANCH   2   4
TORSDOF 2
ENDMDL
MODEL      108
REMARK 921   NORMALIZED FREE ENERGY PREDICTED BY IDOCK:   -3.96 KCAL/MOL
REMARK 922        TOTAL FREE ENERGY PREDICTED BY IDOCK:   -4.59 KCAL/MOL
REMARK 923 INTER-LIGAND FREE ENERGY PREDICTED BY IDOCK:   -4.42 KCAL/MOL
REMARK 924 INTRA-LIGAND FREE ENERGY PREDICTED BY IDOCK:   -0.17 KCAL/MOL
REMARK 927      BINDING AFFINITY PREDICTED BY RF-SCORE:    0.00 PKD
ROOT
HETATM    1  C   UNL     1      -7.018  10.568  67.661  1.00  0.00    -0.079 C  
HETATM    2  N   UNL     1      -8.168  10.699  68.560  1.00  0.00    -0.121 NA 
HETATM    3  C   UNL     1      -9.061  11.752  68.068  1.00  0.00    -0.180 C  
ENDROOT
BRANCH   2   4
HETATM    4  C   UNL     1      -8.920   9.435  68.682  1.00  0.00    -0.132 C  
BRANCH   4   5
HETATM    5  C   UNL     1     -10.148   9.506  69.599  1.00  0.00    -0.228 C  
HETATM    6  C   UNL     1     -10.503   8.173  70.305  1.00  0.00    -0.219 C  
HETATM    7  C   UNL     1      -9.416   7.734  71.281  1.00  0.00    -0.173 A  
HETATM    8  C   UNL     1     -11.881   8.259  70.961  1.00  0.00    -0.255 A  
HETATM    9  C   UNL     1      -9.074   8.521  72.393  1.00  0.00    -0.308 A  
HETATM   10  C   UNL     1     -12.640   7.101  71.141  1.00  0.00    -0.384 A  
HETATM   11  C   UNL     1     -13.916   7.209  71.690  1.00  0.00    -0.438 A  
HETATM   12  C   UNL     1      -8.040   8.135  73.250  1.00  0.00    -0.246 A  
HETATM   13  C   UNL     1     -14.402   8.458  72.051  1.00  0.00    -0.555 A  
HETATM   14  C   UNL     1      -7.348   6.952  73.008  1.00  0.00    -0.074 A  
HETATM   15  C   UNL     1     -13.581   9.556  71.862  1.00  0.00    -0.391 A  
HETATM   16  C   UNL     1      -7.682   6.149  71.922  1.00  0.00    -0.097 A  
HETATM   17 CL   UNL     1      -6.063   6.485  74.055  1.00  0.00    -0.064 Cl 
HETATM   18  N   UNL     1     -12.339   9.483  71.336  1.00  0.00    -0.341 NA 
HETATM   19  C   UNL     1      -8.711   6.537  71.060  1.00  0.00    -0.138 A  
ENDBRANCH   4   5
ENDBRANCH   2   4
TORSDOF 2
ENDMDL
MODEL      109
REMARK 921   NORMALIZED FREE ENERGY PREDICTED BY IDOCK:   -3.94 KCAL/MOL
REMARK 922        TOTAL FREE ENERGY PREDICTED BY IDOCK:   -4.57 KCAL/MOL
REMARK 923 INTER-LIGAND FREE ENERGY PREDICTED BY IDOCK:   -4.38 KCAL/MOL
REMARK 924 INTRA-LIGAND FREE ENERGY PREDICTED BY IDOCK:   -0.18 KCAL/MOL
REMARK 927      BINDING AFFINITY PREDICTED BY RF-SCORE:    0.00 PKD
ROOT
HETATM    1  C   UNL     1      -5.331  16.151  69.351  1.00  0.00    -0.116 C  
HETATM    2  N   UNL     1      -5.631  14.785  69.791  1.00  0.00    -0.096 NA 
HETATM    3  C   UNL     1      -5.195  14.608  71.180  1.00  0.00    -0.138 C  
ENDROOT
BRANCH   2   4
HETATM    4  C   UNL     1      -7.069  14.473  69.685  1.00  0.00    -0.090 C  
BRANCH   4   5
HETATM    5  C   UNL     1      -7.969  15.683  69.400  1.00  0.00    -0.226 C  
HETATM    6  C   UNL     1      -8.951  15.491  68.217  1.00  0.00    -0.185 C  
HETATM    7  C   UNL     1      -9.982  14.401  68.499  1.00  0.00    -0.237 A  
HETATM    8  C   UNL     1      -9.596  16.821  67.828  1.00  0.00    -0.241 A  
HETATM    9  C   UNL     1     -10.892  14.516  69.563  1.00  0.00    -0.209 A  
HETATM   10  C   UNL     1     -10.034  17.025  66.519  1.00  0.00    -0.318 A  
HETATM   11  C   UNL     1     -10.568  18.264  66.171  1.00  0.00    -0.326 A  
HETATM   12  C   UNL     1     -11.794  13.487  69.844  1.00  0.00    -0.386 A  
HETATM   13  C   UNL     1     -10.659  19.263  67.130  1.00  0.00    -0.575 A  
HETATM   14  C   UNL     1     -11.802  12.340  69.057  1.00  0.00    -0.305 A  
HETATM   15  C   UNL     1     -10.224  18.976  68.413  1.00  0.00    -0.377 A  
HETATM   16  C   UNL     1     -10.920  12.213  67.987  1.00  0.00    -0.271 A  
HETATM   17 CL   UNL     1     -12.904  11.066  69.414  1.00  0.00     0.262 Cl 
HETATM   18  N   UNL     1      -9.706  17.785  68.781  1.00  0.00    -0.325 NA 
HETATM   19  C   UNL     1     -10.012  13.238  67.709  1.00  0.00    -0.223 A  
ENDBRANCH   4   5
ENDBRANCH   2   4
TORSDOF 2
ENDMDL
MODEL      110
REMARK 921   NORMALIZED FREE ENERGY PREDICTED BY IDOCK:   -3.93 KCAL/MOL
REMARK 922        TOTAL FREE ENERGY PREDICTED BY IDOCK:   -4.55 KCAL/MOL
REMARK 923 INTER-LIGAND FREE ENERGY PREDICTED BY IDOCK:   -4.29 KCAL/MOL
REMARK 924 INTRA-LIGAND FREE ENERGY PREDICTED BY IDOCK:   -0.26 KCAL/MOL
REMARK 927      BINDING AFFINITY PREDICTED BY RF-SCORE:    0.00 PKD
ROOT
HETATM    1  C   UNL     1     -10.726  11.959  65.071  1.00  0.00    -0.292 C  
HETATM    2  N   UNL     1     -10.347  10.598  64.681  1.00  0.00    -0.334 NA 
HETATM    3  C   UNL     1      -9.626  10.634  63.404  1.00  0.00    -0.332 C  
ENDROOT
BRANCH   2   4
HETATM    4  C   UNL     1      -9.506   9.944  65.701  1.00  0.00    -0.235 C  
BRANCH   4   5
HETATM    5  C   UNL     1     -10.138   9.861  67.097  1.00  0.00    -0.270 C  
HETATM    6  C   UNL     1      -9.141  10.049  68.268  1.00  0.00    -0.122 C  
HETATM    7  C   UNL     1      -8.535  11.449  68.288  1.00  0.00    -0.154 A  
HETATM    8  C   UNL     1      -9.793   9.673  69.598  1.00  0.00    -0.215 A  
HETATM    9  C   UNL     1      -9.340  12.588  68.460  1.00  0.00    -0.084 A  
HETATM   10  C   UNL     1      -9.004   9.217  70.656  1.00  0.00    -0.296 A  
HETATM   11  C   UNL     1      -9.623   8.827  71.842  1.00  0.00    -0.372 A  
HETATM   12  C   UNL     1      -8.781  13.868  68.422  1.00  0.00    -0.173 A  
HETATM   13  C   UNL     1     -11.005   8.905  71.948  1.00  0.00    -0.439 A  
HETATM   14  C   UNL     1      -7.412  14.020  68.223  1.00  0.00    -0.123 A  
HETATM   15  C   UNL     1     -11.716   9.389  70.864  1.00  0.00    -0.308 A  
HETATM   16  C   UNL     1      -6.595  12.903  68.067  1.00  0.00    -0.107 A  
HETATM   17 CL   UNL     1      -6.727  15.598  68.160  1.00  0.00    -0.121 Cl 
HETATM   18  N   UNL     1     -11.144   9.778  69.704  1.00  0.00    -0.235 NA 
HETATM   19  C   UNL     1      -7.153  11.623  68.097  1.00  0.00    -0.078 A  
ENDBRANCH   4   5
ENDBRANCH   2   4
TORSDOF 2
ENDMDL
MODEL      111
REMARK 921   NORMALIZED FREE ENERGY PREDICTED BY IDOCK:   -3.90 KCAL/MOL
REMARK 922        TOTAL FREE ENERGY PREDICTED BY IDOCK:   -4.52 KCAL/MOL
REMARK 923 INTER-LIGAND FREE ENERGY PREDICTED BY IDOCK:   -4.37 KCAL/MOL
REMARK 924 INTRA-LIGAND FREE ENERGY PREDICTED BY IDOCK:   -0.15 KCAL/MOL
REMARK 927      BINDING AFFINITY PREDICTED BY RF-SCORE:    0.00 PKD
ROOT
HETATM    1  C   UNL     1      -5.830  15.083  68.022  1.00  0.00    -0.145 C  
HETATM    2  N   UNL     1      -7.092  15.188  68.762  1.00  0.00    -0.111 NA 
HETATM    3  C   UNL     1      -7.482  16.597  68.873  1.00  0.00    -0.232 C  
ENDROOT
BRANCH   2   4
HETATM    4  C   UNL     1      -8.177  14.428  68.114  1.00  0.00    -0.149 C  
BRANCH   4   5
HETATM    5  C   UNL     1      -8.172  12.923  68.411  1.00  0.00    -0.121 C  
HETATM    6  C   UNL     1      -9.576  12.266  68.435  1.00  0.00    -0.183 C  
HETATM    7  C   UNL     1     -10.252  12.307  67.068  1.00  0.00    -0.230 A  
HETATM    8  C   UNL     1      -9.501  10.852  69.010  1.00  0.00    -0.146 A  
HETATM    9  C   UNL     1      -9.690  11.655  65.958  1.00  0.00    -0.257 A  
HETATM   10  C   UNL     1     -10.614  10.300  69.647  1.00  0.00    -0.288 A  
HETATM   11  C   UNL     1     -10.508   9.031  70.213  1.00  0.00    -0.248 A  
HETATM   12  C   UNL     1     -10.290  11.745  64.699  1.00  0.00    -0.336 A  
HETATM   13  C   UNL     1      -9.306   8.344  70.128  1.00  0.00    -0.164 A  
HETATM   14  C   UNL     1     -11.463  12.478  64.542  1.00  0.00    -0.337 A  
HETATM   15  C   UNL     1      -8.255   8.948  69.461  1.00  0.00    -0.107 A  
HETATM   16  C   UNL     1     -12.045  13.118  65.634  1.00  0.00    -0.501 A  
HETATM   17 CL   UNL     1     -12.192  12.602  62.988  1.00  0.00    -0.308 Cl 
HETATM   18  N   UNL     1      -8.328  10.174  68.899  1.00  0.00    -0.121 NA 
HETATM   19  C   UNL     1     -11.442  13.036  66.892  1.00  0.00    -0.387 A  
ENDBRANCH   4   5
ENDBRANCH   2   4
TORSDOF 2
ENDMDL
MODEL      112
REMARK 921   NORMALIZED FREE ENERGY PREDICTED BY IDOCK:   -3.88 KCAL/MOL
REMARK 922        TOTAL FREE ENERGY PREDICTED BY IDOCK:   -4.50 KCAL/MOL
REMARK 923 INTER-LIGAND FREE ENERGY PREDICTED BY IDOCK:   -4.32 KCAL/MOL
REMARK 924 INTRA-LIGAND FREE ENERGY PREDICTED BY IDOCK:   -0.18 KCAL/MOL
REMARK 927      BINDING AFFINITY PREDICTED BY RF-SCORE:    0.00 PKD
ROOT
HETATM    1  C   UNL     1      -6.609   8.176  64.130  1.00  0.00    -0.066 C  
HETATM    2  N   UNL     1      -6.739   9.622  63.932  1.00  0.00    -0.107 NA 
HETATM    3  C   UNL     1      -7.212   9.894  62.571  1.00  0.00    -0.121 C  
ENDROOT
BRANCH   2   4
HETATM    4  C   UNL     1      -7.665  10.232  64.904  1.00  0.00    -0.124 C  
BRANCH   4   5
HETATM    5  C   UNL     1      -8.662   9.255  65.541  1.00  0.00    -0.204 C  
HETATM    6  C   UNL     1      -8.989   9.545  67.028  1.00  0.00    -0.150 C  
HETATM    7  C   UNL     1      -9.709  10.879  67.207  1.00  0.00    -0.189 A  
HETATM    8  C   UNL     1      -9.753   8.378  67.651  1.00  0.00    -0.160 A  
HETATM    9  C   UNL     1     -10.966  11.112  66.625  1.00  0.00    -0.289 A  
HETATM   10  C   UNL     1      -9.660   8.138  69.023  1.00  0.00    -0.156 A  
HETATM   11  C   UNL     1     -10.320   7.036  69.563  1.00  0.00    -0.225 A  
HETATM   12  C   UNL     1     -11.591  12.355  66.751  1.00  0.00    -0.444 A  
HETATM   13  C   UNL     1     -11.058   6.206  68.730  1.00  0.00    -0.398 A  
HETATM   14  C   UNL     1     -10.969  13.372  67.470  1.00  0.00    -0.267 A  
HETATM   15  C   UNL     1     -11.120   6.523  67.384  1.00  0.00    -0.327 A  
HETATM   16  C   UNL     1      -9.730  13.156  68.069  1.00  0.00    -0.224 A  
HETATM   17 CL   UNL     1     -11.732  14.909  67.611  1.00  0.00    -0.363 Cl 
HETATM   18  N   UNL     1     -10.495   7.585  66.833  1.00  0.00    -0.325 NA 
HETATM   19  C   UNL     1      -9.101  11.916  67.938  1.00  0.00    -0.183 A  
ENDBRANCH   4   5
ENDBRANCH   2   4
TORSDOF 2
ENDMDL
MODEL      113
REMARK 921   NORMALIZED FREE ENERGY PREDICTED BY IDOCK:   -3.87 KCAL/MOL
REMARK 922        TOTAL FREE ENERGY PREDICTED BY IDOCK:   -4.49 KCAL/MOL
REMARK 923 INTER-LIGAND FREE ENERGY PREDICTED BY IDOCK:   -4.32 KCAL/MOL
REMARK 924 INTRA-LIGAND FREE ENERGY PREDICTED BY IDOCK:   -0.17 KCAL/MOL
REMARK 927      BINDING AFFINITY PREDICTED BY RF-SCORE:    0.00 PKD
ROOT
HETATM    1  C   UNL     1      -7.920  10.100  69.396  1.00  0.00    -0.154 C  
HETATM    2  N   UNL     1      -7.921   8.899  68.556  1.00  0.00    -0.103 NA 
HETATM    3  C   UNL     1      -6.548   8.413  68.388  1.00  0.00    -0.060 C  
ENDROOT
BRANCH   2   4
HETATM    4  C   UNL     1      -8.755   7.825  69.128  1.00  0.00    -0.139 C  
BRANCH   4   5
HETATM    5  C   UNL     1      -9.859   8.307  70.079  1.00  0.00    -0.182 C  
HETATM    6  C   UNL     1     -10.861   7.208  70.513  1.00  0.00    -0.269 C  
HETATM    7  C   UNL     1     -10.193   6.118  71.346  1.00  0.00    -0.248 A  
HETATM    8  C   UNL     1     -12.070   7.825  71.215  1.00  0.00    -0.306 A  
HETATM    9  C   UNL     1      -9.593   6.412  72.582  1.00  0.00    -0.150 A  
HETATM   10  C   UNL     1     -13.303   7.172  71.182  1.00  0.00    -0.238 A  
HETATM   11  C   UNL     1     -14.405   7.779  71.782  1.00  0.00    -0.594 A  
HETATM   12  C   UNL     1      -8.937   5.416  73.310  1.00  0.00    -0.120 A  
HETATM   13  C   UNL     1     -14.253   9.011  72.402  1.00  0.00    -0.416 A  
HETATM   14  C   UNL     1      -8.885   4.117  72.814  1.00  0.00    -0.103 A  
HETATM   15  C   UNL     1     -12.994   9.584  72.412  1.00  0.00    -0.317 A  
HETATM   16  C   UNL     1      -9.487   3.802  71.599  1.00  0.00    -0.213 A  
HETATM   17 CL   UNL     1      -8.062   2.895  73.705  1.00  0.00    -0.070 Cl 
HETATM   18  N   UNL     1     -11.907   9.020  71.844  1.00  0.00    -0.365 NA 
HETATM   19  C   UNL     1     -10.137   4.798  70.866  1.00  0.00    -0.275 A  
ENDBRANCH   4   5
ENDBRANCH   2   4
TORSDOF 2
ENDMDL
MODEL      114
REMARK 921   NORMALIZED FREE ENERGY PREDICTED BY IDOCK:   -3.85 KCAL/MOL
REMARK 922        TOTAL FREE ENERGY PREDICTED BY IDOCK:   -4.46 KCAL/MOL
REMARK 923 INTER-LIGAND FREE ENERGY PREDICTED BY IDOCK:   -4.24 KCAL/MOL
REMARK 924 INTRA-LIGAND FREE ENERGY PREDICTED BY IDOCK:   -0.22 KCAL/MOL
REMARK 927      BINDING AFFINITY PREDICTED BY RF-SCORE:    0.00 PKD
ROOT
HETATM    1  C   UNL     1      -6.019   6.681  73.981  1.00  0.00    -0.063 C  
HETATM    2  N   UNL     1      -7.264   6.641  73.208  1.00  0.00    -0.077 NA 
HETATM    3  C   UNL     1      -8.044   5.460  73.590  1.00  0.00    -0.113 C  
ENDROOT
BRANCH   2   4
HETATM    4  C   UNL     1      -8.079   7.854  73.409  1.00  0.00    -0.177 C  
BRANCH   4   5
HETATM    5  C   UNL     1      -9.543   7.724  72.969  1.00  0.00    -0.320 C  
HETATM    6  C   UNL     1     -10.006   8.792  71.947  1.00  0.00    -0.401 C  
HETATM    7  C   UNL     1      -9.272   8.668  70.614  1.00  0.00    -0.206 A  
HETATM    8  C   UNL     1     -11.525   8.763  71.784  1.00  0.00    -0.342 A  
HETATM    9  C   UNL     1      -9.380   7.508  69.829  1.00  0.00    -0.150 A  
HETATM   10  C   UNL     1     -12.208   9.920  71.405  1.00  0.00    -0.499 A  
HETATM   11  C   UNL     1     -13.598   9.886  71.317  1.00  0.00    -0.265 A  
HETATM   12  C   UNL     1      -8.661   7.384  68.638  1.00  0.00    -0.128 A  
HETATM   13  C   UNL     1     -14.272   8.707  71.600  1.00  0.00    -0.463 A  
HETATM   14  C   UNL     1      -7.837   8.423  68.216  1.00  0.00    -0.110 A  
HETATM   15  C   UNL     1     -13.523   7.595  71.947  1.00  0.00    -0.252 A  
HETATM   16  C   UNL     1      -7.729   9.588  68.971  1.00  0.00    -0.076 A  
HETATM   17 CL   UNL     1      -6.939   8.262  66.756  1.00  0.00    -0.069 Cl 
HETATM   18  N   UNL     1     -12.176   7.596  72.037  1.00  0.00    -0.299 NA 
HETATM   19  C   UNL     1      -8.442   9.711  70.167  1.00  0.00    -0.231 A  
ENDBRANCH   4   5
ENDBRANCH   2   4
TORSDOF 2
ENDMDL
MODEL      115
REMARK 921   NORMALIZED FREE ENERGY PREDICTED BY IDOCK:   -3.77 KCAL/MOL
REMARK 922        TOTAL FREE ENERGY PREDICTED BY IDOCK:   -4.37 KCAL/MOL
REMARK 923 INTER-LIGAND FREE ENERGY PREDICTED BY IDOCK:   -4.20 KCAL/MOL
REMARK 924 INTRA-LIGAND FREE ENERGY PREDICTED BY IDOCK:   -0.17 KCAL/MOL
REMARK 927      BINDING AFFINITY PREDICTED BY RF-SCORE:    0.00 PKD
ROOT
HETATM    1  C   UNL     1      -9.832  11.858  67.222  1.00  0.00    -0.187 C  
HETATM    2  N   UNL     1      -9.933  10.952  66.075  1.00  0.00    -0.230 NA 
HETATM    3  C   UNL     1      -8.647  10.898  65.373  1.00  0.00    -0.120 C  
ENDROOT
BRANCH   2   4
HETATM    4  C   UNL     1     -10.328   9.589  66.480  1.00  0.00    -0.193 C  
BRANCH   4   5
HETATM    5  C   UNL     1     -10.137   9.282  67.972  1.00  0.00    -0.234 C  
HETATM    6  C   UNL     1     -10.783   7.956  68.445  1.00  0.00    -0.073 C  
HETATM    7  C   UNL     1     -10.134   6.738  67.794  1.00  0.00    -0.189 A  
HETATM    8  C   UNL     1     -10.790   7.872  69.971  1.00  0.00    -0.238 A  
HETATM    9  C   UNL     1      -8.776   6.440  67.998  1.00  0.00    -0.115 A  
HETATM   10  C   UNL     1     -11.768   7.119  70.622  1.00  0.00    -0.348 A  
HETATM   11  C   UNL     1     -11.791   7.101  72.015  1.00  0.00    -0.333 A  
HETATM   12  C   UNL     1      -8.180   5.353  67.354  1.00  0.00    -0.100 A  
HETATM   13  C   UNL     1     -10.841   7.823  72.723  1.00  0.00    -0.438 A  
HETATM   14  C   UNL     1      -8.939   4.547  66.511  1.00  0.00    -0.114 A  
HETATM   15  C   UNL     1      -9.890   8.528  72.006  1.00  0.00    -0.312 A  
HETATM   16  C   UNL     1     -10.290   4.815  66.309  1.00  0.00    -0.329 A  
HETATM   17 CL   UNL     1      -8.200   3.217  65.705  1.00  0.00    -0.093 Cl 
HETATM   18  N   UNL     1      -9.840   8.562  70.657  1.00  0.00    -0.180 NA 
HETATM   19  C   UNL     1     -10.887   5.906  66.946  1.00  0.00    -0.376 A  
ENDBRANCH   4   5
ENDBRANCH   2   4
TORSDOF 2
ENDMDL
MODEL      116
REMARK 921   NORMALIZED FREE ENERGY PREDICTED BY IDOCK:   -3.75 KCAL/MOL
REMARK 922        TOTAL FREE ENERGY PREDICTED BY IDOCK:   -4.35 KCAL/MOL
REMARK 923 INTER-LIGAND FREE ENERGY PREDICTED BY IDOCK:   -4.09 KCAL/MOL
REMARK 924 INTRA-LIGAND FREE ENERGY PREDICTED BY IDOCK:   -0.26 KCAL/MOL
REMARK 927      BINDING AFFINITY PREDICTED BY RF-SCORE:    0.00 PKD
ROOT
HETATM    1  C   UNL     1     -12.977  12.248  72.120  1.00  0.00    -0.186 C  
HETATM    2  N   UNL     1     -12.935  11.804  70.724  1.00  0.00    -0.055 NA 
HETATM    3  C   UNL     1     -11.851  12.494  70.019  1.00  0.00    -0.289 C  
ENDROOT
BRANCH   2   4
HETATM    4  C   UNL     1     -12.742  10.345  70.614  1.00  0.00    -0.333 C  
BRANCH   4   5
HETATM    5  C   UNL     1     -11.493   9.808  71.325  1.00  0.00    -0.457 C  
HETATM    6  C   UNL     1     -10.762   8.670  70.570  1.00  0.00    -0.252 C  
HETATM    7  C   UNL     1     -10.179   9.144  69.241  1.00  0.00    -0.215 A  
HETATM    8  C   UNL     1      -9.714   8.011  71.468  1.00  0.00    -0.167 A  
HETATM    9  C   UNL     1      -9.197  10.146  69.193  1.00  0.00    -0.204 A  
HETATM   10  C   UNL     1      -9.354   6.679  71.256  1.00  0.00    -0.159 A  
HETATM   11  C   UNL     1      -8.439   6.082  72.120  1.00  0.00    -0.124 A  
HETATM   12  C   UNL     1      -8.710  10.610  67.968  1.00  0.00    -0.126 A  
HETATM   13  C   UNL     1      -7.902   6.821  73.164  1.00  0.00    -0.099 A  
HETATM   14  C   UNL     1      -9.194  10.067  66.782  1.00  0.00    -0.148 A  
HETATM   15  C   UNL     1      -8.292   8.143  73.295  1.00  0.00    -0.214 A  
HETATM   16  C   UNL     1     -10.156   9.060  66.808  1.00  0.00    -0.344 A  
HETATM   17 CL   UNL     1      -8.606  10.650  65.273  1.00  0.00    -0.179 Cl 
HETATM   18  N   UNL     1      -9.173   8.750  72.472  1.00  0.00    -0.337 NA 
HETATM   19  C   UNL     1     -10.649   8.600  68.032  1.00  0.00    -0.205 A  
ENDBRANCH   4   5
ENDBRANCH   2   4
TORSDOF 2
ENDMDL
MODEL      117
REMARK 921   NORMALIZED FREE ENERGY PREDICTED BY IDOCK:   -3.74 KCAL/MOL
REMARK 922        TOTAL FREE ENERGY PREDICTED BY IDOCK:   -4.34 KCAL/MOL
REMARK 923 INTER-LIGAND FREE ENERGY PREDICTED BY IDOCK:   -4.17 KCAL/MOL
REMARK 924 INTRA-LIGAND FREE ENERGY PREDICTED BY IDOCK:   -0.17 KCAL/MOL
REMARK 927      BINDING AFFINITY PREDICTED BY RF-SCORE:    0.00 PKD
ROOT
HETATM    1  C   UNL     1      -5.814  14.352  67.643  1.00  0.00     0.004 C  
HETATM    2  N   UNL     1      -6.265  13.177  68.395  1.00  0.00    -0.076 NA 
HETATM    3  C   UNL     1      -7.029  13.607  69.571  1.00  0.00     0.090 C  
ENDROOT
BRANCH   2   4
HETATM    4  C   UNL     1      -7.096  12.278  67.572  1.00  0.00    -0.142 C  
BRANCH   4   5
HETATM    5  C   UNL     1      -8.413  12.894  67.080  1.00  0.00    -0.146 C  
HETATM    6  C   UNL     1      -9.165  12.045  66.024  1.00  0.00    -0.152 C  
HETATM    7  C   UNL     1      -9.643  10.712  66.593  1.00  0.00    -0.209 A  
HETATM    8  C   UNL     1     -10.298  12.852  65.390  1.00  0.00    -0.296 A  
HETATM    9  C   UNL     1     -10.561  10.661  67.655  1.00  0.00    -0.288 A  
HETATM   10  C   UNL     1     -10.723  12.556  64.094  1.00  0.00    -0.423 A  
HETATM   11  C   UNL     1     -11.719  13.339  63.514  1.00  0.00    -0.390 A  
HETATM   12  C   UNL     1     -10.949   9.436  68.203  1.00  0.00    -0.102 A  
HETATM   13  C   UNL     1     -12.270  14.388  64.236  1.00  0.00    -0.450 A  
HETATM   14  C   UNL     1     -10.432   8.252  67.687  1.00  0.00    -0.235 A  
HETATM   15  C   UNL     1     -11.812  14.605  65.523  1.00  0.00    -0.292 A  
HETATM   16  C   UNL     1      -9.533   8.280  66.623  1.00  0.00    -0.271 A  
HETATM   17 CL   UNL     1     -10.898   6.744  68.374  1.00  0.00    -0.281 Cl 
HETATM   18  N   UNL     1     -10.851  13.861  66.114  1.00  0.00    -0.289 NA 
HETATM   19  C   UNL     1      -9.138   9.505  66.079  1.00  0.00    -0.220 A  
ENDBRANCH   4   5
ENDBRANCH   2   4
TORSDOF 2
ENDMDL
MODEL      118
REMARK 921   NORMALIZED FREE ENERGY PREDICTED BY IDOCK:   -3.71 KCAL/MOL
REMARK 922        TOTAL FREE ENERGY PREDICTED BY IDOCK:   -4.30 KCAL/MOL
REMARK 923 INTER-LIGAND FREE ENERGY PREDICTED BY IDOCK:   -4.14 KCAL/MOL
REMARK 924 INTRA-LIGAND FREE ENERGY PREDICTED BY IDOCK:   -0.16 KCAL/MOL
REMARK 927      BINDING AFFINITY PREDICTED BY RF-SCORE:    0.00 PKD
ROOT
HETATM    1  C   UNL     1      -9.447   2.203  68.476  1.00  0.00    -0.151 C  
HETATM    2  N   UNL     1      -8.476   3.280  68.259  1.00  0.00    -0.082 NA 
HETATM    3  C   UNL     1      -7.404   2.808  67.377  1.00  0.00    -0.057 C  
ENDROOT
BRANCH   2   4
HETATM    4  C   UNL     1      -9.103   4.479  67.670  1.00  0.00    -0.122 C  
BRANCH   4   5
HETATM    5  C   UNL     1     -10.069   5.222  68.604  1.00  0.00    -0.238 C  
HETATM    6  C   UNL     1      -9.518   6.554  69.171  1.00  0.00    -0.136 C  
HETATM    7  C   UNL     1      -9.289   7.593  68.077  1.00  0.00    -0.144 A  
HETATM    8  C   UNL     1     -10.415   7.074  70.295  1.00  0.00    -0.208 A  
HETATM    9  C   UNL     1     -10.352   8.075  67.296  1.00  0.00    -0.371 A  
HETATM   10  C   UNL     1      -9.875   7.879  71.300  1.00  0.00    -0.198 A  
HETATM   11  C   UNL     1     -10.697   8.297  72.345  1.00  0.00    -0.411 A  
HETATM   12  C   UNL     1     -10.121   8.985  66.261  1.00  0.00    -0.311 A  
HETATM   13  C   UNL     1     -12.030   7.911  72.361  1.00  0.00    -0.373 A  
HETATM   14  C   UNL     1      -8.827   9.429  66.007  1.00  0.00    -0.156 A  
HETATM   15  C   UNL     1     -12.496   7.132  71.317  1.00  0.00    -0.386 A  
HETATM   16  C   UNL     1      -7.761   8.977  66.781  1.00  0.00    -0.093 A  
HETATM   17 CL   UNL     1      -8.541  10.538  64.721  1.00  0.00    -0.182 Cl 
HETATM   18  N   UNL     1     -11.726   6.715  70.289  1.00  0.00    -0.397 NA 
HETATM   19  C   UNL     1      -7.989   8.061  67.811  1.00  0.00    -0.127 A  
ENDBRANCH   4   5
ENDBRANCH   2   4
TORSDOF 2
ENDMDL
MODEL      119
REMARK 921   NORMALIZED FREE ENERGY PREDICTED BY IDOCK:   -3.70 KCAL/MOL
REMARK 922        TOTAL FREE ENERGY PREDICTED BY IDOCK:   -4.30 KCAL/MOL
REMARK 923 INTER-LIGAND FREE ENERGY PREDICTED BY IDOCK:   -4.13 KCAL/MOL
REMARK 924 INTRA-LIGAND FREE ENERGY PREDICTED BY IDOCK:   -0.17 KCAL/MOL
REMARK 927      BINDING AFFINITY PREDICTED BY RF-SCORE:    0.00 PKD
ROOT
HETATM    1  C   UNL     1      -9.588  12.538  66.741  1.00  0.00    -0.231 C  
HETATM    2  N   UNL     1     -10.993  12.207  66.998  1.00  0.00    -0.257 NA 
HETATM    3  C   UNL     1     -11.757  12.294  65.749  1.00  0.00    -0.385 C  
ENDROOT
BRANCH   2   4
HETATM    4  C   UNL     1     -11.145  10.856  67.573  1.00  0.00    -0.310 C  
BRANCH   4   5
HETATM    5  C   UNL     1      -9.830  10.095  67.781  1.00  0.00    -0.190 C  
HETATM    6  C   UNL     1      -9.420   9.910  69.264  1.00  0.00    -0.218 C  
HETATM    7  C   UNL     1     -10.407   9.032  70.027  1.00  0.00    -0.226 A  
HETATM    8  C   UNL     1      -7.982   9.403  69.368  1.00  0.00    -0.089 A  
HETATM    9  C   UNL     1     -10.626   7.693  69.659  1.00  0.00    -0.243 A  
HETATM   10  C   UNL     1      -7.222   9.693  70.503  1.00  0.00    -0.143 A  
HETATM   11  C   UNL     1      -5.896   9.270  70.553  1.00  0.00    -0.044 A  
HETATM   12  C   UNL     1     -11.572   6.915  70.331  1.00  0.00    -0.385 A  
HETATM   13  C   UNL     1      -5.362   8.565  69.484  1.00  0.00    -0.030 A  
HETATM   14  C   UNL     1     -12.299   7.465  71.383  1.00  0.00    -0.361 A  
HETATM   15  C   UNL     1      -6.185   8.297  68.404  1.00  0.00    -0.050 A  
HETATM   16  C   UNL     1     -12.085   8.784  71.773  1.00  0.00    -0.418 A  
HETATM   17 CL   UNL     1     -13.476   6.510  72.199  1.00  0.00    -0.009 Cl 
HETATM   18  N   UNL     1      -7.475   8.691  68.327  1.00  0.00    -0.094 NA 
HETATM   19  C   UNL     1     -11.145   9.566  71.098  1.00  0.00    -0.450 A  
ENDBRANCH   4   5
ENDBRANCH   2   4
TORSDOF 2
ENDMDL
MODEL      120
REMARK 921   NORMALIZED FREE ENERGY PREDICTED BY IDOCK:   -3.69 KCAL/MOL
REMARK 922        TOTAL FREE ENERGY PREDICTED BY IDOCK:   -4.28 KCAL/MOL
REMARK 923 INTER-LIGAND FREE ENERGY PREDICTED BY IDOCK:   -4.11 KCAL/MOL
REMARK 924 INTRA-LIGAND FREE ENERGY PREDICTED BY IDOCK:   -0.17 KCAL/MOL
REMARK 927      BINDING AFFINITY PREDICTED BY RF-SCORE:    0.00 PKD
ROOT
HETATM    1  C   UNL     1     -11.941  11.906  69.536  1.00  0.00    -0.292 C  
HETATM    2  N   UNL     1     -11.606  10.853  70.498  1.00  0.00    -0.328 NA 
HETATM    3  C   UNL     1     -12.837  10.265  71.035  1.00  0.00    -0.397 C  
ENDROOT
BRANCH   2   4
HETATM    4  C   UNL     1     -10.780   9.792  69.891  1.00  0.00    -0.268 C  
BRANCH   4   5
HETATM    5  C   UNL     1     -10.598   9.911  68.372  1.00  0.00    -0.258 C  
HETATM    6  C   UNL     1      -9.310   9.248  67.823  1.00  0.00    -0.145 C  
HETATM    7  C   UNL     1      -9.317   7.734  68.014  1.00  0.00    -0.146 A  
HETATM    8  C   UNL     1      -9.069   9.655  66.370  1.00  0.00    -0.156 A  
HETATM    9  C   UNL     1     -10.292   6.928  67.403  1.00  0.00    -0.297 A  
HETATM   10  C   UNL     1      -7.770   9.676  65.859  1.00  0.00    -0.102 A  
HETATM   11  C   UNL     1      -7.567  10.103  64.548  1.00  0.00    -0.130 A  
HETATM   12  C   UNL     1     -10.322   5.550  67.629  1.00  0.00    -0.256 A  
HETATM   13  C   UNL     1      -8.655  10.490  63.779  1.00  0.00    -0.151 A  
HETATM   14  C   UNL     1      -9.370   4.964  68.458  1.00  0.00    -0.131 A  
HETATM   15  C   UNL     1      -9.914  10.420  64.350  1.00  0.00    -0.318 A  
HETATM   16  C   UNL     1      -8.384   5.743  69.060  1.00  0.00    -0.101 A  
HETATM   17 CL   UNL     1      -9.416   3.268  68.749  1.00  0.00    -0.232 Cl 
HETATM   18  N   UNL     1     -10.143  10.007  65.615  1.00  0.00    -0.277 NA 
HETATM   19  C   UNL     1      -8.358   7.123  68.841  1.00  0.00    -0.126 A  
ENDBRANCH   4   5
ENDBRANCH   2   4
TORSDOF 2
ENDMDL
MODEL      121
REMARK 921   NORMALIZED FREE ENERGY PREDICTED BY IDOCK:   -3.68 KCAL/MOL
REMARK 922        TOTAL FREE ENERGY PREDICTED BY IDOCK:   -4.27 KCAL/MOL
REMARK 923 INTER-LIGAND FREE ENERGY PREDICTED BY IDOCK:   -4.12 KCAL/MOL
REMARK 924 INTRA-LIGAND FREE ENERGY PREDICTED BY IDOCK:   -0.16 KCAL/MOL
REMARK 927      BINDING AFFINITY PREDICTED BY RF-SCORE:    0.00 PKD
ROOT
HETATM    1  C   UNL     1      -5.345   7.716  64.157  1.00  0.00    -0.029 C  
HETATM    2  N   UNL     1      -6.003   8.979  64.505  1.00  0.00    -0.065 NA 
HETATM    3  C   UNL     1      -6.824   9.435  63.378  1.00  0.00    -0.097 C  
ENDROOT
BRANCH   2   4
HETATM    4  C   UNL     1      -6.849   8.848  65.707  1.00  0.00    -0.072 C  
BRANCH   4   5
HETATM    5  C   UNL     1      -7.554  10.141  66.139  1.00  0.00    -0.114 C  
HETATM    6  C   UNL     1      -9.101  10.063  66.137  1.00  0.00    -0.188 C  
HETATM    7  C   UNL     1      -9.627   9.067  67.166  1.00  0.00    -0.218 A  
HETATM    8  C   UNL     1      -9.713  11.454  66.301  1.00  0.00    -0.212 A  
HETATM    9  C   UNL     1      -9.389   9.244  68.539  1.00  0.00    -0.143 A  
HETATM   10  C   UNL     1     -10.979  11.724  65.778  1.00  0.00    -0.353 A  
HETATM   11  C   UNL     1     -11.494  13.014  65.890  1.00  0.00    -0.374 A  
HETATM   12  C   UNL     1      -9.829   8.297  69.467  1.00  0.00    -0.181 A  
HETATM   13  C   UNL     1     -10.745  13.997  66.520  1.00  0.00    -0.281 A  
HETATM   14  C   UNL     1     -10.521   7.171  69.032  1.00  0.00    -0.211 A  
HETATM   15  C   UNL     1      -9.508  13.646  67.032  1.00  0.00    -0.252 A  
HETATM   16  C   UNL     1     -10.783   6.986  67.677  1.00  0.00    -0.331 A  
HETATM   17 CL   UNL     1     -11.049   5.997  70.175  1.00  0.00    -0.431 Cl 
HETATM   18  N   UNL     1      -8.983  12.405  66.943  1.00  0.00    -0.208 NA 
HETATM   19  C   UNL     1     -10.337   7.928  66.746  1.00  0.00    -0.357 A  
ENDBRANCH   4   5
ENDBRANCH   2   4
TORSDOF 2
ENDMDL
MODEL      122
REMARK 921   NORMALIZED FREE ENERGY PREDICTED BY IDOCK:   -3.61 KCAL/MOL
REMARK 922        TOTAL FREE ENERGY PREDICTED BY IDOCK:   -4.20 KCAL/MOL
REMARK 923 INTER-LIGAND FREE ENERGY PREDICTED BY IDOCK:   -4.03 KCAL/MOL
REMARK 924 INTRA-LIGAND FREE ENERGY PREDICTED BY IDOCK:   -0.17 KCAL/MOL
REMARK 927      BINDING AFFINITY PREDICTED BY RF-SCORE:    0.00 PKD
ROOT
HETATM    1  C   UNL     1      -6.837   5.924  72.957  1.00  0.00    -0.075 C  
HETATM    2  N   UNL     1      -7.982   5.028  73.149  1.00  0.00    -0.103 NA 
HETATM    3  C   UNL     1      -8.678   5.377  74.392  1.00  0.00    -0.118 C  
ENDROOT
BRANCH   2   4
HETATM    4  C   UNL     1      -8.930   5.092  72.021  1.00  0.00    -0.133 C  
BRANCH   4   5
HETATM    5  C   UNL     1      -8.525   6.055  70.896  1.00  0.00    -0.127 C  
HETATM    6  C   UNL     1      -9.661   6.396  69.900  1.00  0.00    -0.185 C  
HETATM    7  C   UNL     1     -10.799   7.163  70.567  1.00  0.00    -0.269 A  
HETATM    8  C   UNL     1      -9.106   7.119  68.673  1.00  0.00    -0.133 A  
HETATM    9  C   UNL     1     -10.586   8.426  71.143  1.00  0.00    -0.266 A  
HETATM   10  C   UNL     1      -9.768   7.021  67.448  1.00  0.00    -0.177 A  
HETATM   11  C   UNL     1      -9.214   7.642  66.330  1.00  0.00    -0.223 A  
HETATM   12  C   UNL     1     -11.623   9.095  71.798  1.00  0.00    -0.457 A  
HETATM   13  C   UNL     1      -8.027   8.348  66.458  1.00  0.00    -0.096 A  
HETATM   14  C   UNL     1     -12.884   8.512  71.873  1.00  0.00    -0.363 A  
HETATM   15  C   UNL     1      -7.443   8.419  67.711  1.00  0.00    -0.098 A  
HETATM   16  C   UNL     1     -13.121   7.267  71.294  1.00  0.00    -0.363 A  
HETATM   17 CL   UNL     1     -14.157   9.329  72.695  1.00  0.00    -0.380 Cl 
HETATM   18  N   UNL     1      -7.956   7.831  68.813  1.00  0.00    -0.123 NA 
HETATM   19  C   UNL     1     -12.083   6.594  70.644  1.00  0.00    -0.342 A  
ENDBRANCH   4   5
ENDBRANCH   2   4
TORSDOF 2
ENDMDL
MODEL      123
REMARK 921   NORMALIZED FREE ENERGY PREDICTED BY IDOCK:   -3.60 KCAL/MOL
REMARK 922        TOTAL FREE ENERGY PREDICTED BY IDOCK:   -4.18 KCAL/MOL
REMARK 923 INTER-LIGAND FREE ENERGY PREDICTED BY IDOCK:   -4.02 KCAL/MOL
REMARK 924 INTRA-LIGAND FREE ENERGY PREDICTED BY IDOCK:   -0.16 KCAL/MOL
REMARK 927      BINDING AFFINITY PREDICTED BY RF-SCORE:    0.00 PKD
ROOT
HETATM    1  C   UNL     1      -7.991   9.663  67.676  1.00  0.00    -0.106 C  
HETATM    2  N   UNL     1      -8.282   8.237  67.845  1.00  0.00    -0.127 NA 
HETATM    3  C   UNL     1      -7.236   7.439  67.198  1.00  0.00    -0.089 C  
ENDROOT
BRANCH   2   4
HETATM    4  C   UNL     1      -8.381   7.857  69.267  1.00  0.00    -0.136 C  
BRANCH   4   5
HETATM    5  C   UNL     1      -8.749   6.389  69.515  1.00  0.00    -0.133 C  
HETATM    6  C   UNL     1      -9.189   6.071  70.967  1.00  0.00    -0.168 C  
HETATM    7  C   UNL     1     -10.487   6.782  71.342  1.00  0.00    -0.238 A  
HETATM    8  C   UNL     1      -9.261   4.561  71.192  1.00  0.00    -0.140 A  
HETATM    9  C   UNL     1     -11.684   6.521  70.655  1.00  0.00    -0.436 A  
HETATM   10  C   UNL     1      -9.069   4.038  72.472  1.00  0.00    -0.136 A  
HETATM   11  C   UNL     1      -9.083   2.656  72.645  1.00  0.00    -0.111 A  
HETATM   12  C   UNL     1     -12.854   7.217  70.972  1.00  0.00    -0.268 A  
HETATM   13  C   UNL     1      -9.293   1.832  71.549  1.00  0.00    -0.175 A  
HETATM   14  C   UNL     1     -12.838   8.171  71.985  1.00  0.00    -0.318 A  
HETATM   15  C   UNL     1      -9.498   2.426  70.316  1.00  0.00    -0.088 A  
HETATM   16  C   UNL     1     -11.665   8.433  72.688  1.00  0.00    -0.364 A  
HETATM   17 CL   UNL     1     -14.275   9.040  72.363  1.00  0.00    -0.489 Cl 
HETATM   18  N   UNL     1      -9.493   3.762  70.117  1.00  0.00    -0.176 NA 
HETATM   19  C   UNL     1     -10.493   7.743  72.368  1.00  0.00    -0.321 A  
ENDBRANCH   4   5
ENDBRANCH   2   4
TORSDOF 2
ENDMDL
MODEL      124
REMARK 921   NORMALIZED FREE ENERGY PREDICTED BY IDOCK:   -3.60 KCAL/MOL
REMARK 922        TOTAL FREE ENERGY PREDICTED BY IDOCK:   -4.18 KCAL/MOL
REMARK 923 INTER-LIGAND FREE ENERGY PREDICTED BY IDOCK:   -3.91 KCAL/MOL
REMARK 924 INTRA-LIGAND FREE ENERGY PREDICTED BY IDOCK:   -0.27 KCAL/MOL
REMARK 927      BINDING AFFINITY PREDICTED BY RF-SCORE:    0.00 PKD
ROOT
HETATM    1  C   UNL     1      -7.683   9.084  70.755  1.00  0.00    -0.128 C  
HETATM    2  N   UNL     1      -7.948   8.957  69.319  1.00  0.00    -0.102 NA 
HETATM    3  C   UNL     1      -7.255   7.776  68.792  1.00  0.00    -0.081 C  
ENDROOT
BRANCH   2   4
HETATM    4  C   UNL     1      -9.391   8.848  69.031  1.00  0.00    -0.144 C  
BRANCH   4   5
HETATM    5  C   UNL     1     -10.124  10.191  68.913  1.00  0.00    -0.211 C  
HETATM    6  C   UNL     1      -9.339  11.289  68.151  1.00  0.00    -0.181 C  
HETATM    7  C   UNL     1      -9.123  10.927  66.684  1.00  0.00    -0.175 A  
HETATM    8  C   UNL     1     -10.008  12.652  68.326  1.00  0.00    -0.229 A  
HETATM    9  C   UNL     1     -10.208  10.745  65.811  1.00  0.00    -0.319 A  
HETATM   10  C   UNL     1      -9.245  13.818  68.246  1.00  0.00    -0.204 A  
HETATM   11  C   UNL     1      -9.864  15.047  68.464  1.00  0.00    -0.217 A  
HETATM   12  C   UNL     1      -9.999  10.361  64.485  1.00  0.00    -0.401 A  
HETATM   13  C   UNL     1     -11.222  15.087  68.748  1.00  0.00    -0.288 A  
HETATM   14  C   UNL     1      -8.703  10.166  64.016  1.00  0.00    -0.212 A  
HETATM   15  C   UNL     1     -11.915  13.890  68.787  1.00  0.00    -0.358 A  
HETATM   16  C   UNL     1      -7.613  10.358  64.861  1.00  0.00    -0.074 A  
HETATM   17 CL   UNL     1      -8.448   9.677  62.386  1.00  0.00    -0.162 Cl 
HETATM   18  N   UNL     1     -11.344  12.684  68.577  1.00  0.00    -0.272 NA 
HETATM   19  C   UNL     1      -7.820  10.735  66.190  1.00  0.00    -0.155 A  
ENDBRANCH   4   5
ENDBRANCH   2   4
TORSDOF 2
ENDMDL
MODEL      125
REMARK 921   NORMALIZED FREE ENERGY PREDICTED BY IDOCK:   -3.58 KCAL/MOL
REMARK 922        TOTAL FREE ENERGY PREDICTED BY IDOCK:   -4.16 KCAL/MOL
REMARK 923 INTER-LIGAND FREE ENERGY PREDICTED BY IDOCK:   -3.99 KCAL/MOL
REMARK 924 INTRA-LIGAND FREE ENERGY PREDICTED BY IDOCK:   -0.17 KCAL/MOL
REMARK 927      BINDING AFFINITY PREDICTED BY RF-SCORE:    0.00 PKD
ROOT
HETATM    1  C   UNL     1      -8.104   5.290  63.892  1.00  0.00    -0.117 C  
HETATM    2  N   UNL     1      -7.800   6.510  64.644  1.00  0.00    -0.108 NA 
HETATM    3  C   UNL     1      -7.790   7.660  63.734  1.00  0.00    -0.117 C  
ENDROOT
BRANCH   2   4
HETATM    4  C   UNL     1      -8.773   6.750  65.726  1.00  0.00    -0.110 C  
BRANCH   4   5
HETATM    5  C   UNL     1      -8.792   8.185  66.267  1.00  0.00    -0.193 C  
HETATM    6  C   UNL     1     -10.025   8.529  67.140  1.00  0.00    -0.304 C  
HETATM    7  C   UNL     1     -10.061   7.714  68.429  1.00  0.00    -0.208 A  
HETATM    8  C   UNL     1     -10.104  10.034  67.394  1.00  0.00    -0.208 A  
HETATM    9  C   UNL     1      -9.040   7.822  69.388  1.00  0.00    -0.146 A  
HETATM   10  C   UNL     1     -11.342  10.636  67.631  1.00  0.00    -0.284 A  
HETATM   11  C   UNL     1     -11.398  12.017  67.806  1.00  0.00    -0.370 A  
HETATM   12  C   UNL     1      -9.057   7.031  70.539  1.00  0.00    -0.156 A  
HETATM   13  C   UNL     1     -10.229  12.762  67.747  1.00  0.00    -0.223 A  
HETATM   14  C   UNL     1     -10.100   6.134  70.748  1.00  0.00    -0.193 A  
HETATM   15  C   UNL     1      -9.038  12.090  67.531  1.00  0.00    -0.177 A  
HETATM   16  C   UNL     1     -11.131   6.024  69.818  1.00  0.00    -0.476 A  
HETATM   17 CL   UNL     1     -10.111   5.149  72.159  1.00  0.00    -0.236 Cl 
HETATM   18  N   UNL     1      -8.951  10.753  67.362  1.00  0.00    -0.139 NA 
HETATM   19  C   UNL     1     -11.112   6.809  68.662  1.00  0.00    -0.224 A  
ENDBRANCH   4   5
ENDBRANCH   2   4
TORSDOF 2
ENDMDL
MODEL      126
REMARK 921   NORMALIZED FREE ENERGY PREDICTED BY IDOCK:   -3.58 KCAL/MOL
REMARK 922        TOTAL FREE ENERGY PREDICTED BY IDOCK:   -4.16 KCAL/MOL
REMARK 923 INTER-LIGAND FREE ENERGY PREDICTED BY IDOCK:   -3.98 KCAL/MOL
REMARK 924 INTRA-LIGAND FREE ENERGY PREDICTED BY IDOCK:   -0.18 KCAL/MOL
REMARK 927      BINDING AFFINITY PREDICTED BY RF-SCORE:    0.00 PKD
ROOT
HETATM    1  C   UNL     1     -11.057  15.655  64.581  1.00  0.00    -0.373 C  
HETATM    2  N   UNL     1     -11.189  14.592  65.582  1.00  0.00    -0.335 NA 
HETATM    3  C   UNL     1     -12.538  14.019  65.518  1.00  0.00    -0.516 C  
ENDROOT
BRANCH   2   4
HETATM    4  C   UNL     1     -10.192  13.523  65.388  1.00  0.00    -0.302 C  
BRANCH   4   5
HETATM    5  C   UNL     1      -9.891  12.690  66.641  1.00  0.00    -0.245 C  
HETATM    6  C   UNL     1     -10.082  11.163  66.462  1.00  0.00    -0.265 C  
HETATM    7  C   UNL     1      -9.093  10.576  65.458  1.00  0.00    -0.214 A  
HETATM    8  C   UNL     1     -10.039  10.450  67.813  1.00  0.00    -0.181 A  
HETATM    9  C   UNL     1      -7.708  10.630  65.684  1.00  0.00    -0.109 A  
HETATM   10  C   UNL     1     -10.721   9.245  67.986  1.00  0.00    -0.231 A  
HETATM   11  C   UNL     1     -10.716   8.640  69.241  1.00  0.00    -0.151 A  
HETATM   12  C   UNL     1      -6.811  10.137  64.733  1.00  0.00    -0.121 A  
HETATM   13  C   UNL     1     -10.030   9.242  70.287  1.00  0.00    -0.262 A  
HETATM   14  C   UNL     1      -7.292   9.576  63.553  1.00  0.00    -0.107 A  
HETATM   15  C   UNL     1      -9.358  10.425  70.030  1.00  0.00     0.261 A  
HETATM   16  C   UNL     1      -8.662   9.498  63.318  1.00  0.00    -0.238 A  
HETATM   17 CL   UNL     1      -6.186   8.984  62.375  1.00  0.00    -0.095 Cl 
HETATM   18  N   UNL     1      -9.342  11.033  68.825  1.00  0.00    -0.192 NA 
HETATM   19  C   UNL     1      -9.561   9.997  64.265  1.00  0.00    -0.301 A  
ENDBRANCH   4   5
ENDBRANCH   2   4
TORSDOF 2
ENDMDL
MODEL      127
REMARK 921   NORMALIZED FREE ENERGY PREDICTED BY IDOCK:   -3.57 KCAL/MOL
REMARK 922        TOTAL FREE ENERGY PREDICTED BY IDOCK:   -4.15 KCAL/MOL
REMARK 923 INTER-LIGAND FREE ENERGY PREDICTED BY IDOCK:   -3.86 KCAL/MOL
REMARK 924 INTRA-LIGAND FREE ENERGY PREDICTED BY IDOCK:   -0.29 KCAL/MOL
REMARK 927      BINDING AFFINITY PREDICTED BY RF-SCORE:    0.00 PKD
ROOT
HETATM    1  C   UNL     1      -8.529   3.396  66.375  1.00  0.00    -0.109 C  
HETATM    2  N   UNL     1      -8.748   4.598  67.185  1.00  0.00    -0.104 NA 
HETATM    3  C   UNL     1      -7.476   5.301  67.379  1.00  0.00    -0.084 C  
ENDROOT
BRANCH   2   4
HETATM    4  C   UNL     1      -9.725   5.513  66.563  1.00  0.00    -0.162 C  
BRANCH   4   5
HETATM    5  C   UNL     1      -9.419   7.004  66.754  1.00  0.00    -0.205 C  
HETATM    6  C   UNL     1     -10.406   7.749  67.689  1.00  0.00    -0.305 C  
HETATM    7  C   UNL     1     -10.336   7.234  69.124  1.00  0.00    -0.207 A  
HETATM    8  C   UNL     1     -10.200   9.260  67.598  1.00  0.00    -0.230 A  
HETATM    9  C   UNL     1      -9.154   7.334  69.877  1.00  0.00    -0.141 A  
HETATM   10  C   UNL     1     -11.264  10.124  67.862  1.00  0.00    -0.234 A  
HETATM   11  C   UNL     1     -11.071  11.497  67.718  1.00  0.00    -0.319 A  
HETATM   12  C   UNL     1      -9.087   6.811  71.170  1.00  0.00    -0.151 A  
HETATM   13  C   UNL     1      -9.829  11.975  67.325  1.00  0.00    -0.200 A  
HETATM   14  C   UNL     1     -10.203   6.193  71.726  1.00  0.00    -0.202 A  
HETATM   15  C   UNL     1      -8.818  11.056  67.103  1.00  0.00    -0.140 A  
HETATM   16  C   UNL     1     -11.389   6.098  71.002  1.00  0.00    -0.348 A  
HETATM   17 CL   UNL     1     -10.113   5.534  73.314  1.00  0.00    -0.191 Cl 
HETATM   18  N   UNL     1      -8.973   9.721  67.237  1.00  0.00    -0.135 NA 
HETATM   19  C   UNL     1     -11.456   6.614  69.706  1.00  0.00    -0.388 A  
ENDBRANCH   4   5
ENDBRANCH   2   4
TORSDOF 2
ENDMDL
MODEL      128
REMARK 921   NORMALIZED FREE ENERGY PREDICTED BY IDOCK:   -3.52 KCAL/MOL
REMARK 922        TOTAL FREE ENERGY PREDICTED BY IDOCK:   -4.09 KCAL/MOL
REMARK 923 INTER-LIGAND FREE ENERGY PREDICTED BY IDOCK:   -3.77 KCAL/MOL
REMARK 924 INTRA-LIGAND FREE ENERGY PREDICTED BY IDOCK:   -0.32 KCAL/MOL
REMARK 927      BINDING AFFINITY PREDICTED BY RF-SCORE:    0.00 PKD
ROOT
HETATM    1  C   UNL     1      -8.080   7.470  67.214  1.00  0.00    -0.115 C  
HETATM    2  N   UNL     1      -9.285   7.526  66.382  1.00  0.00    -0.172 NA 
HETATM    3  C   UNL     1     -10.442   7.070  67.158  1.00  0.00    -0.312 C  
ENDROOT
BRANCH   2   4
HETATM    4  C   UNL     1      -9.542   8.886  65.872  1.00  0.00    -0.223 C  
BRANCH   4   5
HETATM    5  C   UNL     1      -8.615   9.970  66.439  1.00  0.00    -0.136 C  
HETATM    6  C   UNL     1      -9.343  11.243  66.938  1.00  0.00    -0.190 C  
HETATM    7  C   UNL     1     -10.247  10.956  68.133  1.00  0.00    -0.197 A  
HETATM    8  C   UNL     1      -8.342  12.364  67.216  1.00  0.00    -0.184 A  
HETATM    9  C   UNL     1      -9.722  10.477  69.345  1.00  0.00    -0.188 A  
HETATM   10  C   UNL     1      -8.744  13.697  67.115  1.00  0.00    -0.224 A  
HETATM   11  C   UNL     1      -7.802  14.704  67.318  1.00  0.00    -0.213 A  
HETATM   12  C   UNL     1     -10.566  10.166  70.414  1.00  0.00    -0.287 A  
HETATM   13  C   UNL     1      -6.492  14.362  67.621  1.00  0.00    -0.151 A  
HETATM   14  C   UNL     1     -11.940  10.343  70.285  1.00  0.00    -0.302 A  
HETATM   15  C   UNL     1      -6.176  13.019  67.726  1.00  0.00    -0.149 A  
HETATM   16  C   UNL     1     -12.479  10.832  69.098  1.00  0.00     0.219 A  
HETATM   17 CL   UNL     1     -12.981   9.944  71.597  1.00  0.00    -0.494 Cl 
HETATM   18  N   UNL     1      -7.067  12.021  67.539  1.00  0.00    -0.117 NA 
HETATM   19  C   UNL     1     -11.638  11.136  68.025  1.00  0.00    -0.337 A  
ENDBRANCH   4   5
ENDBRANCH   2   4
TORSDOF 2
ENDMDL
MODEL      129
REMARK 921   NORMALIZED FREE ENERGY PREDICTED BY IDOCK:   -3.51 KCAL/MOL
REMARK 922        TOTAL FREE ENERGY PREDICTED BY IDOCK:   -4.08 KCAL/MOL
REMARK 923 INTER-LIGAND FREE ENERGY PREDICTED BY IDOCK:   -3.90 KCAL/MOL
REMARK 924 INTRA-LIGAND FREE ENERGY PREDICTED BY IDOCK:   -0.18 KCAL/MOL
REMARK 927      BINDING AFFINITY PREDICTED BY RF-SCORE:    0.00 PKD
ROOT
HETATM    1  C   UNL     1      -5.288   7.681  72.344  1.00  0.00    -0.036 C  
HETATM    2  N   UNL     1      -6.369   7.043  73.101  1.00  0.00    -0.061 NA 
HETATM    3  C   UNL     1      -6.182   7.293  74.534  1.00  0.00    -0.082 C  
ENDROOT
BRANCH   2   4
HETATM    4  C   UNL     1      -7.698   7.532  72.687  1.00  0.00    -0.095 C  
BRANCH   4   5
HETATM    5  C   UNL     1      -7.680   8.527  71.518  1.00  0.00    -0.146 C  
HETATM    6  C   UNL     1      -8.635   8.168  70.352  1.00  0.00    -0.131 C  
HETATM    7  C   UNL     1     -10.101   8.217  70.775  1.00  0.00    -0.211 A  
HETATM    8  C   UNL     1      -8.348   9.041  69.131  1.00  0.00    -0.123 A  
HETATM    9  C   UNL     1     -10.690   9.411  71.223  1.00  0.00    -0.421 A  
HETATM   10  C   UNL     1      -8.637   8.564  67.851  1.00  0.00    -0.134 A  
HETATM   11  C   UNL     1      -8.316   9.352  66.748  1.00  0.00    -0.123 A  
HETATM   12  C   UNL     1     -12.017   9.431  71.658  1.00  0.00    -0.465 A  
HETATM   13  C   UNL     1      -7.725  10.592  66.943  1.00  0.00    -0.114 A  
HETATM   14  C   UNL     1     -12.770   8.260  71.639  1.00  0.00    -0.327 A  
HETATM   15  C   UNL     1      -7.490  11.004  68.243  1.00  0.00    -0.092 A  
HETATM   16  C   UNL     1     -12.209   7.070  71.184  1.00  0.00    -0.427 A  
HETATM   17 CL   UNL     1     -14.400   8.283  72.192  1.00  0.00    -0.503 Cl 
HETATM   18  N   UNL     1      -7.793  10.265  69.332  1.00  0.00    -0.143 NA 
HETATM   19  C   UNL     1     -10.880   7.046  70.754  1.00  0.00    -0.272 A  
ENDBRANCH   4   5
ENDBRANCH   2   4
TORSDOF 2
ENDMDL
MODEL      130
REMARK 921   NORMALIZED FREE ENERGY PREDICTED BY IDOCK:   -3.45 KCAL/MOL
REMARK 922        TOTAL FREE ENERGY PREDICTED BY IDOCK:   -4.02 KCAL/MOL
REMARK 923 INTER-LIGAND FREE ENERGY PREDICTED BY IDOCK:   -3.80 KCAL/MOL
REMARK 924 INTRA-LIGAND FREE ENERGY PREDICTED BY IDOCK:   -0.22 KCAL/MOL
REMARK 927      BINDING AFFINITY PREDICTED BY RF-SCORE:    0.00 PKD
ROOT
HETATM    1  C   UNL     1      -8.658   7.005  66.580  1.00  0.00    -0.124 C  
HETATM    2  N   UNL     1      -9.994   6.405  66.636  1.00  0.00    -0.168 NA 
HETATM    3  C   UNL     1      -9.904   5.048  67.183  1.00  0.00    -0.182 C  
ENDROOT
BRANCH   2   4
HETATM    4  C   UNL     1     -10.925   7.204  67.456  1.00  0.00    -0.190 C  
BRANCH   4   5
HETATM    5  C   UNL     1     -10.944   6.837  68.946  1.00  0.00    -0.272 C  
HETATM    6  C   UNL     1     -10.138   7.798  69.856  1.00  0.00    -0.203 C  
HETATM    7  C   UNL     1     -10.734   9.203  69.877  1.00  0.00    -0.246 A  
HETATM    8  C   UNL     1      -9.977   7.208  71.256  1.00  0.00    -0.189 A  
HETATM    9  C   UNL     1     -12.033   9.436  70.357  1.00  0.00    -0.080 A  
HETATM   10  C   UNL     1      -8.877   7.563  72.039  1.00  0.00    -0.142 A  
HETATM   11  C   UNL     1      -8.720   6.971  73.291  1.00  0.00    -0.151 A  
HETATM   12  C   UNL     1     -12.587  10.718  70.321  1.00  0.00    -0.350 A  
HETATM   13  C   UNL     1      -9.658   6.051  73.734  1.00  0.00    -0.158 A  
HETATM   14  C   UNL     1     -11.843  11.780  69.816  1.00  0.00    -0.349 A  
HETATM   15  C   UNL     1     -10.734   5.768  72.910  1.00  0.00    -0.247 A  
HETATM   16  C   UNL     1     -10.546  11.573  69.351  1.00  0.00    -0.056 A  
HETATM   17 CL   UNL     1     -12.532  13.356  69.757  1.00  0.00    -0.193 Cl 
HETATM   18  N   UNL     1     -10.915   6.327  71.694  1.00  0.00    -0.251 NA 
HETATM   19  C   UNL     1      -9.993  10.290  69.379  1.00  0.00    -0.254 A  
ENDBRANCH   4   5
ENDBRANCH   2   4
TORSDOF 2
ENDMDL
MODEL      131
REMARK 921   NORMALIZED FREE ENERGY PREDICTED BY IDOCK:   -3.44 KCAL/MOL
REMARK 922        TOTAL FREE ENERGY PREDICTED BY IDOCK:   -4.00 KCAL/MOL
REMARK 923 INTER-LIGAND FREE ENERGY PREDICTED BY IDOCK:   -3.72 KCAL/MOL
REMARK 924 INTRA-LIGAND FREE ENERGY PREDICTED BY IDOCK:   -0.28 KCAL/MOL
REMARK 927      BINDING AFFINITY PREDICTED BY RF-SCORE:    0.00 PKD
ROOT
HETATM    1  C   UNL     1      -9.503  13.674  67.607  1.00  0.00    -0.221 C  
HETATM    2  N   UNL     1     -10.532  12.631  67.601  1.00  0.00    -0.216 NA 
HETATM    3  C   UNL     1     -11.860  13.248  67.678  1.00  0.00    -0.357 C  
ENDROOT
BRANCH   2   4
HETATM    4  C   UNL     1     -10.453  11.785  66.395  1.00  0.00    -0.235 C  
BRANCH   4   5
HETATM    5  C   UNL     1     -10.609  10.281  66.655  1.00  0.00    -0.232 C  
HETATM    6  C   UNL     1      -9.291   9.471  66.565  1.00  0.00    -0.220 C  
HETATM    7  C   UNL     1      -8.298   9.870  67.653  1.00  0.00    -0.114 A  
HETATM    8  C   UNL     1      -9.579   7.970  66.555  1.00  0.00    -0.226 A  
HETATM    9  C   UNL     1      -8.601   9.702  69.014  1.00  0.00    -0.133 A  
HETATM   10  C   UNL     1      -8.687   7.095  65.932  1.00  0.00    -0.146 A  
HETATM   11  C   UNL     1      -8.995   5.737  65.886  1.00  0.00    -0.158 A  
HETATM   12  C   UNL     1      -7.706  10.120  70.001  1.00  0.00    -0.150 A  
HETATM   13  C   UNL     1     -10.173   5.284  66.462  1.00  0.00    -0.293 A  
HETATM   14  C   UNL     1      -6.495  10.700  69.636  1.00  0.00    -0.096 A  
HETATM   15  C   UNL     1     -10.995   6.210  67.081  1.00  0.00    -0.331 A  
HETATM   16  C   UNL     1      -6.167  10.860  68.292  1.00  0.00    -0.049 A  
HETATM   17 CL   UNL     1      -5.399  11.230  70.853  1.00  0.00    -0.121 Cl 
HETATM   18  N   UNL     1     -10.722   7.530  67.145  1.00  0.00    -0.334 NA 
HETATM   19  C   UNL     1      -7.065  10.449  67.303  1.00  0.00    -0.088 A  
ENDBRANCH   4   5
ENDBRANCH   2   4
TORSDOF 2
ENDMDL
MODEL      132
REMARK 921   NORMALIZED FREE ENERGY PREDICTED BY IDOCK:   -3.42 KCAL/MOL
REMARK 922        TOTAL FREE ENERGY PREDICTED BY IDOCK:   -3.98 KCAL/MOL
REMARK 923 INTER-LIGAND FREE ENERGY PREDICTED BY IDOCK:   -3.66 KCAL/MOL
REMARK 924 INTRA-LIGAND FREE ENERGY PREDICTED BY IDOCK:   -0.32 KCAL/MOL
REMARK 927      BINDING AFFINITY PREDICTED BY RF-SCORE:    0.00 PKD
ROOT
HETATM    1  C   UNL     1      -5.608  13.309  70.640  1.00  0.00    -0.180 C  
HETATM    2  N   UNL     1      -6.444  12.759  69.568  1.00  0.00    -0.106 NA 
HETATM    3  C   UNL     1      -6.386  13.640  68.397  1.00  0.00    -0.098 C  
ENDROOT
BRANCH   2   4
HETATM    4  C   UNL     1      -6.022  11.400  69.181  1.00  0.00    -0.050 C  
BRANCH   4   5
HETATM    5  C   UNL     1      -6.883  10.271  69.762  1.00  0.00    -0.120 C  
HETATM    6  C   UNL     1      -8.408  10.458  69.568  1.00  0.00    -0.126 C  
HETATM    7  C   UNL     1      -8.808  10.422  68.095  1.00  0.00    -0.132 A  
HETATM    8  C   UNL     1      -9.189   9.451  70.412  1.00  0.00    -0.257 A  
HETATM    9  C   UNL     1      -8.595   9.276  67.311  1.00  0.00    -0.125 A  
HETATM   10  C   UNL     1     -10.478   9.760  70.849  1.00  0.00    -0.298 A  
HETATM   11  C   UNL     1     -11.150   8.852  71.665  1.00  0.00    -0.420 A  
HETATM   12  C   UNL     1      -8.916   9.274  65.951  1.00  0.00    -0.225 A  
HETATM   13  C   UNL     1     -10.530   7.662  72.017  1.00  0.00    -0.258 A  
HETATM   14  C   UNL     1      -9.461  10.413  65.367  1.00  0.00    -0.232 A  
HETATM   15  C   UNL     1      -9.260   7.417  71.525  1.00  0.00    -0.140 A  
HETATM   16  C   UNL     1      -9.696  11.553  66.131  1.00  0.00    -0.249 A  
HETATM   17 CL   UNL     1      -9.841  10.414  63.688  1.00  0.00    -0.346 Cl 
HETATM   18  N   UNL     1      -8.585   8.276  70.731  1.00  0.00    -0.131 NA 
HETATM   19  C   UNL     1      -9.369  11.560  67.489  1.00  0.00    -0.166 A  
ENDBRANCH   4   5
ENDBRANCH   2   4
TORSDOF 2
ENDMDL
MODEL      133
REMARK 921   NORMALIZED FREE ENERGY PREDICTED BY IDOCK:   -3.42 KCAL/MOL
REMARK 922        TOTAL FREE ENERGY PREDICTED BY IDOCK:   -3.98 KCAL/MOL
REMARK 923 INTER-LIGAND FREE ENERGY PREDICTED BY IDOCK:   -3.74 KCAL/MOL
REMARK 924 INTRA-LIGAND FREE ENERGY PREDICTED BY IDOCK:   -0.24 KCAL/MOL
REMARK 927      BINDING AFFINITY PREDICTED BY RF-SCORE:    0.00 PKD
ROOT
HETATM    1  C   UNL     1      -6.078   7.110  72.362  1.00  0.00    -0.041 C  
HETATM    2  N   UNL     1      -7.181   6.913  71.417  1.00  0.00    -0.078 NA 
HETATM    3  C   UNL     1      -8.440   6.759  72.154  1.00  0.00    -0.110 C  
ENDROOT
BRANCH   2   4
HETATM    4  C   UNL     1      -7.303   8.035  70.467  1.00  0.00    -0.060 C  
BRANCH   4   5
HETATM    5  C   UNL     1      -8.627   8.806  70.551  1.00  0.00    -0.187 C  
HETATM    6  C   UNL     1      -9.193   9.266  69.184  1.00  0.00    -0.149 C  
HETATM    7  C   UNL     1      -9.580   8.086  68.297  1.00  0.00    -0.156 A  
HETATM    8  C   UNL     1     -10.342  10.254  69.379  1.00  0.00    -0.235 A  
HETATM    9  C   UNL     1     -10.578   7.178  68.687  1.00  0.00    -0.217 A  
HETATM   10  C   UNL     1     -10.618  11.204  68.394  1.00  0.00    -0.223 A  
HETATM   11  C   UNL     1     -11.634  12.132  68.616  1.00  0.00    -0.372 A  
HETATM   12  C   UNL     1     -10.886   6.071  67.891  1.00  0.00    -0.378 A  
HETATM   13  C   UNL     1     -12.351  12.088  69.803  1.00  0.00    -0.112 A  
HETATM   14  C   UNL     1     -10.206   5.869  66.694  1.00  0.00    -0.205 A  
HETATM   15  C   UNL     1     -12.033  11.102  70.721  1.00  0.00    -0.312 A  
HETATM   16  C   UNL     1      -9.225   6.767  66.281  1.00  0.00    -0.161 A  
HETATM   17 CL   UNL     1     -10.574   4.497  65.723  1.00  0.00    -0.294 Cl 
HETATM   18  N   UNL     1     -11.057  10.188  70.533  1.00  0.00    -0.313 NA 
HETATM   19  C   UNL     1      -8.910   7.870  67.079  1.00  0.00    -0.140 A  
ENDBRANCH   4   5
ENDBRANCH   2   4
TORSDOF 2
ENDMDL
MODEL      134
REMARK 921   NORMALIZED FREE ENERGY PREDICTED BY IDOCK:   -3.39 KCAL/MOL
REMARK 922        TOTAL FREE ENERGY PREDICTED BY IDOCK:   -3.94 KCAL/MOL
REMARK 923 INTER-LIGAND FREE ENERGY PREDICTED BY IDOCK:   -3.76 KCAL/MOL
REMARK 924 INTRA-LIGAND FREE ENERGY PREDICTED BY IDOCK:   -0.18 KCAL/MOL
REMARK 927      BINDING AFFINITY PREDICTED BY RF-SCORE:    0.00 PKD
ROOT
HETATM    1  C   UNL     1     -10.261  12.499  66.302  1.00  0.00    -0.248 C  
HETATM    2  N   UNL     1     -10.754  11.583  65.269  1.00  0.00    -0.286 NA 
HETATM    3  C   UNL     1     -10.385  12.089  63.944  1.00  0.00    -0.402 C  
ENDROOT
BRANCH   2   4
HETATM    4  C   UNL     1     -10.220  10.218  65.440  1.00  0.00    -0.242 C  
BRANCH   4   5
HETATM    5  C   UNL     1      -9.200  10.066  66.576  1.00  0.00    -0.182 C  
HETATM    6  C   UNL     1      -9.577   9.009  67.644  1.00  0.00    -0.183 C  
HETATM    7  C   UNL     1      -9.609   7.596  67.067  1.00  0.00    -0.228 A  
HETATM    8  C   UNL     1      -8.665   9.124  68.864  1.00  0.00    -0.132 A  
HETATM    9  C   UNL     1      -8.455   7.004  66.527  1.00  0.00    -0.125 A  
HETATM   10  C   UNL     1      -9.126   8.721  70.119  1.00  0.00    -0.176 A  
HETATM   11  C   UNL     1      -8.298   8.886  71.227  1.00  0.00    -0.223 A  
HETATM   12  C   UNL     1      -8.509   5.731  65.953  1.00  0.00    -0.139 A  
HETATM   13  C   UNL     1      -7.036   9.439  71.062  1.00  0.00    -0.060 A  
HETATM   14  C   UNL     1      -9.714   5.036  65.925  1.00  0.00    -0.166 A  
HETATM   15  C   UNL     1      -6.642   9.792  69.783  1.00  0.00    -0.060 A  
HETATM   16  C   UNL     1     -10.865   5.598  66.470  1.00  0.00    -0.239 A  
HETATM   17 CL   UNL     1      -9.782   3.474  65.203  1.00  0.00    -0.157 Cl 
HETATM   18  N   UNL     1      -7.420   9.641  68.689  1.00  0.00    -0.075 NA 
HETATM   19  C   UNL     1     -10.815   6.874  67.038  1.00  0.00    -0.436 A  
ENDBRANCH   4   5
ENDBRANCH   2   4
TORSDOF 2
ENDMDL
MODEL      135
REMARK 921   NORMALIZED FREE ENERGY PREDICTED BY IDOCK:   -3.36 KCAL/MOL
REMARK 922        TOTAL FREE ENERGY PREDICTED BY IDOCK:   -3.91 KCAL/MOL
REMARK 923 INTER-LIGAND FREE ENERGY PREDICTED BY IDOCK:   -3.72 KCAL/MOL
REMARK 924 INTRA-LIGAND FREE ENERGY PREDICTED BY IDOCK:   -0.19 KCAL/MOL
REMARK 927      BINDING AFFINITY PREDICTED BY RF-SCORE:    0.00 PKD
ROOT
HETATM    1  C   UNL     1     -11.855   1.585  73.340  1.00  0.00    -0.168 C  
HETATM    2  N   UNL     1     -10.668   2.351  73.731  1.00  0.00    -0.154 NA 
HETATM    3  C   UNL     1      -9.475   1.762  73.113  1.00  0.00    -0.072 C  
ENDROOT
BRANCH   2   4
HETATM    4  C   UNL     1     -10.773   3.770  73.342  1.00  0.00    -0.207 C  
BRANCH   4   5
HETATM    5  C   UNL     1      -9.510   4.353  72.695  1.00  0.00    -0.169 C  
HETATM    6  C   UNL     1      -9.750   5.061  71.338  1.00  0.00    -0.231 C  
HETATM    7  C   UNL     1     -10.622   6.305  71.486  1.00  0.00    -0.282 A  
HETATM    8  C   UNL     1      -8.423   5.355  70.639  1.00  0.00    -0.119 A  
HETATM    9  C   UNL     1     -10.207   7.396  72.267  1.00  0.00    -0.237 A  
HETATM   10  C   UNL     1      -8.374   5.443  69.247  1.00  0.00    -0.096 A  
HETATM   11  C   UNL     1      -7.144   5.656  68.627  1.00  0.00    -0.066 A  
HETATM   12  C   UNL     1     -11.037   8.507  72.439  1.00  0.00    -0.397 A  
HETATM   13  C   UNL     1      -6.001   5.783  69.402  1.00  0.00    -0.027 A  
HETATM   14  C   UNL     1     -12.285   8.540  71.822  1.00  0.00    -0.334 A  
HETATM   15  C   UNL     1      -6.134   5.707  70.778  1.00  0.00    -0.030 A  
HETATM   16  C   UNL     1     -12.708   7.476  71.030  1.00  0.00    -0.201 A  
HETATM   17 CL   UNL     1     -13.314   9.901  72.047  1.00  0.00    -0.534 Cl 
HETATM   18  N   UNL     1      -7.312   5.505  71.408  1.00  0.00    -0.079 NA 
HETATM   19  C   UNL     1     -11.882   6.361  70.863  1.00  0.00    -0.317 A  
ENDBRANCH   4   5
ENDBRANCH   2   4
TORSDOF 2
ENDMDL
MODEL      136
REMARK 921   NORMALIZED FREE ENERGY PREDICTED BY IDOCK:   -3.35 KCAL/MOL
REMARK 922        TOTAL FREE ENERGY PREDICTED BY IDOCK:   -3.91 KCAL/MOL
REMARK 923 INTER-LIGAND FREE ENERGY PREDICTED BY IDOCK:   -3.74 KCAL/MOL
REMARK 924 INTRA-LIGAND FREE ENERGY PREDICTED BY IDOCK:   -0.17 KCAL/MOL
REMARK 927      BINDING AFFINITY PREDICTED BY RF-SCORE:    0.00 PKD
ROOT
HETATM    1  C   UNL     1     -10.406  13.510  68.238  1.00  0.00    -0.252 C  
HETATM    2  N   UNL     1     -10.926  12.142  68.152  1.00  0.00    -0.217 NA 
HETATM    3  C   UNL     1     -11.407  11.883  66.791  1.00  0.00    -0.330 C  
ENDROOT
BRANCH   2   4
HETATM    4  C   UNL     1      -9.905  11.140  68.511  1.00  0.00    -0.198 C  
BRANCH   4   5
HETATM    5  C   UNL     1     -10.223   9.709  68.056  1.00  0.00    -0.235 C  
HETATM    6  C   UNL     1      -9.101   8.679  68.338  1.00  0.00    -0.138 C  
HETATM    7  C   UNL     1      -8.866   8.481  69.833  1.00  0.00    -0.137 A  
HETATM    8  C   UNL     1      -9.377   7.365  67.609  1.00  0.00    -0.133 A  
HETATM    9  C   UNL     1      -9.878   7.982  70.669  1.00  0.00    -0.192 A  
HETATM   10  C   UNL     1      -8.316   6.537  67.239  1.00  0.00    -0.113 A  
HETATM   11  C   UNL     1      -8.586   5.371  66.525  1.00  0.00    -0.116 A  
HETATM   12  C   UNL     1      -9.669   7.856  72.045  1.00  0.00    -0.244 A  
HETATM   13  C   UNL     1      -9.898   5.054  66.205  1.00  0.00    -0.217 A  
HETATM   14  C   UNL     1      -8.442   8.217  72.594  1.00  0.00    -0.183 A  
HETATM   15  C   UNL     1     -10.898   5.913  66.627  1.00  0.00    -0.217 A  
HETATM   16  C   UNL     1      -7.419   8.698  71.779  1.00  0.00    -0.114 A  
HETATM   17 CL   UNL     1      -8.190   8.077  74.291  1.00  0.00    -0.304 Cl 
HETATM   18  N   UNL     1     -10.668   7.048  67.322  1.00  0.00    -0.318 NA 
HETATM   19  C   UNL     1      -7.629   8.831  70.405  1.00  0.00    -0.082 A  
ENDBRANCH   4   5
ENDBRANCH   2   4
TORSDOF 2
ENDMDL
MODEL      137
REMARK 921   NORMALIZED FREE ENERGY PREDICTED BY IDOCK:   -3.35 KCAL/MOL
REMARK 922        TOTAL FREE ENERGY PREDICTED BY IDOCK:   -3.91 KCAL/MOL
REMARK 923 INTER-LIGAND FREE ENERGY PREDICTED BY IDOCK:   -3.76 KCAL/MOL
REMARK 924 INTRA-LIGAND FREE ENERGY PREDICTED BY IDOCK:   -0.15 KCAL/MOL
REMARK 927      BINDING AFFINITY PREDICTED BY RF-SCORE:    0.00 PKD
ROOT
HETATM    1  C   UNL     1      -9.645   4.177  67.342  1.00  0.00    -0.180 C  
HETATM    2  N   UNL     1      -9.181   5.505  67.753  1.00  0.00    -0.107 NA 
HETATM    3  C   UNL     1      -8.079   5.933  66.885  1.00  0.00    -0.102 C  
ENDROOT
BRANCH   2   4
HETATM    4  C   UNL     1     -10.262   6.508  67.704  1.00  0.00    -0.170 C  
BRANCH   4   5
HETATM    5  C   UNL     1     -10.064   7.614  66.659  1.00  0.00    -0.278 C  
HETATM    6  C   UNL     1     -10.052   9.052  67.238  1.00  0.00    -0.297 C  
HETATM    7  C   UNL     1      -8.863   9.288  68.164  1.00  0.00    -0.129 A  
HETATM    8  C   UNL     1     -10.136  10.086  66.116  1.00  0.00    -0.247 A  
HETATM    9  C   UNL     1      -7.543   9.198  67.692  1.00  0.00    -0.085 A  
HETATM   10  C   UNL     1     -10.698  11.340  66.366  1.00  0.00    -0.320 A  
HETATM   11  C   UNL     1     -10.816  12.248  65.316  1.00  0.00    -0.332 A  
HETATM   12  C   UNL     1      -6.462   9.363  68.562  1.00  0.00    -0.053 A  
HETATM   13  C   UNL     1     -10.369  11.892  64.051  1.00  0.00    -0.403 A  
HETATM   14  C   UNL     1      -6.692   9.631  69.908  1.00  0.00    -0.069 A  
HETATM   15  C   UNL     1      -9.803  10.640  63.888  1.00  0.00    -0.338 A  
HETATM   16  C   UNL     1      -7.993   9.740  70.393  1.00  0.00    -0.139 A  
HETATM   17 CL   UNL     1      -5.360   9.818  70.982  1.00  0.00    -0.051 Cl 
HETATM   18  N   UNL     1      -9.672   9.740  64.886  1.00  0.00    -0.264 NA 
HETATM   19  C   UNL     1      -9.075   9.568  69.526  1.00  0.00    -0.193 A  
ENDBRANCH   4   5
ENDBRANCH   2   4
TORSDOF 2
ENDMDL
MODEL      138
REMARK 921   NORMALIZED FREE ENERGY PREDICTED BY IDOCK:   -3.33 KCAL/MOL
REMARK 922        TOTAL FREE ENERGY PREDICTED BY IDOCK:   -3.88 KCAL/MOL
REMARK 923 INTER-LIGAND FREE ENERGY PREDICTED BY IDOCK:   -3.67 KCAL/MOL
REMARK 924 INTRA-LIGAND FREE ENERGY PREDICTED BY IDOCK:   -0.21 KCAL/MOL
REMARK 927      BINDING AFFINITY PREDICTED BY RF-SCORE:    0.00 PKD
ROOT
HETATM    1  C   UNL     1     -13.030   9.394  72.103  1.00  0.00    -0.421 C  
HETATM    2  N   UNL     1     -12.253   8.198  72.440  1.00  0.00    -0.340 NA 
HETATM    3  C   UNL     1     -12.608   7.105  71.529  1.00  0.00    -0.390 C  
ENDROOT
BRANCH   2   4
HETATM    4  C   UNL     1     -10.800   8.444  72.368  1.00  0.00    -0.346 C  
BRANCH   4   5
HETATM    5  C   UNL     1     -10.258   8.676  70.951  1.00  0.00    -0.261 C  
HETATM    6  C   UNL     1      -8.908   7.975  70.655  1.00  0.00    -0.143 C  
HETATM    7  C   UNL     1      -9.030   6.454  70.692  1.00  0.00    -0.144 A  
HETATM    8  C   UNL     1      -8.311   8.483  69.343  1.00  0.00    -0.119 A  
HETATM    9  C   UNL     1      -9.869   5.769  69.797  1.00  0.00    -0.232 A  
HETATM   10  C   UNL     1      -6.929   8.460  69.151  1.00  0.00    -0.059 A  
HETATM   11  C   UNL     1      -6.402   8.979  67.971  1.00  0.00    -0.055 A  
HETATM   12  C   UNL     1     -10.014   4.382  69.876  1.00  0.00    -0.233 A  
HETATM   13  C   UNL     1      -7.258   9.501  67.012  1.00  0.00    -0.087 A  
HETATM   14  C   UNL     1      -9.314   3.667  70.843  1.00  0.00    -0.148 A  
HETATM   15  C   UNL     1      -8.618   9.469  67.265  1.00  0.00    -0.128 A  
HETATM   16  C   UNL     1      -8.464   4.325  71.728  1.00  0.00    -0.112 A  
HETATM   17 CL   UNL     1      -9.506   1.960  70.950  1.00  0.00    -0.196 Cl 
HETATM   18  N   UNL     1      -9.159   8.969  68.397  1.00  0.00    -0.133 NA 
HETATM   19  C   UNL     1      -8.323   5.713  71.656  1.00  0.00    -0.124 A  
ENDBRANCH   4   5
ENDBRANCH   2   4
TORSDOF 2
ENDMDL
MODEL      139
REMARK 921   NORMALIZED FREE ENERGY PREDICTED BY IDOCK:   -3.32 KCAL/MOL
REMARK 922        TOTAL FREE ENERGY PREDICTED BY IDOCK:   -3.87 KCAL/MOL
REMARK 923 INTER-LIGAND FREE ENERGY PREDICTED BY IDOCK:   -3.71 KCAL/MOL
REMARK 924 INTRA-LIGAND FREE ENERGY PREDICTED BY IDOCK:   -0.16 KCAL/MOL
REMARK 927      BINDING AFFINITY PREDICTED BY RF-SCORE:    0.00 PKD
ROOT
HETATM    1  C   UNL     1     -10.583  11.055  66.571  1.00  0.00    -0.254 C  
HETATM    2  N   UNL     1     -10.159   9.893  65.786  1.00  0.00    -0.276 NA 
HETATM    3  C   UNL     1      -9.646  10.336  64.485  1.00  0.00    -0.316 C  
ENDROOT
BRANCH   2   4
HETATM    4  C   UNL     1      -9.122   9.106  66.480  1.00  0.00    -0.156 C  
BRANCH   4   5
HETATM    5  C   UNL     1      -9.229   7.588  66.284  1.00  0.00    -0.194 C  
HETATM    6  C   UNL     1      -8.615   6.745  67.429  1.00  0.00    -0.120 C  
HETATM    7  C   UNL     1      -9.360   6.939  68.747  1.00  0.00    -0.129 A  
HETATM    8  C   UNL     1      -8.512   5.275  67.024  1.00  0.00    -0.106 A  
HETATM    9  C   UNL     1     -10.713   6.586  68.877  1.00  0.00    -0.318 A  
HETATM   10  C   UNL     1      -7.529   4.463  67.593  1.00  0.00    -0.073 A  
HETATM   11  C   UNL     1      -7.417   3.141  67.168  1.00  0.00    -0.070 A  
HETATM   12  C   UNL     1     -11.399   6.818  70.072  1.00  0.00    -0.396 A  
HETATM   13  C   UNL     1      -8.284   2.659  66.199  1.00  0.00    -0.087 A  
HETATM   14  C   UNL     1     -10.734   7.393  71.151  1.00  0.00    -0.231 A  
HETATM   15  C   UNL     1      -9.247   3.518  65.700  1.00  0.00    -0.158 A  
HETATM   16  C   UNL     1      -9.388   7.734  71.048  1.00  0.00    -0.160 A  
HETATM   17 CL   UNL     1     -11.584   7.693  72.618  1.00  0.00    -0.380 Cl 
HETATM   18  N   UNL     1      -9.383   4.803  66.093  1.00  0.00    -0.142 NA 
HETATM   19  C   UNL     1      -8.702   7.510  69.852  1.00  0.00    -0.140 A  
ENDBRANCH   4   5
ENDBRANCH   2   4
TORSDOF 2
ENDMDL
MODEL      140
REMARK 921   NORMALIZED FREE ENERGY PREDICTED BY IDOCK:   -3.29 KCAL/MOL
REMARK 922        TOTAL FREE ENERGY PREDICTED BY IDOCK:   -3.84 KCAL/MOL
REMARK 923 INTER-LIGAND FREE ENERGY PREDICTED BY IDOCK:   -3.58 KCAL/MOL
REMARK 924 INTRA-LIGAND FREE ENERGY PREDICTED BY IDOCK:   -0.26 KCAL/MOL
REMARK 927      BINDING AFFINITY PREDICTED BY RF-SCORE:    0.00 PKD
ROOT
HETATM    1  C   UNL     1      -9.120   3.441  67.829  1.00  0.00    -0.164 C  
HETATM    2  N   UNL     1      -8.916   4.692  68.563  1.00  0.00    -0.105 NA 
HETATM    3  C   UNL     1      -8.218   5.658  67.709  1.00  0.00    -0.101 C  
ENDROOT
BRANCH   2   4
HETATM    4  C   UNL     1     -10.190   5.276  69.025  1.00  0.00    -0.199 C  
BRANCH   4   5
HETATM    5  C   UNL     1     -10.292   6.799  68.868  1.00  0.00    -0.208 C  
HETATM    6  C   UNL     1     -10.709   7.553  70.155  1.00  0.00    -0.248 C  
HETATM    7  C   UNL     1      -9.661   7.428  71.258  1.00  0.00    -0.171 A  
HETATM    8  C   UNL     1     -11.058   9.008  69.841  1.00  0.00    -0.142 A  
HETATM    9  C   UNL     1      -8.360   7.927  71.086  1.00  0.00    -0.116 A  
HETATM   10  C   UNL     1     -11.962   9.697  70.651  1.00  0.00    -0.304 A  
HETATM   11  C   UNL     1     -12.309  11.004  70.315  1.00  0.00    -0.410 A  
HETATM   12  C   UNL     1      -7.394   7.758  72.082  1.00  0.00    -0.083 A  
HETATM   13  C   UNL     1     -11.747  11.593  69.191  1.00  0.00    -0.390 A  
HETATM   14  C   UNL     1      -7.725   7.099  73.262  1.00  0.00    -0.085 A  
HETATM   15  C   UNL     1     -10.842  10.852  68.451  1.00  0.00    -0.222 A  
HETATM   16  C   UNL     1      -9.014   6.611  73.459  1.00  0.00    -0.143 A  
HETATM   17 CL   UNL     1      -6.530   6.877  74.481  1.00  0.00    -0.086 Cl 
HETATM   18  N   UNL     1     -10.483   9.586  68.754  1.00  0.00    -0.215 NA 
HETATM   19  C   UNL     1      -9.979   6.773  72.461  1.00  0.00    -0.185 A  
ENDBRANCH   4   5
ENDBRANCH   2   4
TORSDOF 2
ENDMDL
MODEL      141
REMARK 921   NORMALIZED FREE ENERGY PREDICTED BY IDOCK:   -3.28 KCAL/MOL
REMARK 922        TOTAL FREE ENERGY PREDICTED BY IDOCK:   -3.82 KCAL/MOL
REMARK 923 INTER-LIGAND FREE ENERGY PREDICTED BY IDOCK:   -3.62 KCAL/MOL
REMARK 924 INTRA-LIGAND FREE ENERGY PREDICTED BY IDOCK:   -0.21 KCAL/MOL
REMARK 927      BINDING AFFINITY PREDICTED BY RF-SCORE:    0.00 PKD
ROOT
HETATM    1  C   UNL     1      -8.900   6.552  72.970  1.00  0.00    -0.128 C  
HETATM    2  N   UNL     1     -10.325   6.706  72.663  1.00  0.00    -0.190 NA 
HETATM    3  C   UNL     1     -10.586   8.076  72.210  1.00  0.00    -0.291 C  
ENDROOT
BRANCH   2   4
HETATM    4  C   UNL     1     -10.774   5.753  71.631  1.00  0.00    -0.256 C  
BRANCH   4   5
HETATM    5  C   UNL     1      -9.657   4.901  71.014  1.00  0.00    -0.238 C  
HETATM    6  C   UNL     1      -9.875   4.533  69.525  1.00  0.00    -0.277 C  
HETATM    7  C   UNL     1      -9.859   5.763  68.621  1.00  0.00    -0.178 A  
HETATM    8  C   UNL     1      -8.876   3.466  69.080  1.00  0.00    -0.107 A  
HETATM    9  C   UNL     1      -8.716   6.572  68.513  1.00  0.00    -0.122 A  
HETATM   10  C   UNL     1      -9.206   2.593  68.042  1.00  0.00    -0.254 A  
HETATM   11  C   UNL     1      -8.304   1.591  67.689  1.00  0.00    -0.078 A  
HETATM   12  C   UNL     1      -8.731   7.726  67.725  1.00  0.00    -0.123 A  
HETATM   13  C   UNL     1      -7.100   1.486  68.369  1.00  0.00    -0.039 A  
HETATM   14  C   UNL     1      -9.885   8.073  67.029  1.00  0.00    -0.227 A  
HETATM   15  C   UNL     1      -6.835   2.403  69.371  1.00  0.00    -0.033 A  
HETATM   16  C   UNL     1     -11.023   7.275  67.109  1.00  0.00    -0.285 A  
HETATM   17 CL   UNL     1      -9.908   9.503  66.071  1.00  0.00    -0.340 Cl 
HETATM   18  N   UNL     1      -7.687   3.386  69.734  1.00  0.00    -0.047 NA 
HETATM   19  C   UNL     1     -11.013   6.125  67.903  1.00  0.00    -0.399 A  
ENDBRANCH   4   5
ENDBRANCH   2   4
TORSDOF 2
ENDMDL
MODEL      142
REMARK 921   NORMALIZED FREE ENERGY PREDICTED BY IDOCK:   -3.26 KCAL/MOL
REMARK 922        TOTAL FREE ENERGY PREDICTED BY IDOCK:   -3.81 KCAL/MOL
REMARK 923 INTER-LIGAND FREE ENERGY PREDICTED BY IDOCK:   -3.63 KCAL/MOL
REMARK 924 INTRA-LIGAND FREE ENERGY PREDICTED BY IDOCK:   -0.18 KCAL/MOL
REMARK 927      BINDING AFFINITY PREDICTED BY RF-SCORE:    0.00 PKD
ROOT
HETATM    1  C   UNL     1      -9.493   4.432  66.559  1.00  0.00    -0.177 C  
HETATM    2  N   UNL     1      -9.905   4.124  67.932  1.00  0.00    -0.093 NA 
HETATM    3  C   UNL     1      -8.929   3.221  68.550  1.00  0.00    -0.134 C  
ENDROOT
BRANCH   2   4
HETATM    4  C   UNL     1     -10.037   5.342  68.755  1.00  0.00    -0.177 C  
BRANCH   4   5
HETATM    5  C   UNL     1      -9.138   5.377  69.998  1.00  0.00    -0.160 C  
HETATM    6  C   UNL     1      -8.614   6.786  70.374  1.00  0.00    -0.146 C  
HETATM    7  C   UNL     1      -9.742   7.727  70.784  1.00  0.00    -0.175 A  
HETATM    8  C   UNL     1      -7.516   6.689  71.433  1.00  0.00    -0.088 A  
HETATM    9  C   UNL     1     -10.548   7.454  71.902  1.00  0.00    -0.233 A  
HETATM   10  C   UNL     1      -6.536   7.681  71.512  1.00  0.00    -0.045 A  
HETATM   11  C   UNL     1      -5.513   7.545  72.448  1.00  0.00    -0.037 A  
HETATM   12  C   UNL     1     -11.612   8.295  72.236  1.00  0.00    -0.449 A  
HETATM   13  C   UNL     1      -5.492   6.436  73.282  1.00  0.00    -0.038 A  
HETATM   14  C   UNL     1     -11.873   9.422  71.463  1.00  0.00    -0.385 A  
HETATM   15  C   UNL     1      -6.511   5.508  73.158  1.00  0.00    -0.066 A  
HETATM   16  C   UNL     1     -11.076   9.720  70.360  1.00  0.00    -0.367 A  
HETATM   17 CL   UNL     1     -13.195  10.449  71.866  1.00  0.00    -0.555 Cl 
HETATM   18  N   UNL     1      -7.518   5.614  72.264  1.00  0.00    -0.098 NA 
HETATM   19  C   UNL     1     -10.015   8.876  70.020  1.00  0.00    -0.204 A  
ENDBRANCH   4   5
ENDBRANCH   2   4
TORSDOF 2
ENDMDL
MODEL      143
REMARK 921   NORMALIZED FREE ENERGY PREDICTED BY IDOCK:   -3.19 KCAL/MOL
REMARK 922        TOTAL FREE ENERGY PREDICTED BY IDOCK:   -3.73 KCAL/MOL
REMARK 923 INTER-LIGAND FREE ENERGY PREDICTED BY IDOCK:   -3.45 KCAL/MOL
REMARK 924 INTRA-LIGAND FREE ENERGY PREDICTED BY IDOCK:   -0.27 KCAL/MOL
REMARK 927      BINDING AFFINITY PREDICTED BY RF-SCORE:    0.00 PKD
ROOT
HETATM    1  C   UNL     1      -6.491  11.365  66.840  1.00  0.00    -0.138 C  
HETATM    2  N   UNL     1      -6.767  11.363  68.279  1.00  0.00    -0.058 NA 
HETATM    3  C   UNL     1      -8.061  12.003  68.534  1.00  0.00    -0.123 C  
ENDROOT
BRANCH   2   4
HETATM    4  C   UNL     1      -6.777   9.998  68.838  1.00  0.00    -0.053 C  
BRANCH   4   5
HETATM    5  C   UNL     1      -7.527   8.962  67.990  1.00  0.00    -0.092 C  
HETATM    6  C   UNL     1      -8.428   7.997  68.801  1.00  0.00    -0.127 C  
HETATM    7  C   UNL     1      -9.580   8.726  69.487  1.00  0.00    -0.167 A  
HETATM    8  C   UNL     1      -8.906   6.839  67.925  1.00  0.00    -0.118 A  
HETATM    9  C   UNL     1     -10.555   9.410  68.742  1.00  0.00    -0.234 A  
HETATM   10  C   UNL     1      -9.217   5.609  68.506  1.00  0.00    -0.131 A  
HETATM   11  C   UNL     1      -9.597   4.550  67.684  1.00  0.00    -0.207 A  
HETATM   12  C   UNL     1     -11.574  10.120  69.383  1.00  0.00    -0.151 A  
HETATM   13  C   UNL     1      -9.664   4.741  66.311  1.00  0.00    -0.206 A  
HETATM   14  C   UNL     1     -11.633  10.141  70.773  1.00  0.00    -0.357 A  
HETATM   15  C   UNL     1      -9.362   5.997  65.813  1.00  0.00     0.041 A  
HETATM   16  C   UNL     1     -10.687   9.455  71.529  1.00  0.00    -0.367 A  
HETATM   17 CL   UNL     1     -12.880  11.028  71.561  1.00  0.00    -0.551 Cl 
HETATM   18  N   UNL     1      -8.994   7.042  66.584  1.00  0.00    -0.136 NA 
HETATM   19  C   UNL     1      -9.663   8.751  70.891  1.00  0.00    -0.277 A  
ENDBRANCH   4   5
ENDBRANCH   2   4
TORSDOF 2
ENDMDL
MODEL      144
REMARK 921   NORMALIZED FREE ENERGY PREDICTED BY IDOCK:   -3.17 KCAL/MOL
REMARK 922        TOTAL FREE ENERGY PREDICTED BY IDOCK:   -3.70 KCAL/MOL
REMARK 923 INTER-LIGAND FREE ENERGY PREDICTED BY IDOCK:   -3.51 KCAL/MOL
REMARK 924 INTRA-LIGAND FREE ENERGY PREDICTED BY IDOCK:   -0.19 KCAL/MOL
REMARK 927      BINDING AFFINITY PREDICTED BY RF-SCORE:    0.00 PKD
ROOT
HETATM    1  C   UNL     1      -6.433  15.032  69.125  1.00  0.00    -0.116 C  
HETATM    2  N   UNL     1      -6.552  13.689  68.551  1.00  0.00    -0.080 NA 
HETATM    3  C   UNL     1      -5.758  12.743  69.341  1.00  0.00    -0.090 C  
ENDROOT
BRANCH   2   4
HETATM    4  C   UNL     1      -7.954  13.232  68.502  1.00  0.00    -0.097 C  
BRANCH   4   5
HETATM    5  C   UNL     1      -8.315  12.403  67.262  1.00  0.00    -0.184 C  
HETATM    6  C   UNL     1      -8.524  10.892  67.535  1.00  0.00    -0.123 C  
HETATM    7  C   UNL     1      -9.726  10.633  68.438  1.00  0.00    -0.172 A  
HETATM    8  C   UNL     1      -8.597  10.111  66.223  1.00  0.00    -0.131 A  
HETATM    9  C   UNL     1     -11.024  10.997  68.045  1.00  0.00    -0.312 A  
HETATM   10  C   UNL     1      -8.215   8.768  66.190  1.00  0.00    -0.117 A  
HETATM   11  C   UNL     1      -8.236   8.090  64.973  1.00  0.00    -0.144 A  
HETATM   12  C   UNL     1     -12.109  10.803  68.904  1.00  0.00    -0.107 A  
HETATM   13  C   UNL     1      -8.640   8.757  63.826  1.00  0.00    -0.061 A  
HETATM   14  C   UNL     1     -11.907  10.234  70.158  1.00  0.00    -0.263 A  
HETATM   15  C   UNL     1      -9.025  10.081  63.944  1.00  0.00    -0.242 A  
HETATM   16  C   UNL     1     -10.630   9.851  70.559  1.00  0.00    -0.359 A  
HETATM   17 CL   UNL     1     -13.242  10.011  71.221  1.00  0.00    -0.470 Cl 
HETATM   18  N   UNL     1      -9.019  10.764  65.108  1.00  0.00    -0.198 NA 
HETATM   19  C   UNL     1      -9.542  10.050  69.705  1.00  0.00    -0.249 A  
ENDBRANCH   4   5
ENDBRANCH   2   4
TORSDOF 2
ENDMDL
MODEL      145
REMARK 921   NORMALIZED FREE ENERGY PREDICTED BY IDOCK:   -3.13 KCAL/MOL
REMARK 922        TOTAL FREE ENERGY PREDICTED BY IDOCK:   -3.66 KCAL/MOL
REMARK 923 INTER-LIGAND FREE ENERGY PREDICTED BY IDOCK:   -3.51 KCAL/MOL
REMARK 924 INTRA-LIGAND FREE ENERGY PREDICTED BY IDOCK:   -0.16 KCAL/MOL
REMARK 927      BINDING AFFINITY PREDICTED BY RF-SCORE:    0.00 PKD
ROOT
HETATM    1  C   UNL     1      -9.931   4.638  72.165  1.00  0.00    -0.181 C  
HETATM    2  N   UNL     1     -10.749   5.391  71.210  1.00  0.00    -0.216 NA 
HETATM    3  C   UNL     1     -11.590   6.352  71.931  1.00  0.00    -0.318 C  
ENDROOT
BRANCH   2   4
HETATM    4  C   UNL     1      -9.923   6.108  70.220  1.00  0.00    -0.183 C  
BRANCH   4   5
HETATM    5  C   UNL     1      -9.484   5.263  69.017  1.00  0.00    -0.182 C  
HETATM    6  C   UNL     1     -10.036   5.748  67.653  1.00  0.00    -0.205 C  
HETATM    7  C   UNL     1      -9.499   7.125  67.273  1.00  0.00    -0.169 A  
HETATM    8  C   UNL     1      -9.789   4.702  66.567  1.00  0.00    -0.223 A  
HETATM    9  C   UNL     1      -8.125   7.341  67.078  1.00  0.00    -0.117 A  
HETATM   10  C   UNL     1     -10.642   4.629  65.464  1.00  0.00    -0.208 A  
HETATM   11  C   UNL     1     -10.432   3.632  64.513  1.00  0.00    -0.136 A  
HETATM   12  C   UNL     1      -7.639   8.618  66.783  1.00  0.00    -0.086 A  
HETATM   13  C   UNL     1      -9.381   2.741  64.678  1.00  0.00    -0.147 A  
HETATM   14  C   UNL     1      -8.524   9.686  66.671  1.00  0.00    -0.123 A  
HETATM   15  C   UNL     1      -8.566   2.892  65.786  1.00  0.00    -0.117 A  
HETATM   16  C   UNL     1      -9.892   9.489  66.844  1.00  0.00    -0.262 A  
HETATM   17 CL   UNL     1      -7.923  11.261  66.324  1.00  0.00    -0.129 Cl 
HETATM   18  N   UNL     1      -8.741   3.849  66.722  1.00  0.00    -0.111 NA 
HETATM   19  C   UNL     1     -10.379   8.215  67.146  1.00  0.00    -0.391 A  
ENDBRANCH   4   5
ENDBRANCH   2   4
TORSDOF 2
ENDMDL
MODEL      146
REMARK 921   NORMALIZED FREE ENERGY PREDICTED BY IDOCK:   -3.13 KCAL/MOL
REMARK 922        TOTAL FREE ENERGY PREDICTED BY IDOCK:   -3.66 KCAL/MOL
REMARK 923 INTER-LIGAND FREE ENERGY PREDICTED BY IDOCK:   -3.48 KCAL/MOL
REMARK 924 INTRA-LIGAND FREE ENERGY PREDICTED BY IDOCK:   -0.19 KCAL/MOL
REMARK 927      BINDING AFFINITY PREDICTED BY RF-SCORE:    0.00 PKD
ROOT
HETATM    1  C   UNL     1      -6.118   7.487  67.319  1.00  0.00    -0.047 C  
HETATM    2  N   UNL     1      -7.273   8.248  67.805  1.00  0.00    -0.086 NA 
HETATM    3  C   UNL     1      -7.826   9.057  66.713  1.00  0.00    -0.104 C  
ENDROOT
BRANCH   2   4
HETATM    4  C   UNL     1      -8.326   7.369  68.347  1.00  0.00    -0.125 C  
BRANCH   4   5
HETATM    5  C   UNL     1      -7.953   6.648  69.649  1.00  0.00    -0.124 C  
HETATM    6  C   UNL     1      -8.252   7.453  70.939  1.00  0.00    -0.114 C  
HETATM    7  C   UNL     1      -9.747   7.688  71.135  1.00  0.00    -0.172 A  
HETATM    8  C   UNL     1      -7.598   6.792  72.152  1.00  0.00    -0.094 A  
HETATM    9  C   UNL     1     -10.638   6.615  71.299  1.00  0.00    -0.256 A  
HETATM   10  C   UNL     1      -7.238   7.567  73.257  1.00  0.00    -0.093 A  
HETATM   11  C   UNL     1      -6.592   6.954  74.329  1.00  0.00    -0.082 A  
HETATM   12  C   UNL     1     -12.011   6.840  71.424  1.00  0.00    -0.403 A  
HETATM   13  C   UNL     1      -6.328   5.593  74.280  1.00  0.00    -0.070 A  
HETATM   14  C   UNL     1     -12.504   8.141  71.397  1.00  0.00    -0.292 A  
HETATM   15  C   UNL     1      -6.737   4.889  73.160  1.00  0.00    -0.067 A  
HETATM   16  C   UNL     1     -11.636   9.221  71.253  1.00  0.00    -0.419 A  
HETATM   17 CL   UNL     1     -14.197   8.417  71.535  1.00  0.00    -0.473 Cl 
HETATM   18  N   UNL     1      -7.367   5.453  72.108  1.00  0.00    -0.091 NA 
HETATM   19  C   UNL     1     -10.263   8.997  71.121  1.00  0.00    -0.363 A  
ENDBRANCH   4   5
ENDBRANCH   2   4
TORSDOF 2
ENDMDL
MODEL      147
REMARK 921   NORMALIZED FREE ENERGY PREDICTED BY IDOCK:   -3.13 KCAL/MOL
REMARK 922        TOTAL FREE ENERGY PREDICTED BY IDOCK:   -3.65 KCAL/MOL
REMARK 923 INTER-LIGAND FREE ENERGY PREDICTED BY IDOCK:   -3.47 KCAL/MOL
REMARK 924 INTRA-LIGAND FREE ENERGY PREDICTED BY IDOCK:   -0.19 KCAL/MOL
REMARK 927      BINDING AFFINITY PREDICTED BY RF-SCORE:    0.00 PKD
ROOT
HETATM    1  C   UNL     1      -8.893   5.043  64.571  1.00  0.00    -0.099 C  
HETATM    2  N   UNL     1      -8.174   5.905  65.513  1.00  0.00    -0.131 NA 
HETATM    3  C   UNL     1      -7.334   6.852  64.772  1.00  0.00    -0.088 C  
ENDROOT
BRANCH   2   4
HETATM    4  C   UNL     1      -9.094   6.650  66.393  1.00  0.00    -0.152 C  
BRANCH   4   5
HETATM    5  C   UNL     1      -9.248   8.137  66.049  1.00  0.00    -0.207 C  
HETATM    6  C   UNL     1      -9.830   9.006  67.193  1.00  0.00    -0.262 C  
HETATM    7  C   UNL     1      -8.898   9.065  68.400  1.00  0.00    -0.134 A  
HETATM    8  C   UNL     1     -10.210  10.394  66.678  1.00  0.00    -0.234 A  
HETATM    9  C   UNL     1      -7.610   9.616  68.299  1.00  0.00    -0.078 A  
HETATM   10  C   UNL     1     -11.224  11.117  67.309  1.00  0.00    -0.347 A  
HETATM   11  C   UNL     1     -11.594  12.356  66.789  1.00  0.00    -0.444 A  
HETATM   12  C   UNL     1      -6.746   9.615  69.397  1.00  0.00    -0.053 A  
HETATM   13  C   UNL     1     -10.945  12.846  65.665  1.00  0.00    -0.297 A  
HETATM   14  C   UNL     1      -7.167   9.074  70.608  1.00  0.00    -0.093 A  
HETATM   15  C   UNL     1      -9.935  12.080  65.109  1.00  0.00    -0.239 A  
HETATM   16  C   UNL     1      -8.446   8.538  70.734  1.00  0.00    -0.166 A  
HETATM   17 CL   UNL     1      -6.096   9.059  71.956  1.00  0.00    -0.074 Cl 
HETATM   18  N   UNL     1      -9.552  10.878  65.591  1.00  0.00    -0.212 NA 
HETATM   19  C   UNL     1      -9.309   8.532  69.635  1.00  0.00    -0.157 A  
ENDBRANCH   4   5
ENDBRANCH   2   4
TORSDOF 2
ENDMDL
MODEL      148
REMARK 921   NORMALIZED FREE ENERGY PREDICTED BY IDOCK:   -3.11 KCAL/MOL
REMARK 922        TOTAL FREE ENERGY PREDICTED BY IDOCK:   -3.63 KCAL/MOL
REMARK 923 INTER-LIGAND FREE ENERGY PREDICTED BY IDOCK:   -3.48 KCAL/MOL
REMARK 924 INTRA-LIGAND FREE ENERGY PREDICTED BY IDOCK:   -0.16 KCAL/MOL
REMARK 927      BINDING AFFINITY PREDICTED BY RF-SCORE:    0.00 PKD
ROOT
HETATM    1  C   UNL     1      -6.378   8.450  70.418  1.00  0.00    -0.035 C  
HETATM    2  N   UNL     1      -7.790   8.056  70.451  1.00  0.00    -0.089 NA 
HETATM    3  C   UNL     1      -8.286   8.113  71.829  1.00  0.00    -0.142 C  
ENDROOT
BRANCH   2   4
HETATM    4  C   UNL     1      -8.624   8.918  69.592  1.00  0.00    -0.131 C  
BRANCH   4   5
HETATM    5  C   UNL     1      -8.014   9.241  68.221  1.00  0.00    -0.102 C  
HETATM    6  C   UNL     1      -9.044   9.649  67.138  1.00  0.00    -0.152 C  
HETATM    7  C   UNL     1      -9.747  10.960  67.479  1.00  0.00    -0.187 A  
HETATM    8  C   UNL     1      -8.393   9.674  65.756  1.00  0.00    -0.128 A  
HETATM    9  C   UNL     1      -9.028  12.161  67.604  1.00  0.00    -0.178 A  
HETATM   10  C   UNL     1      -9.169   9.448  64.617  1.00  0.00    -0.185 A  
HETATM   11  C   UNL     1      -8.546   9.420  63.371  1.00  0.00    -0.218 A  
HETATM   12  C   UNL     1      -9.675  13.344  67.969  1.00  0.00    -0.222 A  
HETATM   13  C   UNL     1      -7.176   9.624  63.287  1.00  0.00    -0.111 A  
HETATM   14  C   UNL     1     -11.047  13.340  68.201  1.00  0.00    -0.259 A  
HETATM   15  C   UNL     1      -6.480   9.864  64.458  1.00  0.00    -0.120 A  
HETATM   16  C   UNL     1     -11.780  12.164  68.066  1.00  0.00    -0.409 A  
HETATM   17 CL   UNL     1     -11.840  14.795  68.667  1.00  0.00    -0.347 Cl 
HETATM   18  N   UNL     1      -7.055   9.901  65.679  1.00  0.00    -0.106 NA 
HETATM   19  C   UNL     1     -11.135  10.978  67.708  1.00  0.00    -0.356 A  
ENDBRANCH   4   5
ENDBRANCH   2   4
TORSDOF 2
ENDMDL
MODEL      149
REMARK 921   NORMALIZED FREE ENERGY PREDICTED BY IDOCK:   -3.10 KCAL/MOL
REMARK 922        TOTAL FREE ENERGY PREDICTED BY IDOCK:   -3.63 KCAL/MOL
REMARK 923 INTER-LIGAND FREE ENERGY PREDICTED BY IDOCK:   -3.46 KCAL/MOL
REMARK 924 INTRA-LIGAND FREE ENERGY PREDICTED BY IDOCK:   -0.17 KCAL/MOL
REMARK 927      BINDING AFFINITY PREDICTED BY RF-SCORE:    0.00 PKD
ROOT
HETATM    1  C   UNL     1     -11.941  11.906  69.536  1.00  0.00    -0.292 C  
HETATM    2  N   UNL     1     -11.606  10.853  70.498  1.00  0.00    -0.328 NA 
HETATM    3  C   UNL     1     -12.837  10.265  71.035  1.00  0.00    -0.397 C  
ENDROOT
BRANCH   2   4
HETATM    4  C   UNL     1     -10.780   9.792  69.891  1.00  0.00    -0.268 C  
BRANCH   4   5
HETATM    5  C   UNL     1     -10.305   8.709  70.869  1.00  0.00    -0.262 C  
HETATM    6  C   UNL     1     -10.005   7.337  70.215  1.00  0.00    -0.188 C  
HETATM    7  C   UNL     1      -8.831   7.409  69.242  1.00  0.00    -0.136 A  
HETATM    8  C   UNL     1      -9.818   6.259  71.282  1.00  0.00    -0.175 A  
HETATM    9  C   UNL     1      -7.544   7.764  69.679  1.00  0.00    -0.092 A  
HETATM   10  C   UNL     1     -10.103   4.926  70.982  1.00  0.00    -0.288 A  
HETATM   11  C   UNL     1      -9.979   3.967  71.985  1.00  0.00    -0.241 A  
HETATM   12  C   UNL     1      -6.489   7.879  68.771  1.00  0.00    -0.048 A  
HETATM   13  C   UNL     1      -9.570   4.353  73.253  1.00  0.00    -0.142 A  
HETATM   14  C   UNL     1      -6.710   7.630  67.420  1.00  0.00    -0.068 A  
HETATM   15  C   UNL     1      -9.283   5.691  73.466  1.00  0.00    -0.134 A  
HETATM   16  C   UNL     1      -7.974   7.260  66.968  1.00  0.00    -0.109 A  
HETATM   17 CL   UNL     1      -5.413   7.788  66.299  1.00  0.00    -0.028 Cl 
HETATM   18  N   UNL     1      -9.391   6.642  72.514  1.00  0.00    -0.138 NA 
HETATM   19  C   UNL     1      -9.032   7.152  67.874  1.00  0.00    -0.122 A  
ENDBRANCH   4   5
ENDBRANCH   2   4
TORSDOF 2
ENDMDL
MODEL      150
REMARK 921   NORMALIZED FREE ENERGY PREDICTED BY IDOCK:   -3.09 KCAL/MOL
REMARK 922        TOTAL FREE ENERGY PREDICTED BY IDOCK:   -3.62 KCAL/MOL
REMARK 923 INTER-LIGAND FREE ENERGY PREDICTED BY IDOCK:   -3.35 KCAL/MOL
REMARK 924 INTRA-LIGAND FREE ENERGY PREDICTED BY IDOCK:   -0.26 KCAL/MOL
REMARK 927      BINDING AFFINITY PREDICTED BY RF-SCORE:    0.00 PKD
ROOT
HETATM    1  C   UNL     1      -8.126   5.858  65.613  1.00  0.00    -0.124 C  
HETATM    2  N   UNL     1      -7.623   7.189  65.969  1.00  0.00    -0.086 NA 
HETATM    3  C   UNL     1      -8.603   8.207  65.578  1.00  0.00    -0.149 C  
ENDROOT
BRANCH   2   4
HETATM    4  C   UNL     1      -7.342   7.306  67.412  1.00  0.00    -0.092 C  
BRANCH   4   5
HETATM    5  C   UNL     1      -8.584   7.490  68.295  1.00  0.00    -0.124 C  
HETATM    6  C   UNL     1      -8.378   8.431  69.508  1.00  0.00    -0.120 C  
HETATM    7  C   UNL     1      -8.090   9.867  69.079  1.00  0.00    -0.111 A  
HETATM    8  C   UNL     1      -9.557   8.334  70.475  1.00  0.00    -0.167 A  
HETATM    9  C   UNL     1      -9.029  10.610  68.344  1.00  0.00    -0.149 A  
HETATM   10  C   UNL     1      -9.370   8.604  71.831  1.00  0.00    -0.357 A  
HETATM   11  C   UNL     1     -10.446   8.455  72.704  1.00  0.00    -0.317 A  
HETATM   12  C   UNL     1      -8.732  11.904  67.911  1.00  0.00    -0.167 A  
HETATM   13  C   UNL     1     -11.677   8.049  72.209  1.00  0.00    -0.428 A  
HETATM   14  C   UNL     1      -7.499  12.471  68.217  1.00  0.00    -0.122 A  
HETATM   15  C   UNL     1     -11.789   7.822  70.848  1.00  0.00    -0.239 A  
HETATM   16  C   UNL     1      -6.561  11.758  68.959  1.00  0.00    -0.094 A  
HETATM   17 CL   UNL     1      -7.128  14.060  67.668  1.00  0.00    -0.182 Cl 
HETATM   18  N   UNL     1     -10.767   7.961  69.977  1.00  0.00    -0.243 NA 
HETATM   19  C   UNL     1      -6.852  10.461  69.388  1.00  0.00    -0.083 A  
ENDBRANCH   4   5
ENDBRANCH   2   4
TORSDOF 2
ENDMDL
MODEL      151
REMARK 921   NORMALIZED FREE ENERGY PREDICTED BY IDOCK:   -3.03 KCAL/MOL
REMARK 922        TOTAL FREE ENERGY PREDICTED BY IDOCK:   -3.55 KCAL/MOL
REMARK 923 INTER-LIGAND FREE ENERGY PREDICTED BY IDOCK:   -3.30 KCAL/MOL
REMARK 924 INTRA-LIGAND FREE ENERGY PREDICTED BY IDOCK:   -0.24 KCAL/MOL
REMARK 927      BINDING AFFINITY PREDICTED BY RF-SCORE:    0.00 PKD
ROOT
HETATM    1  C   UNL     1      -9.214   3.731  64.925  1.00  0.00    -0.148 C  
HETATM    2  N   UNL     1      -8.789   4.372  66.173  1.00  0.00    -0.113 NA 
HETATM    3  C   UNL     1      -8.218   5.691  65.880  1.00  0.00    -0.119 C  
ENDROOT
BRANCH   2   4
HETATM    4  C   UNL     1      -9.905   4.521  67.126  1.00  0.00    -0.189 C  
BRANCH   4   5
HETATM    5  C   UNL     1     -10.085   5.938  67.688  1.00  0.00    -0.194 C  
HETATM    6  C   UNL     1     -10.343   5.998  69.214  1.00  0.00    -0.294 C  
HETATM    7  C   UNL     1      -9.146   5.498  70.019  1.00  0.00    -0.160 A  
HETATM    8  C   UNL     1     -10.787   7.399  69.633  1.00  0.00    -0.210 A  
HETATM    9  C   UNL     1      -7.901   6.146  69.950  1.00  0.00    -0.109 A  
HETATM   10  C   UNL     1     -11.592   7.566  70.760  1.00  0.00    -0.300 A  
HETATM   11  C   UNL     1     -12.032   8.846  71.092  1.00  0.00    -0.344 A  
HETATM   12  C   UNL     1      -6.799   5.647  70.649  1.00  0.00    -0.052 A  
HETATM   13  C   UNL     1     -11.657   9.924  70.303  1.00  0.00    -0.319 A  
HETATM   14  C   UNL     1      -6.935   4.504  71.431  1.00  0.00    -0.042 A  
HETATM   15  C   UNL     1     -10.838   9.680  69.214  1.00  0.00    -0.205 A  
HETATM   16  C   UNL     1      -8.165   3.857  71.526  1.00  0.00    -0.076 A  
HETATM   17 CL   UNL     1      -5.573   3.881  72.279  1.00  0.00    -0.007 Cl 
HETATM   18  N   UNL     1     -10.393   8.453  68.869  1.00  0.00    -0.218 NA 
HETATM   19  C   UNL     1      -9.266   4.350  70.822  1.00  0.00    -0.203 A  
ENDBRANCH   4   5
ENDBRANCH   2   4
TORSDOF 2
ENDMDL
MODEL      152
REMARK 921   NORMALIZED FREE ENERGY PREDICTED BY IDOCK:   -2.98 KCAL/MOL
REMARK 922        TOTAL FREE ENERGY PREDICTED BY IDOCK:   -3.50 KCAL/MOL
REMARK 923 INTER-LIGAND FREE ENERGY PREDICTED BY IDOCK:   -3.35 KCAL/MOL
REMARK 924 INTRA-LIGAND FREE ENERGY PREDICTED BY IDOCK:   -0.15 KCAL/MOL
REMARK 927      BINDING AFFINITY PREDICTED BY RF-SCORE:    0.00 PKD
ROOT
HETATM    1  C   UNL     1     -10.863  10.219  67.294  1.00  0.00    -0.250 C  
HETATM    2  N   UNL     1     -10.115  10.051  68.544  1.00  0.00    -0.163 NA 
HETATM    3  C   UNL     1     -11.029  10.167  69.685  1.00  0.00    -0.264 C  
ENDROOT
BRANCH   2   4
HETATM    4  C   UNL     1      -9.420   8.751  68.602  1.00  0.00    -0.141 C  
BRANCH   4   5
HETATM    5  C   UNL     1      -9.169   8.220  70.019  1.00  0.00    -0.151 C  
HETATM    6  C   UNL     1      -9.813   6.843  70.315  1.00  0.00    -0.186 C  
HETATM    7  C   UNL     1      -9.210   5.732  69.459  1.00  0.00    -0.150 A  
HETATM    8  C   UNL     1      -9.756   6.528  71.809  1.00  0.00    -0.158 A  
HETATM    9  C   UNL     1      -7.849   5.397  69.555  1.00  0.00    -0.085 A  
HETATM   10  C   UNL     1     -10.716   5.692  72.382  1.00  0.00    -0.286 A  
HETATM   11  C   UNL     1     -10.678   5.463  73.756  1.00  0.00    -0.324 A  
HETATM   12  C   UNL     1      -7.297   4.415  68.728  1.00  0.00    -0.056 A  
HETATM   13  C   UNL     1      -9.689   6.063  74.522  1.00  0.00    -0.263 A  
HETATM   14  C   UNL     1      -8.104   3.753  67.807  1.00  0.00    -0.088 A  
HETATM   15  C   UNL     1      -8.759   6.861  73.878  1.00  0.00    -0.158 A  
HETATM   16  C   UNL     1      -9.459   4.058  67.709  1.00  0.00    -0.228 A  
HETATM   17 CL   UNL     1      -7.419   2.555  66.777  1.00  0.00    -0.068 Cl 
HETATM   18  N   UNL     1      -8.767   7.098  72.548  1.00  0.00    -0.122 NA 
HETATM   19  C   UNL     1     -10.011   5.045  68.530  1.00  0.00    -0.207 A  
ENDBRANCH   4   5
ENDBRANCH   2   4
TORSDOF 2
ENDMDL
MODEL      153
REMARK 921   NORMALIZED FREE ENERGY PREDICTED BY IDOCK:   -2.97 KCAL/MOL
REMARK 922        TOTAL FREE ENERGY PREDICTED BY IDOCK:   -3.47 KCAL/MOL
REMARK 923 INTER-LIGAND FREE ENERGY PREDICTED BY IDOCK:   -3.33 KCAL/MOL
REMARK 924 INTRA-LIGAND FREE ENERGY PREDICTED BY IDOCK:   -0.15 KCAL/MOL
REMARK 927      BINDING AFFINITY PREDICTED BY RF-SCORE:    0.00 PKD
ROOT
HETATM    1  C   UNL     1      -9.899   3.212  71.990  1.00  0.00    -0.171 C  
HETATM    2  N   UNL     1      -9.381   4.534  72.352  1.00  0.00    -0.124 NA 
HETATM    3  C   UNL     1      -8.235   4.385  73.254  1.00  0.00    -0.095 C  
ENDROOT
BRANCH   2   4
HETATM    4  C   UNL     1      -8.974   5.312  71.166  1.00  0.00    -0.139 C  
BRANCH   4   5
HETATM    5  C   UNL     1      -9.853   6.534  70.867  1.00  0.00    -0.201 C  
HETATM    6  C   UNL     1      -9.322   7.448  69.735  1.00  0.00    -0.146 C  
HETATM    7  C   UNL     1      -9.310   6.740  68.383  1.00  0.00    -0.124 A  
HETATM    8  C   UNL     1     -10.092   8.768  69.700  1.00  0.00    -0.204 A  
HETATM    9  C   UNL     1     -10.499   6.278  67.794  1.00  0.00    -0.289 A  
HETATM   10  C   UNL     1      -9.478   9.919  69.205  1.00  0.00    -0.218 A  
HETATM   11  C   UNL     1     -10.178  11.124  69.233  1.00  0.00    -0.110 A  
HETATM   12  C   UNL     1     -10.470   5.583  66.582  1.00  0.00    -0.355 A  
HETATM   13  C   UNL     1     -11.468  11.152  69.744  1.00  0.00    -0.388 A  
HETATM   14  C   UNL     1      -9.254   5.355  65.944  1.00  0.00    -0.156 A  
HETATM   15  C   UNL     1     -12.017   9.964  70.194  1.00  0.00    -0.077 A  
HETATM   16  C   UNL     1      -8.067   5.821  66.503  1.00  0.00    -0.102 A  
HETATM   17 CL   UNL     1      -9.218   4.486  64.459  1.00  0.00    -0.153 Cl 
HETATM   18  N   UNL     1     -11.365   8.782  70.177  1.00  0.00    -0.158 NA 
HETATM   19  C   UNL     1      -8.093   6.509  67.719  1.00  0.00    -0.115 A  
ENDBRANCH   4   5
ENDBRANCH   2   4
TORSDOF 2
ENDMDL
MODEL      154
REMARK 921   NORMALIZED FREE ENERGY PREDICTED BY IDOCK:   -2.93 KCAL/MOL
REMARK 922        TOTAL FREE ENERGY PREDICTED BY IDOCK:   -3.44 KCAL/MOL
REMARK 923 INTER-LIGAND FREE ENERGY PREDICTED BY IDOCK:   -3.26 KCAL/MOL
REMARK 924 INTRA-LIGAND FREE ENERGY PREDICTED BY IDOCK:   -0.18 KCAL/MOL
REMARK 927      BINDING AFFINITY PREDICTED BY RF-SCORE:    0.00 PKD
ROOT
HETATM    1  C   UNL     1      -7.625   4.768  65.377  1.00  0.00    -0.081 C  
HETATM    2  N   UNL     1      -8.955   5.253  65.760  1.00  0.00    -0.151 NA 
HETATM    3  C   UNL     1      -9.492   4.417  66.839  1.00  0.00    -0.178 C  
ENDROOT
BRANCH   2   4
HETATM    4  C   UNL     1      -8.925   6.661  66.199  1.00  0.00    -0.139 C  
BRANCH   4   5
HETATM    5  C   UNL     1      -8.880   6.859  67.720  1.00  0.00    -0.119 C  
HETATM    6  C   UNL     1      -8.277   8.211  68.176  1.00  0.00    -0.129 C  
HETATM    7  C   UNL     1      -9.129   9.398  67.736  1.00  0.00    -0.134 A  
HETATM    8  C   UNL     1      -8.013   8.205  69.681  1.00  0.00    -0.115 A  
HETATM    9  C   UNL     1     -10.452   9.551  68.186  1.00  0.00    -0.268 A  
HETATM   10  C   UNL     1      -7.004   9.009  70.215  1.00  0.00    -0.052 A  
HETATM   11  C   UNL     1      -6.742   8.946  71.582  1.00  0.00    -0.067 A  
HETATM   12  C   UNL     1     -11.240  10.612  67.734  1.00  0.00    -0.383 A  
HETATM   13  C   UNL     1      -7.490   8.095  72.382  1.00  0.00    -0.144 A  
HETATM   14  C   UNL     1     -10.709  11.535  66.838  1.00  0.00    -0.263 A  
HETATM   15  C   UNL     1      -8.488   7.346  71.783  1.00  0.00    -0.107 A  
HETATM   16  C   UNL     1      -9.395  11.411  66.393  1.00  0.00    -0.219 A  
HETATM   17 CL   UNL     1     -11.687  12.833  66.269  1.00  0.00    -0.436 Cl 
HETATM   18  N   UNL     1      -8.768   7.388  70.463  1.00  0.00    -0.146 NA 
HETATM   19  C   UNL     1      -8.608  10.347  66.839  1.00  0.00    -0.127 A  
ENDBRANCH   4   5
ENDBRANCH   2   4
TORSDOF 2
ENDMDL
MODEL      155
REMARK 921   NORMALIZED FREE ENERGY PREDICTED BY IDOCK:   -2.92 KCAL/MOL
REMARK 922        TOTAL FREE ENERGY PREDICTED BY IDOCK:   -3.43 KCAL/MOL
REMARK 923 INTER-LIGAND FREE ENERGY PREDICTED BY IDOCK:   -3.23 KCAL/MOL
REMARK 924 INTRA-LIGAND FREE ENERGY PREDICTED BY IDOCK:   -0.19 KCAL/MOL
REMARK 927      BINDING AFFINITY PREDICTED BY RF-SCORE:    0.00 PKD
ROOT
HETATM    1  C   UNL     1      -9.070   2.089  68.749  1.00  0.00    -0.144 C  
HETATM    2  N   UNL     1      -8.667   3.225  67.914  1.00  0.00    -0.102 NA 
HETATM    3  C   UNL     1      -8.653   2.820  66.505  1.00  0.00    -0.110 C  
ENDROOT
BRANCH   2   4
HETATM    4  C   UNL     1      -9.566   4.382  68.084  1.00  0.00    -0.142 C  
BRANCH   4   5
HETATM    5  C   UNL     1     -10.050   4.614  69.521  1.00  0.00    -0.212 C  
HETATM    6  C   UNL     1      -9.185   5.604  70.341  1.00  0.00    -0.179 C  
HETATM    7  C   UNL     1      -9.234   7.018  69.768  1.00  0.00    -0.147 A  
HETATM    8  C   UNL     1      -9.564   5.557  71.820  1.00  0.00    -0.151 A  
HETATM    9  C   UNL     1     -10.440   7.735  69.702  1.00  0.00    -0.229 A  
HETATM   10  C   UNL     1      -8.618   5.884  72.793  1.00  0.00    -0.122 A  
HETATM   11  C   UNL     1      -8.967   5.781  74.137  1.00  0.00    -0.122 A  
HETATM   12  C   UNL     1     -10.482   9.008  69.127  1.00  0.00    -0.239 A  
HETATM   13  C   UNL     1     -10.245   5.363  74.481  1.00  0.00    -0.293 A  
HETATM   14  C   UNL     1      -9.317   9.578  68.623  1.00  0.00    -0.142 A  
HETATM   15  C   UNL     1     -11.134   5.078  73.460  1.00  0.00    -0.317 A  
HETATM   16  C   UNL     1      -8.108   8.891  68.694  1.00  0.00    -0.111 A  
HETATM   17 CL   UNL     1      -9.373  11.139  67.900  1.00  0.00    -0.157 Cl 
HETATM   18  N   UNL     1     -10.827   5.172  72.148  1.00  0.00    -0.190 NA 
HETATM   19  C   UNL     1      -8.065   7.615  69.263  1.00  0.00    -0.128 A  
ENDBRANCH   4   5
ENDBRANCH   2   4
TORSDOF 2
ENDMDL
MODEL      156
REMARK 921   NORMALIZED FREE ENERGY PREDICTED BY IDOCK:   -2.88 KCAL/MOL
REMARK 922        TOTAL FREE ENERGY PREDICTED BY IDOCK:   -3.38 KCAL/MOL
REMARK 923 INTER-LIGAND FREE ENERGY PREDICTED BY IDOCK:   -3.21 KCAL/MOL
REMARK 924 INTRA-LIGAND FREE ENERGY PREDICTED BY IDOCK:   -0.16 KCAL/MOL
REMARK 927      BINDING AFFINITY PREDICTED BY RF-SCORE:    0.00 PKD
ROOT
HETATM    1  C   UNL     1      -9.162  11.665  66.256  1.00  0.00    -0.217 C  
HETATM    2  N   UNL     1      -9.105  10.200  66.233  1.00  0.00    -0.151 NA 
HETATM    3  C   UNL     1      -8.266   9.757  65.115  1.00  0.00    -0.140 C  
ENDROOT
BRANCH   2   4
HETATM    4  C   UNL     1      -8.575   9.647  67.493  1.00  0.00    -0.126 C  
BRANCH   4   5
HETATM    5  C   UNL     1      -8.491   8.116  67.537  1.00  0.00    -0.126 C  
HETATM    6  C   UNL     1      -8.191   7.527  68.938  1.00  0.00    -0.128 C  
HETATM    7  C   UNL     1      -9.319   7.801  69.929  1.00  0.00    -0.157 A  
HETATM    8  C   UNL     1      -7.847   6.041  68.838  1.00  0.00    -0.096 A  
HETATM    9  C   UNL     1     -10.613   7.296  69.717  1.00  0.00    -0.247 A  
HETATM   10  C   UNL     1      -7.023   5.451  69.798  1.00  0.00    -0.061 A  
HETATM   11  C   UNL     1      -6.676   4.109  69.658  1.00  0.00    -0.037 A  
HETATM   12  C   UNL     1     -11.650   7.598  70.603  1.00  0.00    -0.251 A  
HETATM   13  C   UNL     1      -7.159   3.388  68.575  1.00  0.00    -0.050 A  
HETATM   14  C   UNL     1     -11.400   8.398  71.714  1.00  0.00    -0.300 A  
HETATM   15  C   UNL     1      -7.989   4.038  67.678  1.00  0.00    -0.090 A  
HETATM   16  C   UNL     1     -10.121   8.895  71.951  1.00  0.00    -0.393 A  
HETATM   17 CL   UNL     1     -12.683   8.784  72.795  1.00  0.00    -0.299 Cl 
HETATM   18  N   UNL     1      -8.346   5.335  67.789  1.00  0.00    -0.099 NA 
HETATM   19  C   UNL     1      -9.084   8.600  71.062  1.00  0.00    -0.248 A  
ENDBRANCH   4   5
ENDBRANCH   2   4
TORSDOF 2
ENDMDL
MODEL      157
REMARK 921   NORMALIZED FREE ENERGY PREDICTED BY IDOCK:   -2.87 KCAL/MOL
REMARK 922        TOTAL FREE ENERGY PREDICTED BY IDOCK:   -3.37 KCAL/MOL
REMARK 923 INTER-LIGAND FREE ENERGY PREDICTED BY IDOCK:   -2.96 KCAL/MOL
REMARK 924 INTRA-LIGAND FREE ENERGY PREDICTED BY IDOCK:   -0.41 KCAL/MOL
REMARK 927      BINDING AFFINITY PREDICTED BY RF-SCORE:    0.00 PKD
ROOT
HETATM    1  C   UNL     1      -9.652   9.710  65.141  1.00  0.00    -0.254 C  
HETATM    2  N   UNL     1      -8.370   9.134  64.724  1.00  0.00    -0.159 NA 
HETATM    3  C   UNL     1      -7.289  10.087  64.996  1.00  0.00    -0.140 C  
ENDROOT
BRANCH   2   4
HETATM    4  C   UNL     1      -8.086   7.861  65.413  1.00  0.00    -0.130 C  
BRANCH   4   5
HETATM    5  C   UNL     1      -9.053   7.520  66.555  1.00  0.00    -0.201 C  
HETATM    6  C   UNL     1      -8.398   7.456  67.957  1.00  0.00    -0.124 C  
HETATM    7  C   UNL     1      -7.863   8.814  68.403  1.00  0.00    -0.104 A  
HETATM    8  C   UNL     1      -9.358   6.840  68.975  1.00  0.00    -0.134 A  
HETATM    9  C   UNL     1      -8.720   9.912  68.579  1.00  0.00    -0.121 A  
HETATM   10  C   UNL     1      -8.853   6.172  70.092  1.00  0.00    -0.144 A  
HETATM   11  C   UNL     1      -9.744   5.570  70.978  1.00  0.00    -0.229 A  
HETATM   12  C   UNL     1      -8.212  11.164  68.935  1.00  0.00    -0.104 A  
HETATM   13  C   UNL     1     -11.108   5.653  70.737  1.00  0.00    -0.196 A  
HETATM   14  C   UNL     1      -6.843  11.325  69.129  1.00  0.00    -0.109 A  
HETATM   15  C   UNL     1     -11.531   6.353  69.621  1.00  0.00    -0.378 A  
HETATM   16  C   UNL     1      -5.978  10.244  68.977  1.00  0.00    -0.037 A  
HETATM   17 CL   UNL     1      -6.216  12.871  69.552  1.00  0.00    -0.115 Cl 
HETATM   18  N   UNL     1     -10.693   6.949  68.746  1.00  0.00    -0.224 NA 
HETATM   19  C   UNL     1      -6.484   8.993  68.614  1.00  0.00    -0.054 A  
ENDBRANCH   4   5
ENDBRANCH   2   4
TORSDOF 2
ENDMDL
MODEL      158
REMARK 921   NORMALIZED FREE ENERGY PREDICTED BY IDOCK:   -2.87 KCAL/MOL
REMARK 922        TOTAL FREE ENERGY PREDICTED BY IDOCK:   -3.37 KCAL/MOL
REMARK 923 INTER-LIGAND FREE ENERGY PREDICTED BY IDOCK:   -3.26 KCAL/MOL
REMARK 924 INTRA-LIGAND FREE ENERGY PREDICTED BY IDOCK:   -0.11 KCAL/MOL
REMARK 927      BINDING AFFINITY PREDICTED BY RF-SCORE:    0.00 PKD
ROOT
HETATM    1  C   UNL     1      -9.257   6.119  70.292  1.00  0.00    -0.156 C  
HETATM    2  N   UNL     1      -7.837   5.910  69.999  1.00  0.00    -0.098 NA 
HETATM    3  C   UNL     1      -7.589   4.487  69.745  1.00  0.00    -0.054 C  
ENDROOT
BRANCH   2   4
HETATM    4  C   UNL     1      -7.390   6.701  68.836  1.00  0.00    -0.094 C  
BRANCH   4   5
HETATM    5  C   UNL     1      -7.583   6.012  67.479  1.00  0.00    -0.090 C  
HETATM    6  C   UNL     1      -9.013   6.128  66.895  1.00  0.00    -0.118 C  
HETATM    7  C   UNL     1      -9.382   7.571  66.562  1.00  0.00    -0.231 A  
HETATM    8  C   UNL     1      -9.188   5.188  65.702  1.00  0.00    -0.151 A  
HETATM    9  C   UNL     1      -8.661   8.305  65.605  1.00  0.00    -0.189 A  
HETATM   10  C   UNL     1     -10.455   4.695  65.385  1.00  0.00    -0.174 A  
HETATM   11  C   UNL     1     -10.584   3.795  64.329  1.00  0.00    -0.241 A  
HETATM   12  C   UNL     1      -8.973   9.642  65.348  1.00  0.00    -0.231 A  
HETATM   13  C   UNL     1      -9.457   3.416  63.613  1.00  0.00    -0.122 A  
HETATM   14  C   UNL     1     -10.016  10.253  66.037  1.00  0.00    -0.245 A  
HETATM   15  C   UNL     1      -8.240   3.966  63.974  1.00  0.00    -0.091 A  
HETATM   16  C   UNL     1     -10.754   9.539  66.978  1.00  0.00    -0.220 A  
HETATM   17 CL   UNL     1     -10.390  11.906  65.731  1.00  0.00    -0.273 Cl 
HETATM   18  N   UNL     1      -8.083   4.842  64.989  1.00  0.00    -0.102 NA 
HETATM   19  C   UNL     1     -10.438   8.204  67.241  1.00  0.00    -0.379 A  
ENDBRANCH   4   5
ENDBRANCH   2   4
TORSDOF 2
ENDMDL
MODEL      159
REMARK 921   NORMALIZED FREE ENERGY PREDICTED BY IDOCK:   -2.80 KCAL/MOL
REMARK 922        TOTAL FREE ENERGY PREDICTED BY IDOCK:   -3.29 KCAL/MOL
REMARK 923 INTER-LIGAND FREE ENERGY PREDICTED BY IDOCK:   -3.12 KCAL/MOL
REMARK 924 INTRA-LIGAND FREE ENERGY PREDICTED BY IDOCK:   -0.17 KCAL/MOL
REMARK 927      BINDING AFFINITY PREDICTED BY RF-SCORE:    0.00 PKD
ROOT
HETATM    1  C   UNL     1      -8.393   5.624  65.278  1.00  0.00    -0.146 C  
HETATM    2  N   UNL     1      -9.732   5.314  65.788  1.00  0.00    -0.107 NA 
HETATM    3  C   UNL     1      -9.875   3.863  65.948  1.00  0.00    -0.128 C  
ENDROOT
BRANCH   2   4
HETATM    4  C   UNL     1     -10.000   5.978  67.077  1.00  0.00    -0.163 C  
BRANCH   4   5
HETATM    5  C   UNL     1      -8.794   6.702  67.690  1.00  0.00    -0.116 C  
HETATM    6  C   UNL     1      -9.144   7.681  68.839  1.00  0.00    -0.140 C  
HETATM    7  C   UNL     1      -9.718   6.957  70.054  1.00  0.00    -0.170 A  
HETATM    8  C   UNL     1      -7.941   8.554  69.190  1.00  0.00    -0.112 A  
HETATM    9  C   UNL     1      -8.962   6.005  70.758  1.00  0.00    -0.153 A  
HETATM   10  C   UNL     1      -8.138   9.823  69.737  1.00  0.00    -0.174 A  
HETATM   11  C   UNL     1      -7.029  10.626  69.999  1.00  0.00    -0.131 A  
HETATM   12  C   UNL     1      -9.516   5.311  71.836  1.00  0.00    -0.178 A  
HETATM   13  C   UNL     1      -5.758  10.147  69.718  1.00  0.00    -0.043 A  
HETATM   14  C   UNL     1     -10.827   5.570  72.225  1.00  0.00    -0.241 A  
HETATM   15  C   UNL     1      -5.642   8.870  69.197  1.00  0.00    -0.036 A  
HETATM   16  C   UNL     1     -11.588   6.521  71.551  1.00  0.00    -0.366 A  
HETATM   17 CL   UNL     1     -11.515   4.701  73.543  1.00  0.00    -0.362 Cl 
HETATM   18  N   UNL     1      -6.697   8.067  68.937  1.00  0.00    -0.052 NA 
HETATM   19  C   UNL     1     -11.037   7.212  70.468  1.00  0.00    -0.299 A  
ENDBRANCH   4   5
ENDBRANCH   2   4
TORSDOF 2
ENDMDL
MODEL      160
REMARK 921   NORMALIZED FREE ENERGY PREDICTED BY IDOCK:   -2.76 KCAL/MOL
REMARK 922        TOTAL FREE ENERGY PREDICTED BY IDOCK:   -3.25 KCAL/MOL
REMARK 923 INTER-LIGAND FREE ENERGY PREDICTED BY IDOCK:   -3.34 KCAL/MOL
REMARK 924 INTRA-LIGAND FREE ENERGY PREDICTED BY IDOCK:    0.10 KCAL/MOL
REMARK 927      BINDING AFFINITY PREDICTED BY RF-SCORE:    0.00 PKD
ROOT
HETATM    1  C   UNL     1     -12.356   1.529  73.395  1.00  0.00    -0.085 C  
HETATM    2  N   UNL     1     -11.331   2.565  73.559  1.00  0.00    -0.214 NA 
HETATM    3  C   UNL     1     -10.076   2.119  72.945  1.00  0.00    -0.125 C  
ENDROOT
BRANCH   2   4
HETATM    4  C   UNL     1     -11.742   3.848  72.959  1.00  0.00     0.303 C  
BRANCH   4   5
HETATM    5  C   UNL     1     -10.862   5.046  73.341  1.00  0.00    -0.360 C  
HETATM    6  C   UNL     1      -9.588   5.212  72.475  1.00  0.00    -0.173 C  
HETATM    7  C   UNL     1      -9.920   5.527  71.019  1.00  0.00    -0.253 A  
HETATM    8  C   UNL     1      -8.642   6.239  73.096  1.00  0.00    -0.120 A  
HETATM    9  C   UNL     1     -10.615   6.696  70.667  1.00  0.00    -0.268 A  
HETATM   10  C   UNL     1      -7.269   6.153  72.860  1.00  0.00    -0.092 A  
HETATM   11  C   UNL     1      -6.419   7.066  73.481  1.00  0.00    -0.066 A  
HETATM   12  C   UNL     1     -10.961   6.947  69.337  1.00  0.00    -0.274 A  
HETATM   13  C   UNL     1      -6.952   8.041  74.311  1.00  0.00    -0.169 A  
HETATM   14  C   UNL     1     -10.605   6.036  68.346  1.00  0.00    -0.261 A  
HETATM   15  C   UNL     1      -8.326   8.076  74.477  1.00  0.00    -0.134 A  
HETATM   16  C   UNL     1      -9.902   4.880  68.672  1.00  0.00    -0.221 A  
HETATM   17 CL   UNL     1     -11.046   6.338  66.710  1.00  0.00    -0.361 Cl 
HETATM   18  N   UNL     1      -9.175   7.208  73.887  1.00  0.00    -0.212 NA 
HETATM   19  C   UNL     1      -9.561   4.623  70.003  1.00  0.00    -0.259 A  
ENDBRANCH   4   5
ENDBRANCH   2   4
TORSDOF 2
ENDMDL
MODEL      161
REMARK 921   NORMALIZED FREE ENERGY PREDICTED BY IDOCK:   -2.73 KCAL/MOL
REMARK 922        TOTAL FREE ENERGY PREDICTED BY IDOCK:   -3.21 KCAL/MOL
REMARK 923 INTER-LIGAND FREE ENERGY PREDICTED BY IDOCK:   -2.96 KCAL/MOL
REMARK 924 INTRA-LIGAND FREE ENERGY PREDICTED BY IDOCK:   -0.25 KCAL/MOL
REMARK 927      BINDING AFFINITY PREDICTED BY RF-SCORE:    0.00 PKD
ROOT
HETATM    1  C   UNL     1      -6.887   7.025  70.804  1.00  0.00    -0.054 C  
HETATM    2  N   UNL     1      -7.476   6.681  69.507  1.00  0.00    -0.091 NA 
HETATM    3  C   UNL     1      -8.936   6.791  69.583  1.00  0.00    -0.143 C  
ENDROOT
BRANCH   2   4
HETATM    4  C   UNL     1      -6.974   7.549  68.425  1.00  0.00    -0.079 C  
BRANCH   4   5
HETATM    5  C   UNL     1      -8.059   8.339  67.680  1.00  0.00    -0.126 C  
HETATM    6  C   UNL     1      -8.101   8.090  66.151  1.00  0.00    -0.111 C  
HETATM    7  C   UNL     1      -8.481   6.651  65.813  1.00  0.00    -0.150 A  
HETATM    8  C   UNL     1      -9.004   9.113  65.462  1.00  0.00    -0.205 A  
HETATM    9  C   UNL     1      -9.728   6.121  66.187  1.00  0.00    -0.040 A  
HETATM   10  C   UNL     1      -8.772   9.461  64.130  1.00  0.00    -0.224 A  
HETATM   11  C   UNL     1      -9.572  10.436  63.538  1.00  0.00    -0.361 A  
HETATM   12  C   UNL     1     -10.043   4.786  65.920  1.00  0.00    -0.265 A  
HETATM   13  C   UNL     1     -10.583  11.033  64.278  1.00  0.00    -0.402 A  
HETATM   14  C   UNL     1      -9.120   3.974  65.268  1.00  0.00    -0.139 A  
HETATM   15  C   UNL     1     -10.765  10.618  65.586  1.00  0.00    -0.034 A  
HETATM   16  C   UNL     1      -7.886   4.485  64.874  1.00  0.00    -0.086 A  
HETATM   17 CL   UNL     1      -9.504   2.326  64.954  1.00  0.00    -0.095 Cl 
HETATM   18  N   UNL     1     -10.009   9.674  66.186  1.00  0.00    -0.274 NA 
HETATM   19  C   UNL     1      -7.566   5.818  65.146  1.00  0.00    -0.086 A  
ENDBRANCH   4   5
ENDBRANCH   2   4
TORSDOF 2
ENDMDL
MODEL      162
REMARK 921   NORMALIZED FREE ENERGY PREDICTED BY IDOCK:   -2.71 KCAL/MOL
REMARK 922        TOTAL FREE ENERGY PREDICTED BY IDOCK:   -3.18 KCAL/MOL
REMARK 923 INTER-LIGAND FREE ENERGY PREDICTED BY IDOCK:   -2.93 KCAL/MOL
REMARK 924 INTRA-LIGAND FREE ENERGY PREDICTED BY IDOCK:   -0.26 KCAL/MOL
REMARK 927      BINDING AFFINITY PREDICTED BY RF-SCORE:    0.00 PKD
ROOT
HETATM    1  C   UNL     1      -6.498   5.651  66.263  1.00  0.00    -0.044 C  
HETATM    2  N   UNL     1      -7.042   7.011  66.215  1.00  0.00    -0.072 NA 
HETATM    3  C   UNL     1      -6.564   7.692  65.008  1.00  0.00    -0.044 C  
ENDROOT
BRANCH   2   4
HETATM    4  C   UNL     1      -8.517   7.016  66.230  1.00  0.00    -0.134 C  
BRANCH   4   5
HETATM    5  C   UNL     1      -9.148   6.564  67.554  1.00  0.00    -0.115 C  
HETATM    6  C   UNL     1      -8.705   7.384  68.792  1.00  0.00    -0.128 C  
HETATM    7  C   UNL     1      -9.167   8.836  68.712  1.00  0.00    -0.141 A  
HETATM    8  C   UNL     1      -9.150   6.697  70.082  1.00  0.00    -0.155 A  
HETATM    9  C   UNL     1     -10.532   9.166  68.670  1.00  0.00    -0.235 A  
HETATM   10  C   UNL     1      -8.428   6.894  71.261  1.00  0.00    -0.120 A  
HETATM   11  C   UNL     1      -8.817   6.214  72.413  1.00  0.00    -0.136 A  
HETATM   12  C   UNL     1     -10.941  10.495  68.543  1.00  0.00    -0.300 A  
HETATM   13  C   UNL     1      -9.913   5.365  72.368  1.00  0.00    -0.208 A  
HETATM   14  C   UNL     1      -9.989  11.508  68.469  1.00  0.00    -0.204 A  
HETATM   15  C   UNL     1     -10.592   5.240  71.168  1.00  0.00    -0.173 A  
HETATM   16  C   UNL     1      -8.631  11.204  68.527  1.00  0.00    -0.157 A  
HETATM   17 CL   UNL     1     -10.493  13.145  68.296  1.00  0.00    -0.249 Cl 
HETATM   18  N   UNL     1     -10.241   5.887  70.036  1.00  0.00    -0.206 NA 
HETATM   19  C   UNL     1      -8.220   9.874  68.646  1.00  0.00    -0.108 A  
ENDBRANCH   4   5
ENDBRANCH   2   4
TORSDOF 2
ENDMDL
MODEL      163
REMARK 921   NORMALIZED FREE ENERGY PREDICTED BY IDOCK:   -2.68 KCAL/MOL
REMARK 922        TOTAL FREE ENERGY PREDICTED BY IDOCK:   -3.16 KCAL/MOL
REMARK 923 INTER-LIGAND FREE ENERGY PREDICTED BY IDOCK:   -3.19 KCAL/MOL
REMARK 924 INTRA-LIGAND FREE ENERGY PREDICTED BY IDOCK:    0.03 KCAL/MOL
REMARK 927      BINDING AFFINITY PREDICTED BY RF-SCORE:    0.00 PKD
ROOT
HETATM    1  C   UNL     1      -8.877  16.220  65.580  1.00  0.00     0.295 C  
HETATM    2  N   UNL     1     -10.075  16.523  66.369  1.00  0.00    -0.298 NA 
HETATM    3  C   UNL     1     -10.634  17.810  65.944  1.00  0.00    -0.205 C  
ENDROOT
BRANCH   2   4
HETATM    4  C   UNL     1     -11.103  15.473  66.236  1.00  0.00    -0.177 C  
BRANCH   4   5
HETATM    5  C   UNL     1     -11.602  14.892  67.566  1.00  0.00    -0.355 C  
HETATM    6  C   UNL     1     -10.700  13.781  68.162  1.00  0.00    -0.258 C  
HETATM    7  C   UNL     1      -9.323  14.309  68.554  1.00  0.00    -0.200 A  
HETATM    8  C   UNL     1     -11.407  13.072  69.317  1.00  0.00    -0.251 A  
HETATM    9  C   UNL     1      -9.177  15.303  69.536  1.00  0.00    -0.196 A  
HETATM   10  C   UNL     1     -11.088  11.748  69.620  1.00  0.00    -0.139 A  
HETATM   11  C   UNL     1     -11.784  11.102  70.641  1.00  0.00    -0.310 A  
HETATM   12  C   UNL     1      -7.916  15.817  69.849  1.00  0.00     0.298 A  
HETATM   13  C   UNL     1     -12.770  11.788  71.334  1.00  0.00    -0.413 A  
HETATM   14  C   UNL     1      -6.789  15.333  69.190  1.00  0.00    -0.138 A  
HETATM   15  C   UNL     1     -13.014  13.106  70.990  1.00  0.00    -0.133 A  
HETATM   16  C   UNL     1      -6.911  14.336  68.225  1.00  0.00    -0.109 A  
HETATM   17 CL   UNL     1      -5.238  15.978  69.564  1.00  0.00    -0.109 Cl 
HETATM   18  N   UNL     1     -12.354  13.760  70.009  1.00  0.00    -0.324 NA 
HETATM   19  C   UNL     1      -8.172  13.826  67.907  1.00  0.00    -0.166 A  
ENDBRANCH   4   5
ENDBRANCH   2   4
TORSDOF 2
ENDMDL
MODEL      164
REMARK 921   NORMALIZED FREE ENERGY PREDICTED BY IDOCK:   -2.67 KCAL/MOL
REMARK 922        TOTAL FREE ENERGY PREDICTED BY IDOCK:   -3.15 KCAL/MOL
REMARK 923 INTER-LIGAND FREE ENERGY PREDICTED BY IDOCK:   -2.94 KCAL/MOL
REMARK 924 INTRA-LIGAND FREE ENERGY PREDICTED BY IDOCK:   -0.21 KCAL/MOL
REMARK 927      BINDING AFFINITY PREDICTED BY RF-SCORE:    0.00 PKD
ROOT
HETATM    1  C   UNL     1     -11.968  12.982  65.117  1.00  0.00    -0.402 C  
HETATM    2  N   UNL     1     -11.018  12.861  66.226  1.00  0.00    -0.277 NA 
HETATM    3  C   UNL     1     -11.523  11.892  67.205  1.00  0.00    -0.319 C  
ENDROOT
BRANCH   2   4
HETATM    4  C   UNL     1      -9.681  12.441  65.765  1.00  0.00    -0.200 C  
BRANCH   4   5
HETATM    5  C   UNL     1      -9.427  10.929  65.824  1.00  0.00    -0.246 C  
HETATM    6  C   UNL     1      -7.932  10.530  65.907  1.00  0.00    -0.154 C  
HETATM    7  C   UNL     1      -7.283  11.001  67.205  1.00  0.00    -0.112 A  
HETATM    8  C   UNL     1      -7.760   9.029  65.676  1.00  0.00    -0.091 A  
HETATM    9  C   UNL     1      -7.733  10.541  68.453  1.00  0.00    -0.104 A  
HETATM   10  C   UNL     1      -6.564   8.538  65.149  1.00  0.00    -0.064 A  
HETATM   11  C   UNL     1      -6.449   7.172  64.895  1.00  0.00    -0.037 A  
HETATM   12  C   UNL     1      -7.167  11.021  69.637  1.00  0.00    -0.060 A  
HETATM   13  C   UNL     1      -7.517   6.332  65.176  1.00  0.00    -0.082 A  
HETATM   14  C   UNL     1      -6.138  11.956  69.582  1.00  0.00    -0.124 A  
HETATM   15  C   UNL     1      -8.660   6.891  65.719  1.00  0.00    -0.131 A  
HETATM   16  C   UNL     1      -5.665  12.412  68.354  1.00  0.00    -0.056 A  
HETATM   17 CL   UNL     1      -5.452  12.559  71.041  1.00  0.00    -0.162 Cl 
HETATM   18  N   UNL     1      -8.801   8.209  65.979  1.00  0.00    -0.165 NA 
HETATM   19  C   UNL     1      -6.235  11.939  67.169  1.00  0.00    -0.154 A  
ENDBRANCH   4   5
ENDBRANCH   2   4
TORSDOF 2
ENDMDL
MODEL      165
REMARK 921   NORMALIZED FREE ENERGY PREDICTED BY IDOCK:   -2.62 KCAL/MOL
REMARK 922        TOTAL FREE ENERGY PREDICTED BY IDOCK:   -3.09 KCAL/MOL
REMARK 923 INTER-LIGAND FREE ENERGY PREDICTED BY IDOCK:   -2.93 KCAL/MOL
REMARK 924 INTRA-LIGAND FREE ENERGY PREDICTED BY IDOCK:   -0.16 KCAL/MOL
REMARK 927      BINDING AFFINITY PREDICTED BY RF-SCORE:    0.00 PKD
ROOT
HETATM    1  C   UNL     1     -10.712   7.051  73.183  1.00  0.00    -0.326 C  
HETATM    2  N   UNL     1     -11.108   7.634  71.898  1.00  0.00    -0.241 NA 
HETATM    3  C   UNL     1     -12.146   8.647  72.116  1.00  0.00    -0.381 C  
ENDROOT
BRANCH   2   4
HETATM    4  C   UNL     1      -9.966   8.246  71.193  1.00  0.00    -0.185 C  
BRANCH   4   5
HETATM    5  C   UNL     1      -9.247   7.315  70.208  1.00  0.00    -0.155 C  
HETATM    6  C   UNL     1      -9.348   7.746  68.723  1.00  0.00    -0.146 C  
HETATM    7  C   UNL     1      -8.643   9.074  68.462  1.00  0.00    -0.129 A  
HETATM    8  C   UNL     1      -8.857   6.630  67.802  1.00  0.00    -0.114 A  
HETATM    9  C   UNL     1      -7.261   9.218  68.670  1.00  0.00    -0.075 A  
HETATM   10  C   UNL     1      -9.354   6.532  66.501  1.00  0.00    -0.188 A  
HETATM   11  C   UNL     1      -8.935   5.474  65.696  1.00  0.00    -0.152 A  
HETATM   12  C   UNL     1      -6.637  10.453  68.478  1.00  0.00    -0.052 A  
HETATM   13  C   UNL     1      -8.033   4.548  66.199  1.00  0.00    -0.099 A  
HETATM   14  C   UNL     1      -7.386  11.551  68.067  1.00  0.00    -0.091 A  
HETATM   15  C   UNL     1      -7.568   4.726  67.491  1.00  0.00    -0.082 A  
HETATM   16  C   UNL     1      -8.754  11.425  67.839  1.00  0.00    -0.145 A  
HETATM   17 CL   UNL     1      -6.619  13.076  67.847  1.00  0.00    -0.114 Cl 
HETATM   18  N   UNL     1      -7.952   5.742  68.294  1.00  0.00    -0.103 NA 
HETATM   19  C   UNL     1      -9.382  10.192  68.037  1.00  0.00    -0.149 A  
ENDBRANCH   4   5
ENDBRANCH   2   4
TORSDOF 2
ENDMDL
MODEL      166
REMARK 921   NORMALIZED FREE ENERGY PREDICTED BY IDOCK:   -2.57 KCAL/MOL
REMARK 922        TOTAL FREE ENERGY PREDICTED BY IDOCK:   -3.03 KCAL/MOL
REMARK 923 INTER-LIGAND FREE ENERGY PREDICTED BY IDOCK:   -2.82 KCAL/MOL
REMARK 924 INTRA-LIGAND FREE ENERGY PREDICTED BY IDOCK:   -0.21 KCAL/MOL
REMARK 927      BINDING AFFINITY PREDICTED BY RF-SCORE:    0.00 PKD
ROOT
HETATM    1  C   UNL     1     -11.135  13.245  66.146  1.00  0.00    -0.285 C  
HETATM    2  N   UNL     1     -11.343  12.578  67.434  1.00  0.00    -0.293 NA 
HETATM    3  C   UNL     1     -11.376  11.126  67.238  1.00  0.00    -0.226 C  
ENDROOT
BRANCH   2   4
HETATM    4  C   UNL     1     -10.289  12.918  68.409  1.00  0.00    -0.244 C  
BRANCH   4   5
HETATM    5  C   UNL     1      -9.090  11.961  68.417  1.00  0.00    -0.167 C  
HETATM    6  C   UNL     1      -7.899  12.414  67.534  1.00  0.00    -0.169 C  
HETATM    7  C   UNL     1      -7.266  13.705  68.043  1.00  0.00    -0.130 A  
HETATM    8  C   UNL     1      -6.882  11.284  67.378  1.00  0.00    -0.096 A  
HETATM    9  C   UNL     1      -6.673  13.774  69.315  1.00  0.00    -0.101 A  
HETATM   10  C   UNL     1      -6.074  11.227  66.241  1.00  0.00    -0.084 A  
HETATM   11  C   UNL     1      -5.193  10.158  66.092  1.00  0.00    -0.050 A  
HETATM   12  C   UNL     1      -6.145  14.976  69.792  1.00  0.00    -0.135 A  
HETATM   13  C   UNL     1      -5.132   9.180  67.074  1.00  0.00    -0.035 A  
HETATM   14  C   UNL     1      -6.194  16.117  68.996  1.00  0.00    -0.139 A  
HETATM   15  C   UNL     1      -5.949   9.318  68.183  1.00  0.00    -0.041 A  
HETATM   16  C   UNL     1      -6.761  16.066  67.725  1.00  0.00    -0.175 A  
HETATM   17 CL   UNL     1      -5.557  17.602  69.590  1.00  0.00    -0.209 Cl 
HETATM   18  N   UNL     1      -6.810  10.344  68.358  1.00  0.00    -0.064 NA 
HETATM   19  C   UNL     1      -7.297  14.866  67.250  1.00  0.00    -0.174 A  
ENDBRANCH   4   5
ENDBRANCH   2   4
TORSDOF 2
ENDMDL
MODEL      167
REMARK 921   NORMALIZED FREE ENERGY PREDICTED BY IDOCK:   -2.57 KCAL/MOL
REMARK 922        TOTAL FREE ENERGY PREDICTED BY IDOCK:   -3.03 KCAL/MOL
REMARK 923 INTER-LIGAND FREE ENERGY PREDICTED BY IDOCK:   -2.86 KCAL/MOL
REMARK 924 INTRA-LIGAND FREE ENERGY PREDICTED BY IDOCK:   -0.17 KCAL/MOL
REMARK 927      BINDING AFFINITY PREDICTED BY RF-SCORE:    0.00 PKD
ROOT
HETATM    1  C   UNL     1      -6.846  11.242  69.493  1.00  0.00    -0.115 C  
HETATM    2  N   UNL     1      -8.023  10.368  69.524  1.00  0.00    -0.160 NA 
HETATM    3  C   UNL     1      -8.781  10.517  68.278  1.00  0.00    -0.135 C  
ENDROOT
BRANCH   2   4
HETATM    4  C   UNL     1      -7.654   8.952  69.709  1.00  0.00    -0.069 C  
BRANCH   4   5
HETATM    5  C   UNL     1      -8.146   8.011  68.600  1.00  0.00    -0.125 C  
HETATM    6  C   UNL     1      -7.953   6.504  68.901  1.00  0.00    -0.111 C  
HETATM    7  C   UNL     1      -8.793   6.044  70.089  1.00  0.00    -0.143 A  
HETATM    8  C   UNL     1      -8.201   5.666  67.648  1.00  0.00    -0.101 A  
HETATM    9  C   UNL     1     -10.195   6.115  70.060  1.00  0.00    -0.250 A  
HETATM   10  C   UNL     1      -7.568   4.431  67.499  1.00  0.00    -0.077 A  
HETATM   11  C   UNL     1      -7.765   3.708  66.324  1.00  0.00    -0.088 A  
HETATM   12  C   UNL     1     -10.952   5.741  71.174  1.00  0.00    -0.295 A  
HETATM   13  C   UNL     1      -8.587   4.225  65.333  1.00  0.00    -0.120 A  
HETATM   14  C   UNL     1     -10.312   5.283  72.322  1.00  0.00    -0.212 A  
HETATM   15  C   UNL     1      -9.197   5.446  65.564  1.00  0.00    -0.081 A  
HETATM   16  C   UNL     1      -8.923   5.189  72.365  1.00  0.00    -0.138 A  
HETATM   17 CL   UNL     1     -11.244   4.839  73.700  1.00  0.00    -0.385 Cl 
HETATM   18  N   UNL     1      -9.029   6.168  66.693  1.00  0.00    -0.126 NA 
HETATM   19  C   UNL     1      -8.165   5.569  71.255  1.00  0.00    -0.125 A  
ENDBRANCH   4   5
ENDBRANCH   2   4
TORSDOF 2
ENDMDL
MODEL      168
REMARK 921   NORMALIZED FREE ENERGY PREDICTED BY IDOCK:   -2.55 KCAL/MOL
REMARK 922        TOTAL FREE ENERGY PREDICTED BY IDOCK:   -3.01 KCAL/MOL
REMARK 923 INTER-LIGAND FREE ENERGY PREDICTED BY IDOCK:   -2.70 KCAL/MOL
REMARK 924 INTRA-LIGAND FREE ENERGY PREDICTED BY IDOCK:   -0.31 KCAL/MOL
REMARK 927      BINDING AFFINITY PREDICTED BY RF-SCORE:    0.00 PKD
ROOT
HETATM    1  C   UNL     1      -9.790  12.725  64.726  1.00  0.00    -0.031 C  
HETATM    2  N   UNL     1     -10.654  11.541  64.694  1.00  0.00    -0.294 NA 
HETATM    3  C   UNL     1     -11.678  11.705  63.658  1.00  0.00    -0.303 C  
ENDROOT
BRANCH   2   4
HETATM    4  C   UNL     1      -9.889  10.306  64.438  1.00  0.00    -0.305 C  
BRANCH   4   5
HETATM    5  C   UNL     1      -9.887   9.300  65.596  1.00  0.00    -0.237 C  
HETATM    6  C   UNL     1      -8.569   9.256  66.410  1.00  0.00    -0.141 C  
HETATM    7  C   UNL     1      -8.303  10.569  67.142  1.00  0.00    -0.127 A  
HETATM    8  C   UNL     1      -8.551   8.049  67.346  1.00  0.00    -0.125 A  
HETATM    9  C   UNL     1      -9.187  11.047  68.123  1.00  0.00    -0.165 A  
HETATM   10  C   UNL     1      -7.334   7.482  67.728  1.00  0.00    -0.103 A  
HETATM   11  C   UNL     1      -7.342   6.348  68.537  1.00  0.00    -0.087 A  
HETATM   12  C   UNL     1      -8.961  12.276  68.748  1.00  0.00     0.132 A  
HETATM   13  C   UNL     1      -8.553   5.811  68.950  1.00  0.00    -0.106 A  
HETATM   14  C   UNL     1      -7.844  13.032  68.405  1.00  0.00    -0.134 A  
HETATM   15  C   UNL     1      -9.716   6.443  68.548  1.00  0.00    -0.132 A  
HETATM   16  C   UNL     1      -6.947  12.568  67.446  1.00  0.00    -0.147 A  
HETATM   17 CL   UNL     1      -7.576  14.554  69.163  1.00  0.00    -0.125 Cl 
HETATM   18  N   UNL     1      -9.741   7.545  67.768  1.00  0.00    -0.142 NA 
HETATM   19  C   UNL     1      -7.175  11.342  66.815  1.00  0.00    -0.131 A  
ENDBRANCH   4   5
ENDBRANCH   2   4
TORSDOF 2
ENDMDL
MODEL      169
REMARK 921   NORMALIZED FREE ENERGY PREDICTED BY IDOCK:   -2.55 KCAL/MOL
REMARK 922        TOTAL FREE ENERGY PREDICTED BY IDOCK:   -3.01 KCAL/MOL
REMARK 923 INTER-LIGAND FREE ENERGY PREDICTED BY IDOCK:   -2.80 KCAL/MOL
REMARK 924 INTRA-LIGAND FREE ENERGY PREDICTED BY IDOCK:   -0.21 KCAL/MOL
REMARK 927      BINDING AFFINITY PREDICTED BY RF-SCORE:    0.00 PKD
ROOT
HETATM    1  C   UNL     1      -6.872   3.062  64.630  1.00  0.00    -0.041 C  
HETATM    2  N   UNL     1      -7.605   4.323  64.765  1.00  0.00    -0.076 NA 
HETATM    3  C   UNL     1      -9.034   4.046  64.944  1.00  0.00    -0.134 C  
ENDROOT
BRANCH   2   4
HETATM    4  C   UNL     1      -7.116   5.129  65.900  1.00  0.00    -0.068 C  
BRANCH   4   5
HETATM    5  C   UNL     1      -7.991   5.063  67.158  1.00  0.00    -0.100 C  
HETATM    6  C   UNL     1      -7.869   6.293  68.093  1.00  0.00    -0.104 C  
HETATM    7  C   UNL     1      -8.378   7.570  67.430  1.00  0.00    -0.112 A  
HETATM    8  C   UNL     1      -8.544   6.020  69.436  1.00  0.00    -0.122 A  
HETATM    9  C   UNL     1      -9.718   7.696  67.025  1.00  0.00    -0.255 A  
HETATM   10  C   UNL     1      -8.104   6.681  70.584  1.00  0.00    -0.112 A  
HETATM   11  C   UNL     1      -8.696   6.377  71.808  1.00  0.00    -0.132 A  
HETATM   12  C   UNL     1     -10.159   8.849  66.371  1.00  0.00    -0.333 A  
HETATM   13  C   UNL     1      -9.710   5.432  71.860  1.00  0.00    -0.204 A  
HETATM   14  C   UNL     1      -9.268   9.890  66.127  1.00  0.00    -0.168 A  
HETATM   15  C   UNL     1     -10.107   4.836  70.676  1.00  0.00    -0.218 A  
HETATM   16  C   UNL     1      -7.940   9.791  66.535  1.00  0.00    -0.112 A  
HETATM   17 CL   UNL     1      -9.809  11.303  65.306  1.00  0.00    -0.275 Cl 
HETATM   18  N   UNL     1      -9.556   5.112  69.475  1.00  0.00    -0.146 NA 
HETATM   19  C   UNL     1      -7.495   8.636  67.183  1.00  0.00    -0.088 A  
ENDBRANCH   4   5
ENDBRANCH   2   4
TORSDOF 2
ENDMDL
MODEL      170
REMARK 921   NORMALIZED FREE ENERGY PREDICTED BY IDOCK:   -2.53 KCAL/MOL
REMARK 922        TOTAL FREE ENERGY PREDICTED BY IDOCK:   -2.98 KCAL/MOL
REMARK 923 INTER-LIGAND FREE ENERGY PREDICTED BY IDOCK:   -2.83 KCAL/MOL
REMARK 924 INTRA-LIGAND FREE ENERGY PREDICTED BY IDOCK:   -0.15 KCAL/MOL
REMARK 927      BINDING AFFINITY PREDICTED BY RF-SCORE:    0.00 PKD
ROOT
HETATM    1  C   UNL     1     -10.416  12.700  63.871  1.00  0.00    -0.411 C  
HETATM    2  N   UNL     1     -10.890  12.879  65.246  1.00  0.00    -0.287 NA 
HETATM    3  C   UNL     1     -12.310  12.523  65.329  1.00  0.00    -0.403 C  
ENDROOT
BRANCH   2   4
HETATM    4  C   UNL     1     -10.122  12.064  66.206  1.00  0.00    -0.222 C  
BRANCH   4   5
HETATM    5  C   UNL     1      -8.781  12.673  66.637  1.00  0.00    -0.084 C  
HETATM    6  C   UNL     1      -8.484  12.568  68.154  1.00  0.00    -0.180 C  
HETATM    7  C   UNL     1      -8.324  11.120  68.609  1.00  0.00    -0.154 A  
HETATM    8  C   UNL     1      -7.284  13.437  68.531  1.00  0.00    -0.110 A  
HETATM    9  C   UNL     1      -7.301  10.305  68.097  1.00  0.00    -0.085 A  
HETATM   10  C   UNL     1      -7.177  13.952  69.824  1.00  0.00     0.310 A  
HETATM   11  C   UNL     1      -6.105  14.787  70.131  1.00  0.00    -0.156 A  
HETATM   12  C   UNL     1      -7.197   8.965  68.480  1.00  0.00    -0.073 A  
HETATM   13  C   UNL     1      -5.167  15.084  69.153  1.00  0.00    -0.094 A  
HETATM   14  C   UNL     1      -8.109   8.433  69.387  1.00  0.00    -0.114 A  
HETATM   15  C   UNL     1      -5.330  14.517  67.901  1.00  0.00    -0.074 A  
HETATM   16  C   UNL     1      -9.121   9.229  69.919  1.00  0.00    -0.203 A  
HETATM   17 CL   UNL     1      -7.991   6.778  69.846  1.00  0.00    -0.118 Cl 
HETATM   18  N   UNL     1      -6.356  13.701  67.574  1.00  0.00    -0.301 NA 
HETATM   19  C   UNL     1      -9.230  10.567  69.531  1.00  0.00    -0.072 A  
ENDBRANCH   4   5
ENDBRANCH   2   4
TORSDOF 2
ENDMDL
MODEL      171
REMARK 921   NORMALIZED FREE ENERGY PREDICTED BY IDOCK:   -2.51 KCAL/MOL
REMARK 922        TOTAL FREE ENERGY PREDICTED BY IDOCK:   -2.97 KCAL/MOL
REMARK 923 INTER-LIGAND FREE ENERGY PREDICTED BY IDOCK:   -2.62 KCAL/MOL
REMARK 924 INTRA-LIGAND FREE ENERGY PREDICTED BY IDOCK:   -0.35 KCAL/MOL
REMARK 927      BINDING AFFINITY PREDICTED BY RF-SCORE:    0.00 PKD
ROOT
HETATM    1  C   UNL     1      -9.441   7.419  70.045  1.00  0.00    -0.161 C  
HETATM    2  N   UNL     1     -10.095   7.889  68.820  1.00  0.00    -0.189 NA 
HETATM    3  C   UNL     1     -10.467   9.299  68.969  1.00  0.00    -0.216 C  
ENDROOT
BRANCH   2   4
HETATM    4  C   UNL     1      -9.229   7.732  67.636  1.00  0.00    -0.136 C  
BRANCH   4   5
HETATM    5  C   UNL     1      -9.625   6.584  66.698  1.00  0.00    -0.201 C  
HETATM    6  C   UNL     1      -8.585   5.440  66.605  1.00  0.00    -0.115 C  
HETATM    7  C   UNL     1      -8.417   4.708  67.933  1.00  0.00    -0.103 A  
HETATM    8  C   UNL     1      -8.923   4.495  65.453  1.00  0.00    -0.141 A  
HETATM    9  C   UNL     1      -9.490   4.022  68.527  1.00  0.00    -0.215 A  
HETATM   10  C   UNL     1      -7.906   3.775  64.822  1.00  0.00    -0.085 A  
HETATM   11  C   UNL     1      -8.228   2.961  63.738  1.00  0.00    -0.086 A  
HETATM   12  C   UNL     1      -9.339   3.401  69.770  1.00  0.00    -0.238 A  
HETATM   13  C   UNL     1      -9.546   2.878  63.313  1.00  0.00    -0.096 A  
HETATM   14  C   UNL     1      -8.111   3.451  70.423  1.00  0.00    -0.045 A  
HETATM   15  C   UNL     1     -10.500   3.605  64.004  1.00  0.00    -0.265 A  
HETATM   16  C   UNL     1      -7.030   4.111  69.844  1.00  0.00    -0.042 A  
HETATM   17 CL   UNL     1      -7.931   2.699  71.961  1.00  0.00    -0.053 Cl 
HETATM   18  N   UNL     1     -10.221   4.399  65.060  1.00  0.00    -0.178 NA 
HETATM   19  C   UNL     1      -7.182   4.738  68.605  1.00  0.00    -0.057 A  
ENDBRANCH   4   5
ENDBRANCH   2   4
TORSDOF 2
ENDMDL
MODEL      172
REMARK 921   NORMALIZED FREE ENERGY PREDICTED BY IDOCK:   -2.46 KCAL/MOL
REMARK 922        TOTAL FREE ENERGY PREDICTED BY IDOCK:   -2.91 KCAL/MOL
REMARK 923 INTER-LIGAND FREE ENERGY PREDICTED BY IDOCK:   -2.64 KCAL/MOL
REMARK 924 INTRA-LIGAND FREE ENERGY PREDICTED BY IDOCK:   -0.27 KCAL/MOL
REMARK 927      BINDING AFFINITY PREDICTED BY RF-SCORE:    0.00 PKD
ROOT
HETATM    1  C   UNL     1     -10.843   6.254  69.539  1.00  0.00    -0.340 C  
HETATM    2  N   UNL     1     -10.312   6.868  70.760  1.00  0.00    -0.202 NA 
HETATM    3  C   UNL     1     -10.225   5.860  71.821  1.00  0.00    -0.203 C  
ENDROOT
BRANCH   2   4
HETATM    4  C   UNL     1      -8.981   7.468  70.543  1.00  0.00    -0.152 C  
BRANCH   4   5
HETATM    5  C   UNL     1      -8.997   8.815  69.810  1.00  0.00    -0.146 C  
HETATM    6  C   UNL     1      -7.846   9.007  68.790  1.00  0.00    -0.096 C  
HETATM    7  C   UNL     1      -7.941   8.023  67.627  1.00  0.00    -0.123 A  
HETATM    8  C   UNL     1      -7.774  10.460  68.323  1.00  0.00    -0.096 A  
HETATM    9  C   UNL     1      -9.046   8.024  66.760  1.00  0.00    -0.189 A  
HETATM   10  C   UNL     1      -6.557  10.994  67.894  1.00  0.00    -0.062 A  
HETATM   11  C   UNL     1      -6.501  12.337  67.526  1.00  0.00    -0.137 A  
HETATM   12  C   UNL     1      -9.147   7.084  65.732  1.00  0.00     0.017 A  
HETATM   13  C   UNL     1      -7.651  13.111  67.588  1.00  0.00    -0.171 A  
HETATM   14  C   UNL     1      -8.138   6.141  65.555  1.00  0.00    -0.131 A  
HETATM   15  C   UNL     1      -8.823  12.504  68.002  1.00  0.00    -0.187 A  
HETATM   16  C   UNL     1      -7.026   6.134  66.393  1.00  0.00    -0.067 A  
HETATM   17 CL   UNL     1      -8.271   4.972  64.298  1.00  0.00    -0.122 Cl 
HETATM   18  N   UNL     1      -8.910  11.205  68.361  1.00  0.00    -0.152 NA 
HETATM   19  C   UNL     1      -6.927   7.069  67.426  1.00  0.00    -0.079 A  
ENDBRANCH   4   5
ENDBRANCH   2   4
TORSDOF 2
ENDMDL
MODEL      173
REMARK 921   NORMALIZED FREE ENERGY PREDICTED BY IDOCK:   -2.43 KCAL/MOL
REMARK 922        TOTAL FREE ENERGY PREDICTED BY IDOCK:   -2.87 KCAL/MOL
REMARK 923 INTER-LIGAND FREE ENERGY PREDICTED BY IDOCK:   -2.61 KCAL/MOL
REMARK 924 INTRA-LIGAND FREE ENERGY PREDICTED BY IDOCK:   -0.26 KCAL/MOL
REMARK 927      BINDING AFFINITY PREDICTED BY RF-SCORE:    0.00 PKD
ROOT
HETATM    1  C   UNL     1      -8.740   1.847  63.712  1.00  0.00    -0.089 C  
HETATM    2  N   UNL     1      -8.821   3.291  63.953  1.00  0.00    -0.092 NA 
HETATM    3  C   UNL     1     -10.206   3.662  64.260  1.00  0.00    -0.221 C  
ENDROOT
BRANCH   2   4
HETATM    4  C   UNL     1      -7.942   3.717  65.059  1.00  0.00    -0.090 C  
BRANCH   4   5
HETATM    5  C   UNL     1      -8.423   3.304  66.456  1.00  0.00    -0.107 C  
HETATM    6  C   UNL     1      -8.069   4.308  67.582  1.00  0.00    -0.095 C  
HETATM    7  C   UNL     1      -8.774   5.649  67.398  1.00  0.00    -0.107 A  
HETATM    8  C   UNL     1      -8.328   3.693  68.957  1.00  0.00    -0.068 A  
HETATM    9  C   UNL     1     -10.176   5.742  67.412  1.00  0.00    -0.243 A  
HETATM   10  C   UNL     1      -7.595   4.126  70.063  1.00  0.00    -0.052 A  
HETATM   11  C   UNL     1      -7.808   3.513  71.296  1.00  0.00    -0.059 A  
HETATM   12  C   UNL     1     -10.811   6.966  67.189  1.00  0.00    -0.447 A  
HETATM   13  C   UNL     1      -8.744   2.494  71.400  1.00  0.00    -0.110 A  
HETATM   14  C   UNL     1     -10.050   8.109  66.961  1.00  0.00    -0.280 A  
HETATM   15  C   UNL     1      -9.447   2.136  70.263  1.00  0.00    -0.076 A  
HETATM   16  C   UNL     1      -8.659   8.041  66.959  1.00  0.00    -0.127 A  
HETATM   17 CL   UNL     1     -10.834   9.614  66.669  1.00  0.00    -0.090 Cl 
HETATM   18  N   UNL     1      -9.266   2.714  69.056  1.00  0.00    -0.142 NA 
HETATM   19  C   UNL     1      -8.022   6.816  67.175  1.00  0.00    -0.116 A  
ENDBRANCH   4   5
ENDBRANCH   2   4
TORSDOF 2
ENDMDL
MODEL      174
REMARK 921   NORMALIZED FREE ENERGY PREDICTED BY IDOCK:   -2.42 KCAL/MOL
REMARK 922        TOTAL FREE ENERGY PREDICTED BY IDOCK:   -2.86 KCAL/MOL
REMARK 923 INTER-LIGAND FREE ENERGY PREDICTED BY IDOCK:   -2.69 KCAL/MOL
REMARK 924 INTRA-LIGAND FREE ENERGY PREDICTED BY IDOCK:   -0.18 KCAL/MOL
REMARK 927      BINDING AFFINITY PREDICTED BY RF-SCORE:    0.00 PKD
ROOT
HETATM    1  C   UNL     1      -7.352   7.975  67.101  1.00  0.00    -0.091 C  
HETATM    2  N   UNL     1      -6.959   9.259  66.513  1.00  0.00    -0.080 NA 
HETATM    3  C   UNL     1      -7.111   9.201  65.056  1.00  0.00    -0.092 C  
ENDROOT
BRANCH   2   4
HETATM    4  C   UNL     1      -7.757  10.379  67.046  1.00  0.00    -0.105 C  
BRANCH   4   5
HETATM    5  C   UNL     1      -8.663  11.069  66.017  1.00  0.00    -0.192 C  
HETATM    6  C   UNL     1      -9.664  12.086  66.619  1.00  0.00    -0.221 C  
HETATM    7  C   UNL     1      -8.956  13.280  67.255  1.00  0.00    -0.217 A  
HETATM    8  C   UNL     1     -10.700  12.506  65.578  1.00  0.00    -0.271 A  
HETATM    9  C   UNL     1      -8.153  14.142  66.491  1.00  0.00     0.679 A  
HETATM   10  C   UNL     1     -11.969  12.923  65.986  1.00  0.00    -0.505 A  
HETATM   11  C   UNL     1     -12.917  13.248  65.018  1.00  0.00    -0.228 A  
HETATM   12  C   UNL     1      -7.467  15.200  67.094  1.00  0.00    -0.176 A  
HETATM   13  C   UNL     1     -12.581  13.157  63.675  1.00  0.00    -0.243 A  
HETATM   14  C   UNL     1      -7.588  15.410  68.464  1.00  0.00    -0.122 A  
HETATM   15  C   UNL     1     -11.296  12.758  63.350  1.00  0.00    -0.337 A  
HETATM   16  C   UNL     1      -8.392  14.577  69.237  1.00  0.00     0.082 A  
HETATM   17 CL   UNL     1      -6.730  16.703  69.209  1.00  0.00    -0.213 Cl 
HETATM   18  N   UNL     1     -10.355  12.440  64.264  1.00  0.00    -0.346 NA 
HETATM   19  C   UNL     1      -9.073  13.514  68.637  1.00  0.00    -0.008 A  
ENDBRANCH   4   5
ENDBRANCH   2   4
TORSDOF 2
ENDMDL
MODEL      175
REMARK 921   NORMALIZED FREE ENERGY PREDICTED BY IDOCK:   -2.40 KCAL/MOL
REMARK 922        TOTAL FREE ENERGY PREDICTED BY IDOCK:   -2.84 KCAL/MOL
REMARK 923 INTER-LIGAND FREE ENERGY PREDICTED BY IDOCK:   -2.61 KCAL/MOL
REMARK 924 INTRA-LIGAND FREE ENERGY PREDICTED BY IDOCK:   -0.23 KCAL/MOL
REMARK 927      BINDING AFFINITY PREDICTED BY RF-SCORE:    0.00 PKD
ROOT
HETATM    1  C   UNL     1      -6.316   8.523  72.017  1.00  0.00    -0.071 C  
HETATM    2  N   UNL     1      -7.029   7.490  72.773  1.00  0.00    -0.068 NA 
HETATM    3  C   UNL     1      -7.398   8.011  74.093  1.00  0.00    -0.166 C  
ENDROOT
BRANCH   2   4
HETATM    4  C   UNL     1      -8.242   7.029  72.071  1.00  0.00    -0.101 C  
BRANCH   4   5
HETATM    5  C   UNL     1      -7.978   6.276  70.761  1.00  0.00    -0.112 C  
HETATM    6  C   UNL     1      -9.102   6.410  69.703  1.00  0.00    -0.143 C  
HETATM    7  C   UNL     1      -9.256   7.845  69.208  1.00  0.00    -0.148 A  
HETATM    8  C   UNL     1      -8.892   5.415  68.562  1.00  0.00    -0.100 A  
HETATM    9  C   UNL     1      -8.208   8.502  68.542  1.00  0.00    -0.123 A  
HETATM   10  C   UNL     1      -9.988   4.949  67.835  1.00  0.00    -0.181 A  
HETATM   11  C   UNL     1      -9.781   4.000  66.835  1.00  0.00    -0.215 A  
HETATM   12  C   UNL     1      -8.342   9.834  68.141  1.00  0.00    -0.110 A  
HETATM   13  C   UNL     1      -8.495   3.545  66.581  1.00  0.00    -0.108 A  
HETATM   14  C   UNL     1      -9.528  10.516  68.392  1.00  0.00    -0.157 A  
HETATM   15  C   UNL     1      -7.458   4.072  67.329  1.00  0.00    -0.072 A  
HETATM   16  C   UNL     1     -10.586   9.878  69.035  1.00  0.00    -0.240 A  
HETATM   17 CL   UNL     1      -9.686  12.162  67.912  1.00  0.00    -0.194 Cl 
HETATM   18  N   UNL     1      -7.626   4.995  68.301  1.00  0.00    -0.078 NA 
HETATM   19  C   UNL     1     -10.451   8.548  69.444  1.00  0.00    -0.223 A  
ENDBRANCH   4   5
ENDBRANCH   2   4
TORSDOF 2
ENDMDL
MODEL      176
REMARK 921   NORMALIZED FREE ENERGY PREDICTED BY IDOCK:   -2.38 KCAL/MOL
REMARK 922        TOTAL FREE ENERGY PREDICTED BY IDOCK:   -2.82 KCAL/MOL
REMARK 923 INTER-LIGAND FREE ENERGY PREDICTED BY IDOCK:   -2.66 KCAL/MOL
REMARK 924 INTRA-LIGAND FREE ENERGY PREDICTED BY IDOCK:   -0.17 KCAL/MOL
REMARK 927      BINDING AFFINITY PREDICTED BY RF-SCORE:    0.00 PKD
ROOT
HETATM    1  C   UNL     1      -8.468   5.140  65.074  1.00  0.00    -0.148 C  
HETATM    2  N   UNL     1      -9.725   5.107  65.826  1.00  0.00    -0.139 NA 
HETATM    3  C   UNL     1     -10.026   3.728  66.224  1.00  0.00     0.046 C  
ENDROOT
BRANCH   2   4
HETATM    4  C   UNL     1      -9.674   5.964  67.026  1.00  0.00    -0.141 C  
BRANCH   4   5
HETATM    5  C   UNL     1      -8.603   7.062  66.985  1.00  0.00    -0.122 C  
HETATM    6  C   UNL     1      -9.042   8.413  67.605  1.00  0.00    -0.144 C  
HETATM    7  C   UNL     1      -9.308   8.298  69.103  1.00  0.00    -0.151 A  
HETATM    8  C   UNL     1      -8.035   9.513  67.270  1.00  0.00    -0.106 A  
HETATM    9  C   UNL     1      -8.288   7.933  69.998  1.00  0.00    -0.121 A  
HETATM   10  C   UNL     1      -8.453  10.843  67.204  1.00  0.00    -0.128 A  
HETATM   11  C   UNL     1      -7.532  11.823  66.843  1.00  0.00    -0.106 A  
HETATM   12  C   UNL     1      -8.557   7.778  71.360  1.00  0.00    -0.131 A  
HETATM   13  C   UNL     1      -6.222  11.461  66.564  1.00  0.00    -0.110 A  
HETATM   14  C   UNL     1      -9.844   7.999  71.841  1.00  0.00    -0.191 A  
HETATM   15  C   UNL     1      -5.878  10.124  66.674  1.00  0.00    -0.055 A  
HETATM   16  C   UNL     1     -10.865   8.378  70.973  1.00  0.00    -0.280 A  
HETATM   17 CL   UNL     1     -10.177   7.792  73.517  1.00  0.00    -0.337 Cl 
HETATM   18  N   UNL     1      -6.747   9.152  67.024  1.00  0.00    -0.071 NA 
HETATM   19  C   UNL     1     -10.600   8.526  69.609  1.00  0.00    -0.221 A  
ENDBRANCH   4   5
ENDBRANCH   2   4
TORSDOF 2
ENDMDL
MODEL      177
REMARK 921   NORMALIZED FREE ENERGY PREDICTED BY IDOCK:   -2.37 KCAL/MOL
REMARK 922        TOTAL FREE ENERGY PREDICTED BY IDOCK:   -2.81 KCAL/MOL
REMARK 923 INTER-LIGAND FREE ENERGY PREDICTED BY IDOCK:   -2.65 KCAL/MOL
REMARK 924 INTRA-LIGAND FREE ENERGY PREDICTED BY IDOCK:   -0.16 KCAL/MOL
REMARK 927      BINDING AFFINITY PREDICTED BY RF-SCORE:    0.00 PKD
ROOT
HETATM    1  C   UNL     1     -11.238  10.966  67.566  1.00  0.00    -0.293 C  
HETATM    2  N   UNL     1     -10.293  10.532  68.600  1.00  0.00    -0.175 NA 
HETATM    3  C   UNL     1     -11.011  10.297  69.857  1.00  0.00    -0.303 C  
ENDROOT
BRANCH   2   4
HETATM    4  C   UNL     1      -9.572   9.306  68.210  1.00  0.00    -0.147 C  
BRANCH   4   5
HETATM    5  C   UNL     1      -9.227   9.211  66.718  1.00  0.00    -0.195 C  
HETATM    6  C   UNL     1      -7.962   8.373  66.401  1.00  0.00    -0.099 C  
HETATM    7  C   UNL     1      -8.141   6.903  66.770  1.00  0.00    -0.109 A  
HETATM    8  C   UNL     1      -7.536   8.566  64.946  1.00  0.00    -0.098 A  
HETATM    9  C   UNL     1      -9.125   6.112  66.153  1.00  0.00    -0.158 A  
HETATM   10  C   UNL     1      -6.197   8.408  64.586  1.00  0.00    -0.065 A  
HETATM   11  C   UNL     1      -5.821   8.643  63.265  1.00  0.00    -0.077 A  
HETATM   12  C   UNL     1      -9.314   4.783  66.537  1.00  0.00    -0.145 A  
HETATM   13  C   UNL     1      -6.782   9.020  62.338  1.00  0.00    -0.093 A  
HETATM   14  C   UNL     1      -8.514   4.229  67.532  1.00  0.00    -0.099 A  
HETATM   15  C   UNL     1      -8.093   9.134  62.767  1.00  0.00    -0.154 A  
HETATM   16  C   UNL     1      -7.522   4.991  68.144  1.00  0.00    -0.075 A  
HETATM   17 CL   UNL     1      -8.760   2.595  68.016  1.00  0.00    -0.118 Cl 
HETATM   18  N   UNL     1      -8.488   8.909  64.038  1.00  0.00    -0.164 NA 
HETATM   19  C   UNL     1      -7.336   6.323  67.766  1.00  0.00    -0.084 A  
ENDBRANCH   4   5
ENDBRANCH   2   4
TORSDOF 2
ENDMDL
MODEL      178
REMARK 921   NORMALIZED FREE ENERGY PREDICTED BY IDOCK:   -2.34 KCAL/MOL
REMARK 922        TOTAL FREE ENERGY PREDICTED BY IDOCK:   -2.78 KCAL/MOL
REMARK 923 INTER-LIGAND FREE ENERGY PREDICTED BY IDOCK:   -2.58 KCAL/MOL
REMARK 924 INTRA-LIGAND FREE ENERGY PREDICTED BY IDOCK:   -0.19 KCAL/MOL
REMARK 927      BINDING AFFINITY PREDICTED BY RF-SCORE:    0.00 PKD
ROOT
HETATM    1  C   UNL     1      -6.836   8.435  72.394  1.00  0.00    -0.092 C  
HETATM    2  N   UNL     1      -7.967   7.566  72.734  1.00  0.00    -0.099 NA 
HETATM    3  C   UNL     1      -9.036   8.364  73.342  1.00  0.00    -0.075 C  
ENDROOT
BRANCH   2   4
HETATM    4  C   UNL     1      -8.494   6.857  71.553  1.00  0.00    -0.114 C  
BRANCH   4   5
HETATM    5  C   UNL     1      -9.130   7.764  70.491  1.00  0.00    -0.154 C  
HETATM    6  C   UNL     1      -8.426   7.733  69.112  1.00  0.00    -0.138 C  
HETATM    7  C   UNL     1      -8.527   6.363  68.446  1.00  0.00    -0.116 A  
HETATM    8  C   UNL     1      -8.941   8.859  68.216  1.00  0.00    -0.137 A  
HETATM    9  C   UNL     1      -9.772   5.810  68.103  1.00  0.00    -0.146 A  
HETATM   10  C   UNL     1      -8.120   9.386  67.218  1.00  0.00    -0.110 A  
HETATM   11  C   UNL     1      -8.589  10.450  66.449  1.00  0.00    -0.137 A  
HETATM   12  C   UNL     1      -9.855   4.533  67.544  1.00  0.00    -0.191 A  
HETATM   13  C   UNL     1      -9.858  10.957  66.687  1.00  0.00    -0.237 A  
HETATM   14  C   UNL     1      -8.694   3.802  67.313  1.00  0.00    -0.113 A  
HETATM   15  C   UNL     1     -10.621  10.367  67.679  1.00  0.00    -0.257 A  
HETATM   16  C   UNL     1      -7.449   4.339  67.630  1.00  0.00    -0.069 A  
HETATM   17 CL   UNL     1      -8.798   2.221  66.639  1.00  0.00    -0.132 Cl 
HETATM   18  N   UNL     1     -10.196   9.333  68.438  1.00  0.00    -0.195 NA 
HETATM   19  C   UNL     1      -7.364   5.614  68.196  1.00  0.00    -0.073 A  
ENDBRANCH   4   5
ENDBRANCH   2   4
TORSDOF 2
ENDMDL
MODEL      179
REMARK 921   NORMALIZED FREE ENERGY PREDICTED BY IDOCK:   -2.34 KCAL/MOL
REMARK 922        TOTAL FREE ENERGY PREDICTED BY IDOCK:   -2.77 KCAL/MOL
REMARK 923 INTER-LIGAND FREE ENERGY PREDICTED BY IDOCK:   -2.62 KCAL/MOL
REMARK 924 INTRA-LIGAND FREE ENERGY PREDICTED BY IDOCK:   -0.15 KCAL/MOL
REMARK 927      BINDING AFFINITY PREDICTED BY RF-SCORE:    0.00 PKD
ROOT
HETATM    1  C   UNL     1      -7.016  10.296  67.294  1.00  0.00    -0.086 C  
HETATM    2  N   UNL     1      -6.370   9.541  68.371  1.00  0.00    -0.052 NA 
HETATM    3  C   UNL     1      -5.675  10.465  69.273  1.00  0.00    -0.037 C  
ENDROOT
BRANCH   2   4
HETATM    4  C   UNL     1      -7.339   8.739  69.143  1.00  0.00    -0.072 C  
BRANCH   4   5
HETATM    5  C   UNL     1      -7.226   7.223  68.937  1.00  0.00    -0.090 C  
HETATM    6  C   UNL     1      -7.708   6.372  70.138  1.00  0.00    -0.098 C  
HETATM    7  C   UNL     1      -9.203   6.536  70.395  1.00  0.00    -0.156 A  
HETATM    8  C   UNL     1      -7.300   4.909  69.963  1.00  0.00    -0.055 A  
HETATM    9  C   UNL     1     -10.153   6.164  69.429  1.00  0.00    -0.230 A  
HETATM   10  C   UNL     1      -7.102   4.103  71.085  1.00  0.00    -0.036 A  
HETATM   11  C   UNL     1      -6.676   2.788  70.904  1.00  0.00    -0.032 A  
HETATM   12  C   UNL     1     -11.516   6.369  69.654  1.00  0.00    -0.446 A  
HETATM   13  C   UNL     1      -6.465   2.308  69.620  1.00  0.00    -0.029 A  
HETATM   14  C   UNL     1     -11.942   6.937  70.851  1.00  0.00    -0.381 A  
HETATM   15  C   UNL     1      -6.705   3.163  68.557  1.00  0.00    -0.044 A  
HETATM   16  C   UNL     1     -11.018   7.297  71.829  1.00  0.00    -0.256 A  
HETATM   17 CL   UNL     1     -13.621   7.205  71.121  1.00  0.00    -0.309 Cl 
HETATM   18  N   UNL     1      -7.121   4.439  68.700  1.00  0.00    -0.052 NA 
HETATM   19  C   UNL     1      -9.653   7.100  71.602  1.00  0.00    -0.163 A  
ENDBRANCH   4   5
ENDBRANCH   2   4
TORSDOF 2
ENDMDL
MODEL      180
REMARK 921   NORMALIZED FREE ENERGY PREDICTED BY IDOCK:   -2.33 KCAL/MOL
REMARK 922        TOTAL FREE ENERGY PREDICTED BY IDOCK:   -2.76 KCAL/MOL
REMARK 923 INTER-LIGAND FREE ENERGY PREDICTED BY IDOCK:   -2.56 KCAL/MOL
REMARK 924 INTRA-LIGAND FREE ENERGY PREDICTED BY IDOCK:   -0.20 KCAL/MOL
REMARK 927      BINDING AFFINITY PREDICTED BY RF-SCORE:    0.00 PKD
ROOT
HETATM    1  C   UNL     1      -8.310   6.161  71.605  1.00  0.00    -0.126 C  
HETATM    2  N   UNL     1      -6.906   6.328  71.219  1.00  0.00    -0.065 NA 
HETATM    3  C   UNL     1      -6.206   5.045  71.334  1.00  0.00    -0.026 C  
ENDROOT
BRANCH   2   4
HETATM    4  C   UNL     1      -6.768   6.841  69.843  1.00  0.00    -0.049 C  
BRANCH   4   5
HETATM    5  C   UNL     1      -6.737   5.759  68.755  1.00  0.00    -0.064 C  
HETATM    6  C   UNL     1      -8.109   5.468  68.097  1.00  0.00    -0.096 C  
HETATM    7  C   UNL     1      -8.640   6.670  67.321  1.00  0.00    -0.119 A  
HETATM    8  C   UNL     1      -8.042   4.202  67.244  1.00  0.00    -0.099 A  
HETATM    9  C   UNL     1      -7.941   7.192  66.219  1.00  0.00    -0.110 A  
HETATM   10  C   UNL     1      -9.193   3.441  67.034  1.00  0.00    -0.208 A  
HETATM   11  C   UNL     1      -9.098   2.261  66.300  1.00  0.00    -0.068 A  
HETATM   12  C   UNL     1      -8.409   8.325  65.550  1.00  0.00    -0.163 A  
HETATM   13  C   UNL     1      -7.869   1.871  65.789  1.00  0.00    -0.073 A  
HETATM   14  C   UNL     1      -9.586   8.939  65.969  1.00  0.00    -0.250 A  
HETATM   15  C   UNL     1      -6.778   2.690  66.020  1.00  0.00    -0.039 A  
HETATM   16  C   UNL     1     -10.303   8.427  67.047  1.00  0.00    -0.385 A  
HETATM   17 CL   UNL     1     -10.153  10.345  65.153  1.00  0.00    -0.384 Cl 
HETATM   18  N   UNL     1      -6.838   3.841  66.724  1.00  0.00    -0.053 NA 
HETATM   19  C   UNL     1      -9.832   7.298  67.723  1.00  0.00    -0.181 A  
ENDBRANCH   4   5
ENDBRANCH   2   4
TORSDOF 2
ENDMDL
MODEL      181
REMARK 921   NORMALIZED FREE ENERGY PREDICTED BY IDOCK:   -2.32 KCAL/MOL
REMARK 922        TOTAL FREE ENERGY PREDICTED BY IDOCK:   -2.75 KCAL/MOL
REMARK 923 INTER-LIGAND FREE ENERGY PREDICTED BY IDOCK:   -2.52 KCAL/MOL
REMARK 924 INTRA-LIGAND FREE ENERGY PREDICTED BY IDOCK:   -0.23 KCAL/MOL
REMARK 927      BINDING AFFINITY PREDICTED BY RF-SCORE:    0.00 PKD
ROOT
HETATM    1  C   UNL     1      -7.146   8.096  66.286  1.00  0.00    -0.073 C  
HETATM    2  N   UNL     1      -7.275   6.654  66.514  1.00  0.00    -0.071 NA 
HETATM    3  C   UNL     1      -6.697   5.922  65.382  1.00  0.00    -0.047 C  
ENDROOT
BRANCH   2   4
HETATM    4  C   UNL     1      -6.613   6.230  67.762  1.00  0.00    -0.062 C  
BRANCH   4   5
HETATM    5  C   UNL     1      -7.424   5.248  68.618  1.00  0.00    -0.071 C  
HETATM    6  C   UNL     1      -7.757   5.758  70.042  1.00  0.00    -0.087 C  
HETATM    7  C   UNL     1      -8.676   6.976  70.016  1.00  0.00    -0.142 A  
HETATM    8  C   UNL     1      -8.309   4.625  70.907  1.00  0.00    -0.093 A  
HETATM    9  C   UNL     1      -9.968   6.901  69.470  1.00  0.00    -0.171 A  
HETATM   10  C   UNL     1      -8.145   4.663  72.293  1.00  0.00    -0.102 A  
HETATM   11  C   UNL     1      -8.606   3.593  73.057  1.00  0.00    -0.090 A  
HETATM   12  C   UNL     1     -10.781   8.035  69.402  1.00  0.00    -0.167 A  
HETATM   13  C   UNL     1      -9.221   2.520  72.429  1.00  0.00    -0.134 A  
HETATM   14  C   UNL     1     -10.313   9.251  69.891  1.00  0.00    -0.220 A  
HETATM   15  C   UNL     1      -9.367   2.566  71.053  1.00  0.00    -0.144 A  
HETATM   16  C   UNL     1      -9.041   9.343  70.452  1.00  0.00    -0.302 A  
HETATM   17 CL   UNL     1     -11.308  10.652  69.793  1.00  0.00    -0.334 Cl 
HETATM   18  N   UNL     1      -8.934   3.589  70.286  1.00  0.00    -0.094 NA 
HETATM   19  C   UNL     1      -8.225   8.211  70.513  1.00  0.00    -0.117 A  
ENDBRANCH   4   5
ENDBRANCH   2   4
TORSDOF 2
ENDMDL
MODEL      182
REMARK 921   NORMALIZED FREE ENERGY PREDICTED BY IDOCK:   -2.31 KCAL/MOL
REMARK 922        TOTAL FREE ENERGY PREDICTED BY IDOCK:   -2.74 KCAL/MOL
REMARK 923 INTER-LIGAND FREE ENERGY PREDICTED BY IDOCK:   -2.55 KCAL/MOL
REMARK 924 INTRA-LIGAND FREE ENERGY PREDICTED BY IDOCK:   -0.19 KCAL/MOL
REMARK 927      BINDING AFFINITY PREDICTED BY RF-SCORE:    0.00 PKD
ROOT
HETATM    1  C   UNL     1      -7.642   2.040  68.332  1.00  0.00    -0.050 C  
HETATM    2  N   UNL     1      -6.454   2.896  68.392  1.00  0.00    -0.029 NA 
HETATM    3  C   UNL     1      -5.274   2.134  67.972  1.00  0.00    -0.012 C  
ENDROOT
BRANCH   2   4
HETATM    4  C   UNL     1      -6.593   4.094  67.541  1.00  0.00    -0.046 C  
BRANCH   4   5
HETATM    5  C   UNL     1      -7.681   5.077  67.991  1.00  0.00    -0.083 C  
HETATM    6  C   UNL     1      -8.176   6.041  66.883  1.00  0.00    -0.105 C  
HETATM    7  C   UNL     1      -8.880   5.300  65.750  1.00  0.00    -0.149 A  
HETATM    8  C   UNL     1      -9.036   7.154  67.480  1.00  0.00    -0.123 A  
HETATM    9  C   UNL     1     -10.053   4.562  65.981  1.00  0.00    -0.282 A  
HETATM   10  C   UNL     1      -9.113   8.393  66.841  1.00  0.00    -0.179 A  
HETATM   11  C   UNL     1      -9.858   9.412  67.431  1.00  0.00    -0.222 A  
HETATM   12  C   UNL     1     -10.659   3.844  64.947  1.00  0.00    -0.088 A  
HETATM   13  C   UNL     1     -10.511   9.174  68.632  1.00  0.00    -0.235 A  
HETATM   14  C   UNL     1     -10.103   3.867  63.671  1.00  0.00    -0.177 A  
HETATM   15  C   UNL     1     -10.405   7.913  69.192  1.00  0.00    -0.219 A  
HETATM   16  C   UNL     1      -8.950   4.606  63.418  1.00  0.00    -0.110 A  
HETATM   17 CL   UNL     1     -10.841   2.968  62.402  1.00  0.00    -0.166 Cl 
HETATM   18  N   UNL     1      -9.694   6.905  68.643  1.00  0.00    -0.136 NA 
HETATM   19  C   UNL     1      -8.339   5.319  64.452  1.00  0.00    -0.137 A  
ENDBRANCH   4   5
ENDBRANCH   2   4
TORSDOF 2
ENDMDL
MODEL      183
REMARK 921   NORMALIZED FREE ENERGY PREDICTED BY IDOCK:   -2.31 KCAL/MOL
REMARK 922        TOTAL FREE ENERGY PREDICTED BY IDOCK:   -2.74 KCAL/MOL
REMARK 923 INTER-LIGAND FREE ENERGY PREDICTED BY IDOCK:   -2.44 KCAL/MOL
REMARK 924 INTRA-LIGAND FREE ENERGY PREDICTED BY IDOCK:   -0.30 KCAL/MOL
REMARK 927      BINDING AFFINITY PREDICTED BY RF-SCORE:    0.00 PKD
ROOT
HETATM    1  C   UNL     1     -11.900  11.929  67.339  1.00  0.00    -0.168 C  
HETATM    2  N   UNL     1     -10.550  12.486  67.215  1.00  0.00    -0.226 NA 
HETATM    3  C   UNL     1     -10.279  12.814  65.811  1.00  0.00    -0.289 C  
ENDROOT
BRANCH   2   4
HETATM    4  C   UNL     1     -10.371  13.693  68.044  1.00  0.00    -0.250 C  
BRANCH   4   5
HETATM    5  C   UNL     1      -9.294  14.663  67.541  1.00  0.00    -0.195 C  
HETATM    6  C   UNL     1      -8.013  14.712  68.411  1.00  0.00    -0.137 C  
HETATM    7  C   UNL     1      -7.261  13.385  68.400  1.00  0.00    -0.110 A  
HETATM    8  C   UNL     1      -7.129  15.891  68.006  1.00  0.00    -0.130 A  
HETATM    9  C   UNL     1      -6.733  12.857  67.210  1.00  0.00    -0.056 A  
HETATM   10  C   UNL     1      -6.274  16.474  68.943  1.00  0.00    -0.149 A  
HETATM   11  C   UNL     1      -5.518  17.583  68.569  1.00  0.00    -0.155 A  
HETATM   12  C   UNL     1      -6.093  11.615  67.202  1.00  0.00    -0.130 A  
HETATM   13  C   UNL     1      -5.625  18.079  67.278  1.00  0.00    -0.148 A  
HETATM   14  C   UNL     1      -5.965  10.896  68.387  1.00  0.00    -0.042 A  
HETATM   15  C   UNL     1      -6.478  17.433  66.400  1.00  0.00    -0.248 A  
HETATM   16  C   UNL     1      -6.466  11.409  69.581  1.00  0.00    -0.133 A  
HETATM   17 CL   UNL     1      -5.191   9.359  68.374  1.00  0.00    -0.034 Cl 
HETATM   18  N   UNL     1      -7.220  16.355  66.731  1.00  0.00    -0.220 NA 
HETATM   19  C   UNL     1      -7.113  12.648  69.589  1.00  0.00     0.384 A  
ENDBRANCH   4   5
ENDBRANCH   2   4
TORSDOF 2
ENDMDL
MODEL      184
REMARK 921   NORMALIZED FREE ENERGY PREDICTED BY IDOCK:   -2.28 KCAL/MOL
REMARK 922        TOTAL FREE ENERGY PREDICTED BY IDOCK:   -2.70 KCAL/MOL
REMARK 923 INTER-LIGAND FREE ENERGY PREDICTED BY IDOCK:   -3.20 KCAL/MOL
REMARK 924 INTRA-LIGAND FREE ENERGY PREDICTED BY IDOCK:    0.49 KCAL/MOL
REMARK 927      BINDING AFFINITY PREDICTED BY RF-SCORE:    0.00 PKD
ROOT
HETATM    1  C   UNL     1      -8.239   7.733  66.570  1.00  0.00    -0.124 C  
HETATM    2  N   UNL     1      -9.359   8.446  67.190  1.00  0.00    -0.147 NA 
HETATM    3  C   UNL     1      -9.743   9.587  66.352  1.00  0.00    -0.232 C  
ENDROOT
BRANCH   2   4
HETATM    4  C   UNL     1     -10.529   7.570  67.392  1.00  0.00    -0.297 C  
BRANCH   4   5
HETATM    5  C   UNL     1     -10.220   6.068  67.349  1.00  0.00    -0.230 C  
HETATM    6  C   UNL     1      -9.047   5.624  68.260  1.00  0.00    -0.112 C  
HETATM    7  C   UNL     1      -9.360   5.832  69.739  1.00  0.00    -0.175 A  
HETATM    8  C   UNL     1      -8.630   4.188  67.944  1.00  0.00    -0.096 A  
HETATM    9  C   UNL     1     -10.426   5.159  70.359  1.00  0.00    -0.287 A  
HETATM   10  C   UNL     1      -7.319   3.776  68.184  1.00  0.00    -0.058 A  
HETATM   11  C   UNL     1      -6.945   2.479  67.837  1.00  0.00    -0.048 A  
HETATM   12  C   UNL     1     -10.735   5.398  71.701  1.00  0.00    -0.266 A  
HETATM   13  C   UNL     1      -7.881   1.627  67.269  1.00  0.00    -0.060 A  
HETATM   14  C   UNL     1      -9.975   6.303  72.436  1.00  0.00    -0.172 A  
HETATM   15  C   UNL     1      -9.167   2.102  67.083  1.00  0.00    -0.066 A  
HETATM   16  C   UNL     1      -8.904   6.967  71.844  1.00  0.00    -0.126 A  
HETATM   17 CL   UNL     1     -10.368   6.608  74.084  1.00  0.00    -0.387 Cl 
HETATM   18  N   UNL     1      -9.561   3.351  67.412  1.00  0.00    -0.171 NA 
HETATM   19  C   UNL     1      -8.597   6.735  70.501  1.00  0.00    -0.142 A  
ENDBRANCH   4   5
ENDBRANCH   2   4
TORSDOF 2
ENDMDL
MODEL      185
REMARK 921   NORMALIZED FREE ENERGY PREDICTED BY IDOCK:   -2.22 KCAL/MOL
REMARK 922        TOTAL FREE ENERGY PREDICTED BY IDOCK:   -2.65 KCAL/MOL
REMARK 923 INTER-LIGAND FREE ENERGY PREDICTED BY IDOCK:   -2.35 KCAL/MOL
REMARK 924 INTRA-LIGAND FREE ENERGY PREDICTED BY IDOCK:   -0.30 KCAL/MOL
REMARK 927      BINDING AFFINITY PREDICTED BY RF-SCORE:    0.00 PKD
ROOT
HETATM    1  C   UNL     1      -9.982   9.226  70.307  1.00  0.00    -0.219 C  
HETATM    2  N   UNL     1     -10.547   7.897  70.054  1.00  0.00    -0.239 NA 
HETATM    3  C   UNL     1     -11.778   7.728  70.833  1.00  0.00    -0.265 C  
ENDROOT
BRANCH   2   4
HETATM    4  C   UNL     1     -10.838   7.683  68.624  1.00  0.00     0.028 C  
BRANCH   4   5
HETATM    5  C   UNL     1      -9.697   7.035  67.827  1.00  0.00    -0.156 C  
HETATM    6  C   UNL     1      -9.260   7.826  66.569  1.00  0.00    -0.229 C  
HETATM    7  C   UNL     1      -8.656   9.182  66.924  1.00  0.00    -0.129 A  
HETATM    8  C   UNL     1      -8.334   6.982  65.695  1.00  0.00    -0.136 A  
HETATM    9  C   UNL     1      -7.487   9.278  67.698  1.00  0.00    -0.088 A  
HETATM   10  C   UNL     1      -8.273   7.213  64.319  1.00  0.00     0.036 A  
HETATM   11  C   UNL     1      -7.464   6.396  63.532  1.00  0.00    -0.081 A  
HETATM   12  C   UNL     1      -6.974  10.525  68.062  1.00  0.00    -0.074 A  
HETATM   13  C   UNL     1      -6.733   5.379  64.130  1.00  0.00    -0.046 A  
HETATM   14  C   UNL     1      -7.619  11.687  67.647  1.00  0.00    -0.128 A  
HETATM   15  C   UNL     1      -6.828   5.228  65.502  1.00  0.00    -0.061 A  
HETATM   16  C   UNL     1      -8.769  11.613  66.865  1.00  0.00    -0.185 A  
HETATM   17 CL   UNL     1      -6.995  13.223  68.110  1.00  0.00    -0.098 Cl 
HETATM   18  N   UNL     1      -7.600   6.005  66.291  1.00  0.00    -0.089 NA 
HETATM   19  C   UNL     1      -9.288  10.367  66.506  1.00  0.00    -0.193 A  
ENDBRANCH   4   5
ENDBRANCH   2   4
TORSDOF 2
ENDMDL
MODEL      186
REMARK 921   NORMALIZED FREE ENERGY PREDICTED BY IDOCK:   -2.19 KCAL/MOL
REMARK 922        TOTAL FREE ENERGY PREDICTED BY IDOCK:   -2.61 KCAL/MOL
REMARK 923 INTER-LIGAND FREE ENERGY PREDICTED BY IDOCK:   -2.56 KCAL/MOL
REMARK 924 INTRA-LIGAND FREE ENERGY PREDICTED BY IDOCK:   -0.05 KCAL/MOL
REMARK 927      BINDING AFFINITY PREDICTED BY RF-SCORE:    0.00 PKD
ROOT
HETATM    1  C   UNL     1     -10.756   8.252  69.336  1.00  0.00    -0.151 C  
HETATM    2  N   UNL     1     -10.046   7.082  69.859  1.00  0.00    -0.190 NA 
HETATM    3  C   UNL     1     -10.830   5.871  69.598  1.00  0.00    -0.374 C  
ENDROOT
BRANCH   2   4
HETATM    4  C   UNL     1      -8.705   6.936  69.259  1.00  0.00    -0.135 C  
BRANCH   4   5
HETATM    5  C   UNL     1      -8.567   5.769  68.273  1.00  0.00    -0.112 C  
HETATM    6  C   UNL     1      -9.066   6.075  66.839  1.00  0.00    -0.126 C  
HETATM    7  C   UNL     1      -8.229   7.154  66.158  1.00  0.00    -0.128 A  
HETATM    8  C   UNL     1      -9.155   4.792  66.012  1.00  0.00    -0.133 A  
HETATM    9  C   UNL     1      -6.859   6.965  65.910  1.00  0.00    -0.056 A  
HETATM   10  C   UNL     1     -10.067   4.705  64.959  1.00  0.00    -0.026 A  
HETATM   11  C   UNL     1     -10.171   3.508  64.253  1.00  0.00    -0.200 A  
HETATM   12  C   UNL     1      -6.092   7.981  65.335  1.00  0.00    -0.045 A  
HETATM   13  C   UNL     1      -9.365   2.434  64.607  1.00  0.00    -0.133 A  
HETATM   14  C   UNL     1      -6.690   9.190  64.992  1.00  0.00    -0.073 A  
HETATM   15  C   UNL     1      -8.470   2.606  65.648  1.00  0.00    -0.103 A  
HETATM   16  C   UNL     1      -8.050   9.391  65.214  1.00  0.00    -0.124 A  
HETATM   17 CL   UNL     1      -5.740  10.447  64.299  1.00  0.00    -0.141 Cl 
HETATM   18  N   UNL     1      -8.343   3.754  66.347  1.00  0.00    -0.104 NA 
HETATM   19  C   UNL     1      -8.818   8.379  65.795  1.00  0.00    -0.204 A  
ENDBRANCH   4   5
ENDBRANCH   2   4
TORSDOF 2
ENDMDL
MODEL      187
REMARK 921   NORMALIZED FREE ENERGY PREDICTED BY IDOCK:   -2.02 KCAL/MOL
REMARK 922        TOTAL FREE ENERGY PREDICTED BY IDOCK:   -2.42 KCAL/MOL
REMARK 923 INTER-LIGAND FREE ENERGY PREDICTED BY IDOCK:   -2.30 KCAL/MOL
REMARK 924 INTRA-LIGAND FREE ENERGY PREDICTED BY IDOCK:   -0.12 KCAL/MOL
REMARK 927      BINDING AFFINITY PREDICTED BY RF-SCORE:    0.00 PKD
ROOT
HETATM    1  C   UNL     1     -10.794   9.922  68.441  1.00  0.00    -0.221 C  
HETATM    2  N   UNL     1      -9.866   9.311  69.397  1.00  0.00    -0.168 NA 
HETATM    3  C   UNL     1     -10.620   8.562  70.407  1.00  0.00    -0.223 C  
ENDROOT
BRANCH   2   4
HETATM    4  C   UNL     1      -8.903   8.411  68.735  1.00  0.00    -0.140 C  
BRANCH   4   5
HETATM    5  C   UNL     1      -8.516   7.172  69.553  1.00  0.00    -0.134 C  
HETATM    6  C   UNL     1      -8.964   5.825  68.933  1.00  0.00    -0.113 C  
HETATM    7  C   UNL     1      -8.268   5.545  67.604  1.00  0.00    -0.101 A  
HETATM    8  C   UNL     1      -8.792   4.684  69.936  1.00  0.00    -0.089 A  
HETATM    9  C   UNL     1      -6.873   5.403  67.528  1.00  0.00    -0.060 A  
HETATM   10  C   UNL     1      -9.608   3.555  69.852  1.00  0.00    -0.219 A  
HETATM   11  C   UNL     1      -9.472   2.551  70.810  1.00  0.00    -0.210 A  
HETATM   12  C   UNL     1      -6.242   5.201  66.297  1.00  0.00    -0.035 A  
HETATM   13  C   UNL     1      -8.530   2.692  71.818  1.00  0.00    -0.084 A  
HETATM   14  C   UNL     1      -7.003   5.128  65.134  1.00  0.00    -0.061 A  
HETATM   15  C   UNL     1      -7.743   3.831  71.821  1.00  0.00    -0.062 A  
HETATM   16  C   UNL     1      -8.389   5.250  65.190  1.00  0.00    -0.145 A  
HETATM   17 CL   UNL     1      -6.224   4.896  63.617  1.00  0.00    -0.022 Cl 
HETATM   18  N   UNL     1      -7.848   4.818  70.905  1.00  0.00    -0.079 NA 
HETATM   19  C   UNL     1      -9.021   5.459  66.419  1.00  0.00    -0.131 A  
ENDBRANCH   4   5
ENDBRANCH   2   4
TORSDOF 2
ENDMDL
MODEL      188
REMARK 921   NORMALIZED FREE ENERGY PREDICTED BY IDOCK:   -1.95 KCAL/MOL
REMARK 922        TOTAL FREE ENERGY PREDICTED BY IDOCK:   -2.34 KCAL/MOL
REMARK 923 INTER-LIGAND FREE ENERGY PREDICTED BY IDOCK:   -2.16 KCAL/MOL
REMARK 924 INTRA-LIGAND FREE ENERGY PREDICTED BY IDOCK:   -0.18 KCAL/MOL
REMARK 927      BINDING AFFINITY PREDICTED BY RF-SCORE:    0.00 PKD
ROOT
HETATM    1  C   UNL     1     -10.081   1.936  72.448  1.00  0.00    -0.150 C  
HETATM    2  N   UNL     1     -10.235   3.353  72.107  1.00  0.00    -0.123 NA 
HETATM    3  C   UNL     1     -10.918   4.052  73.200  1.00  0.00    -0.166 C  
ENDROOT
BRANCH   2   4
HETATM    4  C   UNL     1      -8.936   4.003  71.845  1.00  0.00    -0.118 C  
BRANCH   4   5
HETATM    5  C   UNL     1      -8.675   4.345  70.372  1.00  0.00    -0.122 C  
HETATM    6  C   UNL     1      -8.947   5.823  69.996  1.00  0.00    -0.147 C  
HETATM    7  C   UNL     1      -7.995   6.780  70.707  1.00  0.00    -0.110 A  
HETATM    8  C   UNL     1      -8.937   6.005  68.478  1.00  0.00    -0.114 A  
HETATM    9  C   UNL     1      -6.607   6.720  70.494  1.00  0.00    -0.052 A  
HETATM   10  C   UNL     1      -9.682   7.032  67.896  1.00  0.00    -0.141 A  
HETATM   11  C   UNL     1      -9.703   7.146  66.507  1.00  0.00    -0.199 A  
HETATM   12  C   UNL     1      -5.741   7.565  71.191  1.00  0.00    -0.035 A  
HETATM   13  C   UNL     1      -8.983   6.246  65.736  1.00  0.00    -0.083 A  
HETATM   14  C   UNL     1      -6.256   8.486  72.099  1.00  0.00    -0.070 A  
HETATM   15  C   UNL     1      -8.251   5.269  66.388  1.00  0.00    -0.109 A  
HETATM   16  C   UNL     1      -7.629   8.574  72.312  1.00  0.00    -0.107 A  
HETATM   17 CL   UNL     1      -5.186   9.517  72.970  1.00  0.00    -0.089 Cl 
HETATM   18  N   UNL     1      -8.207   5.135  67.731  1.00  0.00    -0.099 NA 
HETATM   19  C   UNL     1      -8.496   7.724  71.621  1.00  0.00    -0.128 A  
ENDBRANCH   4   5
ENDBRANCH   2   4
TORSDOF 2
ENDMDL
MODEL      189
REMARK 921   NORMALIZED FREE ENERGY PREDICTED BY IDOCK:   -1.78 KCAL/MOL
REMARK 922        TOTAL FREE ENERGY PREDICTED BY IDOCK:   -2.15 KCAL/MOL
REMARK 923 INTER-LIGAND FREE ENERGY PREDICTED BY IDOCK:   -1.91 KCAL/MOL
REMARK 924 INTRA-LIGAND FREE ENERGY PREDICTED BY IDOCK:   -0.24 KCAL/MOL
REMARK 927      BINDING AFFINITY PREDICTED BY RF-SCORE:    0.00 PKD
ROOT
HETATM    1  C   UNL     1      -6.877  12.885  68.915  1.00  0.00    -0.095 C  
HETATM    2  N   UNL     1      -7.864  11.865  69.283  1.00  0.00     0.217 NA 
HETATM    3  C   UNL     1      -8.839  11.709  68.199  1.00  0.00    -0.164 C  
ENDROOT
BRANCH   2   4
HETATM    4  C   UNL     1      -7.233  10.562  69.567  1.00  0.00    -0.137 C  
BRANCH   4   5
HETATM    5  C   UNL     1      -7.153   9.612  68.365  1.00  0.00    -0.070 C  
HETATM    6  C   UNL     1      -7.223   8.107  68.728  1.00  0.00    -0.083 C  
HETATM    7  C   UNL     1      -8.570   7.725  69.334  1.00  0.00    -0.135 A  
HETATM    8  C   UNL     1      -6.855   7.243  67.522  1.00  0.00    -0.074 A  
HETATM    9  C   UNL     1      -9.762   7.860  68.603  1.00  0.00    -0.162 A  
HETATM   10  C   UNL     1      -6.304   5.975  67.717  1.00  0.00    -0.037 A  
HETATM   11  C   UNL     1      -5.924   5.226  66.605  1.00  0.00    -0.023 A  
HETATM   12  C   UNL     1     -10.995   7.558  69.187  1.00  0.00    -0.024 A  
HETATM   13  C   UNL     1      -6.107   5.751  65.333  1.00  0.00    -0.029 A  
HETATM   14  C   UNL     1     -11.045   7.106  70.502  1.00  0.00    -0.271 A  
HETATM   15  C   UNL     1      -6.681   7.005  65.221  1.00  0.00    -0.051 A  
HETATM   16  C   UNL     1      -9.873   6.949  71.238  1.00  0.00    -0.182 A  
HETATM   17 CL   UNL     1     -12.565   6.749  71.226  1.00  0.00    -0.378 Cl 
HETATM   18  N   UNL     1      -7.062   7.753  66.279  1.00  0.00    -0.069 NA 
HETATM   19  C   UNL     1      -8.640   7.258  70.659  1.00  0.00    -0.142 A  
ENDBRANCH   4   5
ENDBRANCH   2   4
TORSDOF 2
ENDMDL
MODEL      190
REMARK 921   NORMALIZED FREE ENERGY PREDICTED BY IDOCK:   -1.74 KCAL/MOL
REMARK 922        TOTAL FREE ENERGY PREDICTED BY IDOCK:   -2.10 KCAL/MOL
REMARK 923 INTER-LIGAND FREE ENERGY PREDICTED BY IDOCK:   -1.93 KCAL/MOL
REMARK 924 INTRA-LIGAND FREE ENERGY PREDICTED BY IDOCK:   -0.17 KCAL/MOL
REMARK 927      BINDING AFFINITY PREDICTED BY RF-SCORE:    0.00 PKD
ROOT
HETATM    1  C   UNL     1     -10.403  16.359  65.955  1.00  0.00    -0.352 C  
HETATM    2  N   UNL     1      -9.645  15.408  66.774  1.00  0.00    -0.231 NA 
HETATM    3  C   UNL     1      -9.607  14.103  66.106  1.00  0.00    -0.254 C  
ENDROOT
BRANCH   2   4
HETATM    4  C   UNL     1      -8.267  15.871  67.026  1.00  0.00    -0.221 C  
BRANCH   4   5
HETATM    5  C   UNL     1      -8.151  17.017  68.039  1.00  0.00    -0.204 C  
HETATM    6  C   UNL     1      -6.770  17.721  68.059  1.00  0.00    -0.193 C  
HETATM    7  C   UNL     1      -6.473  18.439  66.746  1.00  0.00    -0.209 A  
HETATM    8  C   UNL     1      -6.651  18.643  69.272  1.00  0.00    -0.257 A  
HETATM    9  C   UNL     1      -7.283  19.493  66.293  1.00  0.00    -0.272 A  
HETATM   10  C   UNL     1      -5.396  18.921  69.815  1.00  0.00    -0.212 A  
HETATM   11  C   UNL     1      -5.314  19.718  70.955  1.00  0.00    -0.281 A  
HETATM   12  C   UNL     1      -7.033  20.107  65.063  1.00  0.00    -0.196 A  
HETATM   13  C   UNL     1      -6.477  20.224  71.520  1.00  0.00     0.088 A  
HETATM   14  C   UNL     1      -5.963  19.681  64.282  1.00  0.00    -0.251 A  
HETATM   15  C   UNL     1      -7.682  19.922  70.910  1.00  0.00     1.488 A  
HETATM   16  C   UNL     1      -5.137  18.649  64.721  1.00  0.00    -0.207 A  
HETATM   17 CL   UNL     1      -5.665  20.427  62.760  1.00  0.00    -0.281 Cl 
HETATM   18  N   UNL     1      -7.793  19.156  69.804  1.00  0.00     0.345 NA 
HETATM   19  C   UNL     1      -5.391  18.029  65.947  1.00  0.00    -0.232 A  
ENDBRANCH   4   5
ENDBRANCH   2   4
TORSDOF 2
ENDMDL
MODEL      191
REMARK 921   NORMALIZED FREE ENERGY PREDICTED BY IDOCK:   -1.64 KCAL/MOL
REMARK 922        TOTAL FREE ENERGY PREDICTED BY IDOCK:   -2.00 KCAL/MOL
REMARK 923 INTER-LIGAND FREE ENERGY PREDICTED BY IDOCK:   -1.80 KCAL/MOL
REMARK 924 INTRA-LIGAND FREE ENERGY PREDICTED BY IDOCK:   -0.20 KCAL/MOL
REMARK 927      BINDING AFFINITY PREDICTED BY RF-SCORE:    0.00 PKD
ROOT
HETATM    1  C   UNL     1     -10.666   7.903  71.032  1.00  0.00    -0.220 C  
HETATM    2  N   UNL     1      -9.448   7.205  71.455  1.00  0.00    -0.162 NA 
HETATM    3  C   UNL     1      -9.676   5.756  71.430  1.00  0.00    -0.167 C  
ENDROOT
BRANCH   2   4
HETATM    4  C   UNL     1      -8.295   7.535  70.596  1.00  0.00    -0.126 C  
BRANCH   4   5
HETATM    5  C   UNL     1      -7.831   6.396  69.678  1.00  0.00    -0.108 C  
HETATM    6  C   UNL     1      -8.246   6.555  68.193  1.00  0.00    -0.117 C  
HETATM    7  C   UNL     1      -7.584   7.765  67.540  1.00  0.00    -0.109 A  
HETATM    8  C   UNL     1      -7.995   5.260  67.421  1.00  0.00    -0.100 A  
HETATM    9  C   UNL     1      -6.187   7.855  67.420  1.00  0.00    -0.054 A  
HETATM   10  C   UNL     1      -8.768   4.960  66.297  1.00  0.00    -0.115 A  
HETATM   11  C   UNL     1      -8.560   3.749  65.640  1.00  0.00    -0.112 A  
HETATM   12  C   UNL     1      -5.591   8.991  66.868  1.00  0.00    -0.041 A  
HETATM   13  C   UNL     1      -7.591   2.874  66.109  1.00  0.00    -0.076 A  
HETATM   14  C   UNL     1      -6.387  10.042  66.422  1.00  0.00    -0.073 A  
HETATM   15  C   UNL     1      -6.851   3.253  67.215  1.00  0.00    -0.046 A  
HETATM   16  C   UNL     1      -7.774   9.966  66.516  1.00  0.00    -0.107 A  
HETATM   17 CL   UNL     1      -5.650  11.449  65.757  1.00  0.00     0.090 Cl 
HETATM   18  N   UNL     1      -7.025   4.420  67.871  1.00  0.00    -0.055 NA 
HETATM   19  C   UNL     1      -8.372   8.833  67.074  1.00  0.00    -0.103 A  
ENDBRANCH   4   5
ENDBRANCH   2   4
TORSDOF 2
ENDMDL
MODEL      192
REMARK 921   NORMALIZED FREE ENERGY PREDICTED BY IDOCK:   -1.22 KCAL/MOL
REMARK 922        TOTAL FREE ENERGY PREDICTED BY IDOCK:   -1.52 KCAL/MOL
REMARK 923 INTER-LIGAND FREE ENERGY PREDICTED BY IDOCK:   -1.45 KCAL/MOL
REMARK 924 INTRA-LIGAND FREE ENERGY PREDICTED BY IDOCK:   -0.08 KCAL/MOL
REMARK 927      BINDING AFFINITY PREDICTED BY RF-SCORE:    0.00 PKD
ROOT
HETATM    1  C   UNL     1      -5.311  10.107  65.738  1.00  0.00    -0.056 C  
HETATM    2  N   UNL     1      -6.157   9.079  65.125  1.00  0.00    -0.059 NA 
HETATM    3  C   UNL     1      -5.321   8.129  64.383  1.00  0.00    -0.037 C  
ENDROOT
BRANCH   2   4
HETATM    4  C   UNL     1      -6.956   8.350  66.128  1.00  0.00    -0.072 C  
BRANCH   4   5
HETATM    5  C   UNL     1      -7.577   7.040  65.625  1.00  0.00    -0.093 C  
HETATM    6  C   UNL     1      -6.987   5.759  66.267  1.00  0.00    -0.060 C  
HETATM    7  C   UNL     1      -7.276   5.682  67.763  1.00  0.00    -0.072 A  
HETATM    8  C   UNL     1      -7.454   4.513  65.515  1.00  0.00    -0.081 A  
HETATM    9  C   UNL     1      -8.593   5.620  68.249  1.00  0.00    -0.107 A  
HETATM   10  C   UNL     1      -6.662   3.363  65.514  1.00  0.00    -0.044 A  
HETATM   11  C   UNL     1      -7.079   2.257  64.776  1.00  0.00    -0.053 A  
HETATM   12  C   UNL     1      -8.847   5.604  69.622  1.00  0.00    -0.121 A  
HETATM   13  C   UNL     1      -8.269   2.319  64.065  1.00  0.00    -0.082 A  
HETATM   14  C   UNL     1      -7.786   5.638  70.522  1.00  0.00    -0.099 A  
HETATM   15  C   UNL     1      -9.009   3.486  64.134  1.00  0.00    -0.106 A  
HETATM   16  C   UNL     1      -6.473   5.682  70.062  1.00  0.00    -0.035 A  
HETATM   17 CL   UNL     1      -8.101   5.635  72.215  1.00  0.00    -0.107 Cl 
HETATM   18  N   UNL     1      -8.634   4.572  64.842  1.00  0.00    -0.129 NA 
HETATM   19  C   UNL     1      -6.217   5.705  68.688  1.00  0.00    -0.033 A  
ENDBRANCH   4   5
ENDBRANCH   2   4
TORSDOF 2
ENDMDL
MODEL      193
REMARK 921   NORMALIZED FREE ENERGY PREDICTED BY IDOCK:   -1.21 KCAL/MOL
REMARK 922        TOTAL FREE ENERGY PREDICTED BY IDOCK:   -1.52 KCAL/MOL
REMARK 923 INTER-LIGAND FREE ENERGY PREDICTED BY IDOCK:   -1.94 KCAL/MOL
REMARK 924 INTRA-LIGAND FREE ENERGY PREDICTED BY IDOCK:    0.42 KCAL/MOL
REMARK 927      BINDING AFFINITY PREDICTED BY RF-SCORE:    0.00 PKD
ROOT
HETATM    1  C   UNL     1      -5.572  11.549  68.919  1.00  0.00    -0.046 C  
HETATM    2  N   UNL     1      -6.501  10.831  68.042  1.00  0.00    -0.061 NA 
HETATM    3  C   UNL     1      -5.817   9.689  67.427  1.00  0.00    -0.044 C  
ENDROOT
BRANCH   2   4
HETATM    4  C   UNL     1      -7.692  10.355  68.771  1.00  0.00    -0.104 C  
BRANCH   4   5
HETATM    5  C   UNL     1      -8.362   9.115  68.165  1.00  0.00    -0.120 C  
HETATM    6  C   UNL     1      -7.683   7.771  68.532  1.00  0.00    -0.118 C  
HETATM    7  C   UNL     1      -7.774   7.472  70.026  1.00  0.00    -0.094 A  
HETATM    8  C   UNL     1      -8.232   6.634  67.672  1.00  0.00    -0.122 A  
HETATM    9  C   UNL     1      -9.016   7.305  70.661  1.00  0.00    -0.156 A  
HETATM   10  C   UNL     1      -7.437   5.519  67.402  1.00  0.00    -0.084 A  
HETATM   11  C   UNL     1      -7.937   4.519  66.570  1.00  0.00    -0.103 A  
HETATM   12  C   UNL     1      -9.088   7.084  72.038  1.00  0.00    -0.140 A  
HETATM   13  C   UNL     1      -9.210   4.650  66.033  1.00  0.00    -0.144 A  
HETATM   14  C   UNL     1      -7.919   7.018  72.791  1.00  0.00    -0.102 A  
HETATM   15  C   UNL     1      -9.945   5.774  66.365  1.00  0.00    -0.131 A  
HETATM   16  C   UNL     1      -6.677   7.164  72.178  1.00  0.00    -0.056 A  
HETATM   17 CL   UNL     1      -8.011   6.763  74.491  1.00  0.00    -0.134 Cl 
HETATM   18  N   UNL     1      -9.490   6.757  67.171  1.00  0.00    -0.137 NA 
HETATM   19  C   UNL     1      -6.603   7.392  70.802  1.00  0.00    -0.043 A  
ENDBRANCH   4   5
ENDBRANCH   2   4
TORSDOF 2
ENDMDL
MODEL      194
REMARK 921   NORMALIZED FREE ENERGY PREDICTED BY IDOCK:   -0.73 KCAL/MOL
REMARK 922        TOTAL FREE ENERGY PREDICTED BY IDOCK:   -0.97 KCAL/MOL
REMARK 923 INTER-LIGAND FREE ENERGY PREDICTED BY IDOCK:   -0.78 KCAL/MOL
REMARK 924 INTRA-LIGAND FREE ENERGY PREDICTED BY IDOCK:   -0.20 KCAL/MOL
REMARK 927      BINDING AFFINITY PREDICTED BY RF-SCORE:    0.00 PKD
ROOT
HETATM    1  C   UNL     1     -11.373   6.829  68.683  1.00  0.00     0.010 C  
HETATM    2  N   UNL     1     -10.827   7.663  69.758  1.00  0.00    -0.242 NA 
HETATM    3  C   UNL     1     -11.161   7.074  71.058  1.00  0.00    -0.264 C  
ENDROOT
BRANCH   2   4
HETATM    4  C   UNL     1      -9.363   7.815  69.649  1.00  0.00    -0.153 C  
BRANCH   4   5
HETATM    5  C   UNL     1      -8.888   8.591  68.414  1.00  0.00    -0.139 C  
HETATM    6  C   UNL     1      -7.414   8.329  68.016  1.00  0.00    -0.097 C  
HETATM    7  C   UNL     1      -7.185   6.885  67.579  1.00  0.00    -0.090 A  
HETATM    8  C   UNL     1      -6.949   9.340  66.968  1.00  0.00    -0.085 A  
HETATM    9  C   UNL     1      -7.844   6.350  66.460  1.00  0.00    -0.104 A  
HETATM   10  C   UNL     1      -5.598   9.678  66.878  1.00  0.00    -0.046 A  
HETATM   11  C   UNL     1      -5.203  10.643  65.953  1.00  0.00    -0.103 A  
HETATM   12  C   UNL     1      -7.668   5.011  66.101  1.00  0.00    -0.091 A  
HETATM   13  C   UNL     1      -6.156  11.240  65.140  1.00  0.00     0.801 A  
HETATM   14  C   UNL     1      -6.822   4.199  66.852  1.00  0.00    -0.051 A  
HETATM   15  C   UNL     1      -7.472  10.834  65.273  1.00  0.00     0.094 A  
HETATM   16  C   UNL     1      -6.147   4.715  67.955  1.00  0.00    -0.031 A  
HETATM   17 CL   UNL     1      -6.619   2.546  66.420  1.00  0.00    -0.035 Cl 
HETATM   18  N   UNL     1      -7.885   9.900  66.156  1.00  0.00    -0.107 NA 
HETATM   19  C   UNL     1      -6.327   6.052  68.319  1.00  0.00    -0.044 A  
ENDBRANCH   4   5
ENDBRANCH   2   4
TORSDOF 2
ENDMDL
MODEL      195
REMARK 921   NORMALIZED FREE ENERGY PREDICTED BY IDOCK:    0.38 KCAL/MOL
REMARK 922        TOTAL FREE ENERGY PREDICTED BY IDOCK:    0.26 KCAL/MOL
REMARK 923 INTER-LIGAND FREE ENERGY PREDICTED BY IDOCK:   -0.63 KCAL/MOL
REMARK 924 INTRA-LIGAND FREE ENERGY PREDICTED BY IDOCK:    0.90 KCAL/MOL
REMARK 927      BINDING AFFINITY PREDICTED BY RF-SCORE:    0.00 PKD
ROOT
HETATM    1  C   UNL     1      -9.368  20.743  65.555  1.00  0.00     1.011 C  
HETATM    2  N   UNL     1     -10.084  20.029  66.616  1.00  0.00    -0.456 NA 
HETATM    3  C   UNL     1     -10.447  20.966  67.684  1.00  0.00     0.686 C  
ENDROOT
BRANCH   2   4
HETATM    4  C   UNL     1     -11.301  19.366  66.111  1.00  0.00     0.587 C  
BRANCH   4   5
HETATM    5  C   UNL     1     -11.391  17.866  66.423  1.00  0.00     1.151 C  
HETATM    6  C   UNL     1     -10.174  17.034  65.946  1.00  0.00    -0.311 C  
HETATM    7  C   UNL     1      -8.891  17.424  66.674  1.00  0.00    -0.278 A  
HETATM    8  C   UNL     1     -10.471  15.538  66.040  1.00  0.00    -0.323 A  
HETATM    9  C   UNL     1      -8.768  17.270  68.065  1.00  0.00    -0.231 A  
HETATM   10  C   UNL     1      -9.824  14.644  65.186  1.00  0.00    -0.156 A  
HETATM   11  C   UNL     1     -10.150  13.291  65.251  1.00  0.00    -0.254 A  
HETATM   12  C   UNL     1      -7.609  17.680  68.728  1.00  0.00    -0.253 A  
HETATM   13  C   UNL     1     -11.103  12.861  66.163  1.00  0.00    -0.314 A  
HETATM   14  C   UNL     1      -6.559  18.237  68.005  1.00  0.00    -0.202 A  
HETATM   15  C   UNL     1     -11.684  13.805  66.992  1.00  0.00    -0.390 A  
HETATM   16  C   UNL     1      -6.654  18.383  66.623  1.00  0.00    -0.219 A  
HETATM   17 CL   UNL     1      -5.137  18.757  68.825  1.00  0.00    -0.187 Cl 
HETATM   18  N   UNL     1     -11.386  15.121  66.956  1.00  0.00    -0.316 NA 
HETATM   19  C   UNL     1      -7.815  17.980  65.959  1.00  0.00    -0.177 A  
ENDBRANCH   4   5
ENDBRANCH   2   4
TORSDOF 2
ENDMDL
MODEL      196
REMARK 921   NORMALIZED FREE ENERGY PREDICTED BY IDOCK:    1.07 KCAL/MOL
REMARK 922        TOTAL FREE ENERGY PREDICTED BY IDOCK:    1.04 KCAL/MOL
REMARK 923 INTER-LIGAND FREE ENERGY PREDICTED BY IDOCK:    1.23 KCAL/MOL
REMARK 924 INTRA-LIGAND FREE ENERGY PREDICTED BY IDOCK:   -0.19 KCAL/MOL
REMARK 927      BINDING AFFINITY PREDICTED BY RF-SCORE:    0.00 PKD
ROOT
HETATM    1  C   UNL     1     -11.937   6.793  68.361  1.00  0.00     1.719 C  
HETATM    2  N   UNL     1     -11.990   7.442  69.674  1.00  0.00     0.477 NA 
HETATM    3  C   UNL     1     -12.814   6.643  70.587  1.00  0.00     0.442 C  
ENDROOT
BRANCH   2   4
HETATM    4  C   UNL     1     -10.646   7.621  70.256  1.00  0.00    -0.230 C  
BRANCH   4   5
HETATM    5  C   UNL     1      -9.719   8.547  69.457  1.00  0.00    -0.176 C  
HETATM    6  C   UNL     1      -8.213   8.394  69.790  1.00  0.00    -0.119 C  
HETATM    7  C   UNL     1      -7.678   7.017  69.407  1.00  0.00    -0.108 A  
HETATM    8  C   UNL     1      -7.404   9.531  69.168  1.00  0.00    -0.072 A  
HETATM    9  C   UNL     1      -7.684   6.579  68.072  1.00  0.00    -0.105 A  
HETATM   10  C   UNL     1      -6.205   9.936  69.757  1.00  0.00    -0.050 A  
HETATM   11  C   UNL     1      -5.511  11.011  69.207  1.00  0.00    -0.040 A  
HETATM   12  C   UNL     1      -7.241   5.296  67.741  1.00  0.00    -0.071 A  
HETATM   13  C   UNL     1      -6.020  11.651  68.086  1.00  0.00    -0.046 A  
HETATM   14  C   UNL     1      -6.778   4.444  68.740  1.00  0.00    -0.046 A  
HETATM   15  C   UNL     1      -7.203  11.178  67.546  1.00  0.00    -0.101 A  
HETATM   16  C   UNL     1      -6.747   4.866  70.067  1.00  0.00    -0.037 A  
HETATM   17 CL   UNL     1      -6.248   2.858  68.333  1.00  0.00    -0.028 Cl 
HETATM   18  N   UNL     1      -7.896  10.136  68.054  1.00  0.00    -0.096 NA 
HETATM   19  C   UNL     1      -7.197   6.146  70.401  1.00  0.00    -0.086 A  
ENDBRANCH   4   5
ENDBRANCH   2   4
TORSDOF 2
ENDMDL
MODEL      197
REMARK 921   NORMALIZED FREE ENERGY PREDICTED BY IDOCK:    4.77 KCAL/MOL
REMARK 922        TOTAL FREE ENERGY PREDICTED BY IDOCK:    5.17 KCAL/MOL
REMARK 923 INTER-LIGAND FREE ENERGY PREDICTED BY IDOCK:    4.16 KCAL/MOL
REMARK 924 INTRA-LIGAND FREE ENERGY PREDICTED BY IDOCK:    1.01 KCAL/MOL
REMARK 927      BINDING AFFINITY PREDICTED BY RF-SCORE:    0.00 PKD
ROOT
HETATM    1  C   UNL     1      -6.754  14.541  70.064  1.00  0.00    -0.110 C  
HETATM    2  N   UNL     1      -7.001  13.234  70.679  1.00  0.00     1.051 NA 
HETATM    3  C   UNL     1      -8.342  12.763  70.317  1.00  0.00     4.462 C  
ENDROOT
BRANCH   2   4
HETATM    4  C   UNL     1      -6.001  12.231  70.268  1.00  0.00    -0.138 C  
BRANCH   4   5
HETATM    5  C   UNL     1      -6.002  11.900  68.769  1.00  0.00    -0.052 C  
HETATM    6  C   UNL     1      -6.398  10.441  68.432  1.00  0.00    -0.051 C  
HETATM    7  C   UNL     1      -7.843  10.134  68.816  1.00  0.00    -0.098 A  
HETATM    8  C   UNL     1      -6.101  10.125  66.966  1.00  0.00    -0.055 A  
HETATM    9  C   UNL     1      -8.915  10.825  68.228  1.00  0.00    -0.143 A  
HETATM   10  C   UNL     1      -5.828   8.812  66.578  1.00  0.00    -0.051 A  
HETATM   11  C   UNL     1      -5.505   8.555  65.247  1.00  0.00    -0.035 A  
HETATM   12  C   UNL     1     -10.230  10.574  68.626  1.00  0.00    -0.197 A  
HETATM   13  C   UNL     1      -5.468   9.602  64.338  1.00  0.00    -0.066 A  
HETATM   14  C   UNL     1     -10.485   9.621  69.608  1.00  0.00    -0.229 A  
HETATM   15  C   UNL     1      -5.772  10.873  64.795  1.00  0.00     0.134 A  
HETATM   16  C   UNL     1      -9.437   8.913  70.192  1.00  0.00    -0.198 A  
HETATM   17 CL   UNL     1     -12.104   9.323  70.111  1.00  0.00     0.147 Cl 
HETATM   18  N   UNL     1      -6.092  11.153  66.077  1.00  0.00    -0.099 NA 
HETATM   19  C   UNL     1      -8.121   9.168  69.800  1.00  0.00    -0.111 A  
ENDBRANCH   4   5
ENDBRANCH   2   4
TORSDOF 2
ENDMDL
MODEL      198
REMARK 921   NORMALIZED FREE ENERGY PREDICTED BY IDOCK:    5.79 KCAL/MOL
REMARK 922        TOTAL FREE ENERGY PREDICTED BY IDOCK:    6.30 KCAL/MOL
REMARK 923 INTER-LIGAND FREE ENERGY PREDICTED BY IDOCK:   -1.02 KCAL/MOL
REMARK 924 INTRA-LIGAND FREE ENERGY PREDICTED BY IDOCK:    7.32 KCAL/MOL
REMARK 927      BINDING AFFINITY PREDICTED BY RF-SCORE:    0.00 PKD
ROOT
HETATM    1  C   UNL     1      -7.913  16.151  66.371  1.00  0.00    -0.217 C  
HETATM    2  N   UNL     1      -9.327  16.476  66.584  1.00  0.00    -0.241 NA 
HETATM    3  C   UNL     1      -9.521  17.926  66.480  1.00  0.00    -0.299 C  
ENDROOT
BRANCH   2   4
HETATM    4  C   UNL     1     -10.203  15.793  65.613  1.00  0.00    -0.380 C  
BRANCH   4   5
HETATM    5  C   UNL     1     -10.324  14.276  65.814  1.00  0.00    -0.341 C  
HETATM    6  C   UNL     1      -8.970  13.533  65.933  1.00  0.00     0.508 C  
HETATM    7  C   UNL     1      -8.195  13.948  67.180  1.00  0.00    -0.128 A  
HETATM    8  C   UNL     1      -9.174  12.021  65.845  1.00  0.00    -0.102 A  
HETATM    9  C   UNL     1      -8.714  13.727  68.467  1.00  0.00    -0.118 A  
HETATM   10  C   UNL     1      -8.146  11.206  65.365  1.00  0.00     0.206 A  
HETATM   11  C   UNL     1      -8.373   9.837  65.241  1.00  0.00    -0.146 A  
HETATM   12  C   UNL     1      -8.020  14.160  69.600  1.00  0.00     0.533 A  
HETATM   13  C   UNL     1      -9.606   9.313  65.600  1.00  0.00    -0.324 A  
HETATM   14  C   UNL     1      -6.796  14.806  69.456  1.00  0.00    -0.169 A  
HETATM   15  C   UNL     1     -10.566  10.181  66.089  1.00  0.00    -0.028 A  
HETATM   16  C   UNL     1      -6.255  15.019  68.190  1.00  0.00    -0.142 A  
HETATM   17 CL   UNL     1      -5.949  15.353  70.851  1.00  0.00     0.092 Cl 
HETATM   18  N   UNL     1     -10.376  11.511  66.225  1.00  0.00    -0.231 NA 
HETATM   19  C   UNL     1      -6.951  14.594  67.056  1.00  0.00     0.508 A  
ENDBRANCH   4   5
ENDBRANCH   2   4
TORSDOF 2
ENDMDL
MODEL      199
REMARK 921   NORMALIZED FREE ENERGY PREDICTED BY IDOCK:    8.56 KCAL/MOL
REMARK 922        TOTAL FREE ENERGY PREDICTED BY IDOCK:    9.40 KCAL/MOL
REMARK 923 INTER-LIGAND FREE ENERGY PREDICTED BY IDOCK:   -1.68 KCAL/MOL
REMARK 924 INTRA-LIGAND FREE ENERGY PREDICTED BY IDOCK:   11.09 KCAL/MOL
REMARK 927      BINDING AFFINITY PREDICTED BY RF-SCORE:    0.00 PKD
ROOT
HETATM    1  C   UNL     1      -6.762   9.341  65.423  1.00  0.00    -0.073 C  
HETATM    2  N   UNL     1      -7.554   9.603  66.628  1.00  0.00    -0.097 NA 
HETATM    3  C   UNL     1      -8.452   8.472  66.884  1.00  0.00    -0.113 C  
ENDROOT
BRANCH   2   4
HETATM    4  C   UNL     1      -6.702   9.831  67.811  1.00  0.00    -0.069 C  
BRANCH   4   5
HETATM    5  C   UNL     1      -6.746   8.711  68.859  1.00  0.00    -0.053 C  
HETATM    6  C   UNL     1      -7.758   7.578  68.550  1.00  0.00    -0.120 C  
HETATM    7  C   UNL     1      -7.386   6.805  67.288  1.00  0.00    -0.091 A  
HETATM    8  C   UNL     1      -7.938   6.668  69.764  1.00  0.00    -0.120 A  
HETATM    9  C   UNL     1      -6.179   6.091  67.200  1.00  0.00    -0.029 A  
HETATM   10  C   UNL     1      -9.137   5.978  69.945  1.00  0.00    -0.147 A  
HETATM   11  C   UNL     1      -9.302   5.197  71.087  1.00  0.00    -0.194 A  
HETATM   12  C   UNL     1      -5.824   5.432  66.021  1.00  0.00    -0.018 A  
HETATM   13  C   UNL     1      -8.272   5.117  72.014  1.00  0.00    -0.117 A  
HETATM   14  C   UNL     1      -6.679   5.470  64.923  1.00  0.00    -0.044 A  
HETATM   15  C   UNL     1      -7.105   5.813  71.753  1.00  0.00    -0.082 A  
HETATM   16  C   UNL     1      -7.888   6.158  64.995  1.00  0.00    -0.110 A  
HETATM   17 CL   UNL     1      -6.234   4.671  63.465  1.00  0.00    -0.021 Cl 
HETATM   18  N   UNL     1      -6.914   6.574  70.654  1.00  0.00    -0.063 NA 
HETATM   19  C   UNL     1      -8.241   6.824  66.171  1.00  0.00    -0.124 A  
ENDBRANCH   4   5
ENDBRANCH   2   4
TORSDOF 2
ENDMDL
MODEL      200
REMARK 921   NORMALIZED FREE ENERGY PREDICTED BY IDOCK:   13.75 KCAL/MOL
REMARK 922        TOTAL FREE ENERGY PREDICTED BY IDOCK:   15.19 KCAL/MOL
REMARK 923 INTER-LIGAND FREE ENERGY PREDICTED BY IDOCK:   15.09 KCAL/MOL
REMARK 924 INTRA-LIGAND FREE ENERGY PREDICTED BY IDOCK:    0.11 KCAL/MOL
REMARK 927      BINDING AFFINITY PREDICTED BY RF-SCORE:    0.00 PKD
ROOT
HETATM    1  C   UNL     1      -9.678  16.037  65.717  1.00  0.00    -0.305 C  
HETATM    2  N   UNL     1     -10.745  15.495  66.564  1.00  0.00    -0.308 NA 
HETATM    3  C   UNL     1     -10.933  14.071  66.268  1.00  0.00    -0.300 C  
ENDROOT
BRANCH   2   4
HETATM    4  C   UNL     1     -10.451  15.663  67.999  1.00  0.00    -0.263 C  
BRANCH   4   5
HETATM    5  C   UNL     1     -10.732  17.067  68.552  1.00  0.00    -0.352 C  
HETATM    6  C   UNL     1      -9.485  17.804  69.102  1.00  0.00    -0.001 C  
HETATM    7  C   UNL     1      -8.465  18.103  68.007  1.00  0.00    -0.268 A  
HETATM    8  C   UNL     1      -9.895  19.055  69.878  1.00  0.00     0.641 A  
HETATM    9  C   UNL     1      -8.786  18.933  66.920  1.00  0.00    -0.306 A  
HETATM   10  C   UNL     1      -9.077  19.540  70.900  1.00  0.00     2.451 A  
HETATM   11  C   UNL     1      -9.497  20.648  71.633  1.00  0.00     2.444 A  
HETATM   12  C   UNL     1      -7.862  19.156  65.896  1.00  0.00    -0.167 A  
HETATM   13  C   UNL     1     -10.710  21.249  71.328  1.00  0.00     6.283 A  
HETATM   14  C   UNL     1      -6.606  18.560  65.956  1.00  0.00    -0.249 A  
HETATM   15  C   UNL     1     -11.454  20.724  70.286  1.00  0.00     4.612 A  
HETATM   16  C   UNL     1      -6.262  17.747  67.033  1.00  0.00    -0.188 A  
HETATM   17 CL   UNL     1      -5.474  18.822  64.685  1.00  0.00    -0.258 Cl 
HETATM   18  N   UNL     1     -11.073  19.654  69.556  1.00  0.00     1.825 NA 
HETATM   19  C   UNL     1      -7.187  17.518  68.055  1.00  0.00    -0.206 A  
ENDBRANCH   4   5
ENDBRANCH   2   4
TORSDOF 2
ENDMDL
MODEL      201
REMARK 921   NORMALIZED FREE ENERGY PREDICTED BY IDOCK:   33.69 KCAL/MOL
REMARK 922        TOTAL FREE ENERGY PREDICTED BY IDOCK:   37.46 KCAL/MOL
REMARK 923 INTER-LIGAND FREE ENERGY PREDICTED BY IDOCK:   28.62 KCAL/MOL
REMARK 924 INTRA-LIGAND FREE ENERGY PREDICTED BY IDOCK:    8.85 KCAL/MOL
REMARK 927      BINDING AFFINITY PREDICTED BY RF-SCORE:    0.00 PKD
ROOT
HETATM    1  C   UNL     1      -8.334  18.201  67.452  1.00  0.00    -0.239 C  
HETATM    2  N   UNL     1      -8.962  19.304  66.720  1.00  0.00    -0.312 NA 
HETATM    3  C   UNL     1      -8.329  19.447  65.405  1.00  0.00     0.836 C  
ENDROOT
BRANCH   2   4
HETATM    4  C   UNL     1     -10.412  19.097  66.546  1.00  0.00    -0.448 C  
BRANCH   4   5
HETATM    5  C   UNL     1     -11.168  18.741  67.833  1.00  0.00     0.314 C  
HETATM    6  C   UNL     1     -10.993  17.273  68.298  1.00  0.00    -0.188 C  
HETATM    7  C   UNL     1      -9.551  16.965  68.693  1.00  0.00    -0.265 A  
HETATM    8  C   UNL     1     -11.990  16.934  69.405  1.00  0.00     1.443 A  
HETATM    9  C   UNL     1      -8.927  17.639  69.755  1.00  0.00     1.250 A  
HETATM   10  C   UNL     1     -12.416  15.616  69.578  1.00  0.00    -0.028 A  
HETATM   11  C   UNL     1     -13.368  15.337  70.558  1.00  0.00    -0.208 A  
HETATM   12  C   UNL     1      -7.590  17.387  70.073  1.00  0.00     1.537 A  
HETATM   13  C   UNL     1     -13.864  16.369  71.341  1.00  0.00     2.741 A  
HETATM   14  C   UNL     1      -6.870  16.450  69.338  1.00  0.00    -0.217 A  
HETATM   15  C   UNL     1     -13.375  17.646  71.124  1.00  0.00    14.195 A  
HETATM   16  C   UNL     1      -7.475  15.758  68.292  1.00  0.00    -0.117 A  
HETATM   17 CL   UNL     1      -5.218  16.152  69.720  1.00  0.00    -0.122 Cl 
HETATM   18  N   UNL     1     -12.452  17.946  70.186  1.00  0.00     8.619 NA 
HETATM   19  C   UNL     1      -8.810  16.014  67.968  1.00  0.00    -0.175 A  
ENDBRANCH   4   5
ENDBRANCH   2   4
TORSDOF 2
ENDMDL
