MODEL        1
REMARK 921   NORMALIZED FREE ENERGY PREDICTED BY IDOCK:   -3.84 KCAL/MOL
REMARK 922        TOTAL FREE ENERGY PREDICTED BY IDOCK:   -4.35 KCAL/MOL
REMARK 923 INTER-LIGAND FREE ENERGY PREDICTED BY IDOCK:   -4.29 KCAL/MOL
REMARK 924 INTRA-LIGAND FREE ENERGY PREDICTED BY IDOCK:   -0.06 KCAL/MOL
REMARK 927      BINDING AFFINITY PREDICTED BY RF-SCORE:    0.00 PKD
ROOT
HETATM    1 CL   UNL     1     -11.814  12.342  68.804  1.00  0.00    -0.363 Cl 
HETATM    2  C   UNL     2     -12.777  13.621  65.566  1.00  0.00    -0.466 C  
HETATM    3  N   UNL     2     -11.577  13.195  64.704  1.00  0.00    -0.330 N  
HETATM    4  C   UNL     2     -12.061  12.907  63.307  1.00  0.00    -0.440 C  
HETATM    5  C   UNL     2     -10.997  11.913  65.316  1.00  0.00    -0.302 C  
ENDROOT
BRANCH   3   6
HETATM    6  C   UNL     2     -10.551  14.341  64.768  1.00  0.00    -0.412 C  
BRANCH   6   7
HETATM    7  C   UNL     2     -11.151  15.739  64.992  1.00  0.00    -0.370 C  
HETATM    8  O   UNL     2     -11.575  16.364  63.788  1.00  0.00    -1.605 OA 
HETATM    9  H   UNL     2     -11.946  17.228  63.927  1.00  0.00     0.000 HD 
ENDBRANCH   6   7
ENDBRANCH   3   6
TORSDOF 2
ENDMDL
MODEL        2
REMARK 921   NORMALIZED FREE ENERGY PREDICTED BY IDOCK:   -3.73 KCAL/MOL
REMARK 922        TOTAL FREE ENERGY PREDICTED BY IDOCK:   -4.23 KCAL/MOL
REMARK 923 INTER-LIGAND FREE ENERGY PREDICTED BY IDOCK:   -4.20 KCAL/MOL
REMARK 924 INTRA-LIGAND FREE ENERGY PREDICTED BY IDOCK:   -0.03 KCAL/MOL
REMARK 927      BINDING AFFINITY PREDICTED BY RF-SCORE:    0.00 PKD
ROOT
HETATM    1 CL   UNL     1      -9.267   9.904  64.300  1.00  0.00    -0.305 Cl 
HETATM    2  C   UNL     2     -10.951  12.455  66.222  1.00  0.00    -0.286 C  
HETATM    3  N   UNL     2     -11.585  13.304  65.108  1.00  0.00    -0.301 N  
HETATM    4  C   UNL     2     -12.884  13.877  65.613  1.00  0.00    -0.424 C  
HETATM    5  C   UNL     2     -11.868  12.374  63.920  1.00  0.00    -0.466 C  
ENDROOT
BRANCH   3   6
HETATM    6  C   UNL     2     -10.554  14.380  64.723  1.00  0.00    -0.393 C  
BRANCH   6   7
HETATM    7  C   UNL     2     -10.984  15.827  65.018  1.00  0.00    -0.417 C  
HETATM    8  O   UNL     2     -11.518  16.494  63.882  1.00  0.00    -1.608 OA 
HETATM    9  H   UNL     2     -11.784  17.388  64.065  1.00  0.00     0.000 HD 
ENDBRANCH   6   7
ENDBRANCH   3   6
TORSDOF 2
ENDMDL
MODEL        3
REMARK 921   NORMALIZED FREE ENERGY PREDICTED BY IDOCK:   -3.58 KCAL/MOL
REMARK 922        TOTAL FREE ENERGY PREDICTED BY IDOCK:   -4.07 KCAL/MOL
REMARK 923 INTER-LIGAND FREE ENERGY PREDICTED BY IDOCK:   -4.04 KCAL/MOL
REMARK 924 INTRA-LIGAND FREE ENERGY PREDICTED BY IDOCK:   -0.03 KCAL/MOL
REMARK 927      BINDING AFFINITY PREDICTED BY RF-SCORE:    0.00 PKD
ROOT
HETATM    1 CL   UNL     1     -12.782  11.939  63.318  1.00  0.00    -0.609 Cl 
HETATM    2  C   UNL     2     -10.055  12.767  65.537  1.00  0.00    -0.264 C  
HETATM    3  N   UNL     2     -10.573  14.063  66.182  1.00  0.00    -0.286 N  
HETATM    4  C   UNL     2     -10.052  14.147  67.594  1.00  0.00    -0.236 C  
HETATM    5  C   UNL     2     -12.106  13.989  66.210  1.00  0.00    -0.456 C  
ENDROOT
BRANCH   3   6
HETATM    6  C   UNL     2     -10.101  15.226  65.290  1.00  0.00    -0.327 C  
BRANCH   6   7
HETATM    7  C   UNL     2     -11.143  16.334  65.063  1.00  0.00    -0.254 C  
HETATM    8  O   UNL     2     -11.654  16.357  63.736  1.00  0.00    -1.605 OA 
HETATM    9  H   UNL     2     -12.298  17.042  63.597  1.00  0.00     0.000 HD 
ENDBRANCH   6   7
ENDBRANCH   3   6
TORSDOF 2
ENDMDL
MODEL        4
REMARK 921   NORMALIZED FREE ENERGY PREDICTED BY IDOCK:   -3.50 KCAL/MOL
REMARK 922        TOTAL FREE ENERGY PREDICTED BY IDOCK:   -3.97 KCAL/MOL
REMARK 923 INTER-LIGAND FREE ENERGY PREDICTED BY IDOCK:   -3.94 KCAL/MOL
REMARK 924 INTRA-LIGAND FREE ENERGY PREDICTED BY IDOCK:   -0.03 KCAL/MOL
REMARK 927      BINDING AFFINITY PREDICTED BY RF-SCORE:    0.00 PKD
ROOT
HETATM    1 CL   UNL     1     -10.076  11.110  63.200  1.00  0.00    -0.380 Cl 
HETATM    2  C   UNL     2      -9.887  12.859  66.354  1.00  0.00    -0.268 C  
HETATM    3  N   UNL     2     -11.257  13.555  66.396  1.00  0.00    -0.303 N  
HETATM    4  C   UNL     2     -11.706  13.658  67.831  1.00  0.00    -0.360 C  
HETATM    5  C   UNL     2     -12.248  12.679  65.616  1.00  0.00    -0.411 C  
ENDROOT
BRANCH   3   6
HETATM    6  C   UNL     2     -11.086  14.923  65.712  1.00  0.00    -0.342 C  
BRANCH   6   7
HETATM    7  C   UNL     2     -11.788  15.061  64.351  1.00  0.00    -0.339 C  
HETATM    8  O   UNL     2     -11.599  16.337  63.752  1.00  0.00    -1.539 OA 
HETATM    9  H   UNL     2     -12.032  16.422  62.911  1.00  0.00     0.000 HD 
ENDBRANCH   6   7
ENDBRANCH   3   6
TORSDOF 2
ENDMDL
MODEL        5
REMARK 921   NORMALIZED FREE ENERGY PREDICTED BY IDOCK:   -3.47 KCAL/MOL
REMARK 922        TOTAL FREE ENERGY PREDICTED BY IDOCK:   -3.94 KCAL/MOL
REMARK 923 INTER-LIGAND FREE ENERGY PREDICTED BY IDOCK:   -3.89 KCAL/MOL
REMARK 924 INTRA-LIGAND FREE ENERGY PREDICTED BY IDOCK:   -0.05 KCAL/MOL
REMARK 927      BINDING AFFINITY PREDICTED BY RF-SCORE:    0.00 PKD
ROOT
HETATM    1 CL   UNL     1     -11.312  16.288  68.720  1.00  0.00    -0.350 Cl 
HETATM    2  C   UNL     2     -11.745  13.312  66.721  1.00  0.00    -0.385 C  
HETATM    3  N   UNL     2     -10.441  13.304  65.906  1.00  0.00    -0.280 N  
HETATM    4  C   UNL     2     -10.045  11.875  65.636  1.00  0.00    -0.243 C  
HETATM    5  C   UNL     2      -9.356  13.979  66.757  1.00  0.00    -0.277 C  
ENDROOT
BRANCH   3   6
HETATM    6  C   UNL     2     -10.709  14.113  64.625  1.00  0.00    -0.389 C  
BRANCH   6   7
HETATM    7  C   UNL     2     -11.022  15.601  64.850  1.00  0.00    -0.431 C  
HETATM    8  O   UNL     2     -11.591  16.231  63.709  1.00  0.00    -1.539 OA 
HETATM    9  H   UNL     2     -11.785  17.151  63.849  1.00  0.00     0.000 HD 
ENDBRANCH   6   7
ENDBRANCH   3   6
TORSDOF 2
ENDMDL
MODEL        6
REMARK 921   NORMALIZED FREE ENERGY PREDICTED BY IDOCK:   -3.43 KCAL/MOL
REMARK 922        TOTAL FREE ENERGY PREDICTED BY IDOCK:   -3.89 KCAL/MOL
REMARK 923 INTER-LIGAND FREE ENERGY PREDICTED BY IDOCK:   -3.84 KCAL/MOL
REMARK 924 INTRA-LIGAND FREE ENERGY PREDICTED BY IDOCK:   -0.05 KCAL/MOL
REMARK 927      BINDING AFFINITY PREDICTED BY RF-SCORE:    0.00 PKD
ROOT
HETATM    1 CL   UNL     1     -11.761  11.779  68.716  1.00  0.00    -0.360 Cl 
HETATM    2  C   UNL     2      -9.313  13.399  66.612  1.00  0.00    -0.241 C  
HETATM    3  N   UNL     2     -10.073  14.664  66.184  1.00  0.00    -0.286 N  
HETATM    4  C   UNL     2      -9.085  15.788  66.002  1.00  0.00    -0.326 C  
HETATM    5  C   UNL     2     -11.050  15.025  67.312  1.00  0.00    -0.334 C  
ENDROOT
BRANCH   3   6
HETATM    6  C   UNL     2     -10.838  14.313  64.895  1.00  0.00    -0.416 C  
BRANCH   6   7
HETATM    7  C   UNL     2     -12.004  15.256  64.554  1.00  0.00    -0.271 C  
HETATM    8  O   UNL     2     -11.618  16.343  63.723  1.00  0.00    -1.605 OA 
HETATM    9  H   UNL     2     -12.338  16.926  63.512  1.00  0.00     0.000 HD 
ENDBRANCH   6   7
ENDBRANCH   3   6
TORSDOF 2
ENDMDL
MODEL        7
REMARK 921   NORMALIZED FREE ENERGY PREDICTED BY IDOCK:   -3.38 KCAL/MOL
REMARK 922        TOTAL FREE ENERGY PREDICTED BY IDOCK:   -3.84 KCAL/MOL
REMARK 923 INTER-LIGAND FREE ENERGY PREDICTED BY IDOCK:   -3.78 KCAL/MOL
REMARK 924 INTRA-LIGAND FREE ENERGY PREDICTED BY IDOCK:   -0.06 KCAL/MOL
REMARK 927      BINDING AFFINITY PREDICTED BY RF-SCORE:    0.00 PKD
ROOT
HETATM    1 CL   UNL     1     -11.972  11.109  69.203  1.00  0.00    -0.413 Cl 
HETATM    2  C   UNL     2     -10.462  12.412  66.192  1.00  0.00    -0.248 C  
HETATM    3  N   UNL     2     -11.394  13.591  65.873  1.00  0.00    -0.305 N  
HETATM    4  C   UNL     2     -10.591  14.682  65.213  1.00  0.00    -0.391 C  
HETATM    5  C   UNL     2     -11.960  14.111  67.202  1.00  0.00    -0.426 C  
ENDROOT
BRANCH   3   6
HETATM    6  C   UNL     2     -12.521  13.042  64.980  1.00  0.00    -0.477 C  
BRANCH   6   7
HETATM    7  C   UNL     2     -12.159  12.895  63.493  1.00  0.00    -0.555 C  
HETATM    8  O   UNL     2     -12.272  11.560  63.019  1.00  0.00    -0.968 OA 
HETATM    9  H   UNL     2     -12.048  11.469  62.100  1.00  0.00     0.000 HD 
ENDBRANCH   6   7
ENDBRANCH   3   6
TORSDOF 2
ENDMDL
MODEL        8
REMARK 921   NORMALIZED FREE ENERGY PREDICTED BY IDOCK:   -3.36 KCAL/MOL
REMARK 922        TOTAL FREE ENERGY PREDICTED BY IDOCK:   -3.81 KCAL/MOL
REMARK 923 INTER-LIGAND FREE ENERGY PREDICTED BY IDOCK:   -3.77 KCAL/MOL
REMARK 924 INTRA-LIGAND FREE ENERGY PREDICTED BY IDOCK:   -0.05 KCAL/MOL
REMARK 927      BINDING AFFINITY PREDICTED BY RF-SCORE:    0.00 PKD
ROOT
HETATM    1 CL   UNL     1     -10.463  17.138  65.826  1.00  0.00    -0.310 Cl 
HETATM    2  C   UNL     2     -11.969  14.208  67.305  1.00  0.00    -0.414 C  
HETATM    3  N   UNL     2     -11.482  13.104  66.353  1.00  0.00    -0.320 N  
HETATM    4  C   UNL     2     -11.301  11.830  67.136  1.00  0.00    -0.322 C  
HETATM    5  C   UNL     2     -10.126  13.546  65.783  1.00  0.00    -0.287 C  
ENDROOT
BRANCH   3   6
HETATM    6  C   UNL     2     -12.530  12.985  65.232  1.00  0.00    -0.499 C  
BRANCH   6   7
HETATM    7  C   UNL     2     -11.954  12.922  63.807  1.00  0.00    -0.512 C  
HETATM    8  O   UNL     2     -12.413  13.977  62.972  1.00  0.00    -1.101 OA 
HETATM    9  H   UNL     2     -12.057  13.938  62.092  1.00  0.00     0.000 HD 
ENDBRANCH   6   7
ENDBRANCH   3   6
TORSDOF 2
ENDMDL
MODEL        9
REMARK 921   NORMALIZED FREE ENERGY PREDICTED BY IDOCK:   -3.33 KCAL/MOL
REMARK 922        TOTAL FREE ENERGY PREDICTED BY IDOCK:   -3.78 KCAL/MOL
REMARK 923 INTER-LIGAND FREE ENERGY PREDICTED BY IDOCK:   -3.73 KCAL/MOL
REMARK 924 INTRA-LIGAND FREE ENERGY PREDICTED BY IDOCK:   -0.05 KCAL/MOL
REMARK 927      BINDING AFFINITY PREDICTED BY RF-SCORE:    0.00 PKD
ROOT
HETATM    1 CL   UNL     1     -10.033  19.934  66.452  1.00  0.00    -0.551 Cl 
HETATM    2  C   UNL     2     -10.752  16.786  68.070  1.00  0.00    -0.355 C  
HETATM    3  N   UNL     2     -10.163  15.787  67.061  1.00  0.00    -0.274 N  
HETATM    4  C   UNL     2      -9.646  14.586  67.811  1.00  0.00    -0.215 C  
HETATM    5  C   UNL     2      -8.995  16.481  66.347  1.00  0.00    -0.305 C  
ENDROOT
BRANCH   3   6
HETATM    6  C   UNL     2     -11.284  15.444  66.064  1.00  0.00    -0.168 C  
BRANCH   6   7
HETATM    7  C   UNL     2     -10.865  15.465  64.584  1.00  0.00    -0.258 C  
HETATM    8  O   UNL     2     -11.588  16.416  63.812  1.00  0.00    -1.605 OA 
HETATM    9  H   UNL     2     -11.329  16.429  62.898  1.00  0.00     0.000 HD 
ENDBRANCH   6   7
ENDBRANCH   3   6
TORSDOF 2
ENDMDL
MODEL       10
REMARK 921   NORMALIZED FREE ENERGY PREDICTED BY IDOCK:   -3.31 KCAL/MOL
REMARK 922        TOTAL FREE ENERGY PREDICTED BY IDOCK:   -3.76 KCAL/MOL
REMARK 923 INTER-LIGAND FREE ENERGY PREDICTED BY IDOCK:   -3.73 KCAL/MOL
REMARK 924 INTRA-LIGAND FREE ENERGY PREDICTED BY IDOCK:   -0.03 KCAL/MOL
REMARK 927      BINDING AFFINITY PREDICTED BY RF-SCORE:    0.00 PKD
ROOT
HETATM    1 CL   UNL     1     -10.426  10.751  66.107  1.00  0.00    -0.299 Cl 
HETATM    2  C   UNL     2      -9.585  13.998  67.447  1.00  0.00    -0.227 C  
HETATM    3  N   UNL     2     -10.759  14.849  66.937  1.00  0.00    -0.302 N  
HETATM    4  C   UNL     2     -11.049  15.932  67.944  1.00  0.00    -0.317 C  
HETATM    5  C   UNL     2     -11.982  13.928  66.815  1.00  0.00    -0.438 C  
ENDROOT
BRANCH   3   6
HETATM    6  C   UNL     2     -10.350  15.395  65.557  1.00  0.00    -0.387 C  
BRANCH   6   7
HETATM    7  C   UNL     2     -11.419  15.255  64.460  1.00  0.00    -0.315 C  
HETATM    8  O   UNL     2     -11.496  16.390  63.607  1.00  0.00    -1.446 OA 
HETATM    9  H   UNL     2     -12.156  16.302  62.929  1.00  0.00     0.000 HD 
ENDBRANCH   6   7
ENDBRANCH   3   6
TORSDOF 2
ENDMDL
MODEL       11
REMARK 921   NORMALIZED FREE ENERGY PREDICTED BY IDOCK:   -3.23 KCAL/MOL
REMARK 922        TOTAL FREE ENERGY PREDICTED BY IDOCK:   -3.67 KCAL/MOL
REMARK 923 INTER-LIGAND FREE ENERGY PREDICTED BY IDOCK:   -3.63 KCAL/MOL
REMARK 924 INTRA-LIGAND FREE ENERGY PREDICTED BY IDOCK:   -0.04 KCAL/MOL
REMARK 927      BINDING AFFINITY PREDICTED BY RF-SCORE:    0.00 PKD
ROOT
HETATM    1 CL   UNL     1     -11.092  16.286  67.983  1.00  0.00    -0.328 Cl 
HETATM    2  C   UNL     2     -11.708  12.744  67.638  1.00  0.00    -0.367 C  
HETATM    3  N   UNL     2     -11.126  12.471  66.242  1.00  0.00    -0.283 N  
HETATM    4  C   UNL     2     -10.566  11.072  66.214  1.00  0.00    -0.237 C  
HETATM    5  C   UNL     2      -9.989  13.476  66.007  1.00  0.00    -0.299 C  
ENDROOT
BRANCH   3   6
HETATM    6  C   UNL     2     -12.264  12.691  65.231  1.00  0.00    -0.475 C  
BRANCH   6   7
HETATM    7  C   UNL     2     -11.807  12.973  63.789  1.00  0.00    -0.502 C  
HETATM    8  O   UNL     2     -12.471  14.083  63.200  1.00  0.00    -1.137 OA 
HETATM    9  H   UNL     2     -12.188  14.257  62.310  1.00  0.00     0.000 HD 
ENDBRANCH   6   7
ENDBRANCH   3   6
TORSDOF 2
ENDMDL
MODEL       12
REMARK 921   NORMALIZED FREE ENERGY PREDICTED BY IDOCK:   -3.23 KCAL/MOL
REMARK 922        TOTAL FREE ENERGY PREDICTED BY IDOCK:   -3.67 KCAL/MOL
REMARK 923 INTER-LIGAND FREE ENERGY PREDICTED BY IDOCK:   -3.60 KCAL/MOL
REMARK 924 INTRA-LIGAND FREE ENERGY PREDICTED BY IDOCK:   -0.06 KCAL/MOL
REMARK 927      BINDING AFFINITY PREDICTED BY RF-SCORE:    0.00 PKD
ROOT
HETATM    1 CL   UNL     1     -10.594   8.991  67.623  1.00  0.00    -0.317 Cl 
HETATM    2  C   UNL     2     -10.931   9.410  71.194  1.00  0.00    -0.360 C  
HETATM    3  N   UNL     2     -11.427   8.017  71.615  1.00  0.00    -0.257 N  
HETATM    4  C   UNL     2     -10.903   7.711  72.995  1.00  0.00    -0.400 C  
HETATM    5  C   UNL     2     -10.858   6.998  70.618  1.00  0.00    -0.246 C  
ENDROOT
BRANCH   3   6
HETATM    6  C   UNL     2     -12.964   8.049  71.542  1.00  0.00    -0.303 C  
BRANCH   6   7
HETATM    7  C   UNL     2     -13.622   9.265  72.217  1.00  0.00    -0.480 C  
HETATM    8  O   UNL     2     -14.248   8.947  73.453  1.00  0.00    -1.241 OA 
HETATM    9  H   UNL     2     -14.654   9.698  73.870  1.00  0.00     0.000 HD 
ENDBRANCH   6   7
ENDBRANCH   3   6
TORSDOF 2
ENDMDL
MODEL       13
REMARK 921   NORMALIZED FREE ENERGY PREDICTED BY IDOCK:   -3.15 KCAL/MOL
REMARK 922        TOTAL FREE ENERGY PREDICTED BY IDOCK:   -3.58 KCAL/MOL
REMARK 923 INTER-LIGAND FREE ENERGY PREDICTED BY IDOCK:   -3.53 KCAL/MOL
REMARK 924 INTRA-LIGAND FREE ENERGY PREDICTED BY IDOCK:   -0.05 KCAL/MOL
REMARK 927      BINDING AFFINITY PREDICTED BY RF-SCORE:    0.00 PKD
ROOT
HETATM    1 CL   UNL     1     -11.129  15.133  69.840  1.00  0.00    -0.281 Cl 
HETATM    2  C   UNL     2     -11.591  12.293  67.658  1.00  0.00    -0.354 C  
HETATM    3  N   UNL     2     -11.091  12.856  66.318  1.00  0.00    -0.281 N  
HETATM    4  C   UNL     2     -10.467  11.739  65.523  1.00  0.00    -0.267 C  
HETATM    5  C   UNL     2     -10.024  13.916  66.629  1.00  0.00    -0.279 C  
ENDROOT
BRANCH   3   6
HETATM    6  C   UNL     2     -12.305  13.495  65.620  1.00  0.00    -0.476 C  
BRANCH   6   7
HETATM    7  C   UNL     2     -11.962  14.426  64.445  1.00  0.00    -0.452 C  
HETATM    8  O   UNL     2     -12.505  13.985  63.207  1.00  0.00    -1.139 OA 
HETATM    9  H   UNL     2     -12.294  14.561  62.481  1.00  0.00     0.000 HD 
ENDBRANCH   6   7
ENDBRANCH   3   6
TORSDOF 2
ENDMDL
MODEL       14
REMARK 921   NORMALIZED FREE ENERGY PREDICTED BY IDOCK:   -3.09 KCAL/MOL
REMARK 922        TOTAL FREE ENERGY PREDICTED BY IDOCK:   -3.52 KCAL/MOL
REMARK 923 INTER-LIGAND FREE ENERGY PREDICTED BY IDOCK:   -3.50 KCAL/MOL
REMARK 924 INTRA-LIGAND FREE ENERGY PREDICTED BY IDOCK:   -0.02 KCAL/MOL
REMARK 927      BINDING AFFINITY PREDICTED BY RF-SCORE:    0.00 PKD
ROOT
HETATM    1 CL   UNL     1     -10.874  10.075  68.211  1.00  0.00    -0.282 Cl 
HETATM    2  C   UNL     2     -10.006  13.284  66.799  1.00  0.00    -0.263 C  
HETATM    3  N   UNL     2     -11.307  14.072  67.020  1.00  0.00    -0.316 N  
HETATM    4  C   UNL     2     -10.964  15.522  67.252  1.00  0.00    -0.303 C  
HETATM    5  C   UNL     2     -11.987  13.505  68.274  1.00  0.00    -0.342 C  
ENDROOT
BRANCH   3   6
HETATM    6  C   UNL     2     -12.184  13.847  65.776  1.00  0.00    -0.460 C  
BRANCH   6   7
HETATM    7  C   UNL     2     -11.598  14.388  64.461  1.00  0.00    -0.384 C  
HETATM    8  O   UNL     2     -12.412  14.108  63.330  1.00  0.00    -1.146 OA 
HETATM    9  H   UNL     2     -12.050  14.443  62.517  1.00  0.00     0.000 HD 
ENDBRANCH   6   7
ENDBRANCH   3   6
TORSDOF 2
ENDMDL
MODEL       15
REMARK 921   NORMALIZED FREE ENERGY PREDICTED BY IDOCK:   -3.09 KCAL/MOL
REMARK 922        TOTAL FREE ENERGY PREDICTED BY IDOCK:   -3.52 KCAL/MOL
REMARK 923 INTER-LIGAND FREE ENERGY PREDICTED BY IDOCK:   -3.46 KCAL/MOL
REMARK 924 INTRA-LIGAND FREE ENERGY PREDICTED BY IDOCK:   -0.05 KCAL/MOL
REMARK 927      BINDING AFFINITY PREDICTED BY RF-SCORE:    0.00 PKD
ROOT
HETATM    1 CL   UNL     1     -10.974   3.917  73.385  1.00  0.00    -0.314 Cl 
HETATM    2  C   UNL     2     -10.527   6.595  71.004  1.00  0.00    -0.214 C  
HETATM    3  N   UNL     2     -11.005   7.807  71.819  1.00  0.00    -0.233 N  
HETATM    4  C   UNL     2     -10.221   9.021  71.390  1.00  0.00    -0.329 C  
HETATM    5  C   UNL     2     -10.719   7.515  73.299  1.00  0.00    -0.382 C  
ENDROOT
BRANCH   3   6
HETATM    6  C   UNL     2     -12.518   7.943  71.575  1.00  0.00    -0.318 C  
BRANCH   6   7
HETATM    7  C   UNL     2     -13.172   9.179  72.217  1.00  0.00    -0.461 C  
HETATM    8  O   UNL     2     -14.089   8.851  73.252  1.00  0.00    -1.211 OA 
HETATM    9  H   UNL     2     -14.493   9.615  73.648  1.00  0.00     0.000 HD 
ENDBRANCH   6   7
ENDBRANCH   3   6
TORSDOF 2
ENDMDL
MODEL       16
REMARK 921   NORMALIZED FREE ENERGY PREDICTED BY IDOCK:   -3.05 KCAL/MOL
REMARK 922        TOTAL FREE ENERGY PREDICTED BY IDOCK:   -3.47 KCAL/MOL
REMARK 923 INTER-LIGAND FREE ENERGY PREDICTED BY IDOCK:   -3.44 KCAL/MOL
REMARK 924 INTRA-LIGAND FREE ENERGY PREDICTED BY IDOCK:   -0.03 KCAL/MOL
REMARK 927      BINDING AFFINITY PREDICTED BY RF-SCORE:    0.00 PKD
ROOT
HETATM    1 CL   UNL     1      -7.588  15.353  67.133  1.00  0.00    -0.245 Cl 
HETATM    2  C   UNL     2     -10.745  15.435  65.382  1.00  0.00    -0.400 C  
HETATM    3  N   UNL     2     -11.202  13.974  65.514  1.00  0.00    -0.306 N  
HETATM    4  C   UNL     2     -12.707  13.939  65.587  1.00  0.00    -0.495 C  
HETATM    5  C   UNL     2     -10.617  13.420  66.822  1.00  0.00    -0.277 C  
ENDROOT
BRANCH   3   6
HETATM    6  C   UNL     2     -10.634  13.215  64.301  1.00  0.00    -0.412 C  
BRANCH   6   7
HETATM    7  C   UNL     2     -11.686  12.529  63.413  1.00  0.00    -0.488 C  
HETATM    8  O   UNL     2     -11.221  11.319  62.830  1.00  0.00    -0.822 OA 
HETATM    9  H   UNL     2     -11.872  10.895  62.282  1.00  0.00     0.000 HD 
ENDBRANCH   6   7
ENDBRANCH   3   6
TORSDOF 2
ENDMDL
MODEL       17
REMARK 921   NORMALIZED FREE ENERGY PREDICTED BY IDOCK:   -3.01 KCAL/MOL
REMARK 922        TOTAL FREE ENERGY PREDICTED BY IDOCK:   -3.43 KCAL/MOL
REMARK 923 INTER-LIGAND FREE ENERGY PREDICTED BY IDOCK:   -3.41 KCAL/MOL
REMARK 924 INTRA-LIGAND FREE ENERGY PREDICTED BY IDOCK:   -0.02 KCAL/MOL
REMARK 927      BINDING AFFINITY PREDICTED BY RF-SCORE:    0.00 PKD
ROOT
HETATM    1 CL   UNL     1      -6.499  16.535  67.715  1.00  0.00    -0.148 Cl 
HETATM    2  C   UNL     2     -10.013  16.043  68.384  1.00  0.00    -0.220 C  
HETATM    3  N   UNL     2     -10.433  15.186  67.180  1.00  0.00    -0.275 N  
HETATM    4  C   UNL     2     -11.536  14.251  67.607  1.00  0.00    -0.346 C  
HETATM    5  C   UNL     2      -9.211  14.364  66.745  1.00  0.00    -0.268 C  
ENDROOT
BRANCH   3   6
HETATM    6  C   UNL     2     -10.859  16.158  66.065  1.00  0.00    -0.154 C  
BRANCH   6   7
HETATM    7  C   UNL     2     -11.167  15.498  64.710  1.00  0.00    -0.390 C  
HETATM    8  O   UNL     2     -11.581  16.428  63.718  1.00  0.00    -1.605 OA 
HETATM    9  H   UNL     2     -11.771  16.020  62.881  1.00  0.00     0.000 HD 
ENDBRANCH   6   7
ENDBRANCH   3   6
TORSDOF 2
ENDMDL
MODEL       18
REMARK 921   NORMALIZED FREE ENERGY PREDICTED BY IDOCK:   -2.99 KCAL/MOL
REMARK 922        TOTAL FREE ENERGY PREDICTED BY IDOCK:   -3.40 KCAL/MOL
REMARK 923 INTER-LIGAND FREE ENERGY PREDICTED BY IDOCK:   -3.34 KCAL/MOL
REMARK 924 INTRA-LIGAND FREE ENERGY PREDICTED BY IDOCK:   -0.07 KCAL/MOL
REMARK 927      BINDING AFFINITY PREDICTED BY RF-SCORE:    0.00 PKD
ROOT
HETATM    1 CL   UNL     1     -10.227  17.482  68.746  1.00  0.00    -0.362 Cl 
HETATM    2  C   UNL     2     -10.646  13.978  67.983  1.00  0.00    -0.247 C  
HETATM    3  N   UNL     2     -10.621  13.998  66.446  1.00  0.00    -0.278 N  
HETATM    4  C   UNL     2     -10.007  12.713  65.953  1.00  0.00    -0.264 C  
HETATM    5  C   UNL     2      -9.744  15.180  66.011  1.00  0.00    -0.330 C  
ENDROOT
BRANCH   3   6
HETATM    6  C   UNL     2     -12.074  14.197  65.977  1.00  0.00    -0.432 C  
BRANCH   6   7
HETATM    7  C   UNL     2     -12.359  13.744  64.535  1.00  0.00    -0.358 C  
HETATM    8  O   UNL     2     -12.504  14.828  63.627  1.00  0.00    -1.064 OA 
HETATM    9  H   UNL     2     -12.679  14.547  62.737  1.00  0.00     0.000 HD 
ENDBRANCH   6   7
ENDBRANCH   3   6
TORSDOF 2
ENDMDL
MODEL       19
REMARK 921   NORMALIZED FREE ENERGY PREDICTED BY IDOCK:   -2.98 KCAL/MOL
REMARK 922        TOTAL FREE ENERGY PREDICTED BY IDOCK:   -3.39 KCAL/MOL
REMARK 923 INTER-LIGAND FREE ENERGY PREDICTED BY IDOCK:   -3.35 KCAL/MOL
REMARK 924 INTRA-LIGAND FREE ENERGY PREDICTED BY IDOCK:   -0.04 KCAL/MOL
REMARK 927      BINDING AFFINITY PREDICTED BY RF-SCORE:    0.00 PKD
ROOT
HETATM    1 CL   UNL     1     -10.474  16.299  66.739  1.00  0.00    -0.298 Cl 
HETATM    2  C   UNL     2     -10.537  13.528  64.423  1.00  0.00    -0.377 C  
HETATM    3  N   UNL     2     -11.775  12.756  64.909  1.00  0.00    -0.334 N  
HETATM    4  C   UNL     2     -12.430  12.093  63.725  1.00  0.00    -0.514 C  
HETATM    5  C   UNL     2     -12.746  13.774  65.523  1.00  0.00    -0.488 C  
ENDROOT
BRANCH   3   6
HETATM    6  C   UNL     2     -11.289  11.757  65.974  1.00  0.00    -0.273 C  
BRANCH   6   7
HETATM    7  C   UNL     2     -11.713  12.088  67.416  1.00  0.00    -0.281 C  
HETATM    8  O   UNL     2     -12.204  10.959  68.126  1.00  0.00    -0.781 OA 
HETATM    9  H   UNL     2     -12.465  11.163  69.017  1.00  0.00     0.000 HD 
ENDBRANCH   6   7
ENDBRANCH   3   6
TORSDOF 2
ENDMDL
MODEL       20
REMARK 921   NORMALIZED FREE ENERGY PREDICTED BY IDOCK:   -2.94 KCAL/MOL
REMARK 922        TOTAL FREE ENERGY PREDICTED BY IDOCK:   -3.35 KCAL/MOL
REMARK 923 INTER-LIGAND FREE ENERGY PREDICTED BY IDOCK:   -3.30 KCAL/MOL
REMARK 924 INTRA-LIGAND FREE ENERGY PREDICTED BY IDOCK:   -0.05 KCAL/MOL
REMARK 927      BINDING AFFINITY PREDICTED BY RF-SCORE:    0.00 PKD
ROOT
HETATM    1 CL   UNL     1     -12.626  11.899  63.414  1.00  0.00    -0.674 Cl 
HETATM    2  C   UNL     2     -12.284  13.919  66.388  1.00  0.00    -0.449 C  
HETATM    3  N   UNL     2     -10.774  13.812  66.655  1.00  0.00    -0.276 N  
HETATM    4  C   UNL     2     -10.298  15.097  67.281  1.00  0.00    -0.261 C  
HETATM    5  C   UNL     2     -10.076  13.617  65.301  1.00  0.00    -0.275 C  
ENDROOT
BRANCH   3   6
HETATM    6  C   UNL     2     -10.564  12.582  67.556  1.00  0.00    -0.220 C  
BRANCH   6   7
HETATM    7  C   UNL     2     -11.735  12.261  68.500  1.00  0.00    -0.331 C  
HETATM    8  O   UNL     2     -12.226  10.935  68.350  1.00  0.00    -0.813 OA 
HETATM    9  H   UNL     2     -12.950  10.737  68.934  1.00  0.00     0.000 HD 
ENDBRANCH   6   7
ENDBRANCH   3   6
TORSDOF 2
ENDMDL
MODEL       21
REMARK 921   NORMALIZED FREE ENERGY PREDICTED BY IDOCK:   -2.90 KCAL/MOL
REMARK 922        TOTAL FREE ENERGY PREDICTED BY IDOCK:   -3.31 KCAL/MOL
REMARK 923 INTER-LIGAND FREE ENERGY PREDICTED BY IDOCK:   -3.32 KCAL/MOL
REMARK 924 INTRA-LIGAND FREE ENERGY PREDICTED BY IDOCK:    0.02 KCAL/MOL
REMARK 927      BINDING AFFINITY PREDICTED BY RF-SCORE:    0.00 PKD
ROOT
HETATM    1 CL   UNL     1     -12.459  11.746  63.118  1.00  0.00    -0.485 Cl 
HETATM    2  C   UNL     2     -11.287  12.342  66.482  1.00  0.00    -0.351 C  
HETATM    3  N   UNL     2     -11.566  13.846  66.637  1.00  0.00    -0.355 N  
HETATM    4  C   UNL     2     -11.903  14.132  68.078  1.00  0.00    -0.365 C  
HETATM    5  C   UNL     2     -12.775  14.188  65.755  1.00  0.00    -0.413 C  
ENDROOT
BRANCH   3   6
HETATM    6  C   UNL     2     -10.309  14.587  66.148  1.00  0.00    -0.297 C  
BRANCH   6   7
HETATM    7  C   UNL     2     -10.444  16.117  66.075  1.00  0.00    -0.338 C  
HETATM    8  O   UNL     2     -10.696  16.594  64.760  1.00  0.00    -0.721 OA 
HETATM    9  H   UNL     2     -10.780  17.539  64.716  1.00  0.00     0.000 HD 
ENDBRANCH   6   7
ENDBRANCH   3   6
TORSDOF 2
ENDMDL
MODEL       22
REMARK 921   NORMALIZED FREE ENERGY PREDICTED BY IDOCK:   -2.86 KCAL/MOL
REMARK 922        TOTAL FREE ENERGY PREDICTED BY IDOCK:   -3.25 KCAL/MOL
REMARK 923 INTER-LIGAND FREE ENERGY PREDICTED BY IDOCK:   -3.23 KCAL/MOL
REMARK 924 INTRA-LIGAND FREE ENERGY PREDICTED BY IDOCK:   -0.03 KCAL/MOL
REMARK 927      BINDING AFFINITY PREDICTED BY RF-SCORE:    0.00 PKD
ROOT
HETATM    1 CL   UNL     1     -12.749  11.803  63.211  1.00  0.00    -0.553 Cl 
HETATM    2  C   UNL     2     -11.897  15.030  64.591  1.00  0.00    -0.375 C  
HETATM    3  N   UNL     2     -10.962  14.629  65.743  1.00  0.00    -0.320 N  
HETATM    4  C   UNL     2      -9.927  15.709  65.928  1.00  0.00    -0.351 C  
HETATM    5  C   UNL     2     -10.265  13.321  65.342  1.00  0.00    -0.293 C  
ENDROOT
BRANCH   3   6
HETATM    6  C   UNL     2     -11.847  14.416  66.984  1.00  0.00    -0.412 C  
BRANCH   6   7
HETATM    7  C   UNL     2     -11.470  15.272  68.205  1.00  0.00    -0.347 C  
HETATM    8  O   UNL     2     -12.464  15.265  69.220  1.00  0.00    -0.580 OA 
HETATM    9  H   UNL     2     -12.231  15.793  69.975  1.00  0.00     0.000 HD 
ENDBRANCH   6   7
ENDBRANCH   3   6
TORSDOF 2
ENDMDL
MODEL       23
REMARK 921   NORMALIZED FREE ENERGY PREDICTED BY IDOCK:   -2.85 KCAL/MOL
REMARK 922        TOTAL FREE ENERGY PREDICTED BY IDOCK:   -3.24 KCAL/MOL
REMARK 923 INTER-LIGAND FREE ENERGY PREDICTED BY IDOCK:   -3.15 KCAL/MOL
REMARK 924 INTRA-LIGAND FREE ENERGY PREDICTED BY IDOCK:   -0.09 KCAL/MOL
REMARK 927      BINDING AFFINITY PREDICTED BY RF-SCORE:    0.00 PKD
ROOT
HETATM    1 CL   UNL     1      -8.740  15.911  66.278  1.00  0.00    -0.366 Cl 
HETATM    2  C   UNL     2     -10.232  12.996  64.755  1.00  0.00    -0.291 C  
HETATM    3  N   UNL     2     -11.700  13.437  64.632  1.00  0.00    -0.355 N  
HETATM    4  C   UNL     2     -12.299  12.800  63.405  1.00  0.00    -0.437 C  
HETATM    5  C   UNL     2     -11.715  14.964  64.470  1.00  0.00    -0.382 C  
ENDROOT
BRANCH   3   6
HETATM    6  C   UNL     2     -12.403  13.022  65.937  1.00  0.00    -0.368 C  
BRANCH   6   7
HETATM    7  C   UNL     2     -11.634  13.363  67.225  1.00  0.00    -0.360 C  
HETATM    8  O   UNL     2     -12.205  14.447  67.946  1.00  0.00    -0.595 OA 
HETATM    9  H   UNL     2     -11.731  14.657  68.742  1.00  0.00     0.000 HD 
ENDBRANCH   6   7
ENDBRANCH   3   6
TORSDOF 2
ENDMDL
MODEL       24
REMARK 921   NORMALIZED FREE ENERGY PREDICTED BY IDOCK:   -2.80 KCAL/MOL
REMARK 922        TOTAL FREE ENERGY PREDICTED BY IDOCK:   -3.19 KCAL/MOL
REMARK 923 INTER-LIGAND FREE ENERGY PREDICTED BY IDOCK:   -3.15 KCAL/MOL
REMARK 924 INTRA-LIGAND FREE ENERGY PREDICTED BY IDOCK:   -0.04 KCAL/MOL
REMARK 927      BINDING AFFINITY PREDICTED BY RF-SCORE:    0.00 PKD
ROOT
HETATM    1 CL   UNL     1     -11.679  12.379  69.675  1.00  0.00    -0.379 Cl 
HETATM    2  C   UNL     2      -9.392  13.678  67.200  1.00  0.00    -0.240 C  
HETATM    3  N   UNL     2     -10.325  14.570  66.365  1.00  0.00    -0.286 N  
HETATM    4  C   UNL     2      -9.536  15.743  65.842  1.00  0.00    -0.347 C  
HETATM    5  C   UNL     2     -11.436  15.079  67.294  1.00  0.00    -0.304 C  
ENDROOT
BRANCH   3   6
HETATM    6  C   UNL     2     -10.911  13.685  65.250  1.00  0.00    -0.322 C  
BRANCH   6   7
HETATM    7  C   UNL     2     -12.432  13.803  65.059  1.00  0.00    -0.416 C  
HETATM    8  O   UNL     2     -13.064  12.552  64.824  1.00  0.00    -0.853 OA 
HETATM    9  H   UNL     2     -14.005  12.626  64.706  1.00  0.00     0.000 HD 
ENDBRANCH   6   7
ENDBRANCH   3   6
TORSDOF 2
ENDMDL
MODEL       25
REMARK 921   NORMALIZED FREE ENERGY PREDICTED BY IDOCK:   -2.79 KCAL/MOL
REMARK 922        TOTAL FREE ENERGY PREDICTED BY IDOCK:   -3.18 KCAL/MOL
REMARK 923 INTER-LIGAND FREE ENERGY PREDICTED BY IDOCK:   -3.11 KCAL/MOL
REMARK 924 INTRA-LIGAND FREE ENERGY PREDICTED BY IDOCK:   -0.07 KCAL/MOL
REMARK 927      BINDING AFFINITY PREDICTED BY RF-SCORE:    0.00 PKD
ROOT
HETATM    1 CL   UNL     1     -11.106  10.825  69.689  1.00  0.00    -0.310 Cl 
HETATM    2  C   UNL     2     -10.846   8.274  72.233  1.00  0.00    -0.338 C  
HETATM    3  N   UNL     2     -11.512   7.079  71.532  1.00  0.00    -0.259 N  
HETATM    4  C   UNL     2     -10.856   5.808  72.007  1.00  0.00    -0.251 C  
HETATM    5  C   UNL     2     -11.279   7.237  70.022  1.00  0.00    -0.209 C  
ENDROOT
BRANCH   3   6
HETATM    6  C   UNL     2     -13.014   7.148  71.860  1.00  0.00    -0.244 C  
BRANCH   6   7
HETATM    7  C   UNL     2     -13.632   8.554  71.784  1.00  0.00    -0.388 C  
HETATM    8  O   UNL     2     -14.349   8.913  72.958  1.00  0.00    -1.115 OA 
HETATM    9  H   UNL     2     -14.730   9.782  72.911  1.00  0.00     0.000 HD 
ENDBRANCH   6   7
ENDBRANCH   3   6
TORSDOF 2
ENDMDL
MODEL       26
REMARK 921   NORMALIZED FREE ENERGY PREDICTED BY IDOCK:   -2.79 KCAL/MOL
REMARK 922        TOTAL FREE ENERGY PREDICTED BY IDOCK:   -3.18 KCAL/MOL
REMARK 923 INTER-LIGAND FREE ENERGY PREDICTED BY IDOCK:   -3.10 KCAL/MOL
REMARK 924 INTRA-LIGAND FREE ENERGY PREDICTED BY IDOCK:   -0.08 KCAL/MOL
REMARK 927      BINDING AFFINITY PREDICTED BY RF-SCORE:    0.00 PKD
ROOT
HETATM    1 CL   UNL     1     -10.127  10.121  64.613  1.00  0.00    -0.331 Cl 
HETATM    2  C   UNL     2     -11.796  13.232  63.855  1.00  0.00    -0.465 C  
HETATM    3  N   UNL     2     -11.410  14.087  65.073  1.00  0.00    -0.328 N  
HETATM    4  C   UNL     2     -11.299  15.527  64.642  1.00  0.00    -0.357 C  
HETATM    5  C   UNL     2     -10.041  13.598  65.569  1.00  0.00    -0.275 C  
ENDROOT
BRANCH   3   6
HETATM    6  C   UNL     2     -12.491  13.855  66.144  1.00  0.00    -0.436 C  
BRANCH   6   7
HETATM    7  C   UNL     2     -11.985  13.892  67.596  1.00  0.00    -0.368 C  
HETATM    8  O   UNL     2     -12.141  15.164  68.209  1.00  0.00    -0.543 OA 
HETATM    9  H   UNL     2     -11.828  15.187  69.107  1.00  0.00     0.000 HD 
ENDBRANCH   6   7
ENDBRANCH   3   6
TORSDOF 2
ENDMDL
MODEL       27
REMARK 921   NORMALIZED FREE ENERGY PREDICTED BY IDOCK:   -2.75 KCAL/MOL
REMARK 922        TOTAL FREE ENERGY PREDICTED BY IDOCK:   -3.13 KCAL/MOL
REMARK 923 INTER-LIGAND FREE ENERGY PREDICTED BY IDOCK:   -3.11 KCAL/MOL
REMARK 924 INTRA-LIGAND FREE ENERGY PREDICTED BY IDOCK:   -0.02 KCAL/MOL
REMARK 927      BINDING AFFINITY PREDICTED BY RF-SCORE:    0.00 PKD
ROOT
HETATM    1 CL   UNL     1     -12.265  12.480  63.332  1.00  0.00    -0.632 Cl 
HETATM    2  C   UNL     2     -10.700  15.172  65.160  1.00  0.00    -0.422 C  
HETATM    3  N   UNL     2     -10.499  14.524  66.539  1.00  0.00    -0.281 N  
HETATM    4  C   UNL     2      -9.250  15.089  67.164  1.00  0.00    -0.216 C  
HETATM    5  C   UNL     2     -10.319  13.015  66.321  1.00  0.00    -0.285 C  
ENDROOT
BRANCH   3   6
HETATM    6  C   UNL     2     -11.771  14.808  67.358  1.00  0.00    -0.350 C  
BRANCH   6   7
HETATM    7  C   UNL     2     -11.714  14.351  68.825  1.00  0.00    -0.337 C  
HETATM    8  O   UNL     2     -12.729  14.935  69.631  1.00  0.00    -0.584 OA 
HETATM    9  H   UNL     2     -12.693  14.652  70.538  1.00  0.00     0.000 HD 
ENDBRANCH   6   7
ENDBRANCH   3   6
TORSDOF 2
ENDMDL
MODEL       28
REMARK 921   NORMALIZED FREE ENERGY PREDICTED BY IDOCK:   -2.74 KCAL/MOL
REMARK 922        TOTAL FREE ENERGY PREDICTED BY IDOCK:   -3.13 KCAL/MOL
REMARK 923 INTER-LIGAND FREE ENERGY PREDICTED BY IDOCK:   -3.09 KCAL/MOL
REMARK 924 INTRA-LIGAND FREE ENERGY PREDICTED BY IDOCK:   -0.04 KCAL/MOL
REMARK 927      BINDING AFFINITY PREDICTED BY RF-SCORE:    0.00 PKD
ROOT
HETATM    1 CL   UNL     1     -12.586  14.198  65.693  1.00  0.00    -0.512 Cl 
HETATM    2  C   UNL     2      -9.593  16.100  66.374  1.00  0.00    -0.287 C  
HETATM    3  N   UNL     2     -10.067  17.008  67.520  1.00  0.00    -0.285 N  
HETATM    4  C   UNL     2      -8.903  17.278  68.440  1.00  0.00    -0.269 C  
HETATM    5  C   UNL     2     -11.158  16.253  68.291  1.00  0.00    -0.346 C  
ENDROOT
BRANCH   3   6
HETATM    6  C   UNL     2     -10.639  18.282  66.875  1.00  0.00    -0.329 C  
BRANCH   6   7
HETATM    7  C   UNL     2     -10.289  19.592  67.601  1.00  0.00    -0.451 C  
HETATM    8  O   UNL     2      -9.895  20.633  66.717  1.00  0.00    -0.607 OA 
HETATM    9  H   UNL     2      -9.679  21.442  67.166  1.00  0.00     0.000 HD 
ENDBRANCH   6   7
ENDBRANCH   3   6
TORSDOF 2
ENDMDL
MODEL       29
REMARK 921   NORMALIZED FREE ENERGY PREDICTED BY IDOCK:   -2.74 KCAL/MOL
REMARK 922        TOTAL FREE ENERGY PREDICTED BY IDOCK:   -3.12 KCAL/MOL
REMARK 923 INTER-LIGAND FREE ENERGY PREDICTED BY IDOCK:   -3.09 KCAL/MOL
REMARK 924 INTRA-LIGAND FREE ENERGY PREDICTED BY IDOCK:   -0.03 KCAL/MOL
REMARK 927      BINDING AFFINITY PREDICTED BY RF-SCORE:    0.00 PKD
ROOT
HETATM    1 CL   UNL     1     -13.153  10.971  71.800  1.00  0.00    -0.585 Cl 
HETATM    2  C   UNL     2     -12.758   7.400  71.436  1.00  0.00    -0.369 C  
HETATM    3  N   UNL     2     -11.228   7.271  71.364  1.00  0.00    -0.244 N  
HETATM    4  C   UNL     2     -10.820   5.959  71.983  1.00  0.00    -0.252 C  
HETATM    5  C   UNL     2     -10.625   8.425  72.177  1.00  0.00    -0.329 C  
ENDROOT
BRANCH   3   6
HETATM    6  C   UNL     2     -10.838   7.390  69.880  1.00  0.00    -0.246 C  
BRANCH   6   7
HETATM    7  C   UNL     2     -11.150   6.151  69.025  1.00  0.00    -0.367 C  
HETATM    8  O   UNL     2     -11.518   6.472  67.690  1.00  0.00    -0.694 OA 
HETATM    9  H   UNL     2     -11.711   5.706  67.161  1.00  0.00     0.000 HD 
ENDBRANCH   6   7
ENDBRANCH   3   6
TORSDOF 2
ENDMDL
MODEL       30
REMARK 921   NORMALIZED FREE ENERGY PREDICTED BY IDOCK:   -2.73 KCAL/MOL
REMARK 922        TOTAL FREE ENERGY PREDICTED BY IDOCK:   -3.12 KCAL/MOL
REMARK 923 INTER-LIGAND FREE ENERGY PREDICTED BY IDOCK:   -3.01 KCAL/MOL
REMARK 924 INTRA-LIGAND FREE ENERGY PREDICTED BY IDOCK:   -0.11 KCAL/MOL
REMARK 927      BINDING AFFINITY PREDICTED BY RF-SCORE:    0.00 PKD
ROOT
HETATM    1 CL   UNL     1      -9.375   9.018  66.233  1.00  0.00    -0.259 Cl 
HETATM    2  C   UNL     2     -10.971  11.805  64.582  1.00  0.00    -0.310 C  
HETATM    3  N   UNL     2     -10.735  12.934  65.599  1.00  0.00    -0.270 N  
HETATM    4  C   UNL     2     -10.587  14.236  64.856  1.00  0.00    -0.431 C  
HETATM    5  C   UNL     2      -9.430  12.623  66.345  1.00  0.00    -0.231 C  
ENDROOT
BRANCH   3   6
HETATM    6  C   UNL     2     -11.931  12.920  66.568  1.00  0.00    -0.377 C  
BRANCH   6   7
HETATM    7  C   UNL     2     -11.661  12.245  67.924  1.00  0.00    -0.347 C  
HETATM    8  O   UNL     2     -12.077  10.886  67.964  1.00  0.00    -0.780 OA 
HETATM    9  H   UNL     2     -11.909  10.470  68.802  1.00  0.00     0.000 HD 
ENDBRANCH   6   7
ENDBRANCH   3   6
TORSDOF 2
ENDMDL
MODEL       31
REMARK 921   NORMALIZED FREE ENERGY PREDICTED BY IDOCK:   -2.73 KCAL/MOL
REMARK 922        TOTAL FREE ENERGY PREDICTED BY IDOCK:   -3.11 KCAL/MOL
REMARK 923 INTER-LIGAND FREE ENERGY PREDICTED BY IDOCK:   -3.05 KCAL/MOL
REMARK 924 INTRA-LIGAND FREE ENERGY PREDICTED BY IDOCK:   -0.07 KCAL/MOL
REMARK 927      BINDING AFFINITY PREDICTED BY RF-SCORE:    0.00 PKD
ROOT
HETATM    1 CL   UNL     1     -11.643  10.965  68.417  1.00  0.00    -0.374 Cl 
HETATM    2  C   UNL     2     -12.201  13.804  66.256  1.00  0.00    -0.447 C  
HETATM    3  N   UNL     2     -10.970  14.669  66.570  1.00  0.00    -0.313 N  
HETATM    4  C   UNL     2     -10.579  15.428  65.328  1.00  0.00    -0.428 C  
HETATM    5  C   UNL     2      -9.827  13.724  66.968  1.00  0.00    -0.251 C  
ENDROOT
BRANCH   3   6
HETATM    6  C   UNL     2     -11.353  15.584  67.746  1.00  0.00    -0.286 C  
BRANCH   6   7
HETATM    7  C   UNL     2     -11.679  14.852  69.059  1.00  0.00    -0.319 C  
HETATM    8  O   UNL     2     -12.838  15.358  69.708  1.00  0.00    -0.628 OA 
HETATM    9  H   UNL     2     -13.039  14.905  70.519  1.00  0.00     0.000 HD 
ENDBRANCH   6   7
ENDBRANCH   3   6
TORSDOF 2
ENDMDL
MODEL       32
REMARK 921   NORMALIZED FREE ENERGY PREDICTED BY IDOCK:   -2.71 KCAL/MOL
REMARK 922        TOTAL FREE ENERGY PREDICTED BY IDOCK:   -3.09 KCAL/MOL
REMARK 923 INTER-LIGAND FREE ENERGY PREDICTED BY IDOCK:   -3.08 KCAL/MOL
REMARK 924 INTRA-LIGAND FREE ENERGY PREDICTED BY IDOCK:   -0.01 KCAL/MOL
REMARK 927      BINDING AFFINITY PREDICTED BY RF-SCORE:    0.00 PKD
ROOT
HETATM    1 CL   UNL     1      -8.955  10.056  65.283  1.00  0.00    -0.199 Cl 
HETATM    2  C   UNL     2      -9.791  13.547  65.676  1.00  0.00    -0.167 C  
HETATM    3  N   UNL     2     -11.326  13.484  65.747  1.00  0.00    -0.303 N  
HETATM    4  C   UNL     2     -11.817  14.588  66.647  1.00  0.00    -0.366 C  
HETATM    5  C   UNL     2     -11.708  12.126  66.355  1.00  0.00    -0.324 C  
ENDROOT
BRANCH   3   6
HETATM    6  C   UNL     2     -11.846  13.599  64.303  1.00  0.00    -0.425 C  
BRANCH   6   7
HETATM    7  C   UNL     2     -12.771  12.456  63.853  1.00  0.00    -0.353 C  
HETATM    8  O   UNL     2     -12.104  11.470  63.077  1.00  0.00    -0.939 OA 
HETATM    9  H   UNL     2     -12.676  10.764  62.799  1.00  0.00     0.000 HD 
ENDBRANCH   6   7
ENDBRANCH   3   6
TORSDOF 2
ENDMDL
MODEL       33
REMARK 921   NORMALIZED FREE ENERGY PREDICTED BY IDOCK:   -2.68 KCAL/MOL
REMARK 922        TOTAL FREE ENERGY PREDICTED BY IDOCK:   -3.06 KCAL/MOL
REMARK 923 INTER-LIGAND FREE ENERGY PREDICTED BY IDOCK:   -3.03 KCAL/MOL
REMARK 924 INTRA-LIGAND FREE ENERGY PREDICTED BY IDOCK:   -0.03 KCAL/MOL
REMARK 927      BINDING AFFINITY PREDICTED BY RF-SCORE:    0.00 PKD
ROOT
HETATM    1 CL   UNL     1      -8.334  11.720  68.453  1.00  0.00    -0.154 Cl 
HETATM    2  C   UNL     2     -11.392  13.045  67.062  1.00  0.00    -0.301 C  
HETATM    3  N   UNL     2     -11.177  12.790  65.561  1.00  0.00    -0.287 N  
HETATM    4  C   UNL     2     -12.512  12.519  64.917  1.00  0.00    -0.450 C  
HETATM    5  C   UNL     2     -10.286  11.547  65.424  1.00  0.00    -0.273 C  
ENDROOT
BRANCH   3   6
HETATM    6  C   UNL     2     -10.468  14.032  64.992  1.00  0.00    -0.420 C  
BRANCH   6   7
HETATM    7  C   UNL     2     -11.402  15.188  64.596  1.00  0.00    -0.356 C  
HETATM    8  O   UNL     2     -10.787  16.465  64.702  1.00  0.00    -0.786 OA 
HETATM    9  H   UNL     2     -11.364  17.179  64.457  1.00  0.00     0.000 HD 
ENDBRANCH   6   7
ENDBRANCH   3   6
TORSDOF 2
ENDMDL
MODEL       34
REMARK 921   NORMALIZED FREE ENERGY PREDICTED BY IDOCK:   -2.67 KCAL/MOL
REMARK 922        TOTAL FREE ENERGY PREDICTED BY IDOCK:   -3.04 KCAL/MOL
REMARK 923 INTER-LIGAND FREE ENERGY PREDICTED BY IDOCK:   -3.02 KCAL/MOL
REMARK 924 INTRA-LIGAND FREE ENERGY PREDICTED BY IDOCK:   -0.02 KCAL/MOL
REMARK 927      BINDING AFFINITY PREDICTED BY RF-SCORE:    0.00 PKD
ROOT
HETATM    1 CL   UNL     1      -7.182   8.242  73.561  1.00  0.00    -0.170 Cl 
HETATM    2  C   UNL     2      -9.992   6.364  72.287  1.00  0.00    -0.164 C  
HETATM    3  N   UNL     2     -10.843   7.481  71.661  1.00  0.00    -0.219 N  
HETATM    4  C   UNL     2     -11.574   6.924  70.466  1.00  0.00    -0.346 C  
HETATM    5  C   UNL     2      -9.887   8.590  71.199  1.00  0.00    -0.206 C  
ENDROOT
BRANCH   3   6
HETATM    6  C   UNL     2     -11.784   7.998  72.763  1.00  0.00    -0.290 C  
BRANCH   6   7
HETATM    7  C   UNL     2     -12.954   8.863  72.265  1.00  0.00    -0.419 C  
HETATM    8  O   UNL     2     -14.013   8.967  73.208  1.00  0.00    -1.205 OA 
HETATM    9  H   UNL     2     -14.736   9.502  72.899  1.00  0.00     0.000 HD 
ENDBRANCH   6   7
ENDBRANCH   3   6
TORSDOF 2
ENDMDL
MODEL       35
REMARK 921   NORMALIZED FREE ENERGY PREDICTED BY IDOCK:   -2.66 KCAL/MOL
REMARK 922        TOTAL FREE ENERGY PREDICTED BY IDOCK:   -3.04 KCAL/MOL
REMARK 923 INTER-LIGAND FREE ENERGY PREDICTED BY IDOCK:   -2.98 KCAL/MOL
REMARK 924 INTRA-LIGAND FREE ENERGY PREDICTED BY IDOCK:   -0.06 KCAL/MOL
REMARK 927      BINDING AFFINITY PREDICTED BY RF-SCORE:    0.00 PKD
ROOT
HETATM    1 CL   UNL     1     -12.529  12.211  63.546  1.00  0.00    -0.685 Cl 
HETATM    2  C   UNL     2     -12.016  13.839  66.729  1.00  0.00    -0.426 C  
HETATM    3  N   UNL     2     -10.795  14.721  66.424  1.00  0.00    -0.316 N  
HETATM    4  C   UNL     2     -10.886  15.980  67.247  1.00  0.00    -0.255 C  
HETATM    5  C   UNL     2     -10.843  15.083  64.933  1.00  0.00    -0.411 C  
ENDROOT
BRANCH   3   6
HETATM    6  C   UNL     2      -9.545  13.879  66.738  1.00  0.00    -0.283 C  
BRANCH   6   7
HETATM    7  C   UNL     2      -9.211  13.746  68.234  1.00  0.00    -0.204 C  
HETATM    8  O   UNL     2      -9.367  12.421  68.725  1.00  0.00    -0.396 OA 
HETATM    9  H   UNL     2      -9.160  12.340  69.649  1.00  0.00     0.000 HD 
ENDBRANCH   6   7
ENDBRANCH   3   6
TORSDOF 2
ENDMDL
MODEL       36
REMARK 921   NORMALIZED FREE ENERGY PREDICTED BY IDOCK:   -2.66 KCAL/MOL
REMARK 922        TOTAL FREE ENERGY PREDICTED BY IDOCK:   -3.03 KCAL/MOL
REMARK 923 INTER-LIGAND FREE ENERGY PREDICTED BY IDOCK:   -2.98 KCAL/MOL
REMARK 924 INTRA-LIGAND FREE ENERGY PREDICTED BY IDOCK:   -0.05 KCAL/MOL
REMARK 927      BINDING AFFINITY PREDICTED BY RF-SCORE:    0.00 PKD
ROOT
HETATM    1 CL   UNL     1      -7.960  12.740  67.180  1.00  0.00    -0.147 Cl 
HETATM    2  C   UNL     2     -11.153  11.579  65.955  1.00  0.00    -0.230 C  
HETATM    3  N   UNL     2     -11.609  12.781  65.114  1.00  0.00    -0.323 N  
HETATM    4  C   UNL     2     -12.429  12.280  63.953  1.00  0.00    -0.485 C  
HETATM    5  C   UNL     2     -10.350  13.482  64.582  1.00  0.00    -0.385 C  
ENDROOT
BRANCH   3   6
HETATM    6  C   UNL     2     -12.394  13.714  66.054  1.00  0.00    -0.445 C  
BRANCH   6   7
HETATM    7  C   UNL     2     -11.642  14.134  67.329  1.00  0.00    -0.373 C  
HETATM    8  O   UNL     2     -12.496  14.669  68.331  1.00  0.00    -0.594 OA 
HETATM    9  H   UNL     2     -12.031  14.928  69.118  1.00  0.00     0.000 HD 
ENDBRANCH   6   7
ENDBRANCH   3   6
TORSDOF 2
ENDMDL
MODEL       37
REMARK 921   NORMALIZED FREE ENERGY PREDICTED BY IDOCK:   -2.65 KCAL/MOL
REMARK 922        TOTAL FREE ENERGY PREDICTED BY IDOCK:   -3.03 KCAL/MOL
REMARK 923 INTER-LIGAND FREE ENERGY PREDICTED BY IDOCK:   -2.92 KCAL/MOL
REMARK 924 INTRA-LIGAND FREE ENERGY PREDICTED BY IDOCK:   -0.11 KCAL/MOL
REMARK 927      BINDING AFFINITY PREDICTED BY RF-SCORE:    0.00 PKD
ROOT
HETATM    1 CL   UNL     1     -10.475   8.281  67.184  1.00  0.00    -0.388 Cl 
HETATM    2  C   UNL     2      -9.660   9.030  70.622  1.00  0.00    -0.237 C  
HETATM    3  N   UNL     2     -10.913   8.514  71.349  1.00  0.00    -0.248 N  
HETATM    4  C   UNL     2     -10.511   8.004  72.709  1.00  0.00    -0.345 C  
HETATM    5  C   UNL     2     -11.487   7.356  70.521  1.00  0.00    -0.255 C  
ENDROOT
BRANCH   3   6
HETATM    6  C   UNL     2     -11.909   9.686  71.409  1.00  0.00    -0.406 C  
BRANCH   6   7
HETATM    7  C   UNL     2     -11.738  10.741  70.303  1.00  0.00    -0.352 C  
HETATM    8  O   UNL     2     -12.730  10.654  69.289  1.00  0.00    -0.689 OA 
HETATM    9  H   UNL     2     -12.624  11.306  68.606  1.00  0.00     0.000 HD 
ENDBRANCH   6   7
ENDBRANCH   3   6
TORSDOF 2
ENDMDL
MODEL       38
REMARK 921   NORMALIZED FREE ENERGY PREDICTED BY IDOCK:   -2.65 KCAL/MOL
REMARK 922        TOTAL FREE ENERGY PREDICTED BY IDOCK:   -3.03 KCAL/MOL
REMARK 923 INTER-LIGAND FREE ENERGY PREDICTED BY IDOCK:   -2.97 KCAL/MOL
REMARK 924 INTRA-LIGAND FREE ENERGY PREDICTED BY IDOCK:   -0.06 KCAL/MOL
REMARK 927      BINDING AFFINITY PREDICTED BY RF-SCORE:    0.00 PKD
ROOT
HETATM    1 CL   UNL     1     -10.190  16.960  67.710  1.00  0.00    -0.296 Cl 
HETATM    2  C   UNL     2     -11.967  14.036  68.867  1.00  0.00    -0.352 C  
HETATM    3  N   UNL     2     -11.190  12.912  68.163  1.00  0.00    -0.253 N  
HETATM    4  C   UNL     2     -11.203  11.687  69.040  1.00  0.00    -0.262 C  
HETATM    5  C   UNL     2      -9.742  13.390  67.980  1.00  0.00    -0.222 C  
ENDROOT
BRANCH   3   6
HETATM    6  C   UNL     2     -11.865  12.689  66.797  1.00  0.00    -0.370 C  
BRANCH   6   7
HETATM    7  C   UNL     2     -12.165  13.972  66.004  1.00  0.00    -0.458 C  
HETATM    8  O   UNL     2     -13.244  13.824  65.090  1.00  0.00    -0.757 OA 
HETATM    9  H   UNL     2     -13.429  14.617  64.600  1.00  0.00     0.000 HD 
ENDBRANCH   6   7
ENDBRANCH   3   6
TORSDOF 2
ENDMDL
MODEL       39
REMARK 921   NORMALIZED FREE ENERGY PREDICTED BY IDOCK:   -2.64 KCAL/MOL
REMARK 922        TOTAL FREE ENERGY PREDICTED BY IDOCK:   -3.02 KCAL/MOL
REMARK 923 INTER-LIGAND FREE ENERGY PREDICTED BY IDOCK:   -2.96 KCAL/MOL
REMARK 924 INTRA-LIGAND FREE ENERGY PREDICTED BY IDOCK:   -0.05 KCAL/MOL
REMARK 927      BINDING AFFINITY PREDICTED BY RF-SCORE:    0.00 PKD
ROOT
HETATM    1 CL   UNL     1     -10.516   4.610  72.139  1.00  0.00    -0.249 Cl 
HETATM    2  C   UNL     2     -11.177   8.098  72.804  1.00  0.00    -0.337 C  
HETATM    3  N   UNL     2     -12.205   8.425  71.709  1.00  0.00    -0.311 N  
HETATM    4  C   UNL     2     -13.157   9.470  72.231  1.00  0.00    -0.408 C  
HETATM    5  C   UNL     2     -12.983   7.138  71.402  1.00  0.00    -0.368 C  
ENDROOT
BRANCH   3   6
HETATM    6  C   UNL     2     -11.411   8.888  70.474  1.00  0.00    -0.200 C  
BRANCH   6   7
HETATM    7  C   UNL     2     -11.607  10.365  70.093  1.00  0.00    -0.312 C  
HETATM    8  O   UNL     2     -12.405  10.541  68.929  1.00  0.00    -0.779 OA 
HETATM    9  H   UNL     2     -12.526  11.454  68.694  1.00  0.00     0.000 HD 
ENDBRANCH   6   7
ENDBRANCH   3   6
TORSDOF 2
ENDMDL
MODEL       40
REMARK 921   NORMALIZED FREE ENERGY PREDICTED BY IDOCK:   -2.61 KCAL/MOL
REMARK 922        TOTAL FREE ENERGY PREDICTED BY IDOCK:   -2.98 KCAL/MOL
REMARK 923 INTER-LIGAND FREE ENERGY PREDICTED BY IDOCK:   -2.92 KCAL/MOL
REMARK 924 INTRA-LIGAND FREE ENERGY PREDICTED BY IDOCK:   -0.05 KCAL/MOL
REMARK 927      BINDING AFFINITY PREDICTED BY RF-SCORE:    0.00 PKD
ROOT
HETATM    1 CL   UNL     1     -11.374   4.262  73.374  1.00  0.00    -0.366 Cl 
HETATM    2  C   UNL     2     -10.820   7.786  72.813  1.00  0.00    -0.379 C  
HETATM    3  N   UNL     2     -11.661   8.027  71.550  1.00  0.00    -0.274 N  
HETATM    4  C   UNL     2     -12.208   9.431  71.589  1.00  0.00    -0.390 C  
HETATM    5  C   UNL     2     -12.826   7.027  71.569  1.00  0.00    -0.372 C  
ENDROOT
BRANCH   3   6
HETATM    6  C   UNL     2     -10.741   7.767  70.343  1.00  0.00    -0.236 C  
BRANCH   6   7
HETATM    7  C   UNL     2     -10.959   6.417  69.639  1.00  0.00    -0.358 C  
HETATM    8  O   UNL     2     -11.437   6.552  68.307  1.00  0.00    -0.546 OA 
HETATM    9  H   UNL     2     -11.571   5.718  67.872  1.00  0.00     0.000 HD 
ENDBRANCH   6   7
ENDBRANCH   3   6
TORSDOF 2
ENDMDL
MODEL       41
REMARK 921   NORMALIZED FREE ENERGY PREDICTED BY IDOCK:   -2.59 KCAL/MOL
REMARK 922        TOTAL FREE ENERGY PREDICTED BY IDOCK:   -2.95 KCAL/MOL
REMARK 923 INTER-LIGAND FREE ENERGY PREDICTED BY IDOCK:   -2.84 KCAL/MOL
REMARK 924 INTRA-LIGAND FREE ENERGY PREDICTED BY IDOCK:   -0.12 KCAL/MOL
REMARK 927      BINDING AFFINITY PREDICTED BY RF-SCORE:    0.00 PKD
ROOT
HETATM    1 CL   UNL     1      -9.424  10.895  68.301  1.00  0.00    -0.161 Cl 
HETATM    2  C   UNL     2     -11.877  12.389  66.110  1.00  0.00    -0.376 C  
HETATM    3  N   UNL     2     -11.139  12.353  64.762  1.00  0.00    -0.294 N  
HETATM    4  C   UNL     2     -12.150  12.170  63.659  1.00  0.00    -0.551 C  
HETATM    5  C   UNL     2     -10.189  11.148  64.784  1.00  0.00    -0.306 C  
ENDROOT
BRANCH   3   6
HETATM    6  C   UNL     2     -10.348  13.668  64.649  1.00  0.00    -0.384 C  
BRANCH   6   7
HETATM    7  C   UNL     2      -9.933  14.294  65.992  1.00  0.00    -0.319 C  
HETATM    8  O   UNL     2      -8.667  13.839  66.452  1.00  0.00    -0.446 OA 
HETATM    9  H   UNL     2      -8.411  14.226  67.282  1.00  0.00     0.000 HD 
ENDBRANCH   6   7
ENDBRANCH   3   6
TORSDOF 2
ENDMDL
MODEL       42
REMARK 921   NORMALIZED FREE ENERGY PREDICTED BY IDOCK:   -2.58 KCAL/MOL
REMARK 922        TOTAL FREE ENERGY PREDICTED BY IDOCK:   -2.95 KCAL/MOL
REMARK 923 INTER-LIGAND FREE ENERGY PREDICTED BY IDOCK:   -2.90 KCAL/MOL
REMARK 924 INTRA-LIGAND FREE ENERGY PREDICTED BY IDOCK:   -0.04 KCAL/MOL
REMARK 927      BINDING AFFINITY PREDICTED BY RF-SCORE:    0.00 PKD
ROOT
HETATM    1 CL   UNL     1      -6.248  20.743  64.782  1.00  0.00    -0.316 Cl 
HETATM    2  C   UNL     2      -9.418  20.044  66.365  1.00  0.00    -0.403 C  
HETATM    3  N   UNL     2      -8.993  19.072  67.477  1.00  0.00    -0.290 N  
HETATM    4  C   UNL     2      -9.900  19.264  68.665  1.00  0.00    -0.431 C  
HETATM    5  C   UNL     2      -7.552  19.423  67.876  1.00  0.00    -0.281 C  
ENDROOT
BRANCH   3   6
HETATM    6  C   UNL     2      -9.062  17.654  66.883  1.00  0.00    -0.253 C  
BRANCH   6   7
HETATM    7  C   UNL     2     -10.482  17.141  66.588  1.00  0.00    -0.259 C  
HETATM    8  O   UNL     2     -10.770  17.065  65.198  1.00  0.00    -0.672 OA 
HETATM    9  H   UNL     2     -11.648  16.749  65.016  1.00  0.00     0.000 HD 
ENDBRANCH   6   7
ENDBRANCH   3   6
TORSDOF 2
ENDMDL
MODEL       43
REMARK 921   NORMALIZED FREE ENERGY PREDICTED BY IDOCK:   -2.58 KCAL/MOL
REMARK 922        TOTAL FREE ENERGY PREDICTED BY IDOCK:   -2.94 KCAL/MOL
REMARK 923 INTER-LIGAND FREE ENERGY PREDICTED BY IDOCK:   -2.90 KCAL/MOL
REMARK 924 INTRA-LIGAND FREE ENERGY PREDICTED BY IDOCK:   -0.05 KCAL/MOL
REMARK 927      BINDING AFFINITY PREDICTED BY RF-SCORE:    0.00 PKD
ROOT
HETATM    1 CL   UNL     1      -8.975  17.114  68.482  1.00  0.00    -0.259 Cl 
HETATM    2  C   UNL     2      -9.835  13.609  68.367  1.00  0.00    -0.223 C  
HETATM    3  N   UNL     2     -11.351  13.678  68.122  1.00  0.00    -0.271 N  
HETATM    4  C   UNL     2     -11.766  12.489  67.295  1.00  0.00    -0.362 C  
HETATM    5  C   UNL     2     -11.638  14.966  67.339  1.00  0.00    -0.332 C  
ENDROOT
BRANCH   3   6
HETATM    6  C   UNL     2     -12.026  13.721  69.505  1.00  0.00    -0.345 C  
BRANCH   6   7
HETATM    7  C   UNL     2     -12.069  15.110  70.164  1.00  0.00    -0.343 C  
HETATM    8  O   UNL     2     -13.380  15.652  70.241  1.00  0.00    -0.761 OA 
HETATM    9  H   UNL     2     -13.406  16.510  70.649  1.00  0.00     0.000 HD 
ENDBRANCH   6   7
ENDBRANCH   3   6
TORSDOF 2
ENDMDL
MODEL       44
REMARK 921   NORMALIZED FREE ENERGY PREDICTED BY IDOCK:   -2.57 KCAL/MOL
REMARK 922        TOTAL FREE ENERGY PREDICTED BY IDOCK:   -2.93 KCAL/MOL
REMARK 923 INTER-LIGAND FREE ENERGY PREDICTED BY IDOCK:   -2.86 KCAL/MOL
REMARK 924 INTRA-LIGAND FREE ENERGY PREDICTED BY IDOCK:   -0.07 KCAL/MOL
REMARK 927      BINDING AFFINITY PREDICTED BY RF-SCORE:    0.00 PKD
ROOT
HETATM    1 CL   UNL     1     -11.827  11.331  69.124  1.00  0.00    -0.394 Cl 
HETATM    2  C   UNL     2     -12.144  14.211  66.969  1.00  0.00    -0.414 C  
HETATM    3  N   UNL     2     -11.465  13.705  65.686  1.00  0.00    -0.305 N  
HETATM    4  C   UNL     2     -12.132  14.346  64.496  1.00  0.00    -0.481 C  
HETATM    5  C   UNL     2     -11.666  12.184  65.622  1.00  0.00    -0.323 C  
ENDROOT
BRANCH   3   6
HETATM    6  C   UNL     2      -9.970  14.052  65.804  1.00  0.00    -0.298 C  
BRANCH   6   7
HETATM    7  C   UNL     2      -9.229  13.351  66.955  1.00  0.00    -0.242 C  
HETATM    8  O   UNL     2      -8.124  12.572  66.516  1.00  0.00    -0.401 OA 
HETATM    9  H   UNL     2      -7.667  12.139  67.228  1.00  0.00     0.000 HD 
ENDBRANCH   6   7
ENDBRANCH   3   6
TORSDOF 2
ENDMDL
MODEL       45
REMARK 921   NORMALIZED FREE ENERGY PREDICTED BY IDOCK:   -2.55 KCAL/MOL
REMARK 922        TOTAL FREE ENERGY PREDICTED BY IDOCK:   -2.91 KCAL/MOL
REMARK 923 INTER-LIGAND FREE ENERGY PREDICTED BY IDOCK:   -2.84 KCAL/MOL
REMARK 924 INTRA-LIGAND FREE ENERGY PREDICTED BY IDOCK:   -0.07 KCAL/MOL
REMARK 927      BINDING AFFINITY PREDICTED BY RF-SCORE:    0.00 PKD
ROOT
HETATM    1 CL   UNL     1     -12.245  14.087  70.037  1.00  0.00    -0.398 Cl 
HETATM    2  C   UNL     2     -10.770  15.982  67.340  1.00  0.00    -0.306 C  
HETATM    3  N   UNL     2     -10.984  15.031  66.151  1.00  0.00    -0.332 N  
HETATM    4  C   UNL     2     -11.186  15.851  64.903  1.00  0.00    -0.337 C  
HETATM    5  C   UNL     2     -12.251  14.213  66.432  1.00  0.00    -0.446 C  
ENDROOT
BRANCH   3   6
HETATM    6  C   UNL     2      -9.749  14.115  66.083  1.00  0.00    -0.290 C  
BRANCH   6   7
HETATM    7  C   UNL     2     -10.042  12.658  65.687  1.00  0.00    -0.272 C  
HETATM    8  O   UNL     2     -10.140  12.470  64.281  1.00  0.00    -0.461 OA 
HETATM    9  H   UNL     2     -10.321  11.570  64.037  1.00  0.00     0.000 HD 
ENDBRANCH   6   7
ENDBRANCH   3   6
TORSDOF 2
ENDMDL
MODEL       46
REMARK 921   NORMALIZED FREE ENERGY PREDICTED BY IDOCK:   -2.55 KCAL/MOL
REMARK 922        TOTAL FREE ENERGY PREDICTED BY IDOCK:   -2.91 KCAL/MOL
REMARK 923 INTER-LIGAND FREE ENERGY PREDICTED BY IDOCK:   -2.87 KCAL/MOL
REMARK 924 INTRA-LIGAND FREE ENERGY PREDICTED BY IDOCK:   -0.04 KCAL/MOL
REMARK 927      BINDING AFFINITY PREDICTED BY RF-SCORE:    0.00 PKD
ROOT
HETATM    1 CL   UNL     1      -9.868  11.148  68.716  1.00  0.00    -0.207 Cl 
HETATM    2  C   UNL     2     -10.292   9.192  71.722  1.00  0.00    -0.260 C  
HETATM    3  N   UNL     2     -11.077   7.983  71.187  1.00  0.00    -0.247 N  
HETATM    4  C   UNL     2     -10.693   6.763  71.985  1.00  0.00    -0.218 C  
HETATM    5  C   UNL     2     -10.673   7.778  69.720  1.00  0.00    -0.236 C  
ENDROOT
BRANCH   3   6
HETATM    6  C   UNL     2     -12.571   8.336  71.296  1.00  0.00    -0.221 C  
BRANCH   6   7
HETATM    7  C   UNL     2     -12.920   9.355  72.393  1.00  0.00    -0.351 C  
HETATM    8  O   UNL     2     -14.058   8.982  73.160  1.00  0.00    -1.130 OA 
HETATM    9  H   UNL     2     -14.273   9.612  73.838  1.00  0.00     0.000 HD 
ENDBRANCH   6   7
ENDBRANCH   3   6
TORSDOF 2
ENDMDL
MODEL       47
REMARK 921   NORMALIZED FREE ENERGY PREDICTED BY IDOCK:   -2.55 KCAL/MOL
REMARK 922        TOTAL FREE ENERGY PREDICTED BY IDOCK:   -2.91 KCAL/MOL
REMARK 923 INTER-LIGAND FREE ENERGY PREDICTED BY IDOCK:   -2.86 KCAL/MOL
REMARK 924 INTRA-LIGAND FREE ENERGY PREDICTED BY IDOCK:   -0.04 KCAL/MOL
REMARK 927      BINDING AFFINITY PREDICTED BY RF-SCORE:    0.00 PKD
ROOT
HETATM    1 CL   UNL     1      -8.180  11.765  67.925  1.00  0.00    -0.139 Cl 
HETATM    2  C   UNL     2     -11.632  12.365  67.047  1.00  0.00    -0.365 C  
HETATM    3  N   UNL     2     -11.575  13.830  66.585  1.00  0.00    -0.351 N  
HETATM    4  C   UNL     2     -12.603  14.038  65.503  1.00  0.00    -0.516 C  
HETATM    5  C   UNL     2     -10.174  14.083  66.011  1.00  0.00    -0.304 C  
ENDROOT
BRANCH   3   6
HETATM    6  C   UNL     2     -11.819  14.702  67.830  1.00  0.00    -0.320 C  
BRANCH   6   7
HETATM    7  C   UNL     2     -11.925  13.927  69.155  1.00  0.00    -0.363 C  
HETATM    8  O   UNL     2     -12.954  14.415  70.006  1.00  0.00    -0.507 OA 
HETATM    9  H   UNL     2     -13.019  13.936  70.824  1.00  0.00     0.000 HD 
ENDBRANCH   6   7
ENDBRANCH   3   6
TORSDOF 2
ENDMDL
MODEL       48
REMARK 921   NORMALIZED FREE ENERGY PREDICTED BY IDOCK:   -2.54 KCAL/MOL
REMARK 922        TOTAL FREE ENERGY PREDICTED BY IDOCK:   -2.90 KCAL/MOL
REMARK 923 INTER-LIGAND FREE ENERGY PREDICTED BY IDOCK:   -2.86 KCAL/MOL
REMARK 924 INTRA-LIGAND FREE ENERGY PREDICTED BY IDOCK:   -0.04 KCAL/MOL
REMARK 927      BINDING AFFINITY PREDICTED BY RF-SCORE:    0.00 PKD
ROOT
HETATM    1 CL   UNL     1      -7.820  16.271  66.597  1.00  0.00    -0.299 Cl 
HETATM    2  C   UNL     2     -11.074  16.061  68.148  1.00  0.00    -0.344 C  
HETATM    3  N   UNL     2     -11.264  14.539  68.248  1.00  0.00    -0.265 N  
HETATM    4  C   UNL     2     -12.077  14.230  69.478  1.00  0.00    -0.330 C  
HETATM    5  C   UNL     2      -9.872  13.905  68.386  1.00  0.00    -0.229 C  
ENDROOT
BRANCH   3   6
HETATM    6  C   UNL     2     -11.940  14.086  66.942  1.00  0.00    -0.447 C  
BRANCH   6   7
HETATM    7  C   UNL     2     -11.452  12.735  66.392  1.00  0.00    -0.357 C  
HETATM    8  O   UNL     2     -12.013  11.620  67.071  1.00  0.00    -0.593 OA 
HETATM    9  H   UNL     2     -11.711  10.785  66.731  1.00  0.00     0.000 HD 
ENDBRANCH   6   7
ENDBRANCH   3   6
TORSDOF 2
ENDMDL
MODEL       49
REMARK 921   NORMALIZED FREE ENERGY PREDICTED BY IDOCK:   -2.53 KCAL/MOL
REMARK 922        TOTAL FREE ENERGY PREDICTED BY IDOCK:   -2.89 KCAL/MOL
REMARK 923 INTER-LIGAND FREE ENERGY PREDICTED BY IDOCK:   -2.79 KCAL/MOL
REMARK 924 INTRA-LIGAND FREE ENERGY PREDICTED BY IDOCK:   -0.10 KCAL/MOL
REMARK 927      BINDING AFFINITY PREDICTED BY RF-SCORE:    0.00 PKD
ROOT
HETATM    1 CL   UNL     1     -14.304   7.555  71.439  1.00  0.00    -0.566 Cl 
HETATM    2  C   UNL     2     -11.627   9.939  70.999  1.00  0.00    -0.389 C  
HETATM    3  N   UNL     2     -10.438   9.008  70.712  1.00  0.00    -0.223 N  
HETATM    4  C   UNL     2      -9.488   9.706  69.773  1.00  0.00    -0.220 C  
HETATM    5  C   UNL     2     -10.988   7.746  70.032  1.00  0.00    -0.214 C  
ENDROOT
BRANCH   3   6
HETATM    6  C   UNL     2      -9.804   8.660  72.071  1.00  0.00    -0.325 C  
BRANCH   6   7
HETATM    7  C   UNL     2     -10.302   7.350  72.704  1.00  0.00    -0.244 C  
HETATM    8  O   UNL     2     -11.467   7.522  73.500  1.00  0.00    -0.608 OA 
HETATM    9  H   UNL     2     -11.774   6.712  73.890  1.00  0.00     0.000 HD 
ENDBRANCH   6   7
ENDBRANCH   3   6
TORSDOF 2
ENDMDL
MODEL       50
REMARK 921   NORMALIZED FREE ENERGY PREDICTED BY IDOCK:   -2.52 KCAL/MOL
REMARK 922        TOTAL FREE ENERGY PREDICTED BY IDOCK:   -2.88 KCAL/MOL
REMARK 923 INTER-LIGAND FREE ENERGY PREDICTED BY IDOCK:   -2.80 KCAL/MOL
REMARK 924 INTRA-LIGAND FREE ENERGY PREDICTED BY IDOCK:   -0.08 KCAL/MOL
REMARK 927      BINDING AFFINITY PREDICTED BY RF-SCORE:    0.00 PKD
ROOT
HETATM    1 CL   UNL     1      -6.312  19.892  69.868  1.00  0.00    -0.386 Cl 
HETATM    2  C   UNL     2      -8.240  20.054  66.819  1.00  0.00    -0.318 C  
HETATM    3  N   UNL     2      -9.404  19.105  67.146  1.00  0.00    -0.304 N  
HETATM    4  C   UNL     2     -10.643  19.593  66.440  1.00  0.00    -0.486 C  
HETATM    5  C   UNL     2      -9.632  19.155  68.664  1.00  0.00    -0.413 C  
ENDROOT
BRANCH   3   6
HETATM    6  C   UNL     2      -8.970  17.695  66.708  1.00  0.00    -0.257 C  
BRANCH   6   7
HETATM    7  C   UNL     2     -10.108  16.791  66.206  1.00  0.00    -0.326 C  
HETATM    8  O   UNL     2     -10.649  15.958  67.222  1.00  0.00    -0.306 OA 
HETATM    9  H   UNL     2     -11.353  15.400  66.911  1.00  0.00     0.000 HD 
ENDBRANCH   6   7
ENDBRANCH   3   6
TORSDOF 2
ENDMDL
MODEL       51
REMARK 921   NORMALIZED FREE ENERGY PREDICTED BY IDOCK:   -2.52 KCAL/MOL
REMARK 922        TOTAL FREE ENERGY PREDICTED BY IDOCK:   -2.88 KCAL/MOL
REMARK 923 INTER-LIGAND FREE ENERGY PREDICTED BY IDOCK:   -2.86 KCAL/MOL
REMARK 924 INTRA-LIGAND FREE ENERGY PREDICTED BY IDOCK:   -0.02 KCAL/MOL
REMARK 927      BINDING AFFINITY PREDICTED BY RF-SCORE:    0.00 PKD
ROOT
HETATM    1 CL   UNL     1     -10.593  19.725  65.831  1.00  0.00    -0.608 Cl 
HETATM    2  C   UNL     2      -8.943  17.956  68.512  1.00  0.00    -0.286 C  
HETATM    3  N   UNL     2      -9.650  16.592  68.454  1.00  0.00    -0.226 N  
HETATM    4  C   UNL     2      -8.675  15.521  68.871  1.00  0.00    -0.206 C  
HETATM    5  C   UNL     2     -10.077  16.351  66.999  1.00  0.00    -0.272 C  
ENDROOT
BRANCH   3   6
HETATM    6  C   UNL     2     -10.881  16.685  69.373  1.00  0.00    -0.295 C  
BRANCH   6   7
HETATM    7  C   UNL     2     -11.843  15.488  69.295  1.00  0.00    -0.353 C  
HETATM    8  O   UNL     2     -12.820  15.487  70.327  1.00  0.00    -0.609 OA 
HETATM    9  H   UNL     2     -13.414  14.747  70.278  1.00  0.00     0.000 HD 
ENDBRANCH   6   7
ENDBRANCH   3   6
TORSDOF 2
ENDMDL
MODEL       52
REMARK 921   NORMALIZED FREE ENERGY PREDICTED BY IDOCK:   -2.52 KCAL/MOL
REMARK 922        TOTAL FREE ENERGY PREDICTED BY IDOCK:   -2.87 KCAL/MOL
REMARK 923 INTER-LIGAND FREE ENERGY PREDICTED BY IDOCK:   -2.85 KCAL/MOL
REMARK 924 INTRA-LIGAND FREE ENERGY PREDICTED BY IDOCK:   -0.02 KCAL/MOL
REMARK 927      BINDING AFFINITY PREDICTED BY RF-SCORE:    0.00 PKD
ROOT
HETATM    1 CL   UNL     1     -11.765  14.628  67.197  1.00  0.00    -0.401 Cl 
HETATM    2  C   UNL     2     -10.408  17.884  66.423  1.00  0.00    -0.365 C  
HETATM    3  N   UNL     2      -9.039  17.813  67.119  1.00  0.00    -0.242 N  
HETATM    4  C   UNL     2      -8.050  18.633  66.331  1.00  0.00    -0.281 C  
HETATM    5  C   UNL     2      -8.593  16.344  67.121  1.00  0.00    -0.181 C  
ENDROOT
BRANCH   3   6
HETATM    6  C   UNL     2      -9.240  18.322  68.557  1.00  0.00    -0.318 C  
BRANCH   6   7
HETATM    7  C   UNL     2     -10.056  19.620  68.679  1.00  0.00    -0.447 C  
HETATM    8  O   UNL     2     -10.330  19.984  70.026  1.00  0.00    -0.614 OA 
HETATM    9  H   UNL     2     -10.834  20.786  70.101  1.00  0.00     0.000 HD 
ENDBRANCH   6   7
ENDBRANCH   3   6
TORSDOF 2
ENDMDL
MODEL       53
REMARK 921   NORMALIZED FREE ENERGY PREDICTED BY IDOCK:   -2.51 KCAL/MOL
REMARK 922        TOTAL FREE ENERGY PREDICTED BY IDOCK:   -2.87 KCAL/MOL
REMARK 923 INTER-LIGAND FREE ENERGY PREDICTED BY IDOCK:   -2.80 KCAL/MOL
REMARK 924 INTRA-LIGAND FREE ENERGY PREDICTED BY IDOCK:   -0.07 KCAL/MOL
REMARK 927      BINDING AFFINITY PREDICTED BY RF-SCORE:    0.00 PKD
ROOT
HETATM    1 CL   UNL     1      -7.683   6.420  70.281  1.00  0.00    -0.096 Cl 
HETATM    2  C   UNL     2      -9.862   8.552  72.217  1.00  0.00    -0.313 C  
HETATM    3  N   UNL     2     -11.038   8.743  71.246  1.00  0.00    -0.257 N  
HETATM    4  C   UNL     2     -12.309   8.888  72.043  1.00  0.00    -0.390 C  
HETATM    5  C   UNL     2     -11.129   7.485  70.371  1.00  0.00    -0.261 C  
ENDROOT
BRANCH   3   6
HETATM    6  C   UNL     2     -10.715   9.979  70.388  1.00  0.00    -0.307 C  
BRANCH   6   7
HETATM    7  C   UNL     2     -11.926  10.858  70.031  1.00  0.00    -0.350 C  
HETATM    8  O   UNL     2     -12.315  10.746  68.669  1.00  0.00    -0.825 OA 
HETATM    9  H   UNL     2     -13.064  11.288  68.449  1.00  0.00     0.000 HD 
ENDBRANCH   6   7
ENDBRANCH   3   6
TORSDOF 2
ENDMDL
MODEL       54
REMARK 921   NORMALIZED FREE ENERGY PREDICTED BY IDOCK:   -2.48 KCAL/MOL
REMARK 922        TOTAL FREE ENERGY PREDICTED BY IDOCK:   -2.83 KCAL/MOL
REMARK 923 INTER-LIGAND FREE ENERGY PREDICTED BY IDOCK:   -2.73 KCAL/MOL
REMARK 924 INTRA-LIGAND FREE ENERGY PREDICTED BY IDOCK:   -0.11 KCAL/MOL
REMARK 927      BINDING AFFINITY PREDICTED BY RF-SCORE:    0.00 PKD
ROOT
HETATM    1 CL   UNL     1     -12.638  13.207  65.679  1.00  0.00    -0.488 Cl 
HETATM    2  C   UNL     2     -10.951  15.866  67.445  1.00  0.00    -0.257 C  
HETATM    3  N   UNL     2     -10.048  16.438  66.340  1.00  0.00    -0.300 N  
HETATM    4  C   UNL     2      -9.880  17.919  66.566  1.00  0.00    -0.343 C  
HETATM    5  C   UNL     2     -10.755  16.207  64.997  1.00  0.00    -0.337 C  
ENDROOT
BRANCH   3   6
HETATM    6  C   UNL     2      -8.722  15.660  66.397  1.00  0.00    -0.318 C  
BRANCH   6   7
HETATM    7  C   UNL     2      -8.823  14.248  66.999  1.00  0.00    -0.226 C  
HETATM    8  O   UNL     2      -9.144  13.252  66.036  1.00  0.00    -0.460 OA 
HETATM    9  H   UNL     2      -9.205  12.380  66.408  1.00  0.00     0.000 HD 
ENDBRANCH   6   7
ENDBRANCH   3   6
TORSDOF 2
ENDMDL
MODEL       55
REMARK 921   NORMALIZED FREE ENERGY PREDICTED BY IDOCK:   -2.46 KCAL/MOL
REMARK 922        TOTAL FREE ENERGY PREDICTED BY IDOCK:   -2.82 KCAL/MOL
REMARK 923 INTER-LIGAND FREE ENERGY PREDICTED BY IDOCK:   -2.70 KCAL/MOL
REMARK 924 INTRA-LIGAND FREE ENERGY PREDICTED BY IDOCK:   -0.12 KCAL/MOL
REMARK 927      BINDING AFFINITY PREDICTED BY RF-SCORE:    0.00 PKD
ROOT
HETATM    1 CL   UNL     1      -8.070  15.218  69.455  1.00  0.00    -0.232 Cl 
HETATM    2  C   UNL     2      -9.664  13.760  66.561  1.00  0.00    -0.293 C  
HETATM    3  N   UNL     2     -11.042  14.441  66.600  1.00  0.00    -0.318 N  
HETATM    4  C   UNL     2     -11.537  14.617  65.187  1.00  0.00    -0.371 C  
HETATM    5  C   UNL     2     -10.861  15.821  67.250  1.00  0.00    -0.298 C  
ENDROOT
BRANCH   3   6
HETATM    6  C   UNL     2     -11.957  13.552  67.459  1.00  0.00    -0.346 C  
BRANCH   6   7
HETATM    7  C   UNL     2     -11.973  13.893  68.959  1.00  0.00    -0.364 C  
HETATM    8  O   UNL     2     -11.073  13.101  69.722  1.00  0.00    -0.477 OA 
HETATM    9  H   UNL     2     -11.083  13.312  70.648  1.00  0.00     0.000 HD 
ENDBRANCH   6   7
ENDBRANCH   3   6
TORSDOF 2
ENDMDL
MODEL       56
REMARK 921   NORMALIZED FREE ENERGY PREDICTED BY IDOCK:   -2.45 KCAL/MOL
REMARK 922        TOTAL FREE ENERGY PREDICTED BY IDOCK:   -2.80 KCAL/MOL
REMARK 923 INTER-LIGAND FREE ENERGY PREDICTED BY IDOCK:   -2.73 KCAL/MOL
REMARK 924 INTRA-LIGAND FREE ENERGY PREDICTED BY IDOCK:   -0.07 KCAL/MOL
REMARK 927      BINDING AFFINITY PREDICTED BY RF-SCORE:    0.00 PKD
ROOT
HETATM    1 CL   UNL     1     -11.904  12.117  63.300  1.00  0.00    -0.507 Cl 
HETATM    2  C   UNL     2     -11.427  12.013  66.879  1.00  0.00    -0.337 C  
HETATM    3  N   UNL     2     -11.444  13.509  67.229  1.00  0.00    -0.321 N  
HETATM    4  C   UNL     2     -12.036  13.680  68.605  1.00  0.00    -0.360 C  
HETATM    5  C   UNL     2     -12.336  14.218  66.201  1.00  0.00    -0.387 C  
ENDROOT
BRANCH   3   6
HETATM    6  C   UNL     2      -9.992  14.009  67.126  1.00  0.00    -0.252 C  
BRANCH   6   7
HETATM    7  C   UNL     2      -8.916  12.934  67.356  1.00  0.00    -0.199 C  
HETATM    8  O   UNL     2      -8.543  12.801  68.721  1.00  0.00    -0.363 OA 
HETATM    9  H   UNL     2      -7.879  12.136  68.864  1.00  0.00     0.000 HD 
ENDBRANCH   6   7
ENDBRANCH   3   6
TORSDOF 2
ENDMDL
MODEL       57
REMARK 921   NORMALIZED FREE ENERGY PREDICTED BY IDOCK:   -2.45 KCAL/MOL
REMARK 922        TOTAL FREE ENERGY PREDICTED BY IDOCK:   -2.80 KCAL/MOL
REMARK 923 INTER-LIGAND FREE ENERGY PREDICTED BY IDOCK:   -2.78 KCAL/MOL
REMARK 924 INTRA-LIGAND FREE ENERGY PREDICTED BY IDOCK:   -0.02 KCAL/MOL
REMARK 927      BINDING AFFINITY PREDICTED BY RF-SCORE:    0.00 PKD
ROOT
HETATM    1 CL   UNL     1      -6.054  21.021  66.476  1.00  0.00    -0.307 Cl 
HETATM    2  C   UNL     2      -7.900  17.944  66.884  1.00  0.00    -0.221 C  
HETATM    3  N   UNL     2      -9.335  18.472  67.043  1.00  0.00    -0.281 N  
HETATM    4  C   UNL     2     -10.291  17.466  66.456  1.00  0.00    -0.312 C  
HETATM    5  C   UNL     2      -9.436  19.787  66.258  1.00  0.00    -0.406 C  
ENDROOT
BRANCH   3   6
HETATM    6  C   UNL     2      -9.558  18.717  68.546  1.00  0.00    -0.369 C  
BRANCH   6   7
HETATM    7  C   UNL     2     -10.177  20.081  68.896  1.00  0.00    -0.235 C  
HETATM    8  O   UNL     2     -10.494  20.212  70.276  1.00  0.00    -0.646 OA 
HETATM    9  H   UNL     2     -10.877  21.055  70.492  1.00  0.00     0.000 HD 
ENDBRANCH   6   7
ENDBRANCH   3   6
TORSDOF 2
ENDMDL
MODEL       58
REMARK 921   NORMALIZED FREE ENERGY PREDICTED BY IDOCK:   -2.44 KCAL/MOL
REMARK 922        TOTAL FREE ENERGY PREDICTED BY IDOCK:   -2.79 KCAL/MOL
REMARK 923 INTER-LIGAND FREE ENERGY PREDICTED BY IDOCK:   -2.77 KCAL/MOL
REMARK 924 INTRA-LIGAND FREE ENERGY PREDICTED BY IDOCK:   -0.02 KCAL/MOL
REMARK 927      BINDING AFFINITY PREDICTED BY RF-SCORE:    0.00 PKD
ROOT
HETATM    1 CL   UNL     1      -9.829  10.119  64.860  1.00  0.00    -0.391 Cl 
HETATM    2  C   UNL     2     -11.993  12.841  65.831  1.00  0.00    -0.449 C  
HETATM    3  N   UNL     2     -11.316  13.318  67.126  1.00  0.00    -0.303 N  
HETATM    4  C   UNL     2     -11.519  14.805  67.263  1.00  0.00    -0.366 C  
HETATM    5  C   UNL     2      -9.815  13.020  67.004  1.00  0.00    -0.238 C  
ENDROOT
BRANCH   3   6
HETATM    6  C   UNL     2     -11.938  12.511  68.280  1.00  0.00    -0.221 C  
BRANCH   6   7
HETATM    7  C   UNL     2     -11.890  13.200  69.654  1.00  0.00    -0.324 C  
HETATM    8  O   UNL     2     -12.014  12.290  70.740  1.00  0.00    -0.473 OA 
HETATM    9  H   UNL     2     -11.984  12.716  71.589  1.00  0.00     0.000 HD 
ENDBRANCH   6   7
ENDBRANCH   3   6
TORSDOF 2
ENDMDL
MODEL       59
REMARK 921   NORMALIZED FREE ENERGY PREDICTED BY IDOCK:   -2.44 KCAL/MOL
REMARK 922        TOTAL FREE ENERGY PREDICTED BY IDOCK:   -2.79 KCAL/MOL
REMARK 923 INTER-LIGAND FREE ENERGY PREDICTED BY IDOCK:   -2.73 KCAL/MOL
REMARK 924 INTRA-LIGAND FREE ENERGY PREDICTED BY IDOCK:   -0.05 KCAL/MOL
REMARK 927      BINDING AFFINITY PREDICTED BY RF-SCORE:    0.00 PKD
ROOT
HETATM    1 CL   UNL     1     -12.494  11.990  63.393  1.00  0.00    -0.688 Cl 
HETATM    2  C   UNL     2     -10.447  13.130  66.141  1.00  0.00    -0.281 C  
HETATM    3  N   UNL     2     -10.226  11.821  66.916  1.00  0.00    -0.206 N  
HETATM    4  C   UNL     2      -8.868  11.864  67.568  1.00  0.00    -0.169 C  
HETATM    5  C   UNL     2     -10.266  10.668  65.903  1.00  0.00    -0.251 C  
ENDROOT
BRANCH   3   6
HETATM    6  C   UNL     2     -11.381  11.698  67.926  1.00  0.00    -0.299 C  
BRANCH   6   7
HETATM    7  C   UNL     2     -11.716  12.990  68.690  1.00  0.00    -0.323 C  
HETATM    8  O   UNL     2     -11.545  12.867  70.096  1.00  0.00    -0.513 OA 
HETATM    9  H   UNL     2     -11.752  13.665  70.568  1.00  0.00     0.000 HD 
ENDBRANCH   6   7
ENDBRANCH   3   6
TORSDOF 2
ENDMDL
MODEL       60
REMARK 921   NORMALIZED FREE ENERGY PREDICTED BY IDOCK:   -2.43 KCAL/MOL
REMARK 922        TOTAL FREE ENERGY PREDICTED BY IDOCK:   -2.78 KCAL/MOL
REMARK 923 INTER-LIGAND FREE ENERGY PREDICTED BY IDOCK:   -2.76 KCAL/MOL
REMARK 924 INTRA-LIGAND FREE ENERGY PREDICTED BY IDOCK:   -0.02 KCAL/MOL
REMARK 927      BINDING AFFINITY PREDICTED BY RF-SCORE:    0.00 PKD
ROOT
HETATM    1 CL   UNL     1     -10.429   8.387  67.775  1.00  0.00    -0.297 Cl 
HETATM    2  C   UNL     2      -9.276  11.508  66.371  1.00  0.00    -0.208 C  
HETATM    3  N   UNL     2     -10.607  12.228  66.101  1.00  0.00    -0.243 N  
HETATM    4  C   UNL     2     -10.402  13.711  66.275  1.00  0.00    -0.293 C  
HETATM    5  C   UNL     2     -11.623  11.731  67.139  1.00  0.00    -0.266 C  
ENDROOT
BRANCH   3   6
HETATM    6  C   UNL     2     -11.048  11.837  64.679  1.00  0.00    -0.303 C  
BRANCH   6   7
HETATM    7  C   UNL     2     -10.950  12.964  63.636  1.00  0.00    -0.279 C  
HETATM    8  O   UNL     2     -12.197  13.594  63.377  1.00  0.00    -0.867 OA 
HETATM    9  H   UNL     2     -12.136  14.290  62.733  1.00  0.00     0.000 HD 
ENDBRANCH   6   7
ENDBRANCH   3   6
TORSDOF 2
ENDMDL
MODEL       61
REMARK 921   NORMALIZED FREE ENERGY PREDICTED BY IDOCK:   -2.42 KCAL/MOL
REMARK 922        TOTAL FREE ENERGY PREDICTED BY IDOCK:   -2.77 KCAL/MOL
REMARK 923 INTER-LIGAND FREE ENERGY PREDICTED BY IDOCK:   -2.66 KCAL/MOL
REMARK 924 INTRA-LIGAND FREE ENERGY PREDICTED BY IDOCK:   -0.11 KCAL/MOL
REMARK 927      BINDING AFFINITY PREDICTED BY RF-SCORE:    0.00 PKD
ROOT
HETATM    1 CL   UNL     1     -10.697  19.832  65.559  1.00  0.00    -0.486 Cl 
HETATM    2  C   UNL     2      -7.999  17.696  66.653  1.00  0.00    -0.251 C  
HETATM    3  N   UNL     2      -7.670  18.303  68.026  1.00  0.00    -0.252 N  
HETATM    4  C   UNL     2      -7.200  17.204  68.944  1.00  0.00    -0.242 C  
HETATM    5  C   UNL     2      -8.963  18.914  68.586  1.00  0.00    -0.350 C  
ENDROOT
BRANCH   3   6
HETATM    6  C   UNL     2      -6.611  19.394  67.791  1.00  0.00    -0.223 C  
BRANCH   6   7
HETATM    7  C   UNL     2      -7.173  20.778  67.423  1.00  0.00    -0.354 C  
HETATM    8  O   UNL     2      -7.131  21.045  66.027  1.00  0.00    -0.502 OA 
HETATM    9  H   UNL     2      -7.479  21.899  65.800  1.00  0.00     0.000 HD 
ENDBRANCH   6   7
ENDBRANCH   3   6
TORSDOF 2
ENDMDL
MODEL       62
REMARK 921   NORMALIZED FREE ENERGY PREDICTED BY IDOCK:   -2.42 KCAL/MOL
REMARK 922        TOTAL FREE ENERGY PREDICTED BY IDOCK:   -2.77 KCAL/MOL
REMARK 923 INTER-LIGAND FREE ENERGY PREDICTED BY IDOCK:   -2.71 KCAL/MOL
REMARK 924 INTRA-LIGAND FREE ENERGY PREDICTED BY IDOCK:   -0.06 KCAL/MOL
REMARK 927      BINDING AFFINITY PREDICTED BY RF-SCORE:    0.00 PKD
ROOT
HETATM    1 CL   UNL     1      -7.693  11.056  68.780  1.00  0.00    -0.127 Cl 
HETATM    2  C   UNL     2      -9.680  12.766  66.297  1.00  0.00    -0.262 C  
HETATM    3  N   UNL     2     -10.499  13.727  67.174  1.00  0.00    -0.271 N  
HETATM    4  C   UNL     2     -10.764  14.990  66.396  1.00  0.00    -0.322 C  
HETATM    5  C   UNL     2      -9.653  14.062  68.411  1.00  0.00    -0.222 C  
ENDROOT
BRANCH   3   6
HETATM    6  C   UNL     2     -11.782  12.981  67.579  1.00  0.00    -0.370 C  
BRANCH   6   7
HETATM    7  C   UNL     2     -11.625  12.013  68.764  1.00  0.00    -0.311 C  
HETATM    8  O   UNL     2     -12.296  10.776  68.568  1.00  0.00    -0.825 OA 
HETATM    9  H   UNL     2     -12.199  10.178  69.300  1.00  0.00     0.000 HD 
ENDBRANCH   6   7
ENDBRANCH   3   6
TORSDOF 2
ENDMDL
MODEL       63
REMARK 921   NORMALIZED FREE ENERGY PREDICTED BY IDOCK:   -2.41 KCAL/MOL
REMARK 922        TOTAL FREE ENERGY PREDICTED BY IDOCK:   -2.76 KCAL/MOL
REMARK 923 INTER-LIGAND FREE ENERGY PREDICTED BY IDOCK:   -2.67 KCAL/MOL
REMARK 924 INTRA-LIGAND FREE ENERGY PREDICTED BY IDOCK:   -0.08 KCAL/MOL
REMARK 927      BINDING AFFINITY PREDICTED BY RF-SCORE:    0.00 PKD
ROOT
HETATM    1 CL   UNL     1     -10.534  19.498  65.871  1.00  0.00    -0.600 Cl 
HETATM    2  C   UNL     2     -10.527  15.892  65.671  1.00  0.00    -0.392 C  
HETATM    3  N   UNL     2     -10.291  15.509  67.141  1.00  0.00    -0.266 N  
HETATM    4  C   UNL     2     -11.001  14.210  67.425  1.00  0.00    -0.299 C  
HETATM    5  C   UNL     2     -10.894  16.618  68.014  1.00  0.00    -0.337 C  
ENDROOT
BRANCH   3   6
HETATM    6  C   UNL     2      -8.767  15.426  67.343  1.00  0.00    -0.179 C  
BRANCH   6   7
HETATM    7  C   UNL     2      -8.269  15.885  68.724  1.00  0.00    -0.196 C  
HETATM    8  O   UNL     2      -8.198  14.828  69.672  1.00  0.00    -0.405 OA 
HETATM    9  H   UNL     2      -7.890  15.112  70.525  1.00  0.00     0.000 HD 
ENDBRANCH   6   7
ENDBRANCH   3   6
TORSDOF 2
ENDMDL
MODEL       64
REMARK 921   NORMALIZED FREE ENERGY PREDICTED BY IDOCK:   -2.40 KCAL/MOL
REMARK 922        TOTAL FREE ENERGY PREDICTED BY IDOCK:   -2.74 KCAL/MOL
REMARK 923 INTER-LIGAND FREE ENERGY PREDICTED BY IDOCK:   -2.72 KCAL/MOL
REMARK 924 INTRA-LIGAND FREE ENERGY PREDICTED BY IDOCK:   -0.02 KCAL/MOL
REMARK 927      BINDING AFFINITY PREDICTED BY RF-SCORE:    0.00 PKD
ROOT
HETATM    1 CL   UNL     1      -8.351  18.596  68.258  1.00  0.00    -0.336 Cl 
HETATM    2  C   UNL     2      -9.396  15.332  69.398  1.00  0.00    -0.228 C  
HETATM    3  N   UNL     2     -10.924  15.447  69.282  1.00  0.00    -0.245 N  
HETATM    4  C   UNL     2     -11.489  14.092  68.940  1.00  0.00    -0.293 C  
HETATM    5  C   UNL     2     -11.232  16.428  68.142  1.00  0.00    -0.273 C  
ENDROOT
BRANCH   3   6
HETATM    6  C   UNL     2     -11.435  15.997  70.626  1.00  0.00    -0.402 C  
BRANCH   6   7
HETATM    7  C   UNL     2     -12.860  15.561  71.006  1.00  0.00    -0.482 C  
HETATM    8  O   UNL     2     -13.205  15.887  72.346  1.00  0.00    -0.461 OA 
HETATM    9  H   UNL     2     -14.086  15.618  72.581  1.00  0.00     0.000 HD 
ENDBRANCH   6   7
ENDBRANCH   3   6
TORSDOF 2
ENDMDL
MODEL       65
REMARK 921   NORMALIZED FREE ENERGY PREDICTED BY IDOCK:   -2.40 KCAL/MOL
REMARK 922        TOTAL FREE ENERGY PREDICTED BY IDOCK:   -2.74 KCAL/MOL
REMARK 923 INTER-LIGAND FREE ENERGY PREDICTED BY IDOCK:   -2.70 KCAL/MOL
REMARK 924 INTRA-LIGAND FREE ENERGY PREDICTED BY IDOCK:   -0.04 KCAL/MOL
REMARK 927      BINDING AFFINITY PREDICTED BY RF-SCORE:    0.00 PKD
ROOT
HETATM    1 CL   UNL     1      -8.505   6.973  74.331  1.00  0.00    -0.190 Cl 
HETATM    2  C   UNL     2     -11.311   8.415  72.574  1.00  0.00    -0.346 C  
HETATM    3  N   UNL     2     -11.758   7.234  71.697  1.00  0.00    -0.271 N  
HETATM    4  C   UNL     2     -13.252   7.304  71.510  1.00  0.00    -0.379 C  
HETATM    5  C   UNL     2     -11.399   5.940  72.442  1.00  0.00    -0.307 C  
ENDROOT
BRANCH   3   6
HETATM    6  C   UNL     2     -10.975   7.336  70.376  1.00  0.00    -0.252 C  
BRANCH   6   7
HETATM    7  C   UNL     2     -11.255   6.209  69.366  1.00  0.00    -0.396 C  
HETATM    8  O   UNL     2     -11.445   6.683  68.040  1.00  0.00    -0.561 OA 
HETATM    9  H   UNL     2     -11.618   5.987  67.416  1.00  0.00     0.000 HD 
ENDBRANCH   6   7
ENDBRANCH   3   6
TORSDOF 2
ENDMDL
MODEL       66
REMARK 921   NORMALIZED FREE ENERGY PREDICTED BY IDOCK:   -2.39 KCAL/MOL
REMARK 922        TOTAL FREE ENERGY PREDICTED BY IDOCK:   -2.74 KCAL/MOL
REMARK 923 INTER-LIGAND FREE ENERGY PREDICTED BY IDOCK:   -2.69 KCAL/MOL
REMARK 924 INTRA-LIGAND FREE ENERGY PREDICTED BY IDOCK:   -0.05 KCAL/MOL
REMARK 927      BINDING AFFINITY PREDICTED BY RF-SCORE:    0.00 PKD
ROOT
HETATM    1 CL   UNL     1     -11.264  14.965  66.344  1.00  0.00    -0.341 Cl 
HETATM    2  C   UNL     2     -11.256  11.430  67.086  1.00  0.00    -0.296 C  
HETATM    3  N   UNL     2      -9.927  10.991  66.451  1.00  0.00    -0.214 N  
HETATM    4  C   UNL     2      -9.354   9.854  67.257  1.00  0.00    -0.145 C  
HETATM    5  C   UNL     2      -8.967  12.188  66.507  1.00  0.00    -0.179 C  
ENDROOT
BRANCH   3   6
HETATM    6  C   UNL     2     -10.233  10.608  64.991  1.00  0.00    -0.310 C  
BRANCH   6   7
HETATM    7  C   UNL     2     -10.923  11.705  64.163  1.00  0.00    -0.376 C  
HETATM    8  O   UNL     2     -11.332  11.259  62.877  1.00  0.00    -0.826 OA 
HETATM    9  H   UNL     2     -11.759  11.937  62.365  1.00  0.00     0.000 HD 
ENDBRANCH   6   7
ENDBRANCH   3   6
TORSDOF 2
ENDMDL
MODEL       67
REMARK 921   NORMALIZED FREE ENERGY PREDICTED BY IDOCK:   -2.38 KCAL/MOL
REMARK 922        TOTAL FREE ENERGY PREDICTED BY IDOCK:   -2.72 KCAL/MOL
REMARK 923 INTER-LIGAND FREE ENERGY PREDICTED BY IDOCK:   -2.70 KCAL/MOL
REMARK 924 INTRA-LIGAND FREE ENERGY PREDICTED BY IDOCK:   -0.02 KCAL/MOL
REMARK 927      BINDING AFFINITY PREDICTED BY RF-SCORE:    0.00 PKD
ROOT
HETATM    1 CL   UNL     1      -5.770  17.550  66.197  1.00  0.00    -0.233 Cl 
HETATM    2  C   UNL     2      -8.865  19.410  66.282  1.00  0.00    -0.351 C  
HETATM    3  N   UNL     2      -9.456  18.950  67.625  1.00  0.00    -0.297 N  
HETATM    4  C   UNL     2     -10.252  20.084  68.220  1.00  0.00    -0.392 C  
HETATM    5  C   UNL     2      -8.285  18.609  68.557  1.00  0.00    -0.341 C  
ENDROOT
BRANCH   3   6
HETATM    6  C   UNL     2     -10.304  17.698  67.337  1.00  0.00    -0.360 C  
BRANCH   6   7
HETATM    7  C   UNL     2     -10.561  16.793  68.553  1.00  0.00    -0.354 C  
HETATM    8  O   UNL     2     -11.624  15.872  68.350  1.00  0.00    -0.371 OA 
HETATM    9  H   UNL     2     -11.782  15.313  69.102  1.00  0.00     0.000 HD 
ENDBRANCH   6   7
ENDBRANCH   3   6
TORSDOF 2
ENDMDL
MODEL       68
REMARK 921   NORMALIZED FREE ENERGY PREDICTED BY IDOCK:   -2.37 KCAL/MOL
REMARK 922        TOTAL FREE ENERGY PREDICTED BY IDOCK:   -2.71 KCAL/MOL
REMARK 923 INTER-LIGAND FREE ENERGY PREDICTED BY IDOCK:   -2.64 KCAL/MOL
REMARK 924 INTRA-LIGAND FREE ENERGY PREDICTED BY IDOCK:   -0.07 KCAL/MOL
REMARK 927      BINDING AFFINITY PREDICTED BY RF-SCORE:    0.00 PKD
ROOT
HETATM    1 CL   UNL     1     -11.295  10.208  70.550  1.00  0.00    -0.387 Cl 
HETATM    2  C   UNL     2      -9.380   7.168  70.914  1.00  0.00    -0.160 C  
HETATM    3  N   UNL     2     -10.493   6.107  70.902  1.00  0.00    -0.218 N  
HETATM    4  C   UNL     2      -9.958   4.848  70.269  1.00  0.00    -0.251 C  
HETATM    5  C   UNL     2     -11.647   6.653  70.050  1.00  0.00    -0.362 C  
ENDROOT
BRANCH   3   6
HETATM    6  C   UNL     2     -10.941   5.911  72.362  1.00  0.00    -0.264 C  
BRANCH   6   7
HETATM    7  C   UNL     2     -10.898   7.180  73.230  1.00  0.00    -0.338 C  
HETATM    8  O   UNL     2     -12.064   7.983  73.104  1.00  0.00    -0.656 OA 
HETATM    9  H   UNL     2     -12.038   8.766  73.640  1.00  0.00     0.000 HD 
ENDBRANCH   6   7
ENDBRANCH   3   6
TORSDOF 2
ENDMDL
MODEL       69
REMARK 921   NORMALIZED FREE ENERGY PREDICTED BY IDOCK:   -2.36 KCAL/MOL
REMARK 922        TOTAL FREE ENERGY PREDICTED BY IDOCK:   -2.70 KCAL/MOL
REMARK 923 INTER-LIGAND FREE ENERGY PREDICTED BY IDOCK:   -2.63 KCAL/MOL
REMARK 924 INTRA-LIGAND FREE ENERGY PREDICTED BY IDOCK:   -0.07 KCAL/MOL
REMARK 927      BINDING AFFINITY PREDICTED BY RF-SCORE:    0.00 PKD
ROOT
HETATM    1 CL   UNL     1     -11.574  10.122  71.051  1.00  0.00    -0.454 Cl 
HETATM    2  C   UNL     2     -11.772  13.397  69.542  1.00  0.00    -0.324 C  
HETATM    3  N   UNL     2     -11.316  13.095  68.105  1.00  0.00    -0.273 N  
HETATM    4  C   UNL     2     -12.031  14.028  67.162  1.00  0.00    -0.430 C  
HETATM    5  C   UNL     2     -11.714  11.647  67.785  1.00  0.00    -0.245 C  
ENDROOT
BRANCH   3   6
HETATM    6  C   UNL     2      -9.786  13.257  68.077  1.00  0.00    -0.223 C  
BRANCH   6   7
HETATM    7  C   UNL     2      -9.216  13.812  66.761  1.00  0.00    -0.244 C  
HETATM    8  O   UNL     2      -9.065  12.819  65.754  1.00  0.00    -0.433 OA 
HETATM    9  H   UNL     2      -8.712  13.163  64.941  1.00  0.00     0.000 HD 
ENDBRANCH   6   7
ENDBRANCH   3   6
TORSDOF 2
ENDMDL
MODEL       70
REMARK 921   NORMALIZED FREE ENERGY PREDICTED BY IDOCK:   -2.35 KCAL/MOL
REMARK 922        TOTAL FREE ENERGY PREDICTED BY IDOCK:   -2.69 KCAL/MOL
REMARK 923 INTER-LIGAND FREE ENERGY PREDICTED BY IDOCK:   -2.67 KCAL/MOL
REMARK 924 INTRA-LIGAND FREE ENERGY PREDICTED BY IDOCK:   -0.03 KCAL/MOL
REMARK 927      BINDING AFFINITY PREDICTED BY RF-SCORE:    0.00 PKD
ROOT
HETATM    1 CL   UNL     1     -12.042  12.525  70.366  1.00  0.00    -0.429 Cl 
HETATM    2  C   UNL     2     -11.984  13.884  67.021  1.00  0.00    -0.424 C  
HETATM    3  N   UNL     2     -10.632  14.615  67.016  1.00  0.00    -0.277 N  
HETATM    4  C   UNL     2     -10.056  14.565  65.624  1.00  0.00    -0.359 C  
HETATM    5  C   UNL     2      -9.696  13.871  67.979  1.00  0.00    -0.226 C  
ENDROOT
BRANCH   3   6
HETATM    6  C   UNL     2     -10.895  16.048  67.513  1.00  0.00    -0.292 C  
BRANCH   6   7
HETATM    7  C   UNL     2     -10.037  16.489  68.710  1.00  0.00    -0.255 C  
HETATM    8  O   UNL     2     -10.552  17.634  69.376  1.00  0.00    -0.404 OA 
HETATM    9  H   UNL     2     -10.022  17.906  70.116  1.00  0.00     0.000 HD 
ENDBRANCH   6   7
ENDBRANCH   3   6
TORSDOF 2
ENDMDL
MODEL       71
REMARK 921   NORMALIZED FREE ENERGY PREDICTED BY IDOCK:   -2.35 KCAL/MOL
REMARK 922        TOTAL FREE ENERGY PREDICTED BY IDOCK:   -2.69 KCAL/MOL
REMARK 923 INTER-LIGAND FREE ENERGY PREDICTED BY IDOCK:   -2.61 KCAL/MOL
REMARK 924 INTRA-LIGAND FREE ENERGY PREDICTED BY IDOCK:   -0.08 KCAL/MOL
REMARK 927      BINDING AFFINITY PREDICTED BY RF-SCORE:    0.00 PKD
ROOT
HETATM    1 CL   UNL     1     -11.506  15.220  71.952  1.00  0.00    -0.503 Cl 
HETATM    2  C   UNL     2      -9.358  14.888  69.067  1.00  0.00    -0.179 C  
HETATM    3  N   UNL     2     -10.385  14.613  67.956  1.00  0.00    -0.232 N  
HETATM    4  C   UNL     2      -9.875  15.202  66.666  1.00  0.00    -0.252 C  
HETATM    5  C   UNL     2     -11.695  15.310  68.350  1.00  0.00    -0.321 C  
ENDROOT
BRANCH   3   6
HETATM    6  C   UNL     2     -10.579  13.087  67.894  1.00  0.00    -0.229 C  
BRANCH   6   7
HETATM    7  C   UNL     2     -10.874  12.527  66.492  1.00  0.00    -0.256 C  
HETATM    8  O   UNL     2     -12.263  12.460  66.198  1.00  0.00    -0.635 OA 
HETATM    9  H   UNL     2     -12.444  12.114  65.332  1.00  0.00     0.000 HD 
ENDBRANCH   6   7
ENDBRANCH   3   6
TORSDOF 2
ENDMDL
MODEL       72
REMARK 921   NORMALIZED FREE ENERGY PREDICTED BY IDOCK:   -2.35 KCAL/MOL
REMARK 922        TOTAL FREE ENERGY PREDICTED BY IDOCK:   -2.69 KCAL/MOL
REMARK 923 INTER-LIGAND FREE ENERGY PREDICTED BY IDOCK:   -2.61 KCAL/MOL
REMARK 924 INTRA-LIGAND FREE ENERGY PREDICTED BY IDOCK:   -0.08 KCAL/MOL
REMARK 927      BINDING AFFINITY PREDICTED BY RF-SCORE:    0.00 PKD
ROOT
HETATM    1 CL   UNL     1     -10.658  13.742  66.916  1.00  0.00    -0.275 Cl 
HETATM    2  C   UNL     2     -10.763  17.029  68.408  1.00  0.00    -0.361 C  
HETATM    3  N   UNL     2     -10.121  17.883  67.303  1.00  0.00    -0.329 N  
HETATM    4  C   UNL     2     -10.739  19.257  67.329  1.00  0.00    -0.488 C  
HETATM    5  C   UNL     2     -10.431  17.212  65.957  1.00  0.00    -0.266 C  
ENDROOT
BRANCH   3   6
HETATM    6  C   UNL     2      -8.605  17.893  67.568  1.00  0.00    -0.239 C  
BRANCH   6   7
HETATM    7  C   UNL     2      -7.860  19.126  67.031  1.00  0.00    -0.250 C  
HETATM    8  O   UNL     2      -7.324  18.932  65.728  1.00  0.00    -0.403 OA 
HETATM    9  H   UNL     2      -6.864  19.694  65.396  1.00  0.00     0.000 HD 
ENDBRANCH   6   7
ENDBRANCH   3   6
TORSDOF 2
ENDMDL
MODEL       73
REMARK 921   NORMALIZED FREE ENERGY PREDICTED BY IDOCK:   -2.34 KCAL/MOL
REMARK 922        TOTAL FREE ENERGY PREDICTED BY IDOCK:   -2.68 KCAL/MOL
REMARK 923 INTER-LIGAND FREE ENERGY PREDICTED BY IDOCK:   -2.61 KCAL/MOL
REMARK 924 INTRA-LIGAND FREE ENERGY PREDICTED BY IDOCK:   -0.06 KCAL/MOL
REMARK 927      BINDING AFFINITY PREDICTED BY RF-SCORE:    0.00 PKD
ROOT
HETATM    1 CL   UNL     1      -9.264  11.149  68.487  1.00  0.00    -0.178 Cl 
HETATM    2  C   UNL     2      -9.210  14.621  67.495  1.00  0.00    -0.192 C  
HETATM    3  N   UNL     2     -10.712  14.949  67.461  1.00  0.00    -0.271 N  
HETATM    4  C   UNL     2     -10.903  16.393  67.847  1.00  0.00    -0.328 C  
HETATM    5  C   UNL     2     -11.407  14.051  68.494  1.00  0.00    -0.277 C  
ENDROOT
BRANCH   3   6
HETATM    6  C   UNL     2     -11.208  14.628  66.040  1.00  0.00    -0.342 C  
BRANCH   6   7
HETATM    7  C   UNL     2     -10.596  13.367  65.407  1.00  0.00    -0.303 C  
HETATM    8  O   UNL     2     -10.264  13.535  64.035  1.00  0.00    -0.723 OA 
HETATM    9  H   UNL     2      -9.885  12.756  63.645  1.00  0.00     0.000 HD 
ENDBRANCH   6   7
ENDBRANCH   3   6
TORSDOF 2
ENDMDL
MODEL       74
REMARK 921   NORMALIZED FREE ENERGY PREDICTED BY IDOCK:   -2.32 KCAL/MOL
REMARK 922        TOTAL FREE ENERGY PREDICTED BY IDOCK:   -2.66 KCAL/MOL
REMARK 923 INTER-LIGAND FREE ENERGY PREDICTED BY IDOCK:   -2.58 KCAL/MOL
REMARK 924 INTRA-LIGAND FREE ENERGY PREDICTED BY IDOCK:   -0.08 KCAL/MOL
REMARK 927      BINDING AFFINITY PREDICTED BY RF-SCORE:    0.00 PKD
ROOT
HETATM    1 CL   UNL     1      -5.534  19.030  64.057  1.00  0.00    -0.307 Cl 
HETATM    2  C   UNL     2      -5.606  18.118  67.551  1.00  0.00    -0.141 C  
HETATM    3  N   UNL     2      -7.113  17.922  67.781  1.00  0.00    -0.201 N  
HETATM    4  C   UNL     2      -7.311  16.848  68.820  1.00  0.00    -0.227 C  
HETATM    5  C   UNL     2      -7.731  17.464  66.453  1.00  0.00    -0.308 C  
ENDROOT
BRANCH   3   6
HETATM    6  C   UNL     2      -7.682  19.289  68.204  1.00  0.00    -0.297 C  
BRANCH   6   7
HETATM    7  C   UNL     2      -6.778  20.493  67.894  1.00  0.00    -0.308 C  
HETATM    8  O   UNL     2      -7.332  21.374  66.927  1.00  0.00    -0.792 OA 
HETATM    9  H   UNL     2      -6.773  22.119  66.736  1.00  0.00     0.000 HD 
ENDBRANCH   6   7
ENDBRANCH   3   6
TORSDOF 2
ENDMDL
MODEL       75
REMARK 921   NORMALIZED FREE ENERGY PREDICTED BY IDOCK:   -2.31 KCAL/MOL
REMARK 922        TOTAL FREE ENERGY PREDICTED BY IDOCK:   -2.65 KCAL/MOL
REMARK 923 INTER-LIGAND FREE ENERGY PREDICTED BY IDOCK:   -2.61 KCAL/MOL
REMARK 924 INTRA-LIGAND FREE ENERGY PREDICTED BY IDOCK:   -0.03 KCAL/MOL
REMARK 927      BINDING AFFINITY PREDICTED BY RF-SCORE:    0.00 PKD
ROOT
HETATM    1 CL   UNL     1     -13.152  11.224  71.825  1.00  0.00    -0.573 Cl 
HETATM    2  C   UNL     2     -10.788   8.652  70.909  1.00  0.00    -0.239 C  
HETATM    3  N   UNL     2     -11.481   7.395  71.458  1.00  0.00    -0.256 N  
HETATM    4  C   UNL     2     -11.143   6.226  70.570  1.00  0.00    -0.335 C  
HETATM    5  C   UNL     2     -12.996   7.643  71.416  1.00  0.00    -0.311 C  
ENDROOT
BRANCH   3   6
HETATM    6  C   UNL     2     -11.000   7.216  72.909  1.00  0.00    -0.320 C  
BRANCH   6   7
HETATM    7  C   UNL     2      -9.475   7.121  73.081  1.00  0.00    -0.167 C  
HETATM    8  O   UNL     2      -9.021   7.620  74.332  1.00  0.00    -0.413 OA 
HETATM    9  H   UNL     2      -8.078   7.561  74.438  1.00  0.00     0.000 HD 
ENDBRANCH   6   7
ENDBRANCH   3   6
TORSDOF 2
ENDMDL
MODEL       76
REMARK 921   NORMALIZED FREE ENERGY PREDICTED BY IDOCK:   -2.30 KCAL/MOL
REMARK 922        TOTAL FREE ENERGY PREDICTED BY IDOCK:   -2.63 KCAL/MOL
REMARK 923 INTER-LIGAND FREE ENERGY PREDICTED BY IDOCK:   -2.54 KCAL/MOL
REMARK 924 INTRA-LIGAND FREE ENERGY PREDICTED BY IDOCK:   -0.10 KCAL/MOL
REMARK 927      BINDING AFFINITY PREDICTED BY RF-SCORE:    0.00 PKD
ROOT
HETATM    1 CL   UNL     1     -12.642  10.286  71.624  1.00  0.00    -0.519 Cl 
HETATM    2  C   UNL     2     -10.984   7.685  69.747  1.00  0.00    -0.170 C  
HETATM    3  N   UNL     2      -9.863   8.479  69.056  1.00  0.00    -0.178 N  
HETATM    4  C   UNL     2      -8.660   7.584  68.896  1.00  0.00    -0.129 C  
HETATM    5  C   UNL     2      -9.499   9.659  69.968  1.00  0.00    -0.240 C  
ENDROOT
BRANCH   3   6
HETATM    6  C   UNL     2     -10.429   8.981  67.716  1.00  0.00    -0.245 C  
BRANCH   6   7
HETATM    7  C   UNL     2     -10.784  10.477  67.681  1.00  0.00    -0.275 C  
HETATM    8  O   UNL     2     -12.149  10.735  67.982  1.00  0.00    -0.778 OA 
HETATM    9  H   UNL     2     -12.367  11.660  67.960  1.00  0.00     0.000 HD 
ENDBRANCH   6   7
ENDBRANCH   3   6
TORSDOF 2
ENDMDL
MODEL       77
REMARK 921   NORMALIZED FREE ENERGY PREDICTED BY IDOCK:   -2.30 KCAL/MOL
REMARK 922        TOTAL FREE ENERGY PREDICTED BY IDOCK:   -2.63 KCAL/MOL
REMARK 923 INTER-LIGAND FREE ENERGY PREDICTED BY IDOCK:   -2.57 KCAL/MOL
REMARK 924 INTRA-LIGAND FREE ENERGY PREDICTED BY IDOCK:   -0.06 KCAL/MOL
REMARK 927      BINDING AFFINITY PREDICTED BY RF-SCORE:    0.00 PKD
ROOT
HETATM    1 CL   UNL     1     -12.197  14.187  64.033  1.00  0.00    -0.453 Cl 
HETATM    2  C   UNL     2      -9.563  14.859  66.411  1.00  0.00    -0.293 C  
HETATM    3  N   UNL     2     -10.373  15.266  67.652  1.00  0.00    -0.247 N  
HETATM    4  C   UNL     2      -9.623  14.835  68.886  1.00  0.00    -0.210 C  
HETATM    5  C   UNL     2     -11.718  14.527  67.593  1.00  0.00    -0.382 C  
ENDROOT
BRANCH   3   6
HETATM    6  C   UNL     2     -10.585  16.788  67.570  1.00  0.00    -0.309 C  
BRANCH   6   7
HETATM    7  C   UNL     2     -10.081  17.581  68.788  1.00  0.00    -0.363 C  
HETATM    8  O   UNL     2      -8.913  18.343  68.513  1.00  0.00    -0.312 OA 
HETATM    9  H   UNL     2      -8.601  18.833  69.265  1.00  0.00     0.000 HD 
ENDBRANCH   6   7
ENDBRANCH   3   6
TORSDOF 2
ENDMDL
MODEL       78
REMARK 921   NORMALIZED FREE ENERGY PREDICTED BY IDOCK:   -2.28 KCAL/MOL
REMARK 922        TOTAL FREE ENERGY PREDICTED BY IDOCK:   -2.61 KCAL/MOL
REMARK 923 INTER-LIGAND FREE ENERGY PREDICTED BY IDOCK:   -2.56 KCAL/MOL
REMARK 924 INTRA-LIGAND FREE ENERGY PREDICTED BY IDOCK:   -0.05 KCAL/MOL
REMARK 927      BINDING AFFINITY PREDICTED BY RF-SCORE:    0.00 PKD
ROOT
HETATM    1 CL   UNL     1     -12.163  11.717  70.678  1.00  0.00    -0.475 Cl 
HETATM    2  C   UNL     2     -10.170   8.859  71.630  1.00  0.00    -0.345 C  
HETATM    3  N   UNL     2     -10.321   7.960  70.392  1.00  0.00    -0.209 N  
HETATM    4  C   UNL     2      -9.053   7.167  70.210  1.00  0.00    -0.156 C  
HETATM    5  C   UNL     2     -10.527   8.874  69.176  1.00  0.00    -0.223 C  
ENDROOT
BRANCH   3   6
HETATM    6  C   UNL     2     -11.561   7.079  70.627  1.00  0.00    -0.335 C  
BRANCH   6   7
HETATM    7  C   UNL     2     -12.074   7.054  72.077  1.00  0.00    -0.294 C  
HETATM    8  O   UNL     2     -12.216   5.738  72.596  1.00  0.00    -0.523 OA 
HETATM    9  H   UNL     2     -12.533   5.723  73.492  1.00  0.00     0.000 HD 
ENDBRANCH   6   7
ENDBRANCH   3   6
TORSDOF 2
ENDMDL
MODEL       79
REMARK 921   NORMALIZED FREE ENERGY PREDICTED BY IDOCK:   -2.27 KCAL/MOL
REMARK 922        TOTAL FREE ENERGY PREDICTED BY IDOCK:   -2.60 KCAL/MOL
REMARK 923 INTER-LIGAND FREE ENERGY PREDICTED BY IDOCK:   -2.52 KCAL/MOL
REMARK 924 INTRA-LIGAND FREE ENERGY PREDICTED BY IDOCK:   -0.08 KCAL/MOL
REMARK 927      BINDING AFFINITY PREDICTED BY RF-SCORE:    0.00 PKD
ROOT
HETATM    1 CL   UNL     1     -12.557  12.077  63.333  1.00  0.00    -0.681 Cl 
HETATM    2  C   UNL     2     -10.254  12.449  66.089  1.00  0.00    -0.242 C  
HETATM    3  N   UNL     2      -9.896  10.983  66.384  1.00  0.00    -0.205 N  
HETATM    4  C   UNL     2      -8.475  10.919  66.882  1.00  0.00    -0.135 C  
HETATM    5  C   UNL     2     -10.008  10.203  65.067  1.00  0.00    -0.305 C  
ENDROOT
BRANCH   3   6
HETATM    6  C   UNL     2     -10.923  10.469  67.409  1.00  0.00    -0.288 C  
BRANCH   6   7
HETATM    7  C   UNL     2     -10.423  10.424  68.863  1.00  0.00    -0.212 C  
HETATM    8  O   UNL     2     -10.741  11.596  69.600  1.00  0.00    -0.450 OA 
HETATM    9  H   UNL     2     -10.432  11.568  70.499  1.00  0.00     0.000 HD 
ENDBRANCH   6   7
ENDBRANCH   3   6
TORSDOF 2
ENDMDL
MODEL       80
REMARK 921   NORMALIZED FREE ENERGY PREDICTED BY IDOCK:   -2.26 KCAL/MOL
REMARK 922        TOTAL FREE ENERGY PREDICTED BY IDOCK:   -2.59 KCAL/MOL
REMARK 923 INTER-LIGAND FREE ENERGY PREDICTED BY IDOCK:   -2.55 KCAL/MOL
REMARK 924 INTRA-LIGAND FREE ENERGY PREDICTED BY IDOCK:   -0.04 KCAL/MOL
REMARK 927      BINDING AFFINITY PREDICTED BY RF-SCORE:    0.00 PKD
ROOT
HETATM    1 CL   UNL     1      -9.670   7.695  68.359  1.00  0.00    -0.158 Cl 
HETATM    2  C   UNL     2     -12.357   7.253  70.731  1.00  0.00    -0.182 C  
HETATM    3  N   UNL     2     -12.043   8.358  71.752  1.00  0.00    -0.307 N  
HETATM    4  C   UNL     2     -13.338   8.870  72.329  1.00  0.00    -0.449 C  
HETATM    5  C   UNL     2     -11.336   9.496  71.003  1.00  0.00    -0.352 C  
ENDROOT
BRANCH   3   6
HETATM    6  C   UNL     2     -11.109   7.740  72.808  1.00  0.00    -0.398 C  
BRANCH   6   7
HETATM    7  C   UNL     2     -10.774   6.255  72.590  1.00  0.00    -0.232 C  
HETATM    8  O   UNL     2     -11.453   5.391  73.492  1.00  0.00    -0.473 OA 
HETATM    9  H   UNL     2     -11.246   4.473  73.356  1.00  0.00     0.000 HD 
ENDBRANCH   6   7
ENDBRANCH   3   6
TORSDOF 2
ENDMDL
MODEL       81
REMARK 921   NORMALIZED FREE ENERGY PREDICTED BY IDOCK:   -2.26 KCAL/MOL
REMARK 922        TOTAL FREE ENERGY PREDICTED BY IDOCK:   -2.59 KCAL/MOL
REMARK 923 INTER-LIGAND FREE ENERGY PREDICTED BY IDOCK:   -2.55 KCAL/MOL
REMARK 924 INTRA-LIGAND FREE ENERGY PREDICTED BY IDOCK:   -0.03 KCAL/MOL
REMARK 927      BINDING AFFINITY PREDICTED BY RF-SCORE:    0.00 PKD
ROOT
HETATM    1 CL   UNL     1      -9.004  15.359  69.197  1.00  0.00    -0.229 Cl 
HETATM    2  C   UNL     2      -9.478  12.088  67.742  1.00  0.00    -0.190 C  
HETATM    3  N   UNL     2     -10.499  12.396  66.635  1.00  0.00    -0.228 N  
HETATM    4  C   UNL     2     -10.256  11.463  65.476  1.00  0.00    -0.264 C  
HETATM    5  C   UNL     2     -10.269  13.843  66.179  1.00  0.00    -0.301 C  
ENDROOT
BRANCH   3   6
HETATM    6  C   UNL     2     -11.897  12.238  67.259  1.00  0.00    -0.260 C  
BRANCH   6   7
HETATM    7  C   UNL     2     -11.905  11.939  68.768  1.00  0.00    -0.313 C  
HETATM    8  O   UNL     2     -12.296  10.606  69.071  1.00  0.00    -0.770 OA 
HETATM    9  H   UNL     2     -12.301  10.421  70.003  1.00  0.00     0.000 HD 
ENDBRANCH   6   7
ENDBRANCH   3   6
TORSDOF 2
ENDMDL
MODEL       82
REMARK 921   NORMALIZED FREE ENERGY PREDICTED BY IDOCK:   -2.26 KCAL/MOL
REMARK 922        TOTAL FREE ENERGY PREDICTED BY IDOCK:   -2.59 KCAL/MOL
REMARK 923 INTER-LIGAND FREE ENERGY PREDICTED BY IDOCK:   -2.53 KCAL/MOL
REMARK 924 INTRA-LIGAND FREE ENERGY PREDICTED BY IDOCK:   -0.05 KCAL/MOL
REMARK 927      BINDING AFFINITY PREDICTED BY RF-SCORE:    0.00 PKD
ROOT
HETATM    1 CL   UNL     1     -11.463  14.984  67.400  1.00  0.00    -0.345 Cl 
HETATM    2  C   UNL     2      -8.547  16.916  66.502  1.00  0.00    -0.270 C  
HETATM    3  N   UNL     2      -8.161  17.527  67.859  1.00  0.00    -0.224 N  
HETATM    4  C   UNL     2      -6.663  17.683  67.913  1.00  0.00    -0.188 C  
HETATM    5  C   UNL     2      -8.609  16.550  68.954  1.00  0.00    -0.241 C  
ENDROOT
BRANCH   3   6
HETATM    6  C   UNL     2      -8.916  18.863  67.980  1.00  0.00    -0.305 C  
BRANCH   6   7
HETATM    7  C   UNL     2      -8.437  19.968  67.024  1.00  0.00    -0.333 C  
HETATM    8  O   UNL     2      -9.442  20.390  66.110  1.00  0.00    -0.627 OA 
HETATM    9  H   UNL     2      -9.146  21.074  65.520  1.00  0.00     0.000 HD 
ENDBRANCH   6   7
ENDBRANCH   3   6
TORSDOF 2
ENDMDL
MODEL       83
REMARK 921   NORMALIZED FREE ENERGY PREDICTED BY IDOCK:   -2.26 KCAL/MOL
REMARK 922        TOTAL FREE ENERGY PREDICTED BY IDOCK:   -2.59 KCAL/MOL
REMARK 923 INTER-LIGAND FREE ENERGY PREDICTED BY IDOCK:   -2.51 KCAL/MOL
REMARK 924 INTRA-LIGAND FREE ENERGY PREDICTED BY IDOCK:   -0.08 KCAL/MOL
REMARK 927      BINDING AFFINITY PREDICTED BY RF-SCORE:    0.00 PKD
ROOT
HETATM    1 CL   UNL     1     -12.000   8.750  71.123  1.00  0.00    -0.331 Cl 
HETATM    2  C   UNL     2      -9.612  10.511  69.065  1.00  0.00    -0.202 C  
HETATM    3  N   UNL     2     -10.493  11.615  68.457  1.00  0.00    -0.211 N  
HETATM    4  C   UNL     2      -9.651  12.847  68.242  1.00  0.00    -0.212 C  
HETATM    5  C   UNL     2     -11.606  11.930  69.466  1.00  0.00    -0.327 C  
ENDROOT
BRANCH   3   6
HETATM    6  C   UNL     2     -11.085  11.049  67.154  1.00  0.00    -0.267 C  
BRANCH   6   7
HETATM    7  C   UNL     2     -11.190  12.056  65.997  1.00  0.00    -0.335 C  
HETATM    8  O   UNL     2     -12.505  12.567  65.819  1.00  0.00    -0.626 OA 
HETATM    9  H   UNL     2     -12.570  13.190  65.105  1.00  0.00     0.000 HD 
ENDBRANCH   6   7
ENDBRANCH   3   6
TORSDOF 2
ENDMDL
MODEL       84
REMARK 921   NORMALIZED FREE ENERGY PREDICTED BY IDOCK:   -2.25 KCAL/MOL
REMARK 922        TOTAL FREE ENERGY PREDICTED BY IDOCK:   -2.58 KCAL/MOL
REMARK 923 INTER-LIGAND FREE ENERGY PREDICTED BY IDOCK:   -2.52 KCAL/MOL
REMARK 924 INTRA-LIGAND FREE ENERGY PREDICTED BY IDOCK:   -0.06 KCAL/MOL
REMARK 927      BINDING AFFINITY PREDICTED BY RF-SCORE:    0.00 PKD
ROOT
HETATM    1 CL   UNL     1      -5.630  19.270  63.927  1.00  0.00    -0.332 Cl 
HETATM    2  C   UNL     2      -6.518  18.234  67.271  1.00  0.00    -0.178 C  
HETATM    3  N   UNL     2      -7.599  19.266  67.630  1.00  0.00    -0.241 N  
HETATM    4  C   UNL     2      -8.607  18.617  68.543  1.00  0.00    -0.340 C  
HETATM    5  C   UNL     2      -8.292  19.687  66.326  1.00  0.00    -0.352 C  
ENDROOT
BRANCH   3   6
HETATM    6  C   UNL     2      -6.878  20.464  68.273  1.00  0.00    -0.253 C  
BRANCH   6   7
HETATM    7  C   UNL     2      -5.973  20.113  69.467  1.00  0.00    -0.336 C  
HETATM    8  O   UNL     2      -6.487  20.570  70.711  1.00  0.00    -0.491 OA 
HETATM    9  H   UNL     2      -5.928  20.353  71.448  1.00  0.00     0.000 HD 
ENDBRANCH   6   7
ENDBRANCH   3   6
TORSDOF 2
ENDMDL
MODEL       85
REMARK 921   NORMALIZED FREE ENERGY PREDICTED BY IDOCK:   -2.25 KCAL/MOL
REMARK 922        TOTAL FREE ENERGY PREDICTED BY IDOCK:   -2.57 KCAL/MOL
REMARK 923 INTER-LIGAND FREE ENERGY PREDICTED BY IDOCK:   -2.46 KCAL/MOL
REMARK 924 INTRA-LIGAND FREE ENERGY PREDICTED BY IDOCK:   -0.12 KCAL/MOL
REMARK 927      BINDING AFFINITY PREDICTED BY RF-SCORE:    0.00 PKD
ROOT
HETATM    1 CL   UNL     1     -11.452   6.239  70.706  1.00  0.00    -0.401 Cl 
HETATM    2  C   UNL     2     -10.317   8.841  68.474  1.00  0.00    -0.199 C  
HETATM    3  N   UNL     2      -9.983   9.966  69.467  1.00  0.00    -0.208 N  
HETATM    4  C   UNL     2      -8.832  10.771  68.921  1.00  0.00    -0.150 C  
HETATM    5  C   UNL     2      -9.560   9.309  70.789  1.00  0.00    -0.275 C  
ENDROOT
BRANCH   3   6
HETATM    6  C   UNL     2     -11.267  10.793  69.657  1.00  0.00    -0.291 C  
BRANCH   6   7
HETATM    7  C   UNL     2     -12.105  10.417  70.890  1.00  0.00    -0.374 C  
HETATM    8  O   UNL     2     -13.168   9.522  70.592  1.00  0.00    -0.559 OA 
HETATM    9  H   UNL     2     -13.686   9.290  71.355  1.00  0.00     0.000 HD 
ENDBRANCH   6   7
ENDBRANCH   3   6
TORSDOF 2
ENDMDL
MODEL       86
REMARK 921   NORMALIZED FREE ENERGY PREDICTED BY IDOCK:   -2.22 KCAL/MOL
REMARK 922        TOTAL FREE ENERGY PREDICTED BY IDOCK:   -2.54 KCAL/MOL
REMARK 923 INTER-LIGAND FREE ENERGY PREDICTED BY IDOCK:   -2.46 KCAL/MOL
REMARK 924 INTRA-LIGAND FREE ENERGY PREDICTED BY IDOCK:   -0.08 KCAL/MOL
REMARK 927      BINDING AFFINITY PREDICTED BY RF-SCORE:    0.00 PKD
ROOT
HETATM    1 CL   UNL     1     -12.381  14.181  66.413  1.00  0.00    -0.480 Cl 
HETATM    2  C   UNL     2      -9.239  13.496  68.056  1.00  0.00    -0.209 C  
HETATM    3  N   UNL     2      -8.936  12.077  67.549  1.00  0.00    -0.168 N  
HETATM    4  C   UNL     2      -7.443  11.909  67.435  1.00  0.00    -0.148 C  
HETATM    5  C   UNL     2      -9.570  11.935  66.158  1.00  0.00    -0.234 C  
ENDROOT
BRANCH   3   6
HETATM    6  C   UNL     2      -9.584  11.098  68.544  1.00  0.00    -0.193 C  
BRANCH   6   7
HETATM    7  C   UNL     2     -10.749  10.270  67.976  1.00  0.00    -0.255 C  
HETATM    8  O   UNL     2     -12.022  10.715  68.425  1.00  0.00    -0.775 OA 
HETATM    9  H   UNL     2     -12.741  10.203  68.073  1.00  0.00     0.000 HD 
ENDBRANCH   6   7
ENDBRANCH   3   6
TORSDOF 2
ENDMDL
MODEL       87
REMARK 921   NORMALIZED FREE ENERGY PREDICTED BY IDOCK:   -2.21 KCAL/MOL
REMARK 922        TOTAL FREE ENERGY PREDICTED BY IDOCK:   -2.53 KCAL/MOL
REMARK 923 INTER-LIGAND FREE ENERGY PREDICTED BY IDOCK:   -2.45 KCAL/MOL
REMARK 924 INTRA-LIGAND FREE ENERGY PREDICTED BY IDOCK:   -0.08 KCAL/MOL
REMARK 927      BINDING AFFINITY PREDICTED BY RF-SCORE:    0.00 PKD
ROOT
HETATM    1 CL   UNL     1      -9.346   3.050  69.152  1.00  0.00    -0.225 Cl 
HETATM    2  C   UNL     2     -10.906   6.252  68.553  1.00  0.00    -0.323 C  
HETATM    3  N   UNL     2     -10.676   6.956  69.900  1.00  0.00    -0.234 N  
HETATM    4  C   UNL     2     -10.511   8.434  69.654  1.00  0.00    -0.221 C  
HETATM    5  C   UNL     2      -9.381   6.394  70.504  1.00  0.00    -0.162 C  
ENDROOT
BRANCH   3   6
HETATM    6  C   UNL     2     -11.884   6.620  70.793  1.00  0.00    -0.383 C  
BRANCH   6   7
HETATM    7  C   UNL     2     -11.557   6.436  72.285  1.00  0.00    -0.299 C  
HETATM    8  O   UNL     2     -11.810   7.601  73.059  1.00  0.00    -0.606 OA 
HETATM    9  H   UNL     2     -11.609   7.487  73.981  1.00  0.00     0.000 HD 
ENDBRANCH   6   7
ENDBRANCH   3   6
TORSDOF 2
ENDMDL
MODEL       88
REMARK 921   NORMALIZED FREE ENERGY PREDICTED BY IDOCK:   -2.20 KCAL/MOL
REMARK 922        TOTAL FREE ENERGY PREDICTED BY IDOCK:   -2.52 KCAL/MOL
REMARK 923 INTER-LIGAND FREE ENERGY PREDICTED BY IDOCK:   -2.42 KCAL/MOL
REMARK 924 INTRA-LIGAND FREE ENERGY PREDICTED BY IDOCK:   -0.10 KCAL/MOL
REMARK 927      BINDING AFFINITY PREDICTED BY RF-SCORE:    0.00 PKD
ROOT
HETATM    1 CL   UNL     1      -9.279  10.352  69.271  1.00  0.00    -0.209 Cl 
HETATM    2  C   UNL     2     -11.158   7.460  70.343  1.00  0.00    -0.265 C  
HETATM    3  N   UNL     2     -11.916   8.025  71.555  1.00  0.00    -0.288 N  
HETATM    4  C   UNL     2     -13.251   7.333  71.660  1.00  0.00    -0.366 C  
HETATM    5  C   UNL     2     -12.139   9.523  71.308  1.00  0.00    -0.360 C  
ENDROOT
BRANCH   3   6
HETATM    6  C   UNL     2     -11.018   7.805  72.786  1.00  0.00    -0.388 C  
BRANCH   6   7
HETATM    7  C   UNL     2      -9.542   7.513  72.470  1.00  0.00    -0.165 C  
HETATM    8  O   UNL     2      -8.699   8.644  72.646  1.00  0.00    -0.380 OA 
HETATM    9  H   UNL     2      -7.787   8.464  72.450  1.00  0.00     0.000 HD 
ENDBRANCH   6   7
ENDBRANCH   3   6
TORSDOF 2
ENDMDL
MODEL       89
REMARK 921   NORMALIZED FREE ENERGY PREDICTED BY IDOCK:   -2.19 KCAL/MOL
REMARK 922        TOTAL FREE ENERGY PREDICTED BY IDOCK:   -2.51 KCAL/MOL
REMARK 923 INTER-LIGAND FREE ENERGY PREDICTED BY IDOCK:   -2.46 KCAL/MOL
REMARK 924 INTRA-LIGAND FREE ENERGY PREDICTED BY IDOCK:   -0.04 KCAL/MOL
REMARK 927      BINDING AFFINITY PREDICTED BY RF-SCORE:    0.00 PKD
ROOT
HETATM    1 CL   UNL     1     -12.317  14.150  65.934  1.00  0.00    -0.481 Cl 
HETATM    2  C   UNL     2     -10.408  17.209  66.135  1.00  0.00    -0.322 C  
HETATM    3  N   UNL     2      -9.124  16.719  66.823  1.00  0.00    -0.229 N  
HETATM    4  C   UNL     2      -7.961  17.537  66.322  1.00  0.00    -0.268 C  
HETATM    5  C   UNL     2      -8.917  15.249  66.430  1.00  0.00    -0.304 C  
ENDROOT
BRANCH   3   6
HETATM    6  C   UNL     2      -9.351  16.849  68.339  1.00  0.00    -0.255 C  
BRANCH   6   7
HETATM    7  C   UNL     2     -10.825  16.909  68.773  1.00  0.00    -0.289 C  
HETATM    8  O   UNL     2     -11.426  15.626  68.887  1.00  0.00    -0.316 OA 
HETATM    9  H   UNL     2     -12.337  15.663  69.156  1.00  0.00     0.000 HD 
ENDBRANCH   6   7
ENDBRANCH   3   6
TORSDOF 2
ENDMDL
MODEL       90
REMARK 921   NORMALIZED FREE ENERGY PREDICTED BY IDOCK:   -2.18 KCAL/MOL
REMARK 922        TOTAL FREE ENERGY PREDICTED BY IDOCK:   -2.50 KCAL/MOL
REMARK 923 INTER-LIGAND FREE ENERGY PREDICTED BY IDOCK:   -2.38 KCAL/MOL
REMARK 924 INTRA-LIGAND FREE ENERGY PREDICTED BY IDOCK:   -0.12 KCAL/MOL
REMARK 927      BINDING AFFINITY PREDICTED BY RF-SCORE:    0.00 PKD
ROOT
HETATM    1 CL   UNL     1     -10.317  10.437  69.341  1.00  0.00    -0.244 Cl 
HETATM    2  C   UNL     2     -11.635  12.493  66.680  1.00  0.00    -0.380 C  
HETATM    3  N   UNL     2     -10.353  12.843  65.906  1.00  0.00    -0.280 N  
HETATM    4  C   UNL     2     -10.691  12.982  64.444  1.00  0.00    -0.394 C  
HETATM    5  C   UNL     2      -9.366  11.682  66.091  1.00  0.00    -0.224 C  
ENDROOT
BRANCH   3   6
HETATM    6  C   UNL     2      -9.795  14.136  66.527  1.00  0.00    -0.290 C  
BRANCH   6   7
HETATM    7  C   UNL     2      -8.716  13.927  67.603  1.00  0.00    -0.187 C  
HETATM    8  O   UNL     2      -9.239  13.917  68.924  1.00  0.00    -0.384 OA 
HETATM    9  H   UNL     2      -8.572  13.787  69.589  1.00  0.00     0.000 HD 
ENDBRANCH   6   7
ENDBRANCH   3   6
TORSDOF 2
ENDMDL
MODEL       91
REMARK 921   NORMALIZED FREE ENERGY PREDICTED BY IDOCK:   -2.18 KCAL/MOL
REMARK 922        TOTAL FREE ENERGY PREDICTED BY IDOCK:   -2.50 KCAL/MOL
REMARK 923 INTER-LIGAND FREE ENERGY PREDICTED BY IDOCK:   -2.43 KCAL/MOL
REMARK 924 INTRA-LIGAND FREE ENERGY PREDICTED BY IDOCK:   -0.07 KCAL/MOL
REMARK 927      BINDING AFFINITY PREDICTED BY RF-SCORE:    0.00 PKD
ROOT
HETATM    1 CL   UNL     1     -10.569  11.365  63.321  1.00  0.00    -0.413 Cl 
HETATM    2  C   UNL     2      -9.451  12.427  66.586  1.00  0.00    -0.232 C  
HETATM    3  N   UNL     2     -10.340  11.572  67.503  1.00  0.00    -0.190 N  
HETATM    4  C   UNL     2      -9.575  11.251  68.761  1.00  0.00    -0.151 C  
HETATM    5  C   UNL     2     -10.661  10.270  66.757  1.00  0.00    -0.185 C  
ENDROOT
BRANCH   3   6
HETATM    6  C   UNL     2     -11.624  12.381  67.763  1.00  0.00    -0.352 C  
BRANCH   6   7
HETATM    7  C   UNL     2     -12.114  13.222  66.572  1.00  0.00    -0.375 C  
HETATM    8  O   UNL     2     -12.480  14.546  66.936  1.00  0.00    -0.537 OA 
HETATM    9  H   UNL     2     -12.783  15.065  66.200  1.00  0.00     0.000 HD 
ENDBRANCH   6   7
ENDBRANCH   3   6
TORSDOF 2
ENDMDL
MODEL       92
REMARK 921   NORMALIZED FREE ENERGY PREDICTED BY IDOCK:   -2.18 KCAL/MOL
REMARK 922        TOTAL FREE ENERGY PREDICTED BY IDOCK:   -2.50 KCAL/MOL
REMARK 923 INTER-LIGAND FREE ENERGY PREDICTED BY IDOCK:   -2.48 KCAL/MOL
REMARK 924 INTRA-LIGAND FREE ENERGY PREDICTED BY IDOCK:   -0.02 KCAL/MOL
REMARK 927      BINDING AFFINITY PREDICTED BY RF-SCORE:    0.00 PKD
ROOT
HETATM    1 CL   UNL     1     -11.089   6.546  67.201  1.00  0.00    -0.472 Cl 
HETATM    2  C   UNL     2     -10.216   5.099  70.393  1.00  0.00    -0.264 C  
HETATM    3  N   UNL     2     -10.674   6.202  71.360  1.00  0.00    -0.246 N  
HETATM    4  C   UNL     2     -11.136   5.563  72.644  1.00  0.00    -0.282 C  
HETATM    5  C   UNL     2     -11.854   6.934  70.705  1.00  0.00    -0.368 C  
ENDROOT
BRANCH   3   6
HETATM    6  C   UNL     2      -9.481   7.155  71.550  1.00  0.00    -0.157 C  
BRANCH   6   7
HETATM    7  C   UNL     2      -9.570   8.070  72.784  1.00  0.00    -0.277 C  
HETATM    8  O   UNL     2      -8.367   8.784  73.037  1.00  0.00    -0.412 OA 
HETATM    9  H   UNL     2      -8.423   9.349  73.799  1.00  0.00     0.000 HD 
ENDBRANCH   6   7
ENDBRANCH   3   6
TORSDOF 2
ENDMDL
MODEL       93
REMARK 921   NORMALIZED FREE ENERGY PREDICTED BY IDOCK:   -2.16 KCAL/MOL
REMARK 922        TOTAL FREE ENERGY PREDICTED BY IDOCK:   -2.47 KCAL/MOL
REMARK 923 INTER-LIGAND FREE ENERGY PREDICTED BY IDOCK:   -2.42 KCAL/MOL
REMARK 924 INTRA-LIGAND FREE ENERGY PREDICTED BY IDOCK:   -0.06 KCAL/MOL
REMARK 927      BINDING AFFINITY PREDICTED BY RF-SCORE:    0.00 PKD
ROOT
HETATM    1 CL   UNL     1     -11.933   6.820  71.230  1.00  0.00    -0.394 Cl 
HETATM    2  C   UNL     2      -9.179   7.012  68.901  1.00  0.00    -0.136 C  
HETATM    3  N   UNL     2      -9.585   8.228  68.053  1.00  0.00    -0.150 N  
HETATM    4  C   UNL     2      -8.338   8.944  67.602  1.00  0.00    -0.110 C  
HETATM    5  C   UNL     2     -10.412   9.163  68.947  1.00  0.00    -0.218 C  
ENDROOT
BRANCH   3   6
HETATM    6  C   UNL     2     -10.436   7.696  66.886  1.00  0.00    -0.318 C  
BRANCH   6   7
HETATM    7  C   UNL     2     -11.159   6.367  67.163  1.00  0.00    -0.341 C  
HETATM    8  O   UNL     2     -11.158   5.488  66.045  1.00  0.00    -0.751 OA 
HETATM    9  H   UNL     2     -11.604   4.666  66.216  1.00  0.00     0.000 HD 
ENDBRANCH   6   7
ENDBRANCH   3   6
TORSDOF 2
ENDMDL
MODEL       94
REMARK 921   NORMALIZED FREE ENERGY PREDICTED BY IDOCK:   -2.15 KCAL/MOL
REMARK 922        TOTAL FREE ENERGY PREDICTED BY IDOCK:   -2.46 KCAL/MOL
REMARK 923 INTER-LIGAND FREE ENERGY PREDICTED BY IDOCK:   -2.41 KCAL/MOL
REMARK 924 INTRA-LIGAND FREE ENERGY PREDICTED BY IDOCK:   -0.06 KCAL/MOL
REMARK 927      BINDING AFFINITY PREDICTED BY RF-SCORE:    0.00 PKD
ROOT
HETATM    1 CL   UNL     1     -11.377   9.835  71.236  1.00  0.00    -0.450 Cl 
HETATM    2  C   UNL     2      -9.123   8.589  68.704  1.00  0.00    -0.139 C  
HETATM    3  N   UNL     2      -9.953   8.802  67.429  1.00  0.00    -0.190 N  
HETATM    4  C   UNL     2      -9.020   9.105  66.285  1.00  0.00    -0.158 C  
HETATM    5  C   UNL     2     -10.872  10.009  67.668  1.00  0.00    -0.278 C  
ENDROOT
BRANCH   3   6
HETATM    6  C   UNL     2     -10.782   7.523  67.214  1.00  0.00    -0.295 C  
BRANCH   6   7
HETATM    7  C   UNL     2     -10.791   6.548  68.404  1.00  0.00    -0.289 C  
HETATM    8  O   UNL     2     -11.886   6.753  69.286  1.00  0.00    -0.606 OA 
HETATM    9  H   UNL     2     -11.891   6.151  70.021  1.00  0.00     0.000 HD 
ENDBRANCH   6   7
ENDBRANCH   3   6
TORSDOF 2
ENDMDL
MODEL       95
REMARK 921   NORMALIZED FREE ENERGY PREDICTED BY IDOCK:   -2.15 KCAL/MOL
REMARK 922        TOTAL FREE ENERGY PREDICTED BY IDOCK:   -2.46 KCAL/MOL
REMARK 923 INTER-LIGAND FREE ENERGY PREDICTED BY IDOCK:   -2.38 KCAL/MOL
REMARK 924 INTRA-LIGAND FREE ENERGY PREDICTED BY IDOCK:   -0.08 KCAL/MOL
REMARK 927      BINDING AFFINITY PREDICTED BY RF-SCORE:    0.00 PKD
ROOT
HETATM    1 CL   UNL     1     -10.264  11.744  67.273  1.00  0.00    -0.221 Cl 
HETATM    2  C   UNL     2     -11.403  10.175  70.320  1.00  0.00    -0.315 C  
HETATM    3  N   UNL     2     -10.316   9.108  70.535  1.00  0.00    -0.217 N  
HETATM    4  C   UNL     2     -10.126   8.899  72.015  1.00  0.00    -0.281 C  
HETATM    5  C   UNL     2      -9.013   9.643  69.925  1.00  0.00    -0.221 C  
ENDROOT
BRANCH   3   6
HETATM    6  C   UNL     2     -10.782   7.840  69.796  1.00  0.00    -0.236 C  
BRANCH   6   7
HETATM    7  C   UNL     2     -11.475   6.791  70.681  1.00  0.00    -0.351 C  
HETATM    8  O   UNL     2     -12.894   6.874  70.640  1.00  0.00    -0.537 OA 
HETATM    9  H   UNL     2     -13.322   6.226  71.186  1.00  0.00     0.000 HD 
ENDBRANCH   6   7
ENDBRANCH   3   6
TORSDOF 2
ENDMDL
MODEL       96
REMARK 921   NORMALIZED FREE ENERGY PREDICTED BY IDOCK:   -2.14 KCAL/MOL
REMARK 922        TOTAL FREE ENERGY PREDICTED BY IDOCK:   -2.46 KCAL/MOL
REMARK 923 INTER-LIGAND FREE ENERGY PREDICTED BY IDOCK:   -2.41 KCAL/MOL
REMARK 924 INTRA-LIGAND FREE ENERGY PREDICTED BY IDOCK:   -0.05 KCAL/MOL
REMARK 927      BINDING AFFINITY PREDICTED BY RF-SCORE:    0.00 PKD
ROOT
HETATM    1 CL   UNL     1      -6.617  15.110  68.908  1.00  0.00    -0.100 Cl 
HETATM    2  C   UNL     2      -9.713  14.326  67.223  1.00  0.00    -0.234 C  
HETATM    3  N   UNL     2     -10.065  15.682  66.591  1.00  0.00    -0.264 N  
HETATM    4  C   UNL     2     -10.789  15.441  65.292  1.00  0.00    -0.409 C  
HETATM    5  C   UNL     2      -8.749  16.420  66.309  1.00  0.00    -0.334 C  
ENDROOT
BRANCH   3   6
HETATM    6  C   UNL     2     -10.909  16.452  67.623  1.00  0.00    -0.280 C  
BRANCH   6   7
HETATM    7  C   UNL     2     -10.670  17.971  67.655  1.00  0.00    -0.344 C  
HETATM    8  O   UNL     2     -10.299  18.451  68.940  1.00  0.00    -0.447 OA 
HETATM    9  H   UNL     2     -10.151  19.390  68.959  1.00  0.00     0.000 HD 
ENDBRANCH   6   7
ENDBRANCH   3   6
TORSDOF 2
ENDMDL
MODEL       97
REMARK 921   NORMALIZED FREE ENERGY PREDICTED BY IDOCK:   -2.14 KCAL/MOL
REMARK 922        TOTAL FREE ENERGY PREDICTED BY IDOCK:   -2.45 KCAL/MOL
REMARK 923 INTER-LIGAND FREE ENERGY PREDICTED BY IDOCK:   -2.39 KCAL/MOL
REMARK 924 INTRA-LIGAND FREE ENERGY PREDICTED BY IDOCK:   -0.06 KCAL/MOL
REMARK 927      BINDING AFFINITY PREDICTED BY RF-SCORE:    0.00 PKD
ROOT
HETATM    1 CL   UNL     1     -10.143   9.389  65.884  1.00  0.00    -0.332 Cl 
HETATM    2  C   UNL     2     -10.724  11.522  68.739  1.00  0.00    -0.211 C  
HETATM    3  N   UNL     2     -10.997  12.872  68.057  1.00  0.00    -0.237 N  
HETATM    4  C   UNL     2     -11.979  13.651  68.894  1.00  0.00    -0.356 C  
HETATM    5  C   UNL     2     -11.618  12.582  66.683  1.00  0.00    -0.380 C  
ENDROOT
BRANCH   3   6
HETATM    6  C   UNL     2      -9.637  13.578  67.901  1.00  0.00    -0.218 C  
BRANCH   6   7
HETATM    7  C   UNL     2      -9.541  14.957  68.574  1.00  0.00    -0.215 C  
HETATM    8  O   UNL     2      -8.688  14.965  69.711  1.00  0.00    -0.444 OA 
HETATM    9  H   UNL     2      -8.628  15.818  70.127  1.00  0.00     0.000 HD 
ENDBRANCH   6   7
ENDBRANCH   3   6
TORSDOF 2
ENDMDL
MODEL       98
REMARK 921   NORMALIZED FREE ENERGY PREDICTED BY IDOCK:   -2.14 KCAL/MOL
REMARK 922        TOTAL FREE ENERGY PREDICTED BY IDOCK:   -2.45 KCAL/MOL
REMARK 923 INTER-LIGAND FREE ENERGY PREDICTED BY IDOCK:   -2.34 KCAL/MOL
REMARK 924 INTRA-LIGAND FREE ENERGY PREDICTED BY IDOCK:   -0.11 KCAL/MOL
REMARK 927      BINDING AFFINITY PREDICTED BY RF-SCORE:    0.00 PKD
ROOT
HETATM    1 CL   UNL     1      -8.757  18.412  66.660  1.00  0.00    -0.285 Cl 
HETATM    2  C   UNL     2      -8.696  14.802  66.750  1.00  0.00    -0.224 C  
HETATM    3  N   UNL     2     -10.180  14.469  66.525  1.00  0.00    -0.273 N  
HETATM    4  C   UNL     2     -10.278  13.169  65.770  1.00  0.00    -0.289 C  
HETATM    5  C   UNL     2     -10.786  15.596  65.676  1.00  0.00    -0.364 C  
ENDROOT
BRANCH   3   6
HETATM    6  C   UNL     2     -10.844  14.418  67.913  1.00  0.00    -0.251 C  
BRANCH   6   7
HETATM    7  C   UNL     2     -11.563  15.710  68.337  1.00  0.00    -0.350 C  
HETATM    8  O   UNL     2     -10.812  16.492  69.256  1.00  0.00    -0.309 OA 
HETATM    9  H   UNL     2     -11.257  17.290  69.517  1.00  0.00     0.000 HD 
ENDBRANCH   6   7
ENDBRANCH   3   6
TORSDOF 2
ENDMDL
MODEL       99
REMARK 921   NORMALIZED FREE ENERGY PREDICTED BY IDOCK:   -2.13 KCAL/MOL
REMARK 922        TOTAL FREE ENERGY PREDICTED BY IDOCK:   -2.44 KCAL/MOL
REMARK 923 INTER-LIGAND FREE ENERGY PREDICTED BY IDOCK:   -2.39 KCAL/MOL
REMARK 924 INTRA-LIGAND FREE ENERGY PREDICTED BY IDOCK:   -0.05 KCAL/MOL
REMARK 927      BINDING AFFINITY PREDICTED BY RF-SCORE:    0.00 PKD
ROOT
HETATM    1 CL   UNL     1     -12.554  14.225  70.328  1.00  0.00    -0.405 Cl 
HETATM    2  C   UNL     2     -10.946  16.260  67.815  1.00  0.00    -0.281 C  
HETATM    3  N   UNL     2     -10.688  15.225  66.708  1.00  0.00    -0.309 N  
HETATM    4  C   UNL     2     -10.776  15.913  65.370  1.00  0.00    -0.399 C  
HETATM    5  C   UNL     2     -11.788  14.158  66.803  1.00  0.00    -0.425 C  
ENDROOT
BRANCH   3   6
HETATM    6  C   UNL     2      -9.306  14.607  66.985  1.00  0.00    -0.232 C  
BRANCH   6   7
HETATM    7  C   UNL     2      -8.114  15.549  66.747  1.00  0.00    -0.212 C  
HETATM    8  O   UNL     2      -7.426  15.892  67.943  1.00  0.00    -0.121 OA 
HETATM    9  H   UNL     2      -6.689  16.474  67.795  1.00  0.00     0.000 HD 
ENDBRANCH   6   7
ENDBRANCH   3   6
TORSDOF 2
ENDMDL
MODEL      100
REMARK 921   NORMALIZED FREE ENERGY PREDICTED BY IDOCK:   -2.12 KCAL/MOL
REMARK 922        TOTAL FREE ENERGY PREDICTED BY IDOCK:   -2.43 KCAL/MOL
REMARK 923 INTER-LIGAND FREE ENERGY PREDICTED BY IDOCK:   -2.39 KCAL/MOL
REMARK 924 INTRA-LIGAND FREE ENERGY PREDICTED BY IDOCK:   -0.05 KCAL/MOL
REMARK 927      BINDING AFFINITY PREDICTED BY RF-SCORE:    0.00 PKD
ROOT
HETATM    1 CL   UNL     1      -9.576  13.422  66.339  1.00  0.00    -0.276 Cl 
HETATM    2  C   UNL     2      -9.429  15.362  69.382  1.00  0.00    -0.267 C  
HETATM    3  N   UNL     2     -10.811  16.036  69.377  1.00  0.00    -0.275 N  
HETATM    4  C   UNL     2     -11.268  16.218  70.802  1.00  0.00    -0.266 C  
HETATM    5  C   UNL     2     -11.784  15.098  68.649  1.00  0.00    -0.341 C  
ENDROOT
BRANCH   3   6
HETATM    6  C   UNL     2     -10.660  17.363  68.613  1.00  0.00    -0.318 C  
BRANCH   6   7
HETATM    7  C   UNL     2      -9.215  17.870  68.471  1.00  0.00    -0.284 C  
HETATM    8  O   UNL     2      -9.044  19.206  68.926  1.00  0.00    -0.360 OA 
HETATM    9  H   UNL     2      -8.151  19.518  68.839  1.00  0.00     0.000 HD 
ENDBRANCH   6   7
ENDBRANCH   3   6
TORSDOF 2
ENDMDL
MODEL      101
REMARK 921   NORMALIZED FREE ENERGY PREDICTED BY IDOCK:   -2.10 KCAL/MOL
REMARK 922        TOTAL FREE ENERGY PREDICTED BY IDOCK:   -2.41 KCAL/MOL
REMARK 923 INTER-LIGAND FREE ENERGY PREDICTED BY IDOCK:   -2.37 KCAL/MOL
REMARK 924 INTRA-LIGAND FREE ENERGY PREDICTED BY IDOCK:   -0.04 KCAL/MOL
REMARK 927      BINDING AFFINITY PREDICTED BY RF-SCORE:    0.00 PKD
ROOT
HETATM    1 CL   UNL     1      -7.435  10.030  66.576  1.00  0.00    -0.103 Cl 
HETATM    2  C   UNL     2     -10.394   7.979  66.862  1.00  0.00    -0.338 C  
HETATM    3  N   UNL     2      -9.806   6.677  67.427  1.00  0.00    -0.125 N  
HETATM    4  C   UNL     2     -10.831   6.027  68.320  1.00  0.00    -0.284 C  
HETATM    5  C   UNL     2      -8.569   7.047  68.259  1.00  0.00    -0.129 C  
ENDROOT
BRANCH   3   6
HETATM    6  C   UNL     2      -9.409   5.805  66.222  1.00  0.00    -0.156 C  
BRANCH   6   7
HETATM    7  C   UNL     2     -10.195   4.490  66.085  1.00  0.00    -0.254 C  
HETATM    8  O   UNL     2     -11.348   4.612  65.263  1.00  0.00    -0.980 OA 
HETATM    9  H   UNL     2     -11.834   3.799  65.179  1.00  0.00     0.000 HD 
ENDBRANCH   6   7
ENDBRANCH   3   6
TORSDOF 2
ENDMDL
MODEL      102
REMARK 921   NORMALIZED FREE ENERGY PREDICTED BY IDOCK:   -2.08 KCAL/MOL
REMARK 922        TOTAL FREE ENERGY PREDICTED BY IDOCK:   -2.39 KCAL/MOL
REMARK 923 INTER-LIGAND FREE ENERGY PREDICTED BY IDOCK:   -2.35 KCAL/MOL
REMARK 924 INTRA-LIGAND FREE ENERGY PREDICTED BY IDOCK:   -0.03 KCAL/MOL
REMARK 927      BINDING AFFINITY PREDICTED BY RF-SCORE:    0.00 PKD
ROOT
HETATM    1 CL   UNL     1     -11.768  10.608  70.441  1.00  0.00    -0.412 Cl 
HETATM    2  C   UNL     2     -11.820  13.252  67.982  1.00  0.00    -0.355 C  
HETATM    3  N   UNL     2     -10.324  13.585  67.864  1.00  0.00    -0.243 N  
HETATM    4  C   UNL     2     -10.033  14.025  66.452  1.00  0.00    -0.294 C  
HETATM    5  C   UNL     2      -9.537  12.302  68.168  1.00  0.00    -0.213 C  
ENDROOT
BRANCH   3   6
HETATM    6  C   UNL     2     -10.022  14.669  68.914  1.00  0.00    -0.228 C  
BRANCH   6   7
HETATM    7  C   UNL     2      -8.593  15.236  68.869  1.00  0.00    -0.207 C  
HETATM    8  O   UNL     2      -7.744  14.691  69.870  1.00  0.00    -0.402 OA 
HETATM    9  H   UNL     2      -6.861  15.041  69.842  1.00  0.00     0.000 HD 
ENDBRANCH   6   7
ENDBRANCH   3   6
TORSDOF 2
ENDMDL
MODEL      103
REMARK 921   NORMALIZED FREE ENERGY PREDICTED BY IDOCK:   -2.08 KCAL/MOL
REMARK 922        TOTAL FREE ENERGY PREDICTED BY IDOCK:   -2.38 KCAL/MOL
REMARK 923 INTER-LIGAND FREE ENERGY PREDICTED BY IDOCK:   -2.34 KCAL/MOL
REMARK 924 INTRA-LIGAND FREE ENERGY PREDICTED BY IDOCK:   -0.05 KCAL/MOL
REMARK 927      BINDING AFFINITY PREDICTED BY RF-SCORE:    0.00 PKD
ROOT
HETATM    1 CL   UNL     1     -12.562  12.642  65.019  1.00  0.00    -0.567 Cl 
HETATM    2  C   UNL     2     -10.979  10.374  67.341  1.00  0.00    -0.270 C  
HETATM    3  N   UNL     2     -10.703  11.306  68.532  1.00  0.00    -0.189 N  
HETATM    4  C   UNL     2     -10.798  10.507  69.807  1.00  0.00    -0.281 C  
HETATM    5  C   UNL     2     -11.786  12.394  68.533  1.00  0.00    -0.326 C  
ENDROOT
BRANCH   3   6
HETATM    6  C   UNL     2      -9.312  11.923  68.304  1.00  0.00    -0.193 C  
BRANCH   6   7
HETATM    7  C   UNL     2      -8.128  11.007  68.656  1.00  0.00    -0.149 C  
HETATM    8  O   UNL     2      -7.393  11.454  69.788  1.00  0.00    -0.362 OA 
HETATM    9  H   UNL     2      -6.662  10.887  70.006  1.00  0.00     0.000 HD 
ENDBRANCH   6   7
ENDBRANCH   3   6
TORSDOF 2
ENDMDL
MODEL      104
REMARK 921   NORMALIZED FREE ENERGY PREDICTED BY IDOCK:   -2.06 KCAL/MOL
REMARK 922        TOTAL FREE ENERGY PREDICTED BY IDOCK:   -2.37 KCAL/MOL
REMARK 923 INTER-LIGAND FREE ENERGY PREDICTED BY IDOCK:   -2.32 KCAL/MOL
REMARK 924 INTRA-LIGAND FREE ENERGY PREDICTED BY IDOCK:   -0.04 KCAL/MOL
REMARK 927      BINDING AFFINITY PREDICTED BY RF-SCORE:    0.00 PKD
ROOT
HETATM    1 CL   UNL     1      -9.868   4.258  70.313  1.00  0.00    -0.279 Cl 
HETATM    2  C   UNL     2     -12.236   6.923  70.890  1.00  0.00    -0.353 C  
HETATM    3  N   UNL     2     -11.316   8.035  71.418  1.00  0.00    -0.251 N  
HETATM    4  C   UNL     2     -11.871   9.369  70.989  1.00  0.00    -0.322 C  
HETATM    5  C   UNL     2      -9.932   7.834  70.784  1.00  0.00    -0.181 C  
ENDROOT
BRANCH   3   6
HETATM    6  C   UNL     2     -11.244   7.870  72.946  1.00  0.00    -0.366 C  
BRANCH   6   7
HETATM    7  C   UNL     2      -9.844   7.554  73.500  1.00  0.00    -0.317 C  
HETATM    8  O   UNL     2      -9.826   6.421  74.358  1.00  0.00    -0.254 OA 
HETATM    9  H   UNL     2      -8.960   6.226  74.700  1.00  0.00     0.000 HD 
ENDBRANCH   6   7
ENDBRANCH   3   6
TORSDOF 2
ENDMDL
MODEL      105
REMARK 921   NORMALIZED FREE ENERGY PREDICTED BY IDOCK:   -2.05 KCAL/MOL
REMARK 922        TOTAL FREE ENERGY PREDICTED BY IDOCK:   -2.35 KCAL/MOL
REMARK 923 INTER-LIGAND FREE ENERGY PREDICTED BY IDOCK:   -2.30 KCAL/MOL
REMARK 924 INTRA-LIGAND FREE ENERGY PREDICTED BY IDOCK:   -0.05 KCAL/MOL
REMARK 927      BINDING AFFINITY PREDICTED BY RF-SCORE:    0.00 PKD
ROOT
HETATM    1 CL   UNL     1      -5.856  21.091  66.522  1.00  0.00    -0.284 Cl 
HETATM    2  C   UNL     2      -7.996  18.187  66.365  1.00  0.00    -0.266 C  
HETATM    3  N   UNL     2      -9.237  18.685  67.124  1.00  0.00    -0.283 N  
HETATM    4  C   UNL     2     -10.461  18.027  66.540  1.00  0.00    -0.334 C  
HETATM    5  C   UNL     2      -9.330  20.203  66.919  1.00  0.00    -0.394 C  
ENDROOT
BRANCH   3   6
HETATM    6  C   UNL     2      -9.018  18.349  68.610  1.00  0.00    -0.286 C  
BRANCH   6   7
HETATM    7  C   UNL     2      -7.623  17.799  68.953  1.00  0.00    -0.223 C  
HETATM    8  O   UNL     2      -7.653  16.464  69.440  1.00  0.00    -0.229 OA 
HETATM    9  H   UNL     2      -6.791  16.124  69.651  1.00  0.00     0.000 HD 
ENDBRANCH   6   7
ENDBRANCH   3   6
TORSDOF 2
ENDMDL
MODEL      106
REMARK 921   NORMALIZED FREE ENERGY PREDICTED BY IDOCK:   -2.04 KCAL/MOL
REMARK 922        TOTAL FREE ENERGY PREDICTED BY IDOCK:   -2.35 KCAL/MOL
REMARK 923 INTER-LIGAND FREE ENERGY PREDICTED BY IDOCK:   -2.29 KCAL/MOL
REMARK 924 INTRA-LIGAND FREE ENERGY PREDICTED BY IDOCK:   -0.05 KCAL/MOL
REMARK 927      BINDING AFFINITY PREDICTED BY RF-SCORE:    0.00 PKD
ROOT
HETATM    1 CL   UNL     1     -12.840  13.870  65.549  1.00  0.00    -0.537 Cl 
HETATM    2  C   UNL     2     -10.851  13.911  68.563  1.00  0.00    -0.259 C  
HETATM    3  N   UNL     2      -9.520  14.475  68.039  1.00  0.00    -0.204 N  
HETATM    4  C   UNL     2      -8.870  15.283  69.132  1.00  0.00    -0.238 C  
HETATM    5  C   UNL     2      -9.840  15.393  66.851  1.00  0.00    -0.244 C  
ENDROOT
BRANCH   3   6
HETATM    6  C   UNL     2      -8.672  13.273  67.585  1.00  0.00    -0.195 C  
BRANCH   6   7
HETATM    7  C   UNL     2      -9.413  12.250  66.708  1.00  0.00    -0.222 C  
HETATM    8  O   UNL     2      -8.588  11.673  65.704  1.00  0.00    -0.395 OA 
HETATM    9  H   UNL     2      -9.046  11.041  65.163  1.00  0.00     0.000 HD 
ENDBRANCH   6   7
ENDBRANCH   3   6
TORSDOF 2
ENDMDL
MODEL      107
REMARK 921   NORMALIZED FREE ENERGY PREDICTED BY IDOCK:   -2.04 KCAL/MOL
REMARK 922        TOTAL FREE ENERGY PREDICTED BY IDOCK:   -2.34 KCAL/MOL
REMARK 923 INTER-LIGAND FREE ENERGY PREDICTED BY IDOCK:   -2.28 KCAL/MOL
REMARK 924 INTRA-LIGAND FREE ENERGY PREDICTED BY IDOCK:   -0.07 KCAL/MOL
REMARK 927      BINDING AFFINITY PREDICTED BY RF-SCORE:    0.00 PKD
ROOT
HETATM    1 CL   UNL     1     -10.228  10.094  69.758  1.00  0.00    -0.278 Cl 
HETATM    2  C   UNL     2     -11.407   6.840  70.788  1.00  0.00    -0.325 C  
HETATM    3  N   UNL     2     -10.160   5.975  70.540  1.00  0.00    -0.184 N  
HETATM    4  C   UNL     2     -10.127   4.866  71.560  1.00  0.00    -0.197 C  
HETATM    5  C   UNL     2      -8.928   6.871  70.725  1.00  0.00    -0.150 C  
ENDROOT
BRANCH   3   6
HETATM    6  C   UNL     2     -10.249   5.465  69.091  1.00  0.00    -0.232 C  
BRANCH   6   7
HETATM    7  C   UNL     2     -10.431   6.561  68.027  1.00  0.00    -0.216 C  
HETATM    8  O   UNL     2     -11.644   6.436  67.297  1.00  0.00    -0.695 OA 
HETATM    9  H   UNL     2     -11.756   7.113  66.640  1.00  0.00     0.000 HD 
ENDBRANCH   6   7
ENDBRANCH   3   6
TORSDOF 2
ENDMDL
MODEL      108
REMARK 921   NORMALIZED FREE ENERGY PREDICTED BY IDOCK:   -2.03 KCAL/MOL
REMARK 922        TOTAL FREE ENERGY PREDICTED BY IDOCK:   -2.33 KCAL/MOL
REMARK 923 INTER-LIGAND FREE ENERGY PREDICTED BY IDOCK:   -2.24 KCAL/MOL
REMARK 924 INTRA-LIGAND FREE ENERGY PREDICTED BY IDOCK:   -0.09 KCAL/MOL
REMARK 927      BINDING AFFINITY PREDICTED BY RF-SCORE:    0.00 PKD
ROOT
HETATM    1 CL   UNL     1     -10.053  18.909  68.840  1.00  0.00    -0.429 Cl 
HETATM    2  C   UNL     2      -7.742  17.141  66.701  1.00  0.00    -0.265 C  
HETATM    3  N   UNL     2      -6.408  17.801  67.087  1.00  0.00    -0.156 N  
HETATM    4  C   UNL     2      -5.306  16.781  66.961  1.00  0.00    -0.122 C  
HETATM    5  C   UNL     2      -6.518  18.251  68.551  1.00  0.00    -0.221 C  
ENDROOT
BRANCH   3   6
HETATM    6  C   UNL     2      -6.223  19.014  66.158  1.00  0.00    -0.184 C  
BRANCH   6   7
HETATM    7  C   UNL     2      -7.512  19.789  65.836  1.00  0.00    -0.324 C  
HETATM    8  O   UNL     2      -7.768  20.850  66.747  1.00  0.00    -0.539 OA 
HETATM    9  H   UNL     2      -8.565  21.328  66.548  1.00  0.00     0.000 HD 
ENDBRANCH   6   7
ENDBRANCH   3   6
TORSDOF 2
ENDMDL
MODEL      109
REMARK 921   NORMALIZED FREE ENERGY PREDICTED BY IDOCK:   -2.03 KCAL/MOL
REMARK 922        TOTAL FREE ENERGY PREDICTED BY IDOCK:   -2.33 KCAL/MOL
REMARK 923 INTER-LIGAND FREE ENERGY PREDICTED BY IDOCK:   -2.25 KCAL/MOL
REMARK 924 INTRA-LIGAND FREE ENERGY PREDICTED BY IDOCK:   -0.08 KCAL/MOL
REMARK 927      BINDING AFFINITY PREDICTED BY RF-SCORE:    0.00 PKD
ROOT
HETATM    1 CL   UNL     1      -6.661  14.618  69.946  1.00  0.00    -0.164 Cl 
HETATM    2  C   UNL     2      -8.944  15.358  67.247  1.00  0.00    -0.198 C  
HETATM    3  N   UNL     2      -9.820  16.450  67.883  1.00  0.00    -0.235 N  
HETATM    4  C   UNL     2     -10.261  17.408  66.807  1.00  0.00    -0.318 C  
HETATM    5  C   UNL     2      -8.957  17.200  68.908  1.00  0.00    -0.189 C  
ENDROOT
BRANCH   3   6
HETATM    6  C   UNL     2     -10.992  15.734  68.579  1.00  0.00    -0.312 C  
BRANCH   6   7
HETATM    7  C   UNL     2     -11.401  14.393  67.947  1.00  0.00    -0.301 C  
HETATM    8  O   UNL     2     -12.369  14.533  66.915  1.00  0.00    -0.535 OA 
HETATM    9  H   UNL     2     -12.621  13.704  66.525  1.00  0.00     0.000 HD 
ENDBRANCH   6   7
ENDBRANCH   3   6
TORSDOF 2
ENDMDL
MODEL      110
REMARK 921   NORMALIZED FREE ENERGY PREDICTED BY IDOCK:   -1.98 KCAL/MOL
REMARK 922        TOTAL FREE ENERGY PREDICTED BY IDOCK:   -2.27 KCAL/MOL
REMARK 923 INTER-LIGAND FREE ENERGY PREDICTED BY IDOCK:   -2.21 KCAL/MOL
REMARK 924 INTRA-LIGAND FREE ENERGY PREDICTED BY IDOCK:   -0.07 KCAL/MOL
REMARK 927      BINDING AFFINITY PREDICTED BY RF-SCORE:    0.00 PKD
ROOT
HETATM    1 CL   UNL     1      -8.805   3.641  65.835  1.00  0.00    -0.119 Cl 
HETATM    2  C   UNL     2     -11.008   6.318  66.845  1.00  0.00    -0.329 C  
HETATM    3  N   UNL     2     -10.018   7.290  67.507  1.00  0.00    -0.156 N  
HETATM    4  C   UNL     2     -10.502   8.701  67.288  1.00  0.00    -0.289 C  
HETATM    5  C   UNL     2      -8.658   7.108  66.820  1.00  0.00    -0.124 C  
ENDROOT
BRANCH   3   6
HETATM    6  C   UNL     2      -9.934   6.900  68.994  1.00  0.00    -0.158 C  
BRANCH   6   7
HETATM    7  C   UNL     2     -11.158   6.143  69.537  1.00  0.00    -0.420 C  
HETATM    8  O   UNL     2     -12.166   7.005  70.048  1.00  0.00    -0.610 OA 
HETATM    9  H   UNL     2     -12.922   6.537  70.384  1.00  0.00     0.000 HD 
ENDBRANCH   6   7
ENDBRANCH   3   6
TORSDOF 2
ENDMDL
MODEL      111
REMARK 921   NORMALIZED FREE ENERGY PREDICTED BY IDOCK:   -1.97 KCAL/MOL
REMARK 922        TOTAL FREE ENERGY PREDICTED BY IDOCK:   -2.27 KCAL/MOL
REMARK 923 INTER-LIGAND FREE ENERGY PREDICTED BY IDOCK:   -2.22 KCAL/MOL
REMARK 924 INTRA-LIGAND FREE ENERGY PREDICTED BY IDOCK:   -0.05 KCAL/MOL
REMARK 927      BINDING AFFINITY PREDICTED BY RF-SCORE:    0.00 PKD
ROOT
HETATM    1 CL   UNL     1     -10.772   7.594  73.032  1.00  0.00    -0.423 Cl 
HETATM    2  C   UNL     2     -11.362   6.223  69.743  1.00  0.00    -0.436 C  
HETATM    3  N   UNL     2      -9.945   6.246  69.148  1.00  0.00    -0.145 N  
HETATM    4  C   UNL     2      -9.796   5.084  68.200  1.00  0.00    -0.146 C  
HETATM    5  C   UNL     2      -8.951   6.087  70.307  1.00  0.00    -0.148 C  
ENDROOT
BRANCH   3   6
HETATM    6  C   UNL     2      -9.768   7.614  68.464  1.00  0.00    -0.158 C  
BRANCH   6   7
HETATM    7  C   UNL     2     -10.627   7.827  67.206  1.00  0.00    -0.306 C  
HETATM    8  O   UNL     2      -9.861   7.892  66.011  1.00  0.00    -0.456 OA 
HETATM    9  H   UNL     2     -10.392   8.023  65.234  1.00  0.00     0.000 HD 
ENDBRANCH   6   7
ENDBRANCH   3   6
TORSDOF 2
ENDMDL
MODEL      112
REMARK 921   NORMALIZED FREE ENERGY PREDICTED BY IDOCK:   -1.97 KCAL/MOL
REMARK 922        TOTAL FREE ENERGY PREDICTED BY IDOCK:   -2.26 KCAL/MOL
REMARK 923 INTER-LIGAND FREE ENERGY PREDICTED BY IDOCK:   -2.18 KCAL/MOL
REMARK 924 INTRA-LIGAND FREE ENERGY PREDICTED BY IDOCK:   -0.08 KCAL/MOL
REMARK 927      BINDING AFFINITY PREDICTED BY RF-SCORE:    0.00 PKD
ROOT
HETATM    1 CL   UNL     1      -7.687  10.483  68.908  1.00  0.00    -0.107 Cl 
HETATM    2  C   UNL     2      -8.865   7.132  69.557  1.00  0.00    -0.137 C  
HETATM    3  N   UNL     2     -10.242   7.411  70.181  1.00  0.00    -0.202 N  
HETATM    4  C   UNL     2     -11.180   6.291  69.813  1.00  0.00    -0.430 C  
HETATM    5  C   UNL     2     -10.764   8.727  69.586  1.00  0.00    -0.208 C  
ENDROOT
BRANCH   3   6
HETATM    6  C   UNL     2     -10.026   7.549  71.699  1.00  0.00    -0.175 C  
BRANCH   6   7
HETATM    7  C   UNL     2     -11.178   7.019  72.570  1.00  0.00    -0.275 C  
HETATM    8  O   UNL     2     -12.094   8.034  72.962  1.00  0.00    -0.646 OA 
HETATM    9  H   UNL     2     -12.805   7.706  73.500  1.00  0.00     0.000 HD 
ENDBRANCH   6   7
ENDBRANCH   3   6
TORSDOF 2
ENDMDL
MODEL      113
REMARK 921   NORMALIZED FREE ENERGY PREDICTED BY IDOCK:   -1.96 KCAL/MOL
REMARK 922        TOTAL FREE ENERGY PREDICTED BY IDOCK:   -2.25 KCAL/MOL
REMARK 923 INTER-LIGAND FREE ENERGY PREDICTED BY IDOCK:   -2.22 KCAL/MOL
REMARK 924 INTRA-LIGAND FREE ENERGY PREDICTED BY IDOCK:   -0.03 KCAL/MOL
REMARK 927      BINDING AFFINITY PREDICTED BY RF-SCORE:    0.00 PKD
ROOT
HETATM    1 CL   UNL     1     -12.278  12.780  65.928  1.00  0.00    -0.476 Cl 
HETATM    2  C   UNL     2     -10.423   9.969  67.231  1.00  0.00    -0.254 C  
HETATM    3  N   UNL     2      -9.055  10.173  66.562  1.00  0.00    -0.143 N  
HETATM    4  C   UNL     2      -7.979   9.669  67.489  1.00  0.00    -0.106 C  
HETATM    5  C   UNL     2      -8.867  11.681  66.338  1.00  0.00    -0.182 C  
ENDROOT
BRANCH   3   6
HETATM    6  C   UNL     2      -9.098   9.425  65.217  1.00  0.00    -0.232 C  
BRANCH   6   7
HETATM    7  C   UNL     2      -9.243  10.325  63.978  1.00  0.00    -0.271 C  
HETATM    8  O   UNL     2      -9.550   9.600  62.794  1.00  0.00    -0.558 OA 
HETATM    9  H   UNL     2      -9.639  10.156  62.029  1.00  0.00     0.000 HD 
ENDBRANCH   6   7
ENDBRANCH   3   6
TORSDOF 2
ENDMDL
MODEL      114
REMARK 921   NORMALIZED FREE ENERGY PREDICTED BY IDOCK:   -1.95 KCAL/MOL
REMARK 922        TOTAL FREE ENERGY PREDICTED BY IDOCK:   -2.25 KCAL/MOL
REMARK 923 INTER-LIGAND FREE ENERGY PREDICTED BY IDOCK:   -2.15 KCAL/MOL
REMARK 924 INTRA-LIGAND FREE ENERGY PREDICTED BY IDOCK:   -0.10 KCAL/MOL
REMARK 927      BINDING AFFINITY PREDICTED BY RF-SCORE:    0.00 PKD
ROOT
HETATM    1 CL   UNL     1      -8.820   5.881  68.319  1.00  0.00    -0.111 Cl 
HETATM    2  C   UNL     2      -9.200   7.782  71.366  1.00  0.00    -0.134 C  
HETATM    3  N   UNL     2     -10.721   7.710  71.580  1.00  0.00    -0.220 N  
HETATM    4  C   UNL     2     -11.005   7.712  73.060  1.00  0.00    -0.400 C  
HETATM    5  C   UNL     2     -11.214   6.390  70.970  1.00  0.00    -0.313 C  
ENDROOT
BRANCH   3   6
HETATM    6  C   UNL     2     -11.335   8.913  70.841  1.00  0.00    -0.283 C  
BRANCH   6   7
HETATM    7  C   UNL     2     -10.510   9.434  69.652  1.00  0.00    -0.223 C  
HETATM    8  O   UNL     2     -11.099   9.140  68.392  1.00  0.00    -0.464 OA 
HETATM    9  H   UNL     2     -10.590   9.462  67.657  1.00  0.00     0.000 HD 
ENDBRANCH   6   7
ENDBRANCH   3   6
TORSDOF 2
ENDMDL
MODEL      115
REMARK 921   NORMALIZED FREE ENERGY PREDICTED BY IDOCK:   -1.94 KCAL/MOL
REMARK 922        TOTAL FREE ENERGY PREDICTED BY IDOCK:   -2.23 KCAL/MOL
REMARK 923 INTER-LIGAND FREE ENERGY PREDICTED BY IDOCK:   -2.16 KCAL/MOL
REMARK 924 INTRA-LIGAND FREE ENERGY PREDICTED BY IDOCK:   -0.08 KCAL/MOL
REMARK 927      BINDING AFFINITY PREDICTED BY RF-SCORE:    0.00 PKD
ROOT
HETATM    1 CL   UNL     1      -8.741   9.236  65.506  1.00  0.00    -0.186 Cl 
HETATM    2  C   UNL     2      -8.757   7.394  68.612  1.00  0.00    -0.128 C  
HETATM    3  N   UNL     2     -10.259   7.124  68.795  1.00  0.00    -0.174 N  
HETATM    4  C   UNL     2     -10.433   5.803  69.498  1.00  0.00    -0.293 C  
HETATM    5  C   UNL     2     -10.891   7.043  67.398  1.00  0.00    -0.300 C  
ENDROOT
BRANCH   3   6
HETATM    6  C   UNL     2     -10.835   8.314  69.584  1.00  0.00    -0.150 C  
BRANCH   6   7
HETATM    7  C   UNL     2     -10.676   9.683  68.903  1.00  0.00    -0.206 C  
HETATM    8  O   UNL     2     -11.917  10.282  68.557  1.00  0.00    -0.720 OA 
HETATM    9  H   UNL     2     -11.819  11.129  68.136  1.00  0.00     0.000 HD 
ENDBRANCH   6   7
ENDBRANCH   3   6
TORSDOF 2
ENDMDL
MODEL      116
REMARK 921   NORMALIZED FREE ENERGY PREDICTED BY IDOCK:   -1.94 KCAL/MOL
REMARK 922        TOTAL FREE ENERGY PREDICTED BY IDOCK:   -2.23 KCAL/MOL
REMARK 923 INTER-LIGAND FREE ENERGY PREDICTED BY IDOCK:   -2.18 KCAL/MOL
REMARK 924 INTRA-LIGAND FREE ENERGY PREDICTED BY IDOCK:   -0.06 KCAL/MOL
REMARK 927      BINDING AFFINITY PREDICTED BY RF-SCORE:    0.00 PKD
ROOT
HETATM    1 CL   UNL     1      -8.757  18.440  68.495  1.00  0.00    -0.337 Cl 
HETATM    2  C   UNL     2      -9.014  14.857  68.868  1.00  0.00    -0.184 C  
HETATM    3  N   UNL     2      -8.721  14.383  67.436  1.00  0.00    -0.192 N  
HETATM    4  C   UNL     2      -8.021  13.049  67.499  1.00  0.00    -0.177 C  
HETATM    5  C   UNL     2      -7.789  15.415  66.786  1.00  0.00    -0.070 C  
ENDROOT
BRANCH   3   6
HETATM    6  C   UNL     2     -10.070  14.327  66.698  1.00  0.00    -0.273 C  
BRANCH   6   7
HETATM    7  C   UNL     2     -11.202  15.138  67.351  1.00  0.00    -0.323 C  
HETATM    8  O   UNL     2     -12.404  14.396  67.506  1.00  0.00    -0.621 OA 
HETATM    9  H   UNL     2     -13.103  14.897  67.910  1.00  0.00     0.000 HD 
ENDBRANCH   6   7
ENDBRANCH   3   6
TORSDOF 2
ENDMDL
MODEL      117
REMARK 921   NORMALIZED FREE ENERGY PREDICTED BY IDOCK:   -1.94 KCAL/MOL
REMARK 922        TOTAL FREE ENERGY PREDICTED BY IDOCK:   -2.23 KCAL/MOL
REMARK 923 INTER-LIGAND FREE ENERGY PREDICTED BY IDOCK:   -2.15 KCAL/MOL
REMARK 924 INTRA-LIGAND FREE ENERGY PREDICTED BY IDOCK:   -0.08 KCAL/MOL
REMARK 927      BINDING AFFINITY PREDICTED BY RF-SCORE:    0.00 PKD
ROOT
HETATM    1 CL   UNL     1      -7.608  20.637  66.778  1.00  0.00    -0.288 Cl 
HETATM    2  C   UNL     2      -9.534  17.589  66.572  1.00  0.00    -0.272 C  
HETATM    3  N   UNL     2      -9.517  17.122  68.036  1.00  0.00    -0.256 N  
HETATM    4  C   UNL     2     -10.807  16.400  68.332  1.00  0.00    -0.342 C  
HETATM    5  C   UNL     2      -9.419  18.371  68.923  1.00  0.00    -0.227 C  
ENDROOT
BRANCH   3   6
HETATM    6  C   UNL     2      -8.271  16.234  68.208  1.00  0.00    -0.173 C  
BRANCH   6   7
HETATM    7  C   UNL     2      -7.798  15.523  66.928  1.00  0.00    -0.194 C  
HETATM    8  O   UNL     2      -8.411  14.255  66.735  1.00  0.00    -0.403 OA 
HETATM    9  H   UNL     2      -8.119  13.816  65.945  1.00  0.00     0.000 HD 
ENDBRANCH   6   7
ENDBRANCH   3   6
TORSDOF 2
ENDMDL
MODEL      118
REMARK 921   NORMALIZED FREE ENERGY PREDICTED BY IDOCK:   -1.94 KCAL/MOL
REMARK 922        TOTAL FREE ENERGY PREDICTED BY IDOCK:   -2.23 KCAL/MOL
REMARK 923 INTER-LIGAND FREE ENERGY PREDICTED BY IDOCK:   -2.18 KCAL/MOL
REMARK 924 INTRA-LIGAND FREE ENERGY PREDICTED BY IDOCK:   -0.05 KCAL/MOL
REMARK 927      BINDING AFFINITY PREDICTED BY RF-SCORE:    0.00 PKD
ROOT
HETATM    1 CL   UNL     1     -10.757   6.402  67.428  1.00  0.00    -0.356 Cl 
HETATM    2  C   UNL     2      -9.794   6.688  70.897  1.00  0.00    -0.183 C  
HETATM    3  N   UNL     2     -11.030   7.377  71.498  1.00  0.00    -0.229 N  
HETATM    4  C   UNL     2     -11.207   6.905  72.918  1.00  0.00    -0.217 C  
HETATM    5  C   UNL     2     -12.249   6.953  70.666  1.00  0.00    -0.258 C  
ENDROOT
BRANCH   3   6
HETATM    6  C   UNL     2     -10.796   8.894  71.386  1.00  0.00    -0.307 C  
BRANCH   6   7
HETATM    7  C   UNL     2     -11.972   9.691  70.797  1.00  0.00    -0.277 C  
HETATM    8  O   UNL     2     -12.535  10.618  71.716  1.00  0.00    -0.351 OA 
HETATM    9  H   UNL     2     -13.261  11.110  71.352  1.00  0.00     0.000 HD 
ENDBRANCH   6   7
ENDBRANCH   3   6
TORSDOF 2
ENDMDL
MODEL      119
REMARK 921   NORMALIZED FREE ENERGY PREDICTED BY IDOCK:   -1.93 KCAL/MOL
REMARK 922        TOTAL FREE ENERGY PREDICTED BY IDOCK:   -2.22 KCAL/MOL
REMARK 923 INTER-LIGAND FREE ENERGY PREDICTED BY IDOCK:   -2.17 KCAL/MOL
REMARK 924 INTRA-LIGAND FREE ENERGY PREDICTED BY IDOCK:   -0.05 KCAL/MOL
REMARK 927      BINDING AFFINITY PREDICTED BY RF-SCORE:    0.00 PKD
ROOT
HETATM    1 CL   UNL     1      -7.682  12.495  67.115  1.00  0.00    -0.144 Cl 
HETATM    2  C   UNL     2      -8.366   9.004  67.738  1.00  0.00    -0.117 C  
HETATM    3  N   UNL     2      -9.864   8.925  67.402  1.00  0.00    -0.179 N  
HETATM    4  C   UNL     2     -10.165   7.560  66.839  1.00  0.00    -0.289 C  
HETATM    5  C   UNL     2     -10.158   9.990  66.336  1.00  0.00    -0.241 C  
ENDROOT
BRANCH   3   6
HETATM    6  C   UNL     2     -10.630   9.229  68.702  1.00  0.00    -0.187 C  
BRANCH   6   7
HETATM    7  C   UNL     2     -11.231  10.643  68.786  1.00  0.00    -0.279 C  
HETATM    8  O   UNL     2     -12.618  10.643  69.095  1.00  0.00    -0.734 OA 
HETATM    9  H   UNL     2     -12.988  11.517  69.148  1.00  0.00     0.000 HD 
ENDBRANCH   6   7
ENDBRANCH   3   6
TORSDOF 2
ENDMDL
MODEL      120
REMARK 921   NORMALIZED FREE ENERGY PREDICTED BY IDOCK:   -1.93 KCAL/MOL
REMARK 922        TOTAL FREE ENERGY PREDICTED BY IDOCK:   -2.22 KCAL/MOL
REMARK 923 INTER-LIGAND FREE ENERGY PREDICTED BY IDOCK:   -2.19 KCAL/MOL
REMARK 924 INTRA-LIGAND FREE ENERGY PREDICTED BY IDOCK:   -0.02 KCAL/MOL
REMARK 927      BINDING AFFINITY PREDICTED BY RF-SCORE:    0.00 PKD
ROOT
HETATM    1 CL   UNL     1     -12.516  13.490  66.045  1.00  0.00    -0.474 Cl 
HETATM    2  C   UNL     2     -11.178  11.004  68.296  1.00  0.00    -0.277 C  
HETATM    3  N   UNL     2      -9.715  10.930  67.829  1.00  0.00    -0.166 N  
HETATM    4  C   UNL     2      -8.841  10.616  69.016  1.00  0.00    -0.148 C  
HETATM    5  C   UNL     2      -9.335  12.308  67.269  1.00  0.00    -0.185 C  
ENDROOT
BRANCH   3   6
HETATM    6  C   UNL     2      -9.650   9.858  66.726  1.00  0.00    -0.183 C  
BRANCH   6   7
HETATM    7  C   UNL     2     -10.461   8.583  67.012  1.00  0.00    -0.292 C  
HETATM    8  O   UNL     2     -10.055   7.474  66.220  1.00  0.00    -0.468 OA 
HETATM    9  H   UNL     2     -10.557   6.686  66.397  1.00  0.00     0.000 HD 
ENDBRANCH   6   7
ENDBRANCH   3   6
TORSDOF 2
ENDMDL
MODEL      121
REMARK 921   NORMALIZED FREE ENERGY PREDICTED BY IDOCK:   -1.92 KCAL/MOL
REMARK 922        TOTAL FREE ENERGY PREDICTED BY IDOCK:   -2.21 KCAL/MOL
REMARK 923 INTER-LIGAND FREE ENERGY PREDICTED BY IDOCK:   -2.19 KCAL/MOL
REMARK 924 INTRA-LIGAND FREE ENERGY PREDICTED BY IDOCK:   -0.02 KCAL/MOL
REMARK 927      BINDING AFFINITY PREDICTED BY RF-SCORE:    0.00 PKD
ROOT
HETATM    1 CL   UNL     1     -10.091   8.461  66.479  1.00  0.00    -0.349 Cl 
HETATM    2  C   UNL     2     -11.169  11.040  68.766  1.00  0.00    -0.266 C  
HETATM    3  N   UNL     2     -10.960  12.304  67.917  1.00  0.00    -0.214 N  
HETATM    4  C   UNL     2     -12.003  13.323  68.296  1.00  0.00    -0.302 C  
HETATM    5  C   UNL     2     -11.146  11.911  66.444  1.00  0.00    -0.309 C  
ENDROOT
BRANCH   3   6
HETATM    6  C   UNL     2      -9.520  12.783  68.174  1.00  0.00    -0.219 C  
BRANCH   6   7
HETATM    7  C   UNL     2      -8.726  13.162  66.912  1.00  0.00    -0.148 C  
HETATM    8  O   UNL     2      -7.746  12.195  66.558  1.00  0.00    -0.383 OA 
HETATM    9  H   UNL     2      -7.256  12.430  65.778  1.00  0.00     0.000 HD 
ENDBRANCH   6   7
ENDBRANCH   3   6
TORSDOF 2
ENDMDL
MODEL      122
REMARK 921   NORMALIZED FREE ENERGY PREDICTED BY IDOCK:   -1.92 KCAL/MOL
REMARK 922        TOTAL FREE ENERGY PREDICTED BY IDOCK:   -2.21 KCAL/MOL
REMARK 923 INTER-LIGAND FREE ENERGY PREDICTED BY IDOCK:   -2.18 KCAL/MOL
REMARK 924 INTRA-LIGAND FREE ENERGY PREDICTED BY IDOCK:   -0.03 KCAL/MOL
REMARK 927      BINDING AFFINITY PREDICTED BY RF-SCORE:    0.00 PKD
ROOT
HETATM    1 CL   UNL     1     -10.682   5.840  67.462  1.00  0.00    -0.325 Cl 
HETATM    2  C   UNL     2     -11.801   6.757  70.770  1.00  0.00    -0.392 C  
HETATM    3  N   UNL     2     -10.481   6.722  71.557  1.00  0.00    -0.212 N  
HETATM    4  C   UNL     2     -10.536   7.761  72.647  1.00  0.00    -0.317 C  
HETATM    5  C   UNL     2      -9.349   7.070  70.580  1.00  0.00    -0.162 C  
ENDROOT
BRANCH   3   6
HETATM    6  C   UNL     2     -10.316   5.288  72.091  1.00  0.00    -0.212 C  
BRANCH   6   7
HETATM    7  C   UNL     2     -11.036   5.004  73.420  1.00  0.00    -0.335 C  
HETATM    8  O   UNL     2     -11.382   3.635  73.586  1.00  0.00    -0.223 OA 
HETATM    9  H   UNL     2     -11.827   3.460  74.408  1.00  0.00     0.000 HD 
ENDBRANCH   6   7
ENDBRANCH   3   6
TORSDOF 2
ENDMDL
MODEL      123
REMARK 921   NORMALIZED FREE ENERGY PREDICTED BY IDOCK:   -1.91 KCAL/MOL
REMARK 922        TOTAL FREE ENERGY PREDICTED BY IDOCK:   -2.20 KCAL/MOL
REMARK 923 INTER-LIGAND FREE ENERGY PREDICTED BY IDOCK:   -2.17 KCAL/MOL
REMARK 924 INTRA-LIGAND FREE ENERGY PREDICTED BY IDOCK:   -0.02 KCAL/MOL
REMARK 927      BINDING AFFINITY PREDICTED BY RF-SCORE:    0.00 PKD
ROOT
HETATM    1 CL   UNL     1     -10.766   7.109  73.547  1.00  0.00    -0.411 Cl 
HETATM    2  C   UNL     2     -11.236   7.894  70.053  1.00  0.00    -0.100 C  
HETATM    3  N   UNL     2     -10.447   9.207  69.930  1.00  0.00    -0.214 N  
HETATM    4  C   UNL     2      -9.855   9.292  68.547  1.00  0.00    -0.158 C  
HETATM    5  C   UNL     2      -9.314   9.169  70.966  1.00  0.00    -0.263 C  
ENDROOT
BRANCH   3   6
HETATM    6  C   UNL     2     -11.430  10.351  70.242  1.00  0.00    -0.325 C  
BRANCH   6   7
HETATM    7  C   UNL     2     -11.213  11.634  69.423  1.00  0.00    -0.246 C  
HETATM    8  O   UNL     2     -11.740  12.794  70.053  1.00  0.00    -0.458 OA 
HETATM    9  H   UNL     2     -11.606  13.588  69.547  1.00  0.00     0.000 HD 
ENDBRANCH   6   7
ENDBRANCH   3   6
TORSDOF 2
ENDMDL
MODEL      124
REMARK 921   NORMALIZED FREE ENERGY PREDICTED BY IDOCK:   -1.90 KCAL/MOL
REMARK 922        TOTAL FREE ENERGY PREDICTED BY IDOCK:   -2.19 KCAL/MOL
REMARK 923 INTER-LIGAND FREE ENERGY PREDICTED BY IDOCK:   -2.11 KCAL/MOL
REMARK 924 INTRA-LIGAND FREE ENERGY PREDICTED BY IDOCK:   -0.08 KCAL/MOL
REMARK 927      BINDING AFFINITY PREDICTED BY RF-SCORE:    0.00 PKD
ROOT
HETATM    1 CL   UNL     1      -8.129   6.327  68.061  1.00  0.00    -0.114 Cl 
HETATM    2  C   UNL     2      -8.802   8.536  70.837  1.00  0.00    -0.171 C  
HETATM    3  N   UNL     2      -9.599   7.612  71.772  1.00  0.00    -0.148 N  
HETATM    4  C   UNL     2      -9.310   7.997  73.200  1.00  0.00    -0.277 C  
HETATM    5  C   UNL     2      -9.118   6.175  71.527  1.00  0.00    -0.143 C  
ENDROOT
BRANCH   3   6
HETATM    6  C   UNL     2     -11.083   7.761  71.391  1.00  0.00    -0.238 C  
BRANCH   6   7
HETATM    7  C   UNL     2     -11.716   6.517  70.745  1.00  0.00    -0.366 C  
HETATM    8  O   UNL     2     -11.840   6.623  69.332  1.00  0.00    -0.651 OA 
HETATM    9  H   UNL     2     -12.231   5.854  68.934  1.00  0.00     0.000 HD 
ENDBRANCH   6   7
ENDBRANCH   3   6
TORSDOF 2
ENDMDL
MODEL      125
REMARK 921   NORMALIZED FREE ENERGY PREDICTED BY IDOCK:   -1.86 KCAL/MOL
REMARK 922        TOTAL FREE ENERGY PREDICTED BY IDOCK:   -2.14 KCAL/MOL
REMARK 923 INTER-LIGAND FREE ENERGY PREDICTED BY IDOCK:   -2.12 KCAL/MOL
REMARK 924 INTRA-LIGAND FREE ENERGY PREDICTED BY IDOCK:   -0.02 KCAL/MOL
REMARK 927      BINDING AFFINITY PREDICTED BY RF-SCORE:    0.00 PKD
ROOT
HETATM    1 CL   UNL     1     -11.136   6.375  66.889  1.00  0.00    -0.433 Cl 
HETATM    2  C   UNL     2     -10.545   8.969  69.332  1.00  0.00    -0.221 C  
HETATM    3  N   UNL     2      -9.927   8.162  70.485  1.00  0.00    -0.186 N  
HETATM    4  C   UNL     2      -8.935   9.034  71.212  1.00  0.00    -0.211 C  
HETATM    5  C   UNL     2      -9.193   6.961  69.872  1.00  0.00    -0.147 C  
ENDROOT
BRANCH   3   6
HETATM    6  C   UNL     2     -11.089   7.691  71.377  1.00  0.00    -0.238 C  
BRANCH   6   7
HETATM    7  C   UNL     2     -11.286   6.167  71.437  1.00  0.00    -0.287 C  
HETATM    8  O   UNL     2     -12.292   5.769  72.359  1.00  0.00    -0.395 OA 
HETATM    9  H   UNL     2     -12.413   4.827  72.396  1.00  0.00     0.000 HD 
ENDBRANCH   6   7
ENDBRANCH   3   6
TORSDOF 2
ENDMDL
MODEL      126
REMARK 921   NORMALIZED FREE ENERGY PREDICTED BY IDOCK:   -1.86 KCAL/MOL
REMARK 922        TOTAL FREE ENERGY PREDICTED BY IDOCK:   -2.14 KCAL/MOL
REMARK 923 INTER-LIGAND FREE ENERGY PREDICTED BY IDOCK:   -2.09 KCAL/MOL
REMARK 924 INTRA-LIGAND FREE ENERGY PREDICTED BY IDOCK:   -0.05 KCAL/MOL
REMARK 927      BINDING AFFINITY PREDICTED BY RF-SCORE:    0.00 PKD
ROOT
HETATM    1 CL   UNL     1     -11.250  13.533  64.732  1.00  0.00    -0.345 Cl 
HETATM    2  C   UNL     2      -9.942  10.176  64.983  1.00  0.00    -0.305 C  
HETATM    3  N   UNL     2      -9.864   9.996  66.507  1.00  0.00    -0.198 N  
HETATM    4  C   UNL     2     -10.113   8.547  66.839  1.00  0.00    -0.294 C  
HETATM    5  C   UNL     2     -10.969  10.857  67.135  1.00  0.00    -0.272 C  
ENDROOT
BRANCH   3   6
HETATM    6  C   UNL     2      -8.474  10.490  66.946  1.00  0.00    -0.125 C  
BRANCH   6   7
HETATM    7  C   UNL     2      -8.390  11.992  67.267  1.00  0.00    -0.176 C  
HETATM    8  O   UNL     2      -7.178  12.590  66.826  1.00  0.00    -0.378 OA 
HETATM    9  H   UNL     2      -7.127  13.518  67.024  1.00  0.00     0.000 HD 
ENDBRANCH   6   7
ENDBRANCH   3   6
TORSDOF 2
ENDMDL
MODEL      127
REMARK 921   NORMALIZED FREE ENERGY PREDICTED BY IDOCK:   -1.86 KCAL/MOL
REMARK 922        TOTAL FREE ENERGY PREDICTED BY IDOCK:   -2.14 KCAL/MOL
REMARK 923 INTER-LIGAND FREE ENERGY PREDICTED BY IDOCK:   -2.05 KCAL/MOL
REMARK 924 INTRA-LIGAND FREE ENERGY PREDICTED BY IDOCK:   -0.09 KCAL/MOL
REMARK 927      BINDING AFFINITY PREDICTED BY RF-SCORE:    0.00 PKD
ROOT
HETATM    1 CL   UNL     1      -9.354   7.989  73.255  1.00  0.00    -0.347 Cl 
HETATM    2  C   UNL     2      -8.501   6.615  70.025  1.00  0.00    -0.139 C  
HETATM    3  N   UNL     2      -9.057   7.694  69.082  1.00  0.00    -0.142 N  
HETATM    4  C   UNL     2      -8.188   7.759  67.852  1.00  0.00    -0.123 C  
HETATM    5  C   UNL     2      -8.992   9.037  69.822  1.00  0.00    -0.154 C  
ENDROOT
BRANCH   3   6
HETATM    6  C   UNL     2     -10.516   7.312  68.775  1.00  0.00    -0.200 C  
BRANCH   6   7
HETATM    7  C   UNL     2     -11.251   6.586  69.915  1.00  0.00    -0.395 C  
HETATM    8  O   UNL     2     -12.304   7.356  70.480  1.00  0.00    -0.546 OA 
HETATM    9  H   UNL     2     -12.758   6.907  71.184  1.00  0.00     0.000 HD 
ENDBRANCH   6   7
ENDBRANCH   3   6
TORSDOF 2
ENDMDL
MODEL      128
REMARK 921   NORMALIZED FREE ENERGY PREDICTED BY IDOCK:   -1.84 KCAL/MOL
REMARK 922        TOTAL FREE ENERGY PREDICTED BY IDOCK:   -2.12 KCAL/MOL
REMARK 923 INTER-LIGAND FREE ENERGY PREDICTED BY IDOCK:   -2.01 KCAL/MOL
REMARK 924 INTRA-LIGAND FREE ENERGY PREDICTED BY IDOCK:   -0.11 KCAL/MOL
REMARK 927      BINDING AFFINITY PREDICTED BY RF-SCORE:    0.00 PKD
ROOT
HETATM    1 CL   UNL     1     -10.085   9.059  66.542  1.00  0.00    -0.358 Cl 
HETATM    2  C   UNL     2      -8.438   6.356  68.280  1.00  0.00    -0.115 C  
HETATM    3  N   UNL     2      -9.559   5.306  68.336  1.00  0.00    -0.127 N  
HETATM    4  C   UNL     2      -8.942   3.932  68.274  1.00  0.00    -0.121 C  
HETATM    5  C   UNL     2     -10.455   5.515  67.108  1.00  0.00    -0.257 C  
ENDROOT
BRANCH   3   6
HETATM    6  C   UNL     2     -10.346   5.560  69.634  1.00  0.00    -0.289 C  
BRANCH   6   7
HETATM    7  C   UNL     2     -11.520   6.544  69.499  1.00  0.00    -0.319 C  
HETATM    8  O   UNL     2     -11.180   7.874  69.870  1.00  0.00    -0.419 OA 
HETATM    9  H   UNL     2     -11.906   8.482  69.786  1.00  0.00     0.000 HD 
ENDBRANCH   6   7
ENDBRANCH   3   6
TORSDOF 2
ENDMDL
MODEL      129
REMARK 921   NORMALIZED FREE ENERGY PREDICTED BY IDOCK:   -1.84 KCAL/MOL
REMARK 922        TOTAL FREE ENERGY PREDICTED BY IDOCK:   -2.11 KCAL/MOL
REMARK 923 INTER-LIGAND FREE ENERGY PREDICTED BY IDOCK:   -2.06 KCAL/MOL
REMARK 924 INTRA-LIGAND FREE ENERGY PREDICTED BY IDOCK:   -0.05 KCAL/MOL
REMARK 927      BINDING AFFINITY PREDICTED BY RF-SCORE:    0.00 PKD
ROOT
HETATM    1 CL   UNL     1      -7.338   9.350  68.224  1.00  0.00    -0.077 Cl 
HETATM    2  C   UNL     2     -10.362  10.185  66.435  1.00  0.00    -0.188 C  
HETATM    3  N   UNL     2     -10.844  11.418  67.215  1.00  0.00    -0.247 N  
HETATM    4  C   UNL     2     -11.553  12.349  66.266  1.00  0.00    -0.393 C  
HETATM    5  C   UNL     2      -9.604  12.122  67.785  1.00  0.00    -0.195 C  
ENDROOT
BRANCH   3   6
HETATM    6  C   UNL     2     -11.747  10.905  68.351  1.00  0.00    -0.218 C  
BRANCH   6   7
HETATM    7  C   UNL     2     -11.139  11.004  69.760  1.00  0.00    -0.235 C  
HETATM    8  O   UNL     2     -11.780  11.974  70.578  1.00  0.00    -0.510 OA 
HETATM    9  H   UNL     2     -11.404  12.035  71.448  1.00  0.00     0.000 HD 
ENDBRANCH   6   7
ENDBRANCH   3   6
TORSDOF 2
ENDMDL
MODEL      130
REMARK 921   NORMALIZED FREE ENERGY PREDICTED BY IDOCK:   -1.83 KCAL/MOL
REMARK 922        TOTAL FREE ENERGY PREDICTED BY IDOCK:   -2.10 KCAL/MOL
REMARK 923 INTER-LIGAND FREE ENERGY PREDICTED BY IDOCK:   -2.04 KCAL/MOL
REMARK 924 INTRA-LIGAND FREE ENERGY PREDICTED BY IDOCK:   -0.06 KCAL/MOL
REMARK 927      BINDING AFFINITY PREDICTED BY RF-SCORE:    0.00 PKD
ROOT
HETATM    1 CL   UNL     1      -8.933  11.967  68.261  1.00  0.00    -0.189 Cl 
HETATM    2  C   UNL     2      -8.782   9.155  70.521  1.00  0.00    -0.221 C  
HETATM    3  N   UNL     2      -9.048   7.983  69.563  1.00  0.00    -0.152 N  
HETATM    4  C   UNL     2      -8.294   6.773  70.053  1.00  0.00    -0.135 C  
HETATM    5  C   UNL     2      -8.520   8.384  68.179  1.00  0.00    -0.132 C  
ENDROOT
BRANCH   3   6
HETATM    6  C   UNL     2     -10.573   7.774  69.524  1.00  0.00    -0.221 C  
BRANCH   6   7
HETATM    7  C   UNL     2     -11.027   6.401  68.999  1.00  0.00    -0.348 C  
HETATM    8  O   UNL     2     -11.562   6.455  67.683  1.00  0.00    -0.640 OA 
HETATM    9  H   UNL     2     -11.842   5.607  67.359  1.00  0.00     0.000 HD 
ENDBRANCH   6   7
ENDBRANCH   3   6
TORSDOF 2
ENDMDL
MODEL      131
REMARK 921   NORMALIZED FREE ENERGY PREDICTED BY IDOCK:   -1.82 KCAL/MOL
REMARK 922        TOTAL FREE ENERGY PREDICTED BY IDOCK:   -2.10 KCAL/MOL
REMARK 923 INTER-LIGAND FREE ENERGY PREDICTED BY IDOCK:   -2.16 KCAL/MOL
REMARK 924 INTRA-LIGAND FREE ENERGY PREDICTED BY IDOCK:    0.07 KCAL/MOL
REMARK 927      BINDING AFFINITY PREDICTED BY RF-SCORE:    0.00 PKD
ROOT
HETATM    1 CL   UNL     1      -9.524  10.792  63.246  1.00  0.00    -0.311 Cl 
HETATM    2  C   UNL     2     -12.352  12.502  64.701  1.00  0.00    -0.474 C  
HETATM    3  N   UNL     2     -11.655  13.628  65.481  1.00  0.00    -0.317 N  
HETATM    4  C   UNL     2     -12.552  14.840  65.490  1.00  0.00     0.038 C  
HETATM    5  C   UNL     2     -10.352  13.967  64.744  1.00  0.00    -0.380 C  
ENDROOT
BRANCH   3   6
HETATM    6  C   UNL     2     -11.358  13.081  66.888  1.00  0.00    -0.311 C  
BRANCH   6   7
HETATM    7  C   UNL     2      -9.933  13.348  67.401  1.00  0.00    -0.230 C  
HETATM    8  O   UNL     2      -9.043  12.263  67.168  1.00  0.00    -0.180 OA 
HETATM    9  H   UNL     2      -8.163  12.429  67.484  1.00  0.00     0.000 HD 
ENDBRANCH   6   7
ENDBRANCH   3   6
TORSDOF 2
ENDMDL
MODEL      132
REMARK 921   NORMALIZED FREE ENERGY PREDICTED BY IDOCK:   -1.79 KCAL/MOL
REMARK 922        TOTAL FREE ENERGY PREDICTED BY IDOCK:   -2.06 KCAL/MOL
REMARK 923 INTER-LIGAND FREE ENERGY PREDICTED BY IDOCK:   -2.02 KCAL/MOL
REMARK 924 INTRA-LIGAND FREE ENERGY PREDICTED BY IDOCK:   -0.04 KCAL/MOL
REMARK 927      BINDING AFFINITY PREDICTED BY RF-SCORE:    0.00 PKD
ROOT
HETATM    1 CL   UNL     1      -9.520   9.373  65.494  1.00  0.00    -0.325 Cl 
HETATM    2  C   UNL     2      -8.285   9.703  68.871  1.00  0.00    -0.110 C  
HETATM    3  N   UNL     2      -9.488   9.198  69.684  1.00  0.00    -0.165 N  
HETATM    4  C   UNL     2      -8.982   8.523  70.933  1.00  0.00    -0.172 C  
HETATM    5  C   UNL     2     -10.234   8.171  68.819  1.00  0.00    -0.207 C  
ENDROOT
BRANCH   3   6
HETATM    6  C   UNL     2     -10.380  10.419  69.970  1.00  0.00    -0.128 C  
BRANCH   6   7
HETATM    7  C   UNL     2     -11.891  10.130  69.984  1.00  0.00    -0.179 C  
HETATM    8  O   UNL     2     -12.593  10.778  68.931  1.00  0.00    -0.735 OA 
HETATM    9  H   UNL     2     -13.526  10.599  68.940  1.00  0.00     0.000 HD 
ENDBRANCH   6   7
ENDBRANCH   3   6
TORSDOF 2
ENDMDL
MODEL      133
REMARK 921   NORMALIZED FREE ENERGY PREDICTED BY IDOCK:   -1.79 KCAL/MOL
REMARK 922        TOTAL FREE ENERGY PREDICTED BY IDOCK:   -2.06 KCAL/MOL
REMARK 923 INTER-LIGAND FREE ENERGY PREDICTED BY IDOCK:   -2.02 KCAL/MOL
REMARK 924 INTRA-LIGAND FREE ENERGY PREDICTED BY IDOCK:   -0.04 KCAL/MOL
REMARK 927      BINDING AFFINITY PREDICTED BY RF-SCORE:    0.00 PKD
ROOT
HETATM    1 CL   UNL     1      -6.281  10.362  70.398  1.00  0.00    -0.116 Cl 
HETATM    2  C   UNL     2      -8.078   9.825  67.312  1.00  0.00    -0.117 C  
HETATM    3  N   UNL     2      -9.524   9.703  67.821  1.00  0.00    -0.127 N  
HETATM    4  C   UNL     2     -10.457  10.250  66.772  1.00  0.00    -0.214 C  
HETATM    5  C   UNL     2      -9.641  10.551  69.096  1.00  0.00    -0.199 C  
ENDROOT
BRANCH   3   6
HETATM    6  C   UNL     2      -9.765   8.215  68.133  1.00  0.00    -0.161 C  
BRANCH   6   7
HETATM    7  C   UNL     2     -10.415   7.410  66.995  1.00  0.00    -0.333 C  
HETATM    8  O   UNL     2     -11.526   6.634  67.425  1.00  0.00    -0.747 OA 
HETATM    9  H   UNL     2     -11.928   6.137  66.721  1.00  0.00     0.000 HD 
ENDBRANCH   6   7
ENDBRANCH   3   6
TORSDOF 2
ENDMDL
MODEL      134
REMARK 921   NORMALIZED FREE ENERGY PREDICTED BY IDOCK:   -1.78 KCAL/MOL
REMARK 922        TOTAL FREE ENERGY PREDICTED BY IDOCK:   -2.05 KCAL/MOL
REMARK 923 INTER-LIGAND FREE ENERGY PREDICTED BY IDOCK:   -1.96 KCAL/MOL
REMARK 924 INTRA-LIGAND FREE ENERGY PREDICTED BY IDOCK:   -0.09 KCAL/MOL
REMARK 927      BINDING AFFINITY PREDICTED BY RF-SCORE:    0.00 PKD
ROOT
HETATM    1 CL   UNL     1      -9.953  11.649  68.521  1.00  0.00    -0.197 Cl 
HETATM    2  C   UNL     2      -9.903   8.918  66.159  1.00  0.00    -0.256 C  
HETATM    3  N   UNL     2      -8.712   9.310  65.270  1.00  0.00    -0.172 N  
HETATM    4  C   UNL     2      -8.038   8.054  64.779  1.00  0.00    -0.143 C  
HETATM    5  C   UNL     2      -7.728  10.109  66.136  1.00  0.00    -0.113 C  
ENDROOT
BRANCH   3   6
HETATM    6  C   UNL     2      -9.270  10.184  64.133  1.00  0.00    -0.270 C  
BRANCH   6   7
HETATM    7  C   UNL     2     -10.402  11.141  64.544  1.00  0.00    -0.337 C  
HETATM    8  O   UNL     2     -10.024  12.510  64.487  1.00  0.00    -0.472 OA 
HETATM    9  H   UNL     2     -10.724  13.101  64.741  1.00  0.00     0.000 HD 
ENDBRANCH   6   7
ENDBRANCH   3   6
TORSDOF 2
ENDMDL
MODEL      135
REMARK 921   NORMALIZED FREE ENERGY PREDICTED BY IDOCK:   -1.78 KCAL/MOL
REMARK 922        TOTAL FREE ENERGY PREDICTED BY IDOCK:   -2.05 KCAL/MOL
REMARK 923 INTER-LIGAND FREE ENERGY PREDICTED BY IDOCK:   -1.97 KCAL/MOL
REMARK 924 INTRA-LIGAND FREE ENERGY PREDICTED BY IDOCK:   -0.08 KCAL/MOL
REMARK 927      BINDING AFFINITY PREDICTED BY RF-SCORE:    0.00 PKD
ROOT
HETATM    1 CL   UNL     1     -10.729   1.499  72.788  1.00  0.00    -0.228 Cl 
HETATM    2  C   UNL     2      -9.428   4.839  73.232  1.00  0.00    -0.123 C  
HETATM    3  N   UNL     2     -10.578   5.689  72.668  1.00  0.00    -0.212 N  
HETATM    4  C   UNL     2     -10.633   6.994  73.420  1.00  0.00    -0.364 C  
HETATM    5  C   UNL     2     -11.884   4.915  72.898  1.00  0.00    -0.003 C  
ENDROOT
BRANCH   3   6
HETATM    6  C   UNL     2     -10.309   5.865  71.163  1.00  0.00    -0.221 C  
BRANCH   6   7
HETATM    7  C   UNL     2     -10.814   7.188  70.563  1.00  0.00    -0.246 C  
HETATM    8  O   UNL     2     -12.146   7.106  70.073  1.00  0.00    -0.571 OA 
HETATM    9  H   UNL     2     -12.458   7.924  69.703  1.00  0.00     0.000 HD 
ENDBRANCH   6   7
ENDBRANCH   3   6
TORSDOF 2
ENDMDL
MODEL      136
REMARK 921   NORMALIZED FREE ENERGY PREDICTED BY IDOCK:   -1.77 KCAL/MOL
REMARK 922        TOTAL FREE ENERGY PREDICTED BY IDOCK:   -2.05 KCAL/MOL
REMARK 923 INTER-LIGAND FREE ENERGY PREDICTED BY IDOCK:   -1.99 KCAL/MOL
REMARK 924 INTRA-LIGAND FREE ENERGY PREDICTED BY IDOCK:   -0.06 KCAL/MOL
REMARK 927      BINDING AFFINITY PREDICTED BY RF-SCORE:    0.00 PKD
ROOT
HETATM    1 CL   UNL     1      -6.090  14.196  70.940  1.00  0.00    -0.190 Cl 
HETATM    2  C   UNL     2      -7.056  14.587  67.482  1.00  0.00    -0.175 C  
HETATM    3  N   UNL     2      -8.400  15.319  67.625  1.00  0.00    -0.155 N  
HETATM    4  C   UNL     2      -8.582  16.237  66.443  1.00  0.00    -0.326 C  
HETATM    5  C   UNL     2      -8.340  16.155  68.911  1.00  0.00    -0.233 C  
ENDROOT
BRANCH   3   6
HETATM    6  C   UNL     2      -9.490  14.238  67.729  1.00  0.00    -0.216 C  
BRANCH   6   7
HETATM    7  C   UNL     2      -9.257  12.994  66.856  1.00  0.00    -0.236 C  
HETATM    8  O   UNL     2      -9.772  13.132  65.538  1.00  0.00    -0.455 OA 
HETATM    9  H   UNL     2      -9.627  12.363  64.999  1.00  0.00     0.000 HD 
ENDBRANCH   6   7
ENDBRANCH   3   6
TORSDOF 2
ENDMDL
MODEL      137
REMARK 921   NORMALIZED FREE ENERGY PREDICTED BY IDOCK:   -1.77 KCAL/MOL
REMARK 922        TOTAL FREE ENERGY PREDICTED BY IDOCK:   -2.04 KCAL/MOL
REMARK 923 INTER-LIGAND FREE ENERGY PREDICTED BY IDOCK:   -1.94 KCAL/MOL
REMARK 924 INTRA-LIGAND FREE ENERGY PREDICTED BY IDOCK:   -0.11 KCAL/MOL
REMARK 927      BINDING AFFINITY PREDICTED BY RF-SCORE:    0.00 PKD
ROOT
HETATM    1 CL   UNL     1      -9.100   4.501  71.654  1.00  0.00    -0.161 Cl 
HETATM    2  C   UNL     2     -10.505   7.523  73.046  1.00  0.00    -0.342 C  
HETATM    3  N   UNL     2     -10.993   8.241  71.778  1.00  0.00    -0.260 N  
HETATM    4  C   UNL     2     -12.224   9.042  72.116  1.00  0.00    -0.357 C  
HETATM    5  C   UNL     2     -11.356   7.165  70.745  1.00  0.00    -0.289 C  
ENDROOT
BRANCH   3   6
HETATM    6  C   UNL     2      -9.824   9.106  71.274  1.00  0.00    -0.293 C  
BRANCH   6   7
HETATM    7  C   UNL     2      -8.441   8.711  71.820  1.00  0.00    -0.155 C  
HETATM    8  O   UNL     2      -7.687   7.920  70.910  1.00  0.00    -0.079 OA 
HETATM    9  H   UNL     2      -6.833   7.676  71.248  1.00  0.00     0.000 HD 
ENDBRANCH   6   7
ENDBRANCH   3   6
TORSDOF 2
ENDMDL
MODEL      138
REMARK 921   NORMALIZED FREE ENERGY PREDICTED BY IDOCK:   -1.77 KCAL/MOL
REMARK 922        TOTAL FREE ENERGY PREDICTED BY IDOCK:   -2.04 KCAL/MOL
REMARK 923 INTER-LIGAND FREE ENERGY PREDICTED BY IDOCK:   -1.99 KCAL/MOL
REMARK 924 INTRA-LIGAND FREE ENERGY PREDICTED BY IDOCK:   -0.05 KCAL/MOL
REMARK 927      BINDING AFFINITY PREDICTED BY RF-SCORE:    0.00 PKD
ROOT
HETATM    1 CL   UNL     1      -7.974   5.557  73.284  1.00  0.00    -0.107 Cl 
HETATM    2  C   UNL     2      -9.181   8.593  71.745  1.00  0.00    -0.268 C  
HETATM    3  N   UNL     2     -10.349   8.060  70.901  1.00  0.00    -0.199 N  
HETATM    4  C   UNL     2     -11.419   9.119  70.826  1.00  0.00    -0.282 C  
HETATM    5  C   UNL     2     -10.911   6.821  71.613  1.00  0.00    -0.229 C  
ENDROOT
BRANCH   3   6
HETATM    6  C   UNL     2      -9.772   7.681  69.525  1.00  0.00    -0.168 C  
BRANCH   6   7
HETATM    7  C   UNL     2     -10.358   8.462  68.337  1.00  0.00    -0.200 C  
HETATM    8  O   UNL     2     -11.043   7.633  67.407  1.00  0.00    -0.537 OA 
HETATM    9  H   UNL     2     -11.406   8.116  66.674  1.00  0.00     0.000 HD 
ENDBRANCH   6   7
ENDBRANCH   3   6
TORSDOF 2
ENDMDL
MODEL      139
REMARK 921   NORMALIZED FREE ENERGY PREDICTED BY IDOCK:   -1.77 KCAL/MOL
REMARK 922        TOTAL FREE ENERGY PREDICTED BY IDOCK:   -2.04 KCAL/MOL
REMARK 923 INTER-LIGAND FREE ENERGY PREDICTED BY IDOCK:   -1.99 KCAL/MOL
REMARK 924 INTRA-LIGAND FREE ENERGY PREDICTED BY IDOCK:   -0.05 KCAL/MOL
REMARK 927      BINDING AFFINITY PREDICTED BY RF-SCORE:    0.00 PKD
ROOT
HETATM    1 CL   UNL     1     -10.605   9.320  67.603  1.00  0.00    -0.332 Cl 
HETATM    2  C   UNL     2     -11.449   6.465  69.647  1.00  0.00    -0.378 C  
HETATM    3  N   UNL     2     -11.015   6.952  71.039  1.00  0.00    -0.244 N  
HETATM    4  C   UNL     2     -11.927   6.343  72.074  1.00  0.00    -0.326 C  
HETATM    5  C   UNL     2     -11.166   8.479  71.066  1.00  0.00    -0.268 C  
ENDROOT
BRANCH   3   6
HETATM    6  C   UNL     2      -9.541   6.548  71.216  1.00  0.00    -0.166 C  
BRANCH   6   7
HETATM    7  C   UNL     2      -9.302   5.353  72.155  1.00  0.00    -0.143 C  
HETATM    8  O   UNL     2      -9.423   4.096  71.501  1.00  0.00    -0.134 OA 
HETATM    9  H   UNL     2      -9.275   3.358  72.081  1.00  0.00     0.000 HD 
ENDBRANCH   6   7
ENDBRANCH   3   6
TORSDOF 2
ENDMDL
MODEL      140
REMARK 921   NORMALIZED FREE ENERGY PREDICTED BY IDOCK:   -1.76 KCAL/MOL
REMARK 922        TOTAL FREE ENERGY PREDICTED BY IDOCK:   -2.03 KCAL/MOL
REMARK 923 INTER-LIGAND FREE ENERGY PREDICTED BY IDOCK:   -1.94 KCAL/MOL
REMARK 924 INTRA-LIGAND FREE ENERGY PREDICTED BY IDOCK:   -0.08 KCAL/MOL
REMARK 927      BINDING AFFINITY PREDICTED BY RF-SCORE:    0.00 PKD
ROOT
HETATM    1 CL   UNL     1     -13.216   7.411  71.486  1.00  0.00    -0.423 Cl 
HETATM    2  C   UNL     2      -9.993   7.560  69.865  1.00  0.00    -0.189 C  
HETATM    3  N   UNL     2      -9.354   8.766  70.572  1.00  0.00    -0.174 N  
HETATM    4  C   UNL     2      -7.866   8.547  70.661  1.00  0.00    -0.091 C  
HETATM    5  C   UNL     2      -9.942   8.839  71.988  1.00  0.00    -0.321 C  
ENDROOT
BRANCH   3   6
HETATM    6  C   UNL     2      -9.737  10.016  69.759  1.00  0.00    -0.226 C  
BRANCH   6   7
HETATM    7  C   UNL     2     -11.229  10.127  69.403  1.00  0.00    -0.215 C  
HETATM    8  O   UNL     2     -11.914  11.109  70.170  1.00  0.00    -0.303 OA 
HETATM    9  H   UNL     2     -12.836  11.178  69.950  1.00  0.00     0.000 HD 
ENDBRANCH   6   7
ENDBRANCH   3   6
TORSDOF 2
ENDMDL
MODEL      141
REMARK 921   NORMALIZED FREE ENERGY PREDICTED BY IDOCK:   -1.75 KCAL/MOL
REMARK 922        TOTAL FREE ENERGY PREDICTED BY IDOCK:   -2.02 KCAL/MOL
REMARK 923 INTER-LIGAND FREE ENERGY PREDICTED BY IDOCK:   -1.95 KCAL/MOL
REMARK 924 INTRA-LIGAND FREE ENERGY PREDICTED BY IDOCK:   -0.07 KCAL/MOL
REMARK 927      BINDING AFFINITY PREDICTED BY RF-SCORE:    0.00 PKD
ROOT
HETATM    1 CL   UNL     1     -10.441   5.227  70.328  1.00  0.00    -0.351 Cl 
HETATM    2  C   UNL     2     -10.646   8.776  69.692  1.00  0.00    -0.219 C  
HETATM    3  N   UNL     2     -10.096   8.859  68.259  1.00  0.00    -0.180 N  
HETATM    4  C   UNL     2     -10.780   9.992  67.539  1.00  0.00    -0.281 C  
HETATM    5  C   UNL     2     -10.431   7.535  67.555  1.00  0.00    -0.271 C  
ENDROOT
BRANCH   3   6
HETATM    6  C   UNL     2      -8.572   9.043  68.374  1.00  0.00    -0.130 C  
BRANCH   6   7
HETATM    7  C   UNL     2      -8.105   9.841  69.603  1.00  0.00    -0.154 C  
HETATM    8  O   UNL     2      -8.119  11.247  69.395  1.00  0.00    -0.369 OA 
HETATM    9  H   UNL     2      -7.831  11.739  70.155  1.00  0.00     0.000 HD 
ENDBRANCH   6   7
ENDBRANCH   3   6
TORSDOF 2
ENDMDL
MODEL      142
REMARK 921   NORMALIZED FREE ENERGY PREDICTED BY IDOCK:   -1.73 KCAL/MOL
REMARK 922        TOTAL FREE ENERGY PREDICTED BY IDOCK:   -2.00 KCAL/MOL
REMARK 923 INTER-LIGAND FREE ENERGY PREDICTED BY IDOCK:   -1.94 KCAL/MOL
REMARK 924 INTRA-LIGAND FREE ENERGY PREDICTED BY IDOCK:   -0.05 KCAL/MOL
REMARK 927      BINDING AFFINITY PREDICTED BY RF-SCORE:    0.00 PKD
ROOT
HETATM    1 CL   UNL     1      -7.042  11.157  69.433  1.00  0.00    -0.123 Cl 
HETATM    2  C   UNL     2      -8.987  12.454  66.680  1.00  0.00    -0.184 C  
HETATM    3  N   UNL     2     -10.207  11.519  66.705  1.00  0.00    -0.214 N  
HETATM    4  C   UNL     2     -11.419  12.287  66.245  1.00  0.00    -0.380 C  
HETATM    5  C   UNL     2     -10.415  11.064  68.157  1.00  0.00    -0.189 C  
ENDROOT
BRANCH   3   6
HETATM    6  C   UNL     2      -9.869  10.318  65.803  1.00  0.00    -0.257 C  
BRANCH   6   7
HETATM    7  C   UNL     2      -9.559   9.010  66.551  1.00  0.00    -0.223 C  
HETATM    8  O   UNL     2     -10.549   8.008  66.357  1.00  0.00    -0.373 OA 
HETATM    9  H   UNL     2     -10.357   7.200  66.819  1.00  0.00     0.000 HD 
ENDBRANCH   6   7
ENDBRANCH   3   6
TORSDOF 2
ENDMDL
MODEL      143
REMARK 921   NORMALIZED FREE ENERGY PREDICTED BY IDOCK:   -1.72 KCAL/MOL
REMARK 922        TOTAL FREE ENERGY PREDICTED BY IDOCK:   -1.99 KCAL/MOL
REMARK 923 INTER-LIGAND FREE ENERGY PREDICTED BY IDOCK:   -1.92 KCAL/MOL
REMARK 924 INTRA-LIGAND FREE ENERGY PREDICTED BY IDOCK:   -0.07 KCAL/MOL
REMARK 927      BINDING AFFINITY PREDICTED BY RF-SCORE:    0.00 PKD
ROOT
HETATM    1 CL   UNL     1     -11.279  11.605  65.869  1.00  0.00    -0.335 Cl 
HETATM    2  C   UNL     2     -10.645   8.419  67.446  1.00  0.00    -0.243 C  
HETATM    3  N   UNL     2     -10.206   8.859  68.852  1.00  0.00    -0.202 N  
HETATM    4  C   UNL     2     -10.642   7.815  69.847  1.00  0.00    -0.239 C  
HETATM    5  C   UNL     2     -10.913  10.185  69.165  1.00  0.00    -0.230 C  
ENDROOT
BRANCH   3   6
HETATM    6  C   UNL     2      -8.680   9.055  68.804  1.00  0.00    -0.136 C  
BRANCH   6   7
HETATM    7  C   UNL     2      -7.976   9.002  70.170  1.00  0.00    -0.114 C  
HETATM    8  O   UNL     2      -7.610  10.285  70.660  1.00  0.00    -0.420 OA 
HETATM    9  H   UNL     2      -7.174  10.252  71.504  1.00  0.00     0.000 HD 
ENDBRANCH   6   7
ENDBRANCH   3   6
TORSDOF 2
ENDMDL
MODEL      144
REMARK 921   NORMALIZED FREE ENERGY PREDICTED BY IDOCK:   -1.69 KCAL/MOL
REMARK 922        TOTAL FREE ENERGY PREDICTED BY IDOCK:   -1.95 KCAL/MOL
REMARK 923 INTER-LIGAND FREE ENERGY PREDICTED BY IDOCK:   -1.91 KCAL/MOL
REMARK 924 INTRA-LIGAND FREE ENERGY PREDICTED BY IDOCK:   -0.04 KCAL/MOL
REMARK 927      BINDING AFFINITY PREDICTED BY RF-SCORE:    0.00 PKD
ROOT
HETATM    1 CL   UNL     1      -6.596  10.780  67.090  1.00  0.00    -0.074 Cl 
HETATM    2  C   UNL     2      -9.426  12.854  67.949  1.00  0.00    -0.208 C  
HETATM    3  N   UNL     2     -10.577  11.838  67.878  1.00  0.00    -0.195 N  
HETATM    4  C   UNL     2     -11.624  12.217  68.893  1.00  0.00    -0.316 C  
HETATM    5  C   UNL     2     -10.003  10.459  68.232  1.00  0.00    -0.151 C  
ENDROOT
BRANCH   3   6
HETATM    6  C   UNL     2     -11.100  11.854  66.430  1.00  0.00    -0.309 C  
BRANCH   6   7
HETATM    7  C   UNL     2     -10.364  12.819  65.485  1.00  0.00    -0.284 C  
HETATM    8  O   UNL     2     -10.072  12.244  64.218  1.00  0.00    -0.374 OA 
HETATM    9  H   UNL     2      -9.617  12.840  63.634  1.00  0.00     0.000 HD 
ENDBRANCH   6   7
ENDBRANCH   3   6
TORSDOF 2
ENDMDL
MODEL      145
REMARK 921   NORMALIZED FREE ENERGY PREDICTED BY IDOCK:   -1.68 KCAL/MOL
REMARK 922        TOTAL FREE ENERGY PREDICTED BY IDOCK:   -1.94 KCAL/MOL
REMARK 923 INTER-LIGAND FREE ENERGY PREDICTED BY IDOCK:   -2.06 KCAL/MOL
REMARK 924 INTRA-LIGAND FREE ENERGY PREDICTED BY IDOCK:    0.13 KCAL/MOL
REMARK 927      BINDING AFFINITY PREDICTED BY RF-SCORE:    0.00 PKD
ROOT
HETATM    1 CL   UNL     1     -11.202  12.462  69.793  1.00  0.00    -0.111 Cl 
HETATM    2  C   UNL     2     -10.437  15.990  69.705  1.00  0.00    -0.300 C  
HETATM    3  N   UNL     2     -10.190  16.208  68.204  1.00  0.00    -0.241 N  
HETATM    4  C   UNL     2     -10.626  17.603  67.836  1.00  0.00    -0.387 C  
HETATM    5  C   UNL     2     -11.047  15.190  67.438  1.00  0.00    -0.325 C  
ENDROOT
BRANCH   3   6
HETATM    6  C   UNL     2      -8.692  15.954  67.955  1.00  0.00    -0.169 C  
BRANCH   6   7
HETATM    7  C   UNL     2      -8.176  16.408  66.580  1.00  0.00    -0.306 C  
HETATM    8  O   UNL     2      -7.737  17.761  66.567  1.00  0.00    -0.226 OA 
HETATM    9  H   UNL     2      -7.418  18.041  65.717  1.00  0.00     0.000 HD 
ENDBRANCH   6   7
ENDBRANCH   3   6
TORSDOF 2
ENDMDL
MODEL      146
REMARK 921   NORMALIZED FREE ENERGY PREDICTED BY IDOCK:   -1.67 KCAL/MOL
REMARK 922        TOTAL FREE ENERGY PREDICTED BY IDOCK:   -1.93 KCAL/MOL
REMARK 923 INTER-LIGAND FREE ENERGY PREDICTED BY IDOCK:   -1.88 KCAL/MOL
REMARK 924 INTRA-LIGAND FREE ENERGY PREDICTED BY IDOCK:   -0.05 KCAL/MOL
REMARK 927      BINDING AFFINITY PREDICTED BY RF-SCORE:    0.00 PKD
ROOT
HETATM    1 CL   UNL     1     -10.706   8.573  71.317  1.00  0.00    -0.282 Cl 
HETATM    2  C   UNL     2     -11.287  10.765  68.506  1.00  0.00    -0.295 C  
HETATM    3  N   UNL     2      -9.995  10.567  67.697  1.00  0.00    -0.169 N  
HETATM    4  C   UNL     2     -10.312  10.711  66.231  1.00  0.00    -0.234 C  
HETATM    5  C   UNL     2      -9.489   9.144  67.970  1.00  0.00    -0.141 C  
ENDROOT
BRANCH   3   6
HETATM    6  C   UNL     2      -8.984  11.611  68.206  1.00  0.00    -0.185 C  
BRANCH   6   7
HETATM    7  C   UNL     2      -7.933  12.054  67.174  1.00  0.00    -0.175 C  
HETATM    8  O   UNL     2      -7.955  13.452  66.920  1.00  0.00    -0.397 OA 
HETATM    9  H   UNL     2      -7.305  13.726  66.282  1.00  0.00     0.000 HD 
ENDBRANCH   6   7
ENDBRANCH   3   6
TORSDOF 2
ENDMDL
MODEL      147
REMARK 921   NORMALIZED FREE ENERGY PREDICTED BY IDOCK:   -1.67 KCAL/MOL
REMARK 922        TOTAL FREE ENERGY PREDICTED BY IDOCK:   -1.92 KCAL/MOL
REMARK 923 INTER-LIGAND FREE ENERGY PREDICTED BY IDOCK:   -1.82 KCAL/MOL
REMARK 924 INTRA-LIGAND FREE ENERGY PREDICTED BY IDOCK:   -0.11 KCAL/MOL
REMARK 927      BINDING AFFINITY PREDICTED BY RF-SCORE:    0.00 PKD
ROOT
HETATM    1 CL   UNL     1     -10.968   9.871  68.135  1.00  0.00    -0.285 Cl 
HETATM    2  C   UNL     2     -11.444   7.130  70.438  1.00  0.00    -0.278 C  
HETATM    3  N   UNL     2     -10.522   7.545  71.596  1.00  0.00    -0.200 N  
HETATM    4  C   UNL     2     -11.114   7.049  72.890  1.00  0.00    -0.278 C  
HETATM    5  C   UNL     2     -10.466   9.079  71.619  1.00  0.00    -0.355 C  
ENDROOT
BRANCH   3   6
HETATM    6  C   UNL     2      -9.133   6.954  71.297  1.00  0.00    -0.149 C  
BRANCH   6   7
HETATM    7  C   UNL     2      -8.881   6.601  69.821  1.00  0.00    -0.144 C  
HETATM    8  O   UNL     2      -8.269   7.656  69.091  1.00  0.00    -0.126 OA 
HETATM    9  H   UNL     2      -8.113   7.437  68.179  1.00  0.00     0.000 HD 
ENDBRANCH   6   7
ENDBRANCH   3   6
TORSDOF 2
ENDMDL
MODEL      148
REMARK 921   NORMALIZED FREE ENERGY PREDICTED BY IDOCK:   -1.66 KCAL/MOL
REMARK 922        TOTAL FREE ENERGY PREDICTED BY IDOCK:   -1.92 KCAL/MOL
REMARK 923 INTER-LIGAND FREE ENERGY PREDICTED BY IDOCK:   -1.86 KCAL/MOL
REMARK 924 INTRA-LIGAND FREE ENERGY PREDICTED BY IDOCK:   -0.06 KCAL/MOL
REMARK 927      BINDING AFFINITY PREDICTED BY RF-SCORE:    0.00 PKD
ROOT
HETATM    1 CL   UNL     1     -12.714  10.243  71.806  1.00  0.00    -0.532 Cl 
HETATM    2  C   UNL     2      -9.539   9.811  70.139  1.00  0.00    -0.237 C  
HETATM    3  N   UNL     2      -9.347   8.290  70.244  1.00  0.00    -0.158 N  
HETATM    4  C   UNL     2      -8.594   7.809  69.031  1.00  0.00    -0.135 C  
HETATM    5  C   UNL     2     -10.740   7.645  70.266  1.00  0.00    -0.239 C  
ENDROOT
BRANCH   3   6
HETATM    6  C   UNL     2      -8.605   8.022  71.566  1.00  0.00    -0.128 C  
BRANCH   6   7
HETATM    7  C   UNL     2      -9.498   7.986  72.817  1.00  0.00    -0.269 C  
HETATM    8  O   UNL     2      -8.936   8.676  73.925  1.00  0.00    -0.163 OA 
HETATM    9  H   UNL     2      -9.489   8.653  74.698  1.00  0.00     0.000 HD 
ENDBRANCH   6   7
ENDBRANCH   3   6
TORSDOF 2
ENDMDL
MODEL      149
REMARK 921   NORMALIZED FREE ENERGY PREDICTED BY IDOCK:   -1.64 KCAL/MOL
REMARK 922        TOTAL FREE ENERGY PREDICTED BY IDOCK:   -1.90 KCAL/MOL
REMARK 923 INTER-LIGAND FREE ENERGY PREDICTED BY IDOCK:   -1.83 KCAL/MOL
REMARK 924 INTRA-LIGAND FREE ENERGY PREDICTED BY IDOCK:   -0.06 KCAL/MOL
REMARK 927      BINDING AFFINITY PREDICTED BY RF-SCORE:    0.00 PKD
ROOT
HETATM    1 CL   UNL     1     -11.619  13.585  69.277  1.00  0.00    -0.346 Cl 
HETATM    2  C   UNL     2      -9.240  16.288  69.007  1.00  0.00    -0.253 C  
HETATM    3  N   UNL     2      -9.116  16.430  67.481  1.00  0.00    -0.193 N  
HETATM    4  C   UNL     2      -8.855  17.876  67.147  1.00  0.00    -0.247 C  
HETATM    5  C   UNL     2     -10.454  16.000  66.864  1.00  0.00    -0.306 C  
ENDROOT
BRANCH   3   6
HETATM    6  C   UNL     2      -7.983  15.488  67.034  1.00  0.00    -0.233 C  
BRANCH   6   7
HETATM    7  C   UNL     2      -7.907  14.156  67.798  1.00  0.00    -0.170 C  
HETATM    8  O   UNL     2      -6.650  13.943  68.426  1.00  0.00    -0.085 OA 
HETATM    9  H   UNL     2      -6.603  13.119  68.898  1.00  0.00     0.000 HD 
ENDBRANCH   6   7
ENDBRANCH   3   6
TORSDOF 2
ENDMDL
MODEL      150
REMARK 921   NORMALIZED FREE ENERGY PREDICTED BY IDOCK:   -1.63 KCAL/MOL
REMARK 922        TOTAL FREE ENERGY PREDICTED BY IDOCK:   -1.88 KCAL/MOL
REMARK 923 INTER-LIGAND FREE ENERGY PREDICTED BY IDOCK:   -1.79 KCAL/MOL
REMARK 924 INTRA-LIGAND FREE ENERGY PREDICTED BY IDOCK:   -0.09 KCAL/MOL
REMARK 927      BINDING AFFINITY PREDICTED BY RF-SCORE:    0.00 PKD
ROOT
HETATM    1 CL   UNL     1     -10.971   9.000  71.100  1.00  0.00    -0.342 Cl 
HETATM    2  C   UNL     2      -9.275   5.814  70.954  1.00  0.00    -0.156 C  
HETATM    3  N   UNL     2      -9.803   5.133  72.227  1.00  0.00    -0.166 N  
HETATM    4  C   UNL     2      -9.888   3.648  71.984  1.00  0.00    -0.174 C  
HETATM    5  C   UNL     2     -11.209   5.684  72.501  1.00  0.00    -0.293 C  
ENDROOT
BRANCH   3   6
HETATM    6  C   UNL     2      -8.840   5.508  73.368  1.00  0.00    -0.116 C  
BRANCH   6   7
HETATM    7  C   UNL     2      -8.394   6.980  73.384  1.00  0.00    -0.119 C  
HETATM    8  O   UNL     2      -9.158   7.786  74.272  1.00  0.00    -0.426 OA 
HETATM    9  H   UNL     2      -8.881   8.695  74.281  1.00  0.00     0.000 HD 
ENDBRANCH   6   7
ENDBRANCH   3   6
TORSDOF 2
ENDMDL
MODEL      151
REMARK 921   NORMALIZED FREE ENERGY PREDICTED BY IDOCK:   -1.62 KCAL/MOL
REMARK 922        TOTAL FREE ENERGY PREDICTED BY IDOCK:   -1.87 KCAL/MOL
REMARK 923 INTER-LIGAND FREE ENERGY PREDICTED BY IDOCK:   -1.79 KCAL/MOL
REMARK 924 INTRA-LIGAND FREE ENERGY PREDICTED BY IDOCK:   -0.08 KCAL/MOL
REMARK 927      BINDING AFFINITY PREDICTED BY RF-SCORE:    0.00 PKD
ROOT
HETATM    1 CL   UNL     1      -8.958  11.870  68.324  1.00  0.00    -0.178 Cl 
HETATM    2  C   UNL     2      -8.729   8.536  69.693  1.00  0.00    -0.133 C  
HETATM    3  N   UNL     2     -10.042   7.913  69.192  1.00  0.00    -0.192 N  
HETATM    4  C   UNL     2      -9.821   6.442  68.948  1.00  0.00    -0.137 C  
HETATM    5  C   UNL     2     -10.406   8.598  67.867  1.00  0.00    -0.229 C  
ENDROOT
BRANCH   3   6
HETATM    6  C   UNL     2     -11.111   8.198  70.262  1.00  0.00    -0.221 C  
BRANCH   6   7
HETATM    7  C   UNL     2     -10.800   9.385  71.190  1.00  0.00    -0.357 C  
HETATM    8  O   UNL     2     -11.732  10.451  71.065  1.00  0.00    -0.348 OA 
HETATM    9  H   UNL     2     -11.539  11.184  71.639  1.00  0.00     0.000 HD 
ENDBRANCH   6   7
ENDBRANCH   3   6
TORSDOF 2
ENDMDL
MODEL      152
REMARK 921   NORMALIZED FREE ENERGY PREDICTED BY IDOCK:   -1.61 KCAL/MOL
REMARK 922        TOTAL FREE ENERGY PREDICTED BY IDOCK:   -1.86 KCAL/MOL
REMARK 923 INTER-LIGAND FREE ENERGY PREDICTED BY IDOCK:   -1.81 KCAL/MOL
REMARK 924 INTRA-LIGAND FREE ENERGY PREDICTED BY IDOCK:   -0.05 KCAL/MOL
REMARK 927      BINDING AFFINITY PREDICTED BY RF-SCORE:    0.00 PKD
ROOT
HETATM    1 CL   UNL     1     -10.784  17.332  68.567  1.00  0.00    -0.339 Cl 
HETATM    2  C   UNL     2      -8.298  15.275  66.946  1.00  0.00    -0.243 C  
HETATM    3  N   UNL     2      -7.036  15.641  67.745  1.00  0.00    -0.138 N  
HETATM    4  C   UNL     2      -6.134  14.435  67.809  1.00  0.00    -0.117 C  
HETATM    5  C   UNL     2      -7.479  16.019  69.166  1.00  0.00    -0.216 C  
ENDROOT
BRANCH   3   6
HETATM    6  C   UNL     2      -6.392  16.846  67.038  1.00  0.00    -0.194 C  
BRANCH   6   7
HETATM    7  C   UNL     2      -7.112  18.188  67.254  1.00  0.00    -0.194 C  
HETATM    8  O   UNL     2      -8.003  18.519  66.198  1.00  0.00    -0.371 OA 
HETATM    9  H   UNL     2      -8.448  19.348  66.332  1.00  0.00     0.000 HD 
ENDBRANCH   6   7
ENDBRANCH   3   6
TORSDOF 2
ENDMDL
MODEL      153
REMARK 921   NORMALIZED FREE ENERGY PREDICTED BY IDOCK:   -1.60 KCAL/MOL
REMARK 922        TOTAL FREE ENERGY PREDICTED BY IDOCK:   -1.85 KCAL/MOL
REMARK 923 INTER-LIGAND FREE ENERGY PREDICTED BY IDOCK:   -1.80 KCAL/MOL
REMARK 924 INTRA-LIGAND FREE ENERGY PREDICTED BY IDOCK:   -0.05 KCAL/MOL
REMARK 927      BINDING AFFINITY PREDICTED BY RF-SCORE:    0.00 PKD
ROOT
HETATM    1 CL   UNL     1      -8.862  12.048  68.220  1.00  0.00    -0.184 Cl 
HETATM    2  C   UNL     2     -10.251   9.056  66.750  1.00  0.00    -0.271 C  
HETATM    3  N   UNL     2      -8.978   8.254  66.436  1.00  0.00    -0.157 N  
HETATM    4  C   UNL     2      -9.282   6.784  66.572  1.00  0.00    -0.162 C  
HETATM    5  C   UNL     2      -7.913   8.649  67.470  1.00  0.00    -0.106 C  
ENDROOT
BRANCH   3   6
HETATM    6  C   UNL     2      -8.534   8.654  65.018  1.00  0.00    -0.173 C  
BRANCH   6   7
HETATM    7  C   UNL     2      -9.090   9.999  64.519  1.00  0.00    -0.243 C  
HETATM    8  O   UNL     2      -9.906   9.870  63.362  1.00  0.00    -0.503 OA 
HETATM    9  H   UNL     2     -10.249  10.701  63.054  1.00  0.00     0.000 HD 
ENDBRANCH   6   7
ENDBRANCH   3   6
TORSDOF 2
ENDMDL
MODEL      154
REMARK 921   NORMALIZED FREE ENERGY PREDICTED BY IDOCK:   -1.59 KCAL/MOL
REMARK 922        TOTAL FREE ENERGY PREDICTED BY IDOCK:   -1.83 KCAL/MOL
REMARK 923 INTER-LIGAND FREE ENERGY PREDICTED BY IDOCK:   -1.81 KCAL/MOL
REMARK 924 INTRA-LIGAND FREE ENERGY PREDICTED BY IDOCK:   -0.02 KCAL/MOL
REMARK 927      BINDING AFFINITY PREDICTED BY RF-SCORE:    0.00 PKD
ROOT
HETATM    1 CL   UNL     1      -8.191   5.111  66.507  1.00  0.00    -0.108 Cl 
HETATM    2  C   UNL     2     -10.139   5.102  69.548  1.00  0.00    -0.246 C  
HETATM    3  N   UNL     2     -10.355   6.607  69.772  1.00  0.00    -0.186 N  
HETATM    4  C   UNL     2     -11.693   6.814  70.436  1.00  0.00    -0.363 C  
HETATM    5  C   UNL     2     -10.361   7.287  68.396  1.00  0.00    -0.185 C  
ENDROOT
BRANCH   3   6
HETATM    6  C   UNL     2      -9.173   7.108  70.621  1.00  0.00    -0.158 C  
BRANCH   6   7
HETATM    7  C   UNL     2      -9.496   8.287  71.554  1.00  0.00    -0.186 C  
HETATM    8  O   UNL     2      -8.337   8.880  72.127  1.00  0.00    -0.381 OA 
HETATM    9  H   UNL     2      -8.537   9.608  72.703  1.00  0.00     0.000 HD 
ENDBRANCH   6   7
ENDBRANCH   3   6
TORSDOF 2
ENDMDL
MODEL      155
REMARK 921   NORMALIZED FREE ENERGY PREDICTED BY IDOCK:   -1.58 KCAL/MOL
REMARK 922        TOTAL FREE ENERGY PREDICTED BY IDOCK:   -1.83 KCAL/MOL
REMARK 923 INTER-LIGAND FREE ENERGY PREDICTED BY IDOCK:   -1.74 KCAL/MOL
REMARK 924 INTRA-LIGAND FREE ENERGY PREDICTED BY IDOCK:   -0.08 KCAL/MOL
REMARK 927      BINDING AFFINITY PREDICTED BY RF-SCORE:    0.00 PKD
ROOT
HETATM    1 CL   UNL     1      -7.189   5.655  67.921  1.00  0.00    -0.071 Cl 
HETATM    2  C   UNL     2      -9.829   8.090  68.296  1.00  0.00    -0.170 C  
HETATM    3  N   UNL     2      -9.726   8.420  69.793  1.00  0.00    -0.178 N  
HETATM    4  C   UNL     2     -10.118   9.859  70.003  1.00  0.00    -0.260 C  
HETATM    5  C   UNL     2      -8.262   8.226  70.213  1.00  0.00    -0.121 C  
ENDROOT
BRANCH   3   6
HETATM    6  C   UNL     2     -10.639   7.426  70.534  1.00  0.00    -0.224 C  
BRANCH   6   7
HETATM    7  C   UNL     2     -11.165   6.263  69.676  1.00  0.00    -0.437 C  
HETATM    8  O   UNL     2     -10.514   5.029  69.948  1.00  0.00    -0.280 OA 
HETATM    9  H   UNL     2     -10.840   4.311  69.418  1.00  0.00     0.000 HD 
ENDBRANCH   6   7
ENDBRANCH   3   6
TORSDOF 2
ENDMDL
MODEL      156
REMARK 921   NORMALIZED FREE ENERGY PREDICTED BY IDOCK:   -1.57 KCAL/MOL
REMARK 922        TOTAL FREE ENERGY PREDICTED BY IDOCK:   -1.82 KCAL/MOL
REMARK 923 INTER-LIGAND FREE ENERGY PREDICTED BY IDOCK:   -1.72 KCAL/MOL
REMARK 924 INTRA-LIGAND FREE ENERGY PREDICTED BY IDOCK:   -0.10 KCAL/MOL
REMARK 927      BINDING AFFINITY PREDICTED BY RF-SCORE:    0.00 PKD
ROOT
HETATM    1 CL   UNL     1     -12.154   8.740  71.180  1.00  0.00    -0.323 Cl 
HETATM    2  C   UNL     2     -10.596   8.944  67.928  1.00  0.00    -0.183 C  
HETATM    3  N   UNL     2      -9.210   9.501  68.291  1.00  0.00    -0.130 N  
HETATM    4  C   UNL     2      -8.195   8.952  67.322  1.00  0.00    -0.104 C  
HETATM    5  C   UNL     2      -8.871   9.018  69.709  1.00  0.00    -0.153 C  
ENDROOT
BRANCH   3   6
HETATM    6  C   UNL     2      -9.320  11.036  68.252  1.00  0.00    -0.172 C  
BRANCH   6   7
HETATM    7  C   UNL     2     -10.755  11.586  68.309  1.00  0.00    -0.211 C  
HETATM    8  O   UNL     2     -11.161  11.952  69.622  1.00  0.00    -0.442 OA 
HETATM    9  H   UNL     2     -12.047  12.292  69.657  1.00  0.00     0.000 HD 
ENDBRANCH   6   7
ENDBRANCH   3   6
TORSDOF 2
ENDMDL
MODEL      157
REMARK 921   NORMALIZED FREE ENERGY PREDICTED BY IDOCK:   -1.57 KCAL/MOL
REMARK 922        TOTAL FREE ENERGY PREDICTED BY IDOCK:   -1.82 KCAL/MOL
REMARK 923 INTER-LIGAND FREE ENERGY PREDICTED BY IDOCK:   -1.79 KCAL/MOL
REMARK 924 INTRA-LIGAND FREE ENERGY PREDICTED BY IDOCK:   -0.03 KCAL/MOL
REMARK 927      BINDING AFFINITY PREDICTED BY RF-SCORE:    0.00 PKD
ROOT
HETATM    1 CL   UNL     1     -11.794  12.004  69.462  1.00  0.00    -0.384 Cl 
HETATM    2  C   UNL     2      -9.170   9.611  70.118  1.00  0.00    -0.246 C  
HETATM    3  N   UNL     2      -9.740   8.348  69.452  1.00  0.00    -0.175 N  
HETATM    4  C   UNL     2      -8.598   7.522  68.917  1.00  0.00    -0.129 C  
HETATM    5  C   UNL     2     -10.630   8.798  68.285  1.00  0.00    -0.142 C  
ENDROOT
BRANCH   3   6
HETATM    6  C   UNL     2     -10.572   7.615  70.520  1.00  0.00    -0.226 C  
BRANCH   6   7
HETATM    7  C   UNL     2     -10.719   6.100  70.302  1.00  0.00    -0.291 C  
HETATM    8  O   UNL     2     -11.001   5.388  71.499  1.00  0.00    -0.199 OA 
HETATM    9  H   UNL     2     -11.092   4.452  71.364  1.00  0.00     0.000 HD 
ENDBRANCH   6   7
ENDBRANCH   3   6
TORSDOF 2
ENDMDL
MODEL      158
REMARK 921   NORMALIZED FREE ENERGY PREDICTED BY IDOCK:   -1.56 KCAL/MOL
REMARK 922        TOTAL FREE ENERGY PREDICTED BY IDOCK:   -1.81 KCAL/MOL
REMARK 923 INTER-LIGAND FREE ENERGY PREDICTED BY IDOCK:   -1.74 KCAL/MOL
REMARK 924 INTRA-LIGAND FREE ENERGY PREDICTED BY IDOCK:   -0.07 KCAL/MOL
REMARK 927      BINDING AFFINITY PREDICTED BY RF-SCORE:    0.00 PKD
ROOT
HETATM    1 CL   UNL     1     -10.379   6.727  69.348  1.00  0.00    -0.205 Cl 
HETATM    2  C   UNL     2      -8.020   9.136  68.056  1.00  0.00    -0.101 C  
HETATM    3  N   UNL     2      -8.547  10.439  68.678  1.00  0.00    -0.126 N  
HETATM    4  C   UNL     2      -7.383  11.359  68.943  1.00  0.00    -0.114 C  
HETATM    5  C   UNL     2      -9.222  10.079  70.010  1.00  0.00    -0.101 C  
ENDROOT
BRANCH   3   6
HETATM    6  C   UNL     2      -9.572  11.025  67.690  1.00  0.00    -0.168 C  
BRANCH   6   7
HETATM    7  C   UNL     2     -10.985  10.425  67.788  1.00  0.00    -0.309 C  
HETATM    8  O   UNL     2     -11.986  11.395  68.068  1.00  0.00    -0.613 OA 
HETATM    9  H   UNL     2     -12.858  11.024  68.128  1.00  0.00     0.000 HD 
ENDBRANCH   6   7
ENDBRANCH   3   6
TORSDOF 2
ENDMDL
MODEL      159
REMARK 921   NORMALIZED FREE ENERGY PREDICTED BY IDOCK:   -1.55 KCAL/MOL
REMARK 922        TOTAL FREE ENERGY PREDICTED BY IDOCK:   -1.80 KCAL/MOL
REMARK 923 INTER-LIGAND FREE ENERGY PREDICTED BY IDOCK:   -1.74 KCAL/MOL
REMARK 924 INTRA-LIGAND FREE ENERGY PREDICTED BY IDOCK:   -0.06 KCAL/MOL
REMARK 927      BINDING AFFINITY PREDICTED BY RF-SCORE:    0.00 PKD
ROOT
HETATM    1 CL   UNL     1     -10.306  10.655  66.354  1.00  0.00    -0.293 Cl 
HETATM    2  C   UNL     2     -10.663   7.177  67.257  1.00  0.00    -0.329 C  
HETATM    3  N   UNL     2     -10.319   7.216  68.754  1.00  0.00    -0.187 N  
HETATM    4  C   UNL     2     -11.117   6.154  69.465  1.00  0.00    -0.420 C  
HETATM    5  C   UNL     2     -10.723   8.598  69.288  1.00  0.00    -0.136 C  
ENDROOT
BRANCH   3   6
HETATM    6  C   UNL     2      -8.798   7.012  68.869  1.00  0.00    -0.130 C  
BRANCH   6   7
HETATM    7  C   UNL     2      -8.205   7.312  70.257  1.00  0.00    -0.133 C  
HETATM    8  O   UNL     2      -7.919   6.139  71.007  1.00  0.00    -0.112 OA 
HETATM    9  H   UNL     2      -7.553   6.325  71.864  1.00  0.00     0.000 HD 
ENDBRANCH   6   7
ENDBRANCH   3   6
TORSDOF 2
ENDMDL
MODEL      160
REMARK 921   NORMALIZED FREE ENERGY PREDICTED BY IDOCK:   -1.55 KCAL/MOL
REMARK 922        TOTAL FREE ENERGY PREDICTED BY IDOCK:   -1.80 KCAL/MOL
REMARK 923 INTER-LIGAND FREE ENERGY PREDICTED BY IDOCK:   -1.73 KCAL/MOL
REMARK 924 INTRA-LIGAND FREE ENERGY PREDICTED BY IDOCK:   -0.06 KCAL/MOL
REMARK 927      BINDING AFFINITY PREDICTED BY RF-SCORE:    0.00 PKD
ROOT
HETATM    1 CL   UNL     1      -9.163   3.323  68.691  1.00  0.00    -0.215 Cl 
HETATM    2  C   UNL     2     -10.510   6.345  67.244  1.00  0.00    -0.263 C  
HETATM    3  N   UNL     2      -9.375   7.344  67.520  1.00  0.00    -0.129 N  
HETATM    4  C   UNL     2      -9.336   8.356  66.404  1.00  0.00    -0.214 C  
HETATM    5  C   UNL     2      -8.057   6.557  67.537  1.00  0.00    -0.121 C  
ENDROOT
BRANCH   3   6
HETATM    6  C   UNL     2      -9.653   7.969  68.899  1.00  0.00    -0.152 C  
BRANCH   6   7
HETATM    7  C   UNL     2     -10.096   9.442  68.866  1.00  0.00    -0.190 C  
HETATM    8  O   UNL     2     -11.437   9.631  69.297  1.00  0.00    -0.448 OA 
HETATM    9  H   UNL     2     -11.710  10.542  69.277  1.00  0.00     0.000 HD 
ENDBRANCH   6   7
ENDBRANCH   3   6
TORSDOF 2
ENDMDL
MODEL      161
REMARK 921   NORMALIZED FREE ENERGY PREDICTED BY IDOCK:   -1.55 KCAL/MOL
REMARK 922        TOTAL FREE ENERGY PREDICTED BY IDOCK:   -1.79 KCAL/MOL
REMARK 923 INTER-LIGAND FREE ENERGY PREDICTED BY IDOCK:   -1.77 KCAL/MOL
REMARK 924 INTRA-LIGAND FREE ENERGY PREDICTED BY IDOCK:   -0.02 KCAL/MOL
REMARK 927      BINDING AFFINITY PREDICTED BY RF-SCORE:    0.00 PKD
ROOT
HETATM    1 CL   UNL     1      -8.095  14.596  68.730  1.00  0.00    -0.149 Cl 
HETATM    2  C   UNL     2      -7.651  11.552  66.837  1.00  0.00    -0.151 C  
HETATM    3  N   UNL     2      -9.108  11.175  66.527  1.00  0.00    -0.176 N  
HETATM    4  C   UNL     2      -9.157  10.481  65.190  1.00  0.00    -0.197 C  
HETATM    5  C   UNL     2      -9.921  12.475  66.453  1.00  0.00    -0.252 C  
ENDROOT
BRANCH   3   6
HETATM    6  C   UNL     2      -9.599  10.292  67.688  1.00  0.00    -0.152 C  
BRANCH   6   7
HETATM    7  C   UNL     2     -10.525   9.134  67.278  1.00  0.00    -0.265 C  
HETATM    8  O   UNL     2     -11.039   8.409  68.387  1.00  0.00    -0.426 OA 
HETATM    9  H   UNL     2     -11.611   7.694  68.133  1.00  0.00     0.000 HD 
ENDBRANCH   6   7
ENDBRANCH   3   6
TORSDOF 2
ENDMDL
MODEL      162
REMARK 921   NORMALIZED FREE ENERGY PREDICTED BY IDOCK:   -1.54 KCAL/MOL
REMARK 922        TOTAL FREE ENERGY PREDICTED BY IDOCK:   -1.79 KCAL/MOL
REMARK 923 INTER-LIGAND FREE ENERGY PREDICTED BY IDOCK:   -1.74 KCAL/MOL
REMARK 924 INTRA-LIGAND FREE ENERGY PREDICTED BY IDOCK:   -0.04 KCAL/MOL
REMARK 927      BINDING AFFINITY PREDICTED BY RF-SCORE:    0.00 PKD
ROOT
HETATM    1 CL   UNL     1      -7.770   8.175  72.787  1.00  0.00    -0.172 Cl 
HETATM    2  C   UNL     2      -8.057   4.878  71.341  1.00  0.00    -0.110 C  
HETATM    3  N   UNL     2      -9.543   4.848  70.949  1.00  0.00    -0.164 N  
HETATM    4  C   UNL     2      -9.703   4.003  69.711  1.00  0.00    -0.184 C  
HETATM    5  C   UNL     2      -9.971   6.289  70.639  1.00  0.00    -0.186 C  
ENDROOT
BRANCH   3   6
HETATM    6  C   UNL     2     -10.315   4.301  72.163  1.00  0.00    -0.123 C  
BRANCH   6   7
HETATM    7  C   UNL     2     -10.946   5.372  73.068  1.00  0.00    -0.297 C  
HETATM    8  O   UNL     2     -12.366   5.392  73.004  1.00  0.00    -0.505 OA 
HETATM    9  H   UNL     2     -12.756   6.054  73.563  1.00  0.00     0.000 HD 
ENDBRANCH   6   7
ENDBRANCH   3   6
TORSDOF 2
ENDMDL
MODEL      163
REMARK 921   NORMALIZED FREE ENERGY PREDICTED BY IDOCK:   -1.53 KCAL/MOL
REMARK 922        TOTAL FREE ENERGY PREDICTED BY IDOCK:   -1.77 KCAL/MOL
REMARK 923 INTER-LIGAND FREE ENERGY PREDICTED BY IDOCK:   -1.71 KCAL/MOL
REMARK 924 INTRA-LIGAND FREE ENERGY PREDICTED BY IDOCK:   -0.06 KCAL/MOL
REMARK 927      BINDING AFFINITY PREDICTED BY RF-SCORE:    0.00 PKD
ROOT
HETATM    1 CL   UNL     1      -9.639  11.040  68.303  1.00  0.00    -0.165 Cl 
HETATM    2  C   UNL     2     -10.377   9.215  71.331  1.00  0.00    -0.338 C  
HETATM    3  N   UNL     2      -9.090   8.394  71.510  1.00  0.00    -0.176 N  
HETATM    4  C   UNL     2      -8.835   8.202  72.983  1.00  0.00    -0.248 C  
HETATM    5  C   UNL     2      -7.935   9.198  70.896  1.00  0.00    -0.157 C  
ENDROOT
BRANCH   3   6
HETATM    6  C   UNL     2      -9.294   7.070  70.751  1.00  0.00    -0.161 C  
BRANCH   6   7
HETATM    7  C   UNL     2      -9.920   7.212  69.354  1.00  0.00    -0.164 C  
HETATM    8  O   UNL     2     -11.152   6.515  69.220  1.00  0.00    -0.300 OA 
HETATM    9  H   UNL     2     -11.539   6.604  68.357  1.00  0.00     0.000 HD 
ENDBRANCH   6   7
ENDBRANCH   3   6
TORSDOF 2
ENDMDL
MODEL      164
REMARK 921   NORMALIZED FREE ENERGY PREDICTED BY IDOCK:   -1.51 KCAL/MOL
REMARK 922        TOTAL FREE ENERGY PREDICTED BY IDOCK:   -1.75 KCAL/MOL
REMARK 923 INTER-LIGAND FREE ENERGY PREDICTED BY IDOCK:   -1.72 KCAL/MOL
REMARK 924 INTRA-LIGAND FREE ENERGY PREDICTED BY IDOCK:   -0.04 KCAL/MOL
REMARK 927      BINDING AFFINITY PREDICTED BY RF-SCORE:    0.00 PKD
ROOT
HETATM    1 CL   UNL     1      -6.308   7.006  68.452  1.00  0.00    -0.034 Cl 
HETATM    2  C   UNL     2      -8.456   7.715  65.636  1.00  0.00    -0.142 C  
HETATM    3  N   UNL     2      -9.088   9.048  66.067  1.00  0.00    -0.192 N  
HETATM    4  C   UNL     2      -9.355   9.880  64.838  1.00  0.00    -0.268 C  
HETATM    5  C   UNL     2      -8.076   9.776  66.962  1.00  0.00    -0.113 C  
ENDROOT
BRANCH   3   6
HETATM    6  C   UNL     2     -10.364   8.704  66.857  1.00  0.00    -0.285 C  
BRANCH   6   7
HETATM    7  C   UNL     2     -10.886   9.826  67.769  1.00  0.00    -0.246 C  
HETATM    8  O   UNL     2     -11.424   9.346  68.994  1.00  0.00    -0.438 OA 
HETATM    9  H   UNL     2     -11.746  10.040  69.557  1.00  0.00     0.000 HD 
ENDBRANCH   6   7
ENDBRANCH   3   6
TORSDOF 2
ENDMDL
MODEL      165
REMARK 921   NORMALIZED FREE ENERGY PREDICTED BY IDOCK:   -1.51 KCAL/MOL
REMARK 922        TOTAL FREE ENERGY PREDICTED BY IDOCK:   -1.75 KCAL/MOL
REMARK 923 INTER-LIGAND FREE ENERGY PREDICTED BY IDOCK:   -1.68 KCAL/MOL
REMARK 924 INTRA-LIGAND FREE ENERGY PREDICTED BY IDOCK:   -0.07 KCAL/MOL
REMARK 927      BINDING AFFINITY PREDICTED BY RF-SCORE:    0.00 PKD
ROOT
HETATM    1 CL   UNL     1      -6.950   6.487  68.379  1.00  0.00    -0.078 Cl 
HETATM    2  C   UNL     2      -8.164   5.429  71.611  1.00  0.00    -0.118 C  
HETATM    3  N   UNL     2      -9.439   4.664  71.219  1.00  0.00    -0.149 N  
HETATM    4  C   UNL     2      -9.653   3.541  72.200  1.00  0.00    -0.140 C  
HETATM    5  C   UNL     2      -9.217   4.079  69.817  1.00  0.00    -0.142 C  
ENDROOT
BRANCH   3   6
HETATM    6  C   UNL     2     -10.589   5.687  71.205  1.00  0.00    -0.255 C  
BRANCH   6   7
HETATM    7  C   UNL     2     -10.617   6.617  69.980  1.00  0.00    -0.224 C  
HETATM    8  O   UNL     2     -11.801   6.482  69.205  1.00  0.00    -0.570 OA 
HETATM    9  H   UNL     2     -11.818   7.057  68.448  1.00  0.00     0.000 HD 
ENDBRANCH   6   7
ENDBRANCH   3   6
TORSDOF 2
ENDMDL
MODEL      166
REMARK 921   NORMALIZED FREE ENERGY PREDICTED BY IDOCK:   -1.50 KCAL/MOL
REMARK 922        TOTAL FREE ENERGY PREDICTED BY IDOCK:   -1.73 KCAL/MOL
REMARK 923 INTER-LIGAND FREE ENERGY PREDICTED BY IDOCK:   -1.65 KCAL/MOL
REMARK 924 INTRA-LIGAND FREE ENERGY PREDICTED BY IDOCK:   -0.08 KCAL/MOL
REMARK 927      BINDING AFFINITY PREDICTED BY RF-SCORE:    0.00 PKD
ROOT
HETATM    1 CL   UNL     1      -7.809   5.910  69.082  1.00  0.00    -0.093 Cl 
HETATM    2  C   UNL     2      -8.676   9.373  68.534  1.00  0.00    -0.128 C  
HETATM    3  N   UNL     2      -9.819   9.240  67.515  1.00  0.00    -0.165 N  
HETATM    4  C   UNL     2     -10.799  10.364  67.733  1.00  0.00    -0.297 C  
HETATM    5  C   UNL     2     -10.519   7.898  67.772  1.00  0.00    -0.212 C  
ENDROOT
BRANCH   3   6
HETATM    6  C   UNL     2      -9.175   9.258  66.116  1.00  0.00    -0.196 C  
BRANCH   6   7
HETATM    7  C   UNL     2      -9.244  10.611  65.387  1.00  0.00    -0.193 C  
HETATM    8  O   UNL     2      -8.135  11.454  65.669  1.00  0.00    -0.369 OA 
HETATM    9  H   UNL     2      -8.177  12.289  65.218  1.00  0.00     0.000 HD 
ENDBRANCH   6   7
ENDBRANCH   3   6
TORSDOF 2
ENDMDL
MODEL      167
REMARK 921   NORMALIZED FREE ENERGY PREDICTED BY IDOCK:   -1.49 KCAL/MOL
REMARK 922        TOTAL FREE ENERGY PREDICTED BY IDOCK:   -1.73 KCAL/MOL
REMARK 923 INTER-LIGAND FREE ENERGY PREDICTED BY IDOCK:   -1.66 KCAL/MOL
REMARK 924 INTRA-LIGAND FREE ENERGY PREDICTED BY IDOCK:   -0.07 KCAL/MOL
REMARK 927      BINDING AFFINITY PREDICTED BY RF-SCORE:    0.00 PKD
ROOT
HETATM    1 CL   UNL     1      -7.940   7.981  74.024  1.00  0.00    -0.261 Cl 
HETATM    2  C   UNL     2      -8.942   7.461  70.594  1.00  0.00    -0.155 C  
HETATM    3  N   UNL     2      -8.628   8.833  69.976  1.00  0.00    -0.129 N  
HETATM    4  C   UNL     2      -8.218   8.638  68.539  1.00  0.00    -0.122 C  
HETATM    5  C   UNL     2      -7.455   9.439  70.761  1.00  0.00    -0.112 C  
ENDROOT
BRANCH   3   6
HETATM    6  C   UNL     2      -9.892   9.697  70.136  1.00  0.00    -0.262 C  
BRANCH   6   7
HETATM    7  C   UNL     2     -10.239  10.572  68.920  1.00  0.00    -0.208 C  
HETATM    8  O   UNL     2     -10.007  11.956  69.143  1.00  0.00    -0.415 OA 
HETATM    9  H   UNL     2     -10.221  12.496  68.391  1.00  0.00     0.000 HD 
ENDBRANCH   6   7
ENDBRANCH   3   6
TORSDOF 2
ENDMDL
MODEL      168
REMARK 921   NORMALIZED FREE ENERGY PREDICTED BY IDOCK:   -1.48 KCAL/MOL
REMARK 922        TOTAL FREE ENERGY PREDICTED BY IDOCK:   -1.71 KCAL/MOL
REMARK 923 INTER-LIGAND FREE ENERGY PREDICTED BY IDOCK:   -1.64 KCAL/MOL
REMARK 924 INTRA-LIGAND FREE ENERGY PREDICTED BY IDOCK:   -0.07 KCAL/MOL
REMARK 927      BINDING AFFINITY PREDICTED BY RF-SCORE:    0.00 PKD
ROOT
HETATM    1 CL   UNL     1      -6.964   4.957  69.741  1.00  0.00    -0.052 Cl 
HETATM    2  C   UNL     2      -9.159   5.700  72.510  1.00  0.00    -0.136 C  
HETATM    3  N   UNL     2     -10.397   6.243  71.777  1.00  0.00    -0.203 N  
HETATM    4  C   UNL     2     -11.628   5.881  72.567  1.00  0.00    -0.277 C  
HETATM    5  C   UNL     2     -10.458   5.564  70.402  1.00  0.00    -0.286 C  
ENDROOT
BRANCH   3   6
HETATM    6  C   UNL     2     -10.197   7.762  71.626  1.00  0.00    -0.186 C  
BRANCH   6   7
HETATM    7  C   UNL     2      -8.833   8.183  71.052  1.00  0.00    -0.143 C  
HETATM    8  O   UNL     2      -8.111   9.055  71.912  1.00  0.00    -0.359 OA 
HETATM    9  H   UNL     2      -7.268   9.315  71.558  1.00  0.00     0.000 HD 
ENDBRANCH   6   7
ENDBRANCH   3   6
TORSDOF 2
ENDMDL
MODEL      169
REMARK 921   NORMALIZED FREE ENERGY PREDICTED BY IDOCK:   -1.47 KCAL/MOL
REMARK 922        TOTAL FREE ENERGY PREDICTED BY IDOCK:   -1.71 KCAL/MOL
REMARK 923 INTER-LIGAND FREE ENERGY PREDICTED BY IDOCK:   -1.64 KCAL/MOL
REMARK 924 INTRA-LIGAND FREE ENERGY PREDICTED BY IDOCK:   -0.06 KCAL/MOL
REMARK 927      BINDING AFFINITY PREDICTED BY RF-SCORE:    0.00 PKD
ROOT
HETATM    1 CL   UNL     1     -12.910   7.427  71.763  1.00  0.00    -0.368 Cl 
HETATM    2  C   UNL     2      -9.649   6.005  71.141  1.00  0.00    -0.172 C  
HETATM    3  N   UNL     2      -8.736   7.026  71.839  1.00  0.00    -0.125 N  
HETATM    4  C   UNL     2      -7.529   6.307  72.384  1.00  0.00    -0.093 C  
HETATM    5  C   UNL     2      -9.529   7.640  73.002  1.00  0.00    -0.226 C  
ENDROOT
BRANCH   3   6
HETATM    6  C   UNL     2      -8.384   8.100  70.795  1.00  0.00    -0.120 C  
BRANCH   6   7
HETATM    7  C   UNL     2      -9.589   8.705  70.054  1.00  0.00    -0.170 C  
HETATM    8  O   UNL     2      -9.537  10.123  69.967  1.00  0.00    -0.371 OA 
HETATM    9  H   UNL     2     -10.281  10.496  69.509  1.00  0.00     0.000 HD 
ENDBRANCH   6   7
ENDBRANCH   3   6
TORSDOF 2
ENDMDL
MODEL      170
REMARK 921   NORMALIZED FREE ENERGY PREDICTED BY IDOCK:   -1.45 KCAL/MOL
REMARK 922        TOTAL FREE ENERGY PREDICTED BY IDOCK:   -1.68 KCAL/MOL
REMARK 923 INTER-LIGAND FREE ENERGY PREDICTED BY IDOCK:   -1.62 KCAL/MOL
REMARK 924 INTRA-LIGAND FREE ENERGY PREDICTED BY IDOCK:   -0.07 KCAL/MOL
REMARK 927      BINDING AFFINITY PREDICTED BY RF-SCORE:    0.00 PKD
ROOT
HETATM    1 CL   UNL     1      -7.308  10.305  70.151  1.00  0.00    -0.161 Cl 
HETATM    2  C   UNL     2      -9.584   7.526  69.775  1.00  0.00    -0.163 C  
HETATM    3  N   UNL     2     -10.287   7.524  71.142  1.00  0.00    -0.201 N  
HETATM    4  C   UNL     2     -11.705   7.047  70.960  1.00  0.00    -0.333 C  
HETATM    5  C   UNL     2     -10.300   8.969  71.661  1.00  0.00    -0.350 C  
ENDROOT
BRANCH   3   6
HETATM    6  C   UNL     2      -9.456   6.620  72.071  1.00  0.00    -0.148 C  
BRANCH   6   7
HETATM    7  C   UNL     2      -8.885   5.356  71.406  1.00  0.00    -0.135 C  
HETATM    8  O   UNL     2      -9.520   4.161  71.841  1.00  0.00    -0.126 OA 
HETATM    9  H   UNL     2      -9.167   3.380  71.430  1.00  0.00     0.000 HD 
ENDBRANCH   6   7
ENDBRANCH   3   6
TORSDOF 2
ENDMDL
MODEL      171
REMARK 921   NORMALIZED FREE ENERGY PREDICTED BY IDOCK:   -1.43 KCAL/MOL
REMARK 922        TOTAL FREE ENERGY PREDICTED BY IDOCK:   -1.66 KCAL/MOL
REMARK 923 INTER-LIGAND FREE ENERGY PREDICTED BY IDOCK:   -1.62 KCAL/MOL
REMARK 924 INTRA-LIGAND FREE ENERGY PREDICTED BY IDOCK:   -0.04 KCAL/MOL
REMARK 927      BINDING AFFINITY PREDICTED BY RF-SCORE:    0.00 PKD
ROOT
HETATM    1 CL   UNL     1     -10.106  10.713  66.335  1.00  0.00    -0.269 Cl 
HETATM    2  C   UNL     2      -8.239   8.021  67.854  1.00  0.00    -0.129 C  
HETATM    3  N   UNL     2      -9.372   7.141  68.405  1.00  0.00    -0.136 N  
HETATM    4  C   UNL     2      -8.936   5.699  68.356  1.00  0.00    -0.114 C  
HETATM    5  C   UNL     2     -10.594   7.332  67.496  1.00  0.00    -0.274 C  
ENDROOT
BRANCH   3   6
HETATM    6  C   UNL     2      -9.671   7.637  69.831  1.00  0.00    -0.175 C  
BRANCH   6   7
HETATM    7  C   UNL     2      -9.107   9.027  70.167  1.00  0.00    -0.188 C  
HETATM    8  O   UNL     2      -8.764   9.175  71.539  1.00  0.00    -0.334 OA 
HETATM    9  H   UNL     2      -8.415  10.034  71.746  1.00  0.00     0.000 HD 
ENDBRANCH   6   7
ENDBRANCH   3   6
TORSDOF 2
ENDMDL
MODEL      172
REMARK 921   NORMALIZED FREE ENERGY PREDICTED BY IDOCK:   -1.43 KCAL/MOL
REMARK 922        TOTAL FREE ENERGY PREDICTED BY IDOCK:   -1.66 KCAL/MOL
REMARK 923 INTER-LIGAND FREE ENERGY PREDICTED BY IDOCK:   -1.62 KCAL/MOL
REMARK 924 INTRA-LIGAND FREE ENERGY PREDICTED BY IDOCK:   -0.04 KCAL/MOL
REMARK 927      BINDING AFFINITY PREDICTED BY RF-SCORE:    0.00 PKD
ROOT
HETATM    1 CL   UNL     1     -11.438   6.513  69.171  1.00  0.00    -0.330 Cl 
HETATM    2  C   UNL     2     -10.537   5.128  72.382  1.00  0.00    -0.221 C  
HETATM    3  N   UNL     2      -9.864   6.335  73.054  1.00  0.00    -0.166 N  
HETATM    4  C   UNL     2     -10.120   6.272  74.538  1.00  0.00    -0.336 C  
HETATM    5  C   UNL     2     -10.508   7.605  72.481  1.00  0.00    -0.268 C  
ENDROOT
BRANCH   3   6
HETATM    6  C   UNL     2      -8.369   6.274  72.692  1.00  0.00    -0.120 C  
BRANCH   6   7
HETATM    7  C   UNL     2      -7.942   5.021  71.908  1.00  0.00    -0.111 C  
HETATM    8  O   UNL     2      -7.554   5.305  70.570  1.00  0.00    -0.068 OA 
HETATM    9  H   UNL     2      -7.290   4.531  70.086  1.00  0.00     0.000 HD 
ENDBRANCH   6   7
ENDBRANCH   3   6
TORSDOF 2
ENDMDL
MODEL      173
REMARK 921   NORMALIZED FREE ENERGY PREDICTED BY IDOCK:   -1.41 KCAL/MOL
REMARK 922        TOTAL FREE ENERGY PREDICTED BY IDOCK:   -1.64 KCAL/MOL
REMARK 923 INTER-LIGAND FREE ENERGY PREDICTED BY IDOCK:   -1.54 KCAL/MOL
REMARK 924 INTRA-LIGAND FREE ENERGY PREDICTED BY IDOCK:   -0.10 KCAL/MOL
REMARK 927      BINDING AFFINITY PREDICTED BY RF-SCORE:    0.00 PKD
ROOT
HETATM    1 CL   UNL     1     -11.837  11.713  68.599  1.00  0.00    -0.382 Cl 
HETATM    2  C   UNL     2      -8.644  11.357  66.948  1.00  0.00    -0.154 C  
HETATM    3  N   UNL     2      -8.426   9.838  67.036  1.00  0.00    -0.117 N  
HETATM    4  C   UNL     2      -7.657   9.386  65.822  1.00  0.00    -0.099 C  
HETATM    5  C   UNL     2      -9.808   9.169  67.040  1.00  0.00    -0.207 C  
ENDROOT
BRANCH   3   6
HETATM    6  C   UNL     2      -7.688   9.567  68.359  1.00  0.00    -0.085 C  
BRANCH   6   7
HETATM    7  C   UNL     2      -8.563   8.993  69.486  1.00  0.00    -0.138 C  
HETATM    8  O   UNL     2      -9.056   9.988  70.373  1.00  0.00    -0.353 OA 
HETATM    9  H   UNL     2      -9.597   9.632  71.069  1.00  0.00     0.000 HD 
ENDBRANCH   6   7
ENDBRANCH   3   6
TORSDOF 2
ENDMDL
MODEL      174
REMARK 921   NORMALIZED FREE ENERGY PREDICTED BY IDOCK:   -1.38 KCAL/MOL
REMARK 922        TOTAL FREE ENERGY PREDICTED BY IDOCK:   -1.60 KCAL/MOL
REMARK 923 INTER-LIGAND FREE ENERGY PREDICTED BY IDOCK:   -1.57 KCAL/MOL
REMARK 924 INTRA-LIGAND FREE ENERGY PREDICTED BY IDOCK:   -0.03 KCAL/MOL
REMARK 927      BINDING AFFINITY PREDICTED BY RF-SCORE:    0.00 PKD
ROOT
HETATM    1 CL   UNL     1     -11.038   6.092  69.824  1.00  0.00    -0.467 Cl 
HETATM    2  C   UNL     2     -10.605   9.247  68.121  1.00  0.00    -0.198 C  
HETATM    3  N   UNL     2      -9.552   8.877  67.064  1.00  0.00    -0.164 N  
HETATM    4  C   UNL     2      -9.789   9.708  65.830  1.00  0.00    -0.302 C  
HETATM    5  C   UNL     2      -9.738   7.392  66.721  1.00  0.00    -0.207 C  
ENDROOT
BRANCH   3   6
HETATM    6  C   UNL     2      -8.172   9.118  67.703  1.00  0.00    -0.108 C  
BRANCH   6   7
HETATM    7  C   UNL     2      -7.064   8.159  67.238  1.00  0.00    -0.079 C  
HETATM    8  O   UNL     2      -6.638   7.262  68.256  1.00  0.00    -0.046 OA 
HETATM    9  H   UNL     2      -5.954   6.669  67.968  1.00  0.00     0.000 HD 
ENDBRANCH   6   7
ENDBRANCH   3   6
TORSDOF 2
ENDMDL
MODEL      175
REMARK 921   NORMALIZED FREE ENERGY PREDICTED BY IDOCK:   -1.36 KCAL/MOL
REMARK 922        TOTAL FREE ENERGY PREDICTED BY IDOCK:   -1.58 KCAL/MOL
REMARK 923 INTER-LIGAND FREE ENERGY PREDICTED BY IDOCK:   -1.56 KCAL/MOL
REMARK 924 INTRA-LIGAND FREE ENERGY PREDICTED BY IDOCK:   -0.02 KCAL/MOL
REMARK 927      BINDING AFFINITY PREDICTED BY RF-SCORE:    0.00 PKD
ROOT
HETATM    1 CL   UNL     1     -11.181   6.406  68.843  1.00  0.00    -0.410 Cl 
HETATM    2  C   UNL     2      -8.148   5.987  66.929  1.00  0.00    -0.105 C  
HETATM    3  N   UNL     2      -7.690   7.445  66.765  1.00  0.00    -0.107 N  
HETATM    4  C   UNL     2      -6.184   7.481  66.729  1.00  0.00    -0.048 C  
HETATM    5  C   UNL     2      -8.188   8.229  67.987  1.00  0.00    -0.128 C  
ENDROOT
BRANCH   3   6
HETATM    6  C   UNL     2      -8.341   7.976  65.475  1.00  0.00    -0.147 C  
BRANCH   6   7
HETATM    7  C   UNL     2      -9.083   9.315  65.626  1.00  0.00    -0.216 C  
HETATM    8  O   UNL     2      -9.850   9.661  64.481  1.00  0.00    -0.396 OA 
HETATM    9  H   UNL     2     -10.308  10.488  64.575  1.00  0.00     0.000 HD 
ENDBRANCH   6   7
ENDBRANCH   3   6
TORSDOF 2
ENDMDL
MODEL      176
REMARK 921   NORMALIZED FREE ENERGY PREDICTED BY IDOCK:   -1.35 KCAL/MOL
REMARK 922        TOTAL FREE ENERGY PREDICTED BY IDOCK:   -1.57 KCAL/MOL
REMARK 923 INTER-LIGAND FREE ENERGY PREDICTED BY IDOCK:   -1.49 KCAL/MOL
REMARK 924 INTRA-LIGAND FREE ENERGY PREDICTED BY IDOCK:   -0.08 KCAL/MOL
REMARK 927      BINDING AFFINITY PREDICTED BY RF-SCORE:    0.00 PKD
ROOT
HETATM    1 CL   UNL     1      -9.964   2.547  63.433  1.00  0.00    -0.116 Cl 
HETATM    2  C   UNL     2      -8.346   4.006  66.312  1.00  0.00    -0.105 C  
HETATM    3  N   UNL     2      -9.232   5.237  66.566  1.00  0.00    -0.134 N  
HETATM    4  C   UNL     2      -9.263   5.517  68.046  1.00  0.00    -0.108 C  
HETATM    5  C   UNL     2     -10.649   4.896  66.083  1.00  0.00    -0.271 C  
ENDROOT
BRANCH   3   6
HETATM    6  C   UNL     2      -8.640   6.393  65.740  1.00  0.00    -0.148 C  
BRANCH   6   7
HETATM    7  C   UNL     2      -8.813   7.789  66.361  1.00  0.00    -0.155 C  
HETATM    8  O   UNL     2      -9.894   8.521  65.798  1.00  0.00    -0.457 OA 
HETATM    9  H   UNL     2     -10.001   9.383  66.182  1.00  0.00     0.000 HD 
ENDBRANCH   6   7
ENDBRANCH   3   6
TORSDOF 2
ENDMDL
MODEL      177
REMARK 921   NORMALIZED FREE ENERGY PREDICTED BY IDOCK:   -1.34 KCAL/MOL
REMARK 922        TOTAL FREE ENERGY PREDICTED BY IDOCK:   -1.56 KCAL/MOL
REMARK 923 INTER-LIGAND FREE ENERGY PREDICTED BY IDOCK:   -1.48 KCAL/MOL
REMARK 924 INTRA-LIGAND FREE ENERGY PREDICTED BY IDOCK:   -0.07 KCAL/MOL
REMARK 927      BINDING AFFINITY PREDICTED BY RF-SCORE:    0.00 PKD
ROOT
HETATM    1 CL   UNL     1      -6.486  11.730  67.681  1.00  0.00    -0.072 Cl 
HETATM    2  C   UNL     2     -10.051  11.212  67.938  1.00  0.00    -0.176 C  
HETATM    3  N   UNL     2     -10.108   9.829  68.608  1.00  0.00    -0.163 N  
HETATM    4  C   UNL     2     -11.331   9.763  69.485  1.00  0.00    -0.083 C  
HETATM    5  C   UNL     2      -8.851   9.681  69.477  1.00  0.00    -0.190 C  
ENDROOT
BRANCH   3   6
HETATM    6  C   UNL     2     -10.114   8.785  67.477  1.00  0.00    -0.222 C  
BRANCH   6   7
HETATM    7  C   UNL     2      -8.959   8.912  66.469  1.00  0.00    -0.155 C  
HETATM    8  O   UNL     2      -9.402   9.076  65.129  1.00  0.00    -0.421 OA 
HETATM    9  H   UNL     2      -8.688   9.154  64.507  1.00  0.00     0.000 HD 
ENDBRANCH   6   7
ENDBRANCH   3   6
TORSDOF 2
ENDMDL
MODEL      178
REMARK 921   NORMALIZED FREE ENERGY PREDICTED BY IDOCK:   -1.33 KCAL/MOL
REMARK 922        TOTAL FREE ENERGY PREDICTED BY IDOCK:   -1.55 KCAL/MOL
REMARK 923 INTER-LIGAND FREE ENERGY PREDICTED BY IDOCK:   -1.50 KCAL/MOL
REMARK 924 INTRA-LIGAND FREE ENERGY PREDICTED BY IDOCK:   -0.05 KCAL/MOL
REMARK 927      BINDING AFFINITY PREDICTED BY RF-SCORE:    0.00 PKD
ROOT
HETATM    1 CL   UNL     1      -9.036   3.260  68.479  1.00  0.00    -0.191 Cl 
HETATM    2  C   UNL     2     -10.658   4.441  65.476  1.00  0.00    -0.159 C  
HETATM    3  N   UNL     2      -9.709   3.909  64.391  1.00  0.00    -0.171 N  
HETATM    4  C   UNL     2     -10.513   3.584  63.158  1.00  0.00    -0.223 C  
HETATM    5  C   UNL     2      -9.062   2.624  64.928  1.00  0.00    -0.136 C  
ENDROOT
BRANCH   3   6
HETATM    6  C   UNL     2      -8.645   4.996  64.154  1.00  0.00    -0.125 C  
BRANCH   6   7
HETATM    7  C   UNL     2      -8.378   5.916  65.357  1.00  0.00    -0.149 C  
HETATM    8  O   UNL     2      -8.666   7.282  65.090  1.00  0.00    -0.348 OA 
HETATM    9  H   UNL     2      -8.501   7.850  65.833  1.00  0.00     0.000 HD 
ENDBRANCH   6   7
ENDBRANCH   3   6
TORSDOF 2
ENDMDL
MODEL      179
REMARK 921   NORMALIZED FREE ENERGY PREDICTED BY IDOCK:   -1.32 KCAL/MOL
REMARK 922        TOTAL FREE ENERGY PREDICTED BY IDOCK:   -1.54 KCAL/MOL
REMARK 923 INTER-LIGAND FREE ENERGY PREDICTED BY IDOCK:   -1.49 KCAL/MOL
REMARK 924 INTRA-LIGAND FREE ENERGY PREDICTED BY IDOCK:   -0.05 KCAL/MOL
REMARK 927      BINDING AFFINITY PREDICTED BY RF-SCORE:    0.00 PKD
ROOT
HETATM    1 CL   UNL     1      -8.076   6.026  66.628  1.00  0.00    -0.105 Cl 
HETATM    2  C   UNL     2     -10.490   7.822  68.625  1.00  0.00    -0.172 C  
HETATM    3  N   UNL     2      -9.588   8.440  69.705  1.00  0.00    -0.163 N  
HETATM    4  C   UNL     2     -10.169   9.766  70.123  1.00  0.00    -0.275 C  
HETATM    5  C   UNL     2      -8.204   8.667  69.081  1.00  0.00    -0.117 C  
ENDROOT
BRANCH   3   6
HETATM    6  C   UNL     2      -9.505   7.422  70.856  1.00  0.00    -0.165 C  
BRANCH   6   7
HETATM    7  C   UNL     2     -10.202   7.855  72.157  1.00  0.00    -0.227 C  
HETATM    8  O   UNL     2      -9.289   8.222  73.184  1.00  0.00    -0.261 OA 
HETATM    9  H   UNL     2      -9.720   8.489  73.988  1.00  0.00     0.000 HD 
ENDBRANCH   6   7
ENDBRANCH   3   6
TORSDOF 2
ENDMDL
MODEL      180
REMARK 921   NORMALIZED FREE ENERGY PREDICTED BY IDOCK:   -1.30 KCAL/MOL
REMARK 922        TOTAL FREE ENERGY PREDICTED BY IDOCK:   -1.52 KCAL/MOL
REMARK 923 INTER-LIGAND FREE ENERGY PREDICTED BY IDOCK:   -1.45 KCAL/MOL
REMARK 924 INTRA-LIGAND FREE ENERGY PREDICTED BY IDOCK:   -0.07 KCAL/MOL
REMARK 927      BINDING AFFINITY PREDICTED BY RF-SCORE:    0.00 PKD
ROOT
HETATM    1 CL   UNL     1     -10.474   6.579  69.300  1.00  0.00    -0.233 Cl 
HETATM    2  C   UNL     2      -7.495   8.262  68.146  1.00  0.00    -0.097 C  
HETATM    3  N   UNL     2      -7.919   9.736  68.255  1.00  0.00    -0.096 N  
HETATM    4  C   UNL     2      -6.708  10.568  68.590  1.00  0.00    -0.053 C  
HETATM    5  C   UNL     2      -8.941   9.843  69.395  1.00  0.00    -0.195 C  
ENDROOT
BRANCH   3   6
HETATM    6  C   UNL     2      -8.564  10.116  66.910  1.00  0.00    -0.126 C  
BRANCH   6   7
HETATM    7  C   UNL     2      -8.805   8.939  65.949  1.00  0.00    -0.179 C  
HETATM    8  O   UNL     2     -10.146   8.469  65.966  1.00  0.00    -0.473 OA 
HETATM    9  H   UNL     2     -10.294   7.742  65.373  1.00  0.00     0.000 HD 
ENDBRANCH   6   7
ENDBRANCH   3   6
TORSDOF 2
ENDMDL
MODEL      181
REMARK 921   NORMALIZED FREE ENERGY PREDICTED BY IDOCK:   -1.30 KCAL/MOL
REMARK 922        TOTAL FREE ENERGY PREDICTED BY IDOCK:   -1.52 KCAL/MOL
REMARK 923 INTER-LIGAND FREE ENERGY PREDICTED BY IDOCK:   -1.47 KCAL/MOL
REMARK 924 INTRA-LIGAND FREE ENERGY PREDICTED BY IDOCK:   -0.05 KCAL/MOL
REMARK 927      BINDING AFFINITY PREDICTED BY RF-SCORE:    0.00 PKD
ROOT
HETATM    1 CL   UNL     1      -5.703   9.505  68.795  1.00  0.00    -0.040 Cl 
HETATM    2  C   UNL     2      -8.870   9.365  67.064  1.00  0.00    -0.127 C  
HETATM    3  N   UNL     2      -9.163   7.856  67.094  1.00  0.00    -0.141 N  
HETATM    4  C   UNL     2     -10.654   7.652  67.169  1.00  0.00    -0.340 C  
HETATM    5  C   UNL     2      -8.507   7.279  68.356  1.00  0.00    -0.125 C  
ENDROOT
BRANCH   3   6
HETATM    6  C   UNL     2      -8.530   7.252  65.827  1.00  0.00    -0.143 C  
BRANCH   6   7
HETATM    7  C   UNL     2      -8.008   8.280  64.809  1.00  0.00    -0.146 C  
HETATM    8  O   UNL     2      -8.612   8.153  63.528  1.00  0.00    -0.404 OA 
HETATM    9  H   UNL     2      -8.290   8.789  62.899  1.00  0.00     0.000 HD 
ENDBRANCH   6   7
ENDBRANCH   3   6
TORSDOF 2
ENDMDL
MODEL      182
REMARK 921   NORMALIZED FREE ENERGY PREDICTED BY IDOCK:   -1.30 KCAL/MOL
REMARK 922        TOTAL FREE ENERGY PREDICTED BY IDOCK:   -1.52 KCAL/MOL
REMARK 923 INTER-LIGAND FREE ENERGY PREDICTED BY IDOCK:   -1.45 KCAL/MOL
REMARK 924 INTRA-LIGAND FREE ENERGY PREDICTED BY IDOCK:   -0.07 KCAL/MOL
REMARK 927      BINDING AFFINITY PREDICTED BY RF-SCORE:    0.00 PKD
ROOT
HETATM    1 CL   UNL     1      -5.638   7.336  68.793  1.00  0.00    -0.021 Cl 
HETATM    2  C   UNL     2      -8.846   8.767  69.634  1.00  0.00    -0.141 C  
HETATM    3  N   UNL     2      -9.799   7.633  69.223  1.00  0.00    -0.165 N  
HETATM    4  C   UNL     2     -10.994   7.644  70.142  1.00  0.00    -0.246 C  
HETATM    5  C   UNL     2      -9.044   6.307  69.390  1.00  0.00    -0.139 C  
ENDROOT
BRANCH   3   6
HETATM    6  C   UNL     2     -10.165   7.868  67.747  1.00  0.00    -0.216 C  
BRANCH   6   7
HETATM    7  C   UNL     2      -8.997   7.722  66.757  1.00  0.00    -0.139 C  
HETATM    8  O   UNL     2      -9.302   6.876  65.655  1.00  0.00    -0.382 OA 
HETATM    9  H   UNL     2      -8.580   6.786  65.043  1.00  0.00     0.000 HD 
ENDBRANCH   6   7
ENDBRANCH   3   6
TORSDOF 2
ENDMDL
MODEL      183
REMARK 921   NORMALIZED FREE ENERGY PREDICTED BY IDOCK:   -1.30 KCAL/MOL
REMARK 922        TOTAL FREE ENERGY PREDICTED BY IDOCK:   -1.51 KCAL/MOL
REMARK 923 INTER-LIGAND FREE ENERGY PREDICTED BY IDOCK:   -1.44 KCAL/MOL
REMARK 924 INTRA-LIGAND FREE ENERGY PREDICTED BY IDOCK:   -0.07 KCAL/MOL
REMARK 927      BINDING AFFINITY PREDICTED BY RF-SCORE:    0.00 PKD
ROOT
HETATM    1 CL   UNL     1      -6.305   5.201  66.193  1.00  0.00    -0.038 Cl 
HETATM    2  C   UNL     2      -8.324   5.862  69.113  1.00  0.00    -0.106 C  
HETATM    3  N   UNL     2      -9.716   6.039  68.485  1.00  0.00    -0.120 N  
HETATM    4  C   UNL     2     -10.756   5.548  69.460  1.00  0.00    -0.262 C  
HETATM    5  C   UNL     2      -9.765   5.178  67.215  1.00  0.00    -0.155 C  
ENDROOT
BRANCH   3   6
HETATM    6  C   UNL     2      -9.864   7.531  68.137  1.00  0.00    -0.159 C  
BRANCH   6   7
HETATM    7  C   UNL     2      -9.040   8.000  66.926  1.00  0.00    -0.152 C  
HETATM    8  O   UNL     2      -9.825   8.649  65.934  1.00  0.00    -0.452 OA 
HETATM    9  H   UNL     2      -9.316   8.939  65.186  1.00  0.00     0.000 HD 
ENDBRANCH   6   7
ENDBRANCH   3   6
TORSDOF 2
ENDMDL
MODEL      184
REMARK 921   NORMALIZED FREE ENERGY PREDICTED BY IDOCK:   -1.28 KCAL/MOL
REMARK 922        TOTAL FREE ENERGY PREDICTED BY IDOCK:   -1.49 KCAL/MOL
REMARK 923 INTER-LIGAND FREE ENERGY PREDICTED BY IDOCK:   -1.46 KCAL/MOL
REMARK 924 INTRA-LIGAND FREE ENERGY PREDICTED BY IDOCK:   -0.03 KCAL/MOL
REMARK 927      BINDING AFFINITY PREDICTED BY RF-SCORE:    0.00 PKD
ROOT
HETATM    1 CL   UNL     1     -10.249   9.821  68.003  1.00  0.00    -0.211 Cl 
HETATM    2  C   UNL     2      -9.035   6.922  66.225  1.00  0.00    -0.151 C  
HETATM    3  N   UNL     2      -9.790   5.790  66.941  1.00  0.00    -0.145 N  
HETATM    4  C   UNL     2     -10.066   4.688  65.951  1.00  0.00    -0.258 C  
HETATM    5  C   UNL     2     -11.122   6.366  67.444  1.00  0.00    -0.322 C  
ENDROOT
BRANCH   3   6
HETATM    6  C   UNL     2      -8.911   5.342  68.121  1.00  0.00    -0.105 C  
BRANCH   6   7
HETATM    7  C   UNL     2      -9.252   3.957  68.696  1.00  0.00    -0.151 C  
HETATM    8  O   UNL     2      -9.218   3.917  70.116  1.00  0.00    -0.114 OA 
HETATM    9  H   UNL     2      -9.429   3.061  70.471  1.00  0.00     0.000 HD 
ENDBRANCH   6   7
ENDBRANCH   3   6
TORSDOF 2
ENDMDL
MODEL      185
REMARK 921   NORMALIZED FREE ENERGY PREDICTED BY IDOCK:   -1.28 KCAL/MOL
REMARK 922        TOTAL FREE ENERGY PREDICTED BY IDOCK:   -1.49 KCAL/MOL
REMARK 923 INTER-LIGAND FREE ENERGY PREDICTED BY IDOCK:   -1.39 KCAL/MOL
REMARK 924 INTRA-LIGAND FREE ENERGY PREDICTED BY IDOCK:   -0.10 KCAL/MOL
REMARK 927      BINDING AFFINITY PREDICTED BY RF-SCORE:    0.00 PKD
ROOT
HETATM    1 CL   UNL     1      -9.144   7.908  73.258  1.00  0.00    -0.311 Cl 
HETATM    2  C   UNL     2      -7.951   4.997  71.484  1.00  0.00    -0.112 C  
HETATM    3  N   UNL     2      -8.045   5.473  70.026  1.00  0.00    -0.089 N  
HETATM    4  C   UNL     2      -6.943   4.822  69.230  1.00  0.00    -0.051 C  
HETATM    5  C   UNL     2      -7.845   6.995  70.019  1.00  0.00    -0.113 C  
ENDROOT
BRANCH   3   6
HETATM    6  C   UNL     2      -9.453   5.107  69.525  1.00  0.00    -0.146 C  
BRANCH   6   7
HETATM    7  C   UNL     2     -10.567   5.222  70.580  1.00  0.00    -0.202 C  
HETATM    8  O   UNL     2     -11.420   6.340  70.373  1.00  0.00    -0.364 OA 
HETATM    9  H   UNL     2     -12.108   6.410  71.024  1.00  0.00     0.000 HD 
ENDBRANCH   6   7
ENDBRANCH   3   6
TORSDOF 2
ENDMDL
MODEL      186
REMARK 921   NORMALIZED FREE ENERGY PREDICTED BY IDOCK:   -1.26 KCAL/MOL
REMARK 922        TOTAL FREE ENERGY PREDICTED BY IDOCK:   -1.47 KCAL/MOL
REMARK 923 INTER-LIGAND FREE ENERGY PREDICTED BY IDOCK:   -1.35 KCAL/MOL
REMARK 924 INTRA-LIGAND FREE ENERGY PREDICTED BY IDOCK:   -0.12 KCAL/MOL
REMARK 927      BINDING AFFINITY PREDICTED BY RF-SCORE:    0.00 PKD
ROOT
HETATM    1 CL   UNL     1     -10.654   3.974  64.628  1.00  0.00    -0.245 Cl 
HETATM    2  C   UNL     2     -11.150   6.634  67.020  1.00  0.00    -0.325 C  
HETATM    3  N   UNL     2      -9.712   6.872  67.510  1.00  0.00    -0.130 N  
HETATM    4  C   UNL     2      -9.550   8.330  67.854  1.00  0.00    -0.152 C  
HETATM    5  C   UNL     2      -8.763   6.513  66.358  1.00  0.00    -0.140 C  
ENDROOT
BRANCH   3   6
HETATM    6  C   UNL     2      -9.488   5.935  68.711  1.00  0.00    -0.126 C  
BRANCH   6   7
HETATM    7  C   UNL     2      -8.784   4.609  68.378  1.00  0.00    -0.099 C  
HETATM    8  O   UNL     2      -9.690   3.535  68.163  1.00  0.00    -0.138 OA 
HETATM    9  H   UNL     2      -9.255   2.715  67.957  1.00  0.00     0.000 HD 
ENDBRANCH   6   7
ENDBRANCH   3   6
TORSDOF 2
ENDMDL
MODEL      187
REMARK 921   NORMALIZED FREE ENERGY PREDICTED BY IDOCK:   -1.26 KCAL/MOL
REMARK 922        TOTAL FREE ENERGY PREDICTED BY IDOCK:   -1.47 KCAL/MOL
REMARK 923 INTER-LIGAND FREE ENERGY PREDICTED BY IDOCK:   -1.42 KCAL/MOL
REMARK 924 INTRA-LIGAND FREE ENERGY PREDICTED BY IDOCK:   -0.05 KCAL/MOL
REMARK 927      BINDING AFFINITY PREDICTED BY RF-SCORE:    0.00 PKD
ROOT
HETATM    1 CL   UNL     1     -11.518   6.366  69.605  1.00  0.00    -0.485 Cl 
HETATM    2  C   UNL     2     -10.231   5.354  66.386  1.00  0.00    -0.226 C  
HETATM    3  N   UNL     2      -8.738   5.688  66.539  1.00  0.00    -0.119 N  
HETATM    4  C   UNL     2      -7.933   4.698  65.736  1.00  0.00    -0.099 C  
HETATM    5  C   UNL     2      -8.380   5.546  68.025  1.00  0.00    -0.099 C  
ENDROOT
BRANCH   3   6
HETATM    6  C   UNL     2      -8.554   7.142  66.071  1.00  0.00    -0.152 C  
BRANCH   6   7
HETATM    7  C   UNL     2      -8.178   8.139  67.181  1.00  0.00    -0.120 C  
HETATM    8  O   UNL     2      -9.015   9.288  67.206  1.00  0.00    -0.123 OA 
HETATM    9  H   UNL     2      -8.783   9.904  67.892  1.00  0.00     0.000 HD 
ENDBRANCH   6   7
ENDBRANCH   3   6
TORSDOF 2
ENDMDL
MODEL      188
REMARK 921   NORMALIZED FREE ENERGY PREDICTED BY IDOCK:   -1.23 KCAL/MOL
REMARK 922        TOTAL FREE ENERGY PREDICTED BY IDOCK:   -1.43 KCAL/MOL
REMARK 923 INTER-LIGAND FREE ENERGY PREDICTED BY IDOCK:   -1.38 KCAL/MOL
REMARK 924 INTRA-LIGAND FREE ENERGY PREDICTED BY IDOCK:   -0.06 KCAL/MOL
REMARK 927      BINDING AFFINITY PREDICTED BY RF-SCORE:    0.00 PKD
ROOT
HETATM    1 CL   UNL     1     -10.562   8.313  72.603  1.00  0.00    -0.407 Cl 
HETATM    2  C   UNL     2     -10.589   5.539  70.291  1.00  0.00    -0.287 C  
HETATM    3  N   UNL     2      -9.354   4.749  70.753  1.00  0.00    -0.138 N  
HETATM    4  C   UNL     2      -9.599   3.280  70.519  1.00  0.00    -0.148 C  
HETATM    5  C   UNL     2      -9.176   5.000  72.257  1.00  0.00    -0.134 C  
ENDROOT
BRANCH   3   6
HETATM    6  C   UNL     2      -8.151   5.297  69.964  1.00  0.00    -0.084 C  
BRANCH   6   7
HETATM    7  C   UNL     2      -7.911   4.630  68.599  1.00  0.00    -0.079 C  
HETATM    8  O   UNL     2      -7.987   5.541  67.511  1.00  0.00    -0.100 OA 
HETATM    9  H   UNL     2      -7.839   5.129  66.668  1.00  0.00     0.000 HD 
ENDBRANCH   6   7
ENDBRANCH   3   6
TORSDOF 2
ENDMDL
MODEL      189
REMARK 921   NORMALIZED FREE ENERGY PREDICTED BY IDOCK:   -1.21 KCAL/MOL
REMARK 922        TOTAL FREE ENERGY PREDICTED BY IDOCK:   -1.41 KCAL/MOL
REMARK 923 INTER-LIGAND FREE ENERGY PREDICTED BY IDOCK:   -1.35 KCAL/MOL
REMARK 924 INTRA-LIGAND FREE ENERGY PREDICTED BY IDOCK:   -0.07 KCAL/MOL
REMARK 927      BINDING AFFINITY PREDICTED BY RF-SCORE:    0.00 PKD
ROOT
HETATM    1 CL   UNL     1     -11.496   6.241  69.271  1.00  0.00    -0.426 Cl 
HETATM    2  C   UNL     2     -10.174   9.486  70.147  1.00  0.00    -0.246 C  
HETATM    3  N   UNL     2      -9.026   9.628  69.135  1.00  0.00    -0.145 N  
HETATM    4  C   UNL     2      -8.868  11.084  68.779  1.00  0.00    -0.147 C  
HETATM    5  C   UNL     2      -9.414   8.837  67.877  1.00  0.00    -0.142 C  
ENDROOT
BRANCH   3   6
HETATM    6  C   UNL     2      -7.772   9.023  69.792  1.00  0.00    -0.077 C  
BRANCH   6   7
HETATM    7  C   UNL     2      -7.198   7.787  69.079  1.00  0.00    -0.080 C  
HETATM    8  O   UNL     2      -7.462   6.572  69.767  1.00  0.00    -0.084 OA 
HETATM    9  H   UNL     2      -7.107   5.808  69.326  1.00  0.00     0.000 HD 
ENDBRANCH   6   7
ENDBRANCH   3   6
TORSDOF 2
ENDMDL
MODEL      190
REMARK 921   NORMALIZED FREE ENERGY PREDICTED BY IDOCK:   -1.19 KCAL/MOL
REMARK 922        TOTAL FREE ENERGY PREDICTED BY IDOCK:   -1.39 KCAL/MOL
REMARK 923 INTER-LIGAND FREE ENERGY PREDICTED BY IDOCK:   -1.37 KCAL/MOL
REMARK 924 INTRA-LIGAND FREE ENERGY PREDICTED BY IDOCK:   -0.03 KCAL/MOL
REMARK 927      BINDING AFFINITY PREDICTED BY RF-SCORE:    0.00 PKD
ROOT
HETATM    1 CL   UNL     1      -5.605   9.738  68.314  1.00  0.00    -0.039 Cl 
HETATM    2  C   UNL     2      -9.146  10.418  68.506  1.00  0.00    -0.145 C  
HETATM    3  N   UNL     2      -9.647   9.193  69.289  1.00  0.00    -0.157 N  
HETATM    4  C   UNL     2     -10.827   9.603  70.132  1.00  0.00    -0.280 C  
HETATM    5  C   UNL     2      -8.506   8.729  70.206  1.00  0.00    -0.149 C  
ENDROOT
BRANCH   3   6
HETATM    6  C   UNL     2      -9.988   8.108  68.253  1.00  0.00    -0.186 C  
BRANCH   6   7
HETATM    7  C   UNL     2     -10.127   6.686  68.823  1.00  0.00    -0.158 C  
HETATM    8  O   UNL     2     -11.099   5.904  68.142  1.00  0.00    -0.251 OA 
HETATM    9  H   UNL     2     -11.185   5.025  68.495  1.00  0.00     0.000 HD 
ENDBRANCH   6   7
ENDBRANCH   3   6
TORSDOF 2
ENDMDL
MODEL      191
REMARK 921   NORMALIZED FREE ENERGY PREDICTED BY IDOCK:   -1.19 KCAL/MOL
REMARK 922        TOTAL FREE ENERGY PREDICTED BY IDOCK:   -1.39 KCAL/MOL
REMARK 923 INTER-LIGAND FREE ENERGY PREDICTED BY IDOCK:   -1.35 KCAL/MOL
REMARK 924 INTRA-LIGAND FREE ENERGY PREDICTED BY IDOCK:   -0.04 KCAL/MOL
REMARK 927      BINDING AFFINITY PREDICTED BY RF-SCORE:    0.00 PKD
ROOT
HETATM    1 CL   UNL     1     -11.362  10.598  68.421  1.00  0.00    -0.347 Cl 
HETATM    2  C   UNL     2      -8.765   8.651  66.838  1.00  0.00    -0.124 C  
HETATM    3  N   UNL     2      -9.253   7.219  67.111  1.00  0.00    -0.131 N  
HETATM    4  C   UNL     2      -8.835   6.336  65.963  1.00  0.00    -0.151 C  
HETATM    5  C   UNL     2     -10.786   7.257  67.190  1.00  0.00    -0.343 C  
ENDROOT
BRANCH   3   6
HETATM    6  C   UNL     2      -8.649   6.789  68.460  1.00  0.00    -0.125 C  
BRANCH   6   7
HETATM    7  C   UNL     2      -7.287   7.420  68.792  1.00  0.00    -0.095 C  
HETATM    8  O   UNL     2      -6.331   6.475  69.256  1.00  0.00    -0.032 OA 
HETATM    9  H   UNL     2      -5.490   6.866  69.461  1.00  0.00     0.000 HD 
ENDBRANCH   6   7
ENDBRANCH   3   6
TORSDOF 2
ENDMDL
MODEL      192
REMARK 921   NORMALIZED FREE ENERGY PREDICTED BY IDOCK:   -1.18 KCAL/MOL
REMARK 922        TOTAL FREE ENERGY PREDICTED BY IDOCK:   -1.39 KCAL/MOL
REMARK 923 INTER-LIGAND FREE ENERGY PREDICTED BY IDOCK:   -1.33 KCAL/MOL
REMARK 924 INTRA-LIGAND FREE ENERGY PREDICTED BY IDOCK:   -0.05 KCAL/MOL
REMARK 927      BINDING AFFINITY PREDICTED BY RF-SCORE:    0.00 PKD
ROOT
HETATM    1 CL   UNL     1      -9.002  11.835  67.420  1.00  0.00    -0.168 Cl 
HETATM    2  C   UNL     2      -8.360   8.634  68.962  1.00  0.00    -0.119 C  
HETATM    3  N   UNL     2      -7.837   7.822  67.767  1.00  0.00    -0.121 N  
HETATM    4  C   UNL     2      -6.827   6.820  68.263  1.00  0.00    -0.077 C  
HETATM    5  C   UNL     2      -7.151   8.801  66.804  1.00  0.00    -0.081 C  
ENDROOT
BRANCH   3   6
HETATM    6  C   UNL     2      -9.061   7.170  67.098  1.00  0.00    -0.129 C  
BRANCH   6   7
HETATM    7  C   UNL     2     -10.309   8.066  67.013  1.00  0.00    -0.344 C  
HETATM    8  O   UNL     2     -10.320   8.900  65.863  1.00  0.00    -0.295 OA 
HETATM    9  H   UNL     2     -11.091   9.453  65.811  1.00  0.00     0.000 HD 
ENDBRANCH   6   7
ENDBRANCH   3   6
TORSDOF 2
ENDMDL
MODEL      193
REMARK 921   NORMALIZED FREE ENERGY PREDICTED BY IDOCK:   -1.18 KCAL/MOL
REMARK 922        TOTAL FREE ENERGY PREDICTED BY IDOCK:   -1.38 KCAL/MOL
REMARK 923 INTER-LIGAND FREE ENERGY PREDICTED BY IDOCK:   -1.30 KCAL/MOL
REMARK 924 INTRA-LIGAND FREE ENERGY PREDICTED BY IDOCK:   -0.09 KCAL/MOL
REMARK 927      BINDING AFFINITY PREDICTED BY RF-SCORE:    0.00 PKD
ROOT
HETATM    1 CL   UNL     1     -10.146   8.352  72.430  1.00  0.00    -0.381 Cl 
HETATM    2  C   UNL     2     -10.661   7.383  68.989  1.00  0.00    -0.192 C  
HETATM    3  N   UNL     2      -9.429   6.498  68.738  1.00  0.00    -0.129 N  
HETATM    4  C   UNL     2      -9.799   5.418  67.754  1.00  0.00    -0.143 C  
HETATM    5  C   UNL     2      -9.037   5.854  70.075  1.00  0.00    -0.144 C  
ENDROOT
BRANCH   3   6
HETATM    6  C   UNL     2      -8.309   7.424  68.231  1.00  0.00    -0.125 C  
BRANCH   6   7
HETATM    7  C   UNL     2      -7.633   8.280  69.315  1.00  0.00    -0.094 C  
HETATM    8  O   UNL     2      -7.997   9.652  69.251  1.00  0.00    -0.090 OA 
HETATM    9  H   UNL     2      -7.580  10.181  69.921  1.00  0.00     0.000 HD 
ENDBRANCH   6   7
ENDBRANCH   3   6
TORSDOF 2
ENDMDL
MODEL      194
REMARK 921   NORMALIZED FREE ENERGY PREDICTED BY IDOCK:   -1.18 KCAL/MOL
REMARK 922        TOTAL FREE ENERGY PREDICTED BY IDOCK:   -1.38 KCAL/MOL
REMARK 923 INTER-LIGAND FREE ENERGY PREDICTED BY IDOCK:   -1.31 KCAL/MOL
REMARK 924 INTRA-LIGAND FREE ENERGY PREDICTED BY IDOCK:   -0.07 KCAL/MOL
REMARK 927      BINDING AFFINITY PREDICTED BY RF-SCORE:    0.00 PKD
ROOT
HETATM    1 CL   UNL     1      -9.603   7.342  70.973  1.00  0.00    -0.162 Cl 
HETATM    2  C   UNL     2     -10.960   6.768  67.676  1.00  0.00    -0.270 C  
HETATM    3  N   UNL     2      -9.926   5.793  67.090  1.00  0.00    -0.143 N  
HETATM    4  C   UNL     2     -10.626   4.855  66.140  1.00  0.00    -0.271 C  
HETATM    5  C   UNL     2      -9.335   4.986  68.255  1.00  0.00    -0.126 C  
ENDROOT
BRANCH   3   6
HETATM    6  C   UNL     2      -8.839   6.646  66.412  1.00  0.00    -0.144 C  
BRANCH   6   7
HETATM    7  C   UNL     2      -8.155   5.985  65.204  1.00  0.00    -0.132 C  
HETATM    8  O   UNL     2      -7.128   5.073  65.572  1.00  0.00    -0.064 OA 
HETATM    9  H   UNL     2      -6.706   4.665  64.825  1.00  0.00     0.000 HD 
ENDBRANCH   6   7
ENDBRANCH   3   6
TORSDOF 2
ENDMDL
MODEL      195
REMARK 921   NORMALIZED FREE ENERGY PREDICTED BY IDOCK:   -1.18 KCAL/MOL
REMARK 922        TOTAL FREE ENERGY PREDICTED BY IDOCK:   -1.38 KCAL/MOL
REMARK 923 INTER-LIGAND FREE ENERGY PREDICTED BY IDOCK:   -1.32 KCAL/MOL
REMARK 924 INTRA-LIGAND FREE ENERGY PREDICTED BY IDOCK:   -0.05 KCAL/MOL
REMARK 927      BINDING AFFINITY PREDICTED BY RF-SCORE:    0.00 PKD
ROOT
HETATM    1 CL   UNL     1      -8.767   4.714  62.687  1.00  0.00    -0.120 Cl 
HETATM    2  C   UNL     2     -10.644   4.664  65.772  1.00  0.00    -0.223 C  
HETATM    3  N   UNL     2      -9.690   5.412  66.718  1.00  0.00    -0.144 N  
HETATM    4  C   UNL     2     -10.507   6.172  67.731  1.00  0.00    -0.231 C  
HETATM    5  C   UNL     2      -8.880   6.405  65.872  1.00  0.00    -0.131 C  
ENDROOT
BRANCH   3   6
HETATM    6  C   UNL     2      -8.767   4.356  67.350  1.00  0.00    -0.105 C  
BRANCH   6   7
HETATM    7  C   UNL     2      -9.137   2.897  67.035  1.00  0.00    -0.164 C  
HETATM    8  O   UNL     2      -9.413   2.127  68.197  1.00  0.00    -0.206 OA 
HETATM    9  H   UNL     2      -9.642   1.226  68.002  1.00  0.00     0.000 HD 
ENDBRANCH   6   7
ENDBRANCH   3   6
TORSDOF 2
ENDMDL
MODEL      196
REMARK 921   NORMALIZED FREE ENERGY PREDICTED BY IDOCK:   -1.17 KCAL/MOL
REMARK 922        TOTAL FREE ENERGY PREDICTED BY IDOCK:   -1.37 KCAL/MOL
REMARK 923 INTER-LIGAND FREE ENERGY PREDICTED BY IDOCK:   -1.32 KCAL/MOL
REMARK 924 INTRA-LIGAND FREE ENERGY PREDICTED BY IDOCK:   -0.05 KCAL/MOL
REMARK 927      BINDING AFFINITY PREDICTED BY RF-SCORE:    0.00 PKD
ROOT
HETATM    1 CL   UNL     1     -10.167   9.830  68.063  1.00  0.00    -0.211 Cl 
HETATM    2  C   UNL     2      -8.902   6.906  66.361  1.00  0.00    -0.145 C  
HETATM    3  N   UNL     2      -9.678   5.785  67.069  1.00  0.00    -0.133 N  
HETATM    4  C   UNL     2      -9.926   4.669  66.087  1.00  0.00    -0.247 C  
HETATM    5  C   UNL     2     -11.024   6.367  67.526  1.00  0.00    -0.364 C  
ENDROOT
BRANCH   3   6
HETATM    6  C   UNL     2      -8.834   5.352  68.281  1.00  0.00    -0.104 C  
BRANCH   6   7
HETATM    7  C   UNL     2      -7.330   5.192  68.001  1.00  0.00    -0.075 C  
HETATM    8  O   UNL     2      -6.510   5.848  68.960  1.00  0.00    -0.044 OA 
HETATM    9  H   UNL     2      -5.581   5.749  68.787  1.00  0.00     0.000 HD 
ENDBRANCH   6   7
ENDBRANCH   3   6
TORSDOF 2
ENDMDL
MODEL      197
REMARK 921   NORMALIZED FREE ENERGY PREDICTED BY IDOCK:   -1.16 KCAL/MOL
REMARK 922        TOTAL FREE ENERGY PREDICTED BY IDOCK:   -1.36 KCAL/MOL
REMARK 923 INTER-LIGAND FREE ENERGY PREDICTED BY IDOCK:   -1.31 KCAL/MOL
REMARK 924 INTRA-LIGAND FREE ENERGY PREDICTED BY IDOCK:   -0.05 KCAL/MOL
REMARK 927      BINDING AFFINITY PREDICTED BY RF-SCORE:    0.00 PKD
ROOT
HETATM    1 CL   UNL     1      -6.741  10.870  69.996  1.00  0.00    -0.153 Cl 
HETATM    2  C   UNL     2      -6.917   9.741  66.570  1.00  0.00    -0.085 C  
HETATM    3  N   UNL     2      -8.392   9.323  66.466  1.00  0.00    -0.124 N  
HETATM    4  C   UNL     2      -8.870   9.574  65.058  1.00  0.00    -0.195 C  
HETATM    5  C   UNL     2      -9.194  10.199  67.438  1.00  0.00    -0.141 C  
ENDROOT
BRANCH   3   6
HETATM    6  C   UNL     2      -8.469   7.842  66.878  1.00  0.00    -0.128 C  
BRANCH   6   7
HETATM    7  C   UNL     2      -8.731   6.859  65.725  1.00  0.00    -0.106 C  
HETATM    8  O   UNL     2      -9.891   6.061  65.924  1.00  0.00    -0.381 OA 
HETATM    9  H   UNL     2     -10.053   5.454  65.212  1.00  0.00     0.000 HD 
ENDBRANCH   6   7
ENDBRANCH   3   6
TORSDOF 2
ENDMDL
MODEL      198
REMARK 921   NORMALIZED FREE ENERGY PREDICTED BY IDOCK:   -1.12 KCAL/MOL
REMARK 922        TOTAL FREE ENERGY PREDICTED BY IDOCK:   -1.32 KCAL/MOL
REMARK 923 INTER-LIGAND FREE ENERGY PREDICTED BY IDOCK:   -1.24 KCAL/MOL
REMARK 924 INTRA-LIGAND FREE ENERGY PREDICTED BY IDOCK:   -0.07 KCAL/MOL
REMARK 927      BINDING AFFINITY PREDICTED BY RF-SCORE:    0.00 PKD
ROOT
HETATM    1 CL   UNL     1      -8.522   5.099  63.040  1.00  0.00    -0.121 Cl 
HETATM    2  C   UNL     2     -10.526   4.757  66.025  1.00  0.00    -0.292 C  
HETATM    3  N   UNL     2      -9.846   5.768  66.963  1.00  0.00    -0.139 N  
HETATM    4  C   UNL     2     -10.886   6.358  67.880  1.00  0.00    -0.322 C  
HETATM    5  C   UNL     2      -9.247   6.881  66.091  1.00  0.00    -0.079 C  
ENDROOT
BRANCH   3   6
HETATM    6  C   UNL     2      -8.736   5.008  67.711  1.00  0.00    -0.103 C  
BRANCH   6   7
HETATM    7  C   UNL     2      -8.504   5.460  69.162  1.00  0.00    -0.103 C  
HETATM    8  O   UNL     2      -7.349   6.276  69.315  1.00  0.00    -0.086 OA 
HETATM    9  H   UNL     2      -7.206   6.556  70.212  1.00  0.00     0.000 HD 
ENDBRANCH   6   7
ENDBRANCH   3   6
TORSDOF 2
ENDMDL
MODEL      199
REMARK 921   NORMALIZED FREE ENERGY PREDICTED BY IDOCK:   -1.10 KCAL/MOL
REMARK 922        TOTAL FREE ENERGY PREDICTED BY IDOCK:   -1.29 KCAL/MOL
REMARK 923 INTER-LIGAND FREE ENERGY PREDICTED BY IDOCK:   -2.12 KCAL/MOL
REMARK 924 INTRA-LIGAND FREE ENERGY PREDICTED BY IDOCK:    0.83 KCAL/MOL
REMARK 927      BINDING AFFINITY PREDICTED BY RF-SCORE:    0.00 PKD
ROOT
HETATM    1 CL   UNL     1     -11.335  12.568  67.301  1.00  0.00    -0.346 Cl 
HETATM    2  C   UNL     2      -9.420  15.241  65.807  1.00  0.00    -0.275 C  
HETATM    3  N   UNL     2      -8.938  16.000  67.054  1.00  0.00    -0.203 N  
HETATM    4  C   UNL     2      -7.585  16.599  66.766  1.00  0.00    -0.257 C  
HETATM    5  C   UNL     2      -8.809  14.984  68.197  1.00  0.00    -0.167 C  
ENDROOT
BRANCH   3   6
HETATM    6  C   UNL     2     -10.012  17.053  67.381  1.00  0.00    -0.278 C  
BRANCH   6   7
HETATM    7  C   UNL     2      -9.468  18.402  67.882  1.00  0.00    -0.285 C  
HETATM    8  O   UNL     2      -8.272  18.275  68.641  1.00  0.00    -0.309 OA 
HETATM    9  H   UNL     2      -7.936  19.108  68.950  1.00  0.00     0.000 HD 
ENDBRANCH   6   7
ENDBRANCH   3   6
TORSDOF 2
ENDMDL
MODEL      200
REMARK 921   NORMALIZED FREE ENERGY PREDICTED BY IDOCK:   -1.09 KCAL/MOL
REMARK 922        TOTAL FREE ENERGY PREDICTED BY IDOCK:   -1.28 KCAL/MOL
REMARK 923 INTER-LIGAND FREE ENERGY PREDICTED BY IDOCK:   -1.23 KCAL/MOL
REMARK 924 INTRA-LIGAND FREE ENERGY PREDICTED BY IDOCK:   -0.05 KCAL/MOL
REMARK 927      BINDING AFFINITY PREDICTED BY RF-SCORE:    0.00 PKD
ROOT
HETATM    1 CL   UNL     1      -7.309  10.248  66.955  1.00  0.00    -0.095 Cl 
HETATM    2  C   UNL     2     -10.411   8.847  68.162  1.00  0.00    -0.212 C  
HETATM    3  N   UNL     2      -9.915   7.567  68.854  1.00  0.00    -0.164 N  
HETATM    4  C   UNL     2     -10.814   7.269  70.027  1.00  0.00    -0.253 C  
HETATM    5  C   UNL     2      -8.491   7.835  69.362  1.00  0.00    -0.134 C  
ENDROOT
BRANCH   3   6
HETATM    6  C   UNL     2      -9.914   6.455  67.791  1.00  0.00    -0.128 C  
BRANCH   6   7
HETATM    7  C   UNL     2      -8.802   5.404  67.952  1.00  0.00    -0.105 C  
HETATM    8  O   UNL     2      -9.303   4.087  68.145  1.00  0.00    -0.142 OA 
HETATM    9  H   UNL     2      -8.616   3.438  68.244  1.00  0.00     0.000 HD 
ENDBRANCH   6   7
ENDBRANCH   3   6
TORSDOF 2
ENDMDL
MODEL      201
REMARK 921   NORMALIZED FREE ENERGY PREDICTED BY IDOCK:   -1.09 KCAL/MOL
REMARK 922        TOTAL FREE ENERGY PREDICTED BY IDOCK:   -1.28 KCAL/MOL
REMARK 923 INTER-LIGAND FREE ENERGY PREDICTED BY IDOCK:   -1.24 KCAL/MOL
REMARK 924 INTRA-LIGAND FREE ENERGY PREDICTED BY IDOCK:   -0.04 KCAL/MOL
REMARK 927      BINDING AFFINITY PREDICTED BY RF-SCORE:    0.00 PKD
ROOT
HETATM    1 CL   UNL     1      -9.267   2.449  65.049  1.00  0.00    -0.139 Cl 
HETATM    2  C   UNL     2      -9.348   4.059  68.280  1.00  0.00    -0.160 C  
HETATM    3  N   UNL     2      -9.853   5.462  67.906  1.00  0.00    -0.136 N  
HETATM    4  C   UNL     2     -10.677   6.003  69.046  1.00  0.00    -0.324 C  
HETATM    5  C   UNL     2     -10.740   5.321  66.661  1.00  0.00    -0.200 C  
ENDROOT
BRANCH   3   6
HETATM    6  C   UNL     2      -8.611   6.316  67.596  1.00  0.00    -0.114 C  
BRANCH   6   7
HETATM    7  C   UNL     2      -8.037   6.138  66.180  1.00  0.00    -0.115 C  
HETATM    8  O   UNL     2      -6.731   6.679  66.034  1.00  0.00    -0.046 OA 
HETATM    9  H   UNL     2      -6.377   6.568  65.159  1.00  0.00     0.000 HD 
ENDBRANCH   6   7
ENDBRANCH   3   6
TORSDOF 2
ENDMDL
MODEL      202
REMARK 921   NORMALIZED FREE ENERGY PREDICTED BY IDOCK:   -1.07 KCAL/MOL
REMARK 922        TOTAL FREE ENERGY PREDICTED BY IDOCK:   -1.26 KCAL/MOL
REMARK 923 INTER-LIGAND FREE ENERGY PREDICTED BY IDOCK:   -1.22 KCAL/MOL
REMARK 924 INTRA-LIGAND FREE ENERGY PREDICTED BY IDOCK:   -0.04 KCAL/MOL
REMARK 927      BINDING AFFINITY PREDICTED BY RF-SCORE:    0.00 PKD
ROOT
HETATM    1 CL   UNL     1     -10.623   6.989  66.845  1.00  0.00    -0.380 Cl 
HETATM    2  C   UNL     2      -8.017   7.894  64.515  1.00  0.00    -0.140 C  
HETATM    3  N   UNL     2      -6.774   7.844  65.418  1.00  0.00    -0.048 N  
HETATM    4  C   UNL     2      -5.589   7.412  64.592  1.00  0.00    -0.033 C  
HETATM    5  C   UNL     2      -7.036   6.801  66.513  1.00  0.00    -0.063 C  
ENDROOT
BRANCH   3   6
HETATM    6  C   UNL     2      -6.608   9.246  66.031  1.00  0.00    -0.072 C  
BRANCH   6   7
HETATM    7  C   UNL     2      -7.841  10.158  65.909  1.00  0.00    -0.132 C  
HETATM    8  O   UNL     2      -7.510  11.539  65.843  1.00  0.00    -0.351 OA 
HETATM    9  H   UNL     2      -8.272  12.102  65.767  1.00  0.00     0.000 HD 
ENDBRANCH   6   7
ENDBRANCH   3   6
TORSDOF 2
ENDMDL
MODEL      203
REMARK 921   NORMALIZED FREE ENERGY PREDICTED BY IDOCK:   -1.05 KCAL/MOL
REMARK 922        TOTAL FREE ENERGY PREDICTED BY IDOCK:   -1.24 KCAL/MOL
REMARK 923 INTER-LIGAND FREE ENERGY PREDICTED BY IDOCK:   -1.18 KCAL/MOL
REMARK 924 INTRA-LIGAND FREE ENERGY PREDICTED BY IDOCK:   -0.06 KCAL/MOL
REMARK 927      BINDING AFFINITY PREDICTED BY RF-SCORE:    0.00 PKD
ROOT
HETATM    1 CL   UNL     1     -10.706  10.731  69.253  1.00  0.00    -0.245 Cl 
HETATM    2  C   UNL     2     -10.176   7.575  70.928  1.00  0.00    -0.192 C  
HETATM    3  N   UNL     2      -8.646   7.449  70.858  1.00  0.00    -0.134 N  
HETATM    4  C   UNL     2      -8.161   6.716  72.082  1.00  0.00    -0.105 C  
HETATM    5  C   UNL     2      -8.062   8.869  70.853  1.00  0.00    -0.166 C  
ENDROOT
BRANCH   3   6
HETATM    6  C   UNL     2      -8.316   6.721  69.542  1.00  0.00    -0.132 C  
BRANCH   6   7
HETATM    7  C   UNL     2      -9.321   5.631  69.134  1.00  0.00    -0.124 C  
HETATM    8  O   UNL     2      -8.763   4.323  69.148  1.00  0.00    -0.081 OA 
HETATM    9  H   UNL     2      -9.384   3.650  68.896  1.00  0.00     0.000 HD 
ENDBRANCH   6   7
ENDBRANCH   3   6
TORSDOF 2
ENDMDL
MODEL      204
REMARK 921   NORMALIZED FREE ENERGY PREDICTED BY IDOCK:   -1.05 KCAL/MOL
REMARK 922        TOTAL FREE ENERGY PREDICTED BY IDOCK:   -1.24 KCAL/MOL
REMARK 923 INTER-LIGAND FREE ENERGY PREDICTED BY IDOCK:   -1.22 KCAL/MOL
REMARK 924 INTRA-LIGAND FREE ENERGY PREDICTED BY IDOCK:   -0.02 KCAL/MOL
REMARK 927      BINDING AFFINITY PREDICTED BY RF-SCORE:    0.00 PKD
ROOT
HETATM    1 CL   UNL     1     -11.170   6.484  67.299  1.00  0.00    -0.409 Cl 
HETATM    2  C   UNL     2      -8.834   7.042  69.996  1.00  0.00    -0.142 C  
HETATM    3  N   UNL     2      -8.502   5.600  70.412  1.00  0.00    -0.125 N  
HETATM    4  C   UNL     2      -7.078   5.550  70.902  1.00  0.00    -0.069 C  
HETATM    5  C   UNL     2      -8.642   4.713  69.166  1.00  0.00    -0.079 C  
ENDROOT
BRANCH   3   6
HETATM    6  C   UNL     2      -9.529   5.196  71.485  1.00  0.00    -0.151 C  
BRANCH   6   7
HETATM    7  C   UNL     2      -9.277   3.828  72.142  1.00  0.00    -0.119 C  
HETATM    8  O   UNL     2     -10.129   3.577  73.252  1.00  0.00    -0.123 OA 
HETATM    9  H   UNL     2      -9.973   2.732  73.658  1.00  0.00     0.000 HD 
ENDBRANCH   6   7
ENDBRANCH   3   6
TORSDOF 2
ENDMDL
MODEL      205
REMARK 921   NORMALIZED FREE ENERGY PREDICTED BY IDOCK:   -0.97 KCAL/MOL
REMARK 922        TOTAL FREE ENERGY PREDICTED BY IDOCK:   -1.15 KCAL/MOL
REMARK 923 INTER-LIGAND FREE ENERGY PREDICTED BY IDOCK:   -1.10 KCAL/MOL
REMARK 924 INTRA-LIGAND FREE ENERGY PREDICTED BY IDOCK:   -0.05 KCAL/MOL
REMARK 927      BINDING AFFINITY PREDICTED BY RF-SCORE:    0.00 PKD
ROOT
HETATM    1 CL   UNL     1     -11.536   6.370  69.128  1.00  0.00    -0.377 Cl 
HETATM    2  C   UNL     2      -9.185   3.918  70.357  1.00  0.00    -0.139 C  
HETATM    3  N   UNL     2      -8.575   4.660  71.557  1.00  0.00    -0.114 N  
HETATM    4  C   UNL     2      -8.214   3.653  72.619  1.00  0.00    -0.081 C  
HETATM    5  C   UNL     2      -9.644   5.615  72.106  1.00  0.00    -0.149 C  
ENDROOT
BRANCH   3   6
HETATM    6  C   UNL     2      -7.363   5.447  71.028  1.00  0.00    -0.083 C  
BRANCH   6   7
HETATM    7  C   UNL     2      -7.535   6.975  71.016  1.00  0.00    -0.081 C  
HETATM    8  O   UNL     2      -7.274   7.557  69.746  1.00  0.00    -0.075 OA 
HETATM    9  H   UNL     2      -7.381   8.501  69.739  1.00  0.00     0.000 HD 
ENDBRANCH   6   7
ENDBRANCH   3   6
TORSDOF 2
ENDMDL
MODEL      206
REMARK 921   NORMALIZED FREE ENERGY PREDICTED BY IDOCK:   -0.97 KCAL/MOL
REMARK 922        TOTAL FREE ENERGY PREDICTED BY IDOCK:   -1.15 KCAL/MOL
REMARK 923 INTER-LIGAND FREE ENERGY PREDICTED BY IDOCK:   -1.03 KCAL/MOL
REMARK 924 INTRA-LIGAND FREE ENERGY PREDICTED BY IDOCK:   -0.12 KCAL/MOL
REMARK 927      BINDING AFFINITY PREDICTED BY RF-SCORE:    0.00 PKD
ROOT
HETATM    1 CL   UNL     1      -9.875   9.951  67.452  1.00  0.00    -0.209 Cl 
HETATM    2  C   UNL     2     -10.181   6.357  67.276  1.00  0.00    -0.187 C  
HETATM    3  N   UNL     2      -8.737   5.917  67.564  1.00  0.00    -0.106 N  
HETATM    4  C   UNL     2      -8.767   4.598  68.293  1.00  0.00    -0.102 C  
HETATM    5  C   UNL     2      -8.097   6.981  68.467  1.00  0.00    -0.124 C  
ENDROOT
BRANCH   3   6
HETATM    6  C   UNL     2      -8.011   5.846  66.209  1.00  0.00    -0.102 C  
BRANCH   6   7
HETATM    7  C   UNL     2      -7.259   7.126  65.807  1.00  0.00    -0.073 C  
HETATM    8  O   UNL     2      -8.002   7.957  64.925  1.00  0.00    -0.125 OA 
HETATM    9  H   UNL     2      -7.538   8.748  64.678  1.00  0.00     0.000 HD 
ENDBRANCH   6   7
ENDBRANCH   3   6
TORSDOF 2
ENDMDL
MODEL      207
REMARK 921   NORMALIZED FREE ENERGY PREDICTED BY IDOCK:   -0.94 KCAL/MOL
REMARK 922        TOTAL FREE ENERGY PREDICTED BY IDOCK:   -1.12 KCAL/MOL
REMARK 923 INTER-LIGAND FREE ENERGY PREDICTED BY IDOCK:   -1.08 KCAL/MOL
REMARK 924 INTRA-LIGAND FREE ENERGY PREDICTED BY IDOCK:   -0.04 KCAL/MOL
REMARK 927      BINDING AFFINITY PREDICTED BY RF-SCORE:    0.00 PKD
ROOT
HETATM    1 CL   UNL     1      -6.259   9.945  70.196  1.00  0.00    -0.063 Cl 
HETATM    2  C   UNL     2      -7.407   6.958  68.522  1.00  0.00    -0.090 C  
HETATM    3  N   UNL     2      -8.791   6.765  69.164  1.00  0.00    -0.134 N  
HETATM    4  C   UNL     2      -9.715   6.141  68.150  1.00  0.00    -0.120 C  
HETATM    5  C   UNL     2      -9.322   8.153  69.549  1.00  0.00    -0.155 C  
ENDROOT
BRANCH   3   6
HETATM    6  C   UNL     2      -8.586   5.894  70.416  1.00  0.00    -0.135 C  
BRANCH   6   7
HETATM    7  C   UNL     2      -9.544   4.697  70.539  1.00  0.00    -0.198 C  
HETATM    8  O   UNL     2     -10.130   4.581  71.829  1.00  0.00    -0.187 OA 
HETATM    9  H   UNL     2     -10.722   3.841  71.904  1.00  0.00     0.000 HD 
ENDBRANCH   6   7
ENDBRANCH   3   6
TORSDOF 2
ENDMDL
MODEL      208
REMARK 921   NORMALIZED FREE ENERGY PREDICTED BY IDOCK:   -0.93 KCAL/MOL
REMARK 922        TOTAL FREE ENERGY PREDICTED BY IDOCK:   -1.10 KCAL/MOL
REMARK 923 INTER-LIGAND FREE ENERGY PREDICTED BY IDOCK:   -1.07 KCAL/MOL
REMARK 924 INTRA-LIGAND FREE ENERGY PREDICTED BY IDOCK:   -0.03 KCAL/MOL
REMARK 927      BINDING AFFINITY PREDICTED BY RF-SCORE:    0.00 PKD
ROOT
HETATM    1 CL   UNL     1      -5.904  10.109  69.995  1.00  0.00    -0.047 Cl 
HETATM    2  C   UNL     2      -8.219   7.385  69.483  1.00  0.00    -0.131 C  
HETATM    3  N   UNL     2      -9.113   7.510  70.727  1.00  0.00    -0.153 N  
HETATM    4  C   UNL     2     -10.508   7.067  70.371  1.00  0.00    -0.206 C  
HETATM    5  C   UNL     2      -9.139   8.991  71.134  1.00  0.00    -0.246 C  
ENDROOT
BRANCH   3   6
HETATM    6  C   UNL     2      -8.466   6.654  71.831  1.00  0.00    -0.114 C  
BRANCH   6   7
HETATM    7  C   UNL     2      -7.641   7.441  72.864  1.00  0.00    -0.080 C  
HETATM    8  O   UNL     2      -7.415   6.717  74.066  1.00  0.00    -0.092 OA 
HETATM    9  H   UNL     2      -6.905   7.204  74.704  1.00  0.00     0.000 HD 
ENDBRANCH   6   7
ENDBRANCH   3   6
TORSDOF 2
ENDMDL
MODEL      209
REMARK 921   NORMALIZED FREE ENERGY PREDICTED BY IDOCK:   -0.90 KCAL/MOL
REMARK 922        TOTAL FREE ENERGY PREDICTED BY IDOCK:   -1.07 KCAL/MOL
REMARK 923 INTER-LIGAND FREE ENERGY PREDICTED BY IDOCK:   -1.02 KCAL/MOL
REMARK 924 INTRA-LIGAND FREE ENERGY PREDICTED BY IDOCK:   -0.05 KCAL/MOL
REMARK 927      BINDING AFFINITY PREDICTED BY RF-SCORE:    0.00 PKD
ROOT
HETATM    1 CL   UNL     1      -5.569   9.533  68.927  1.00  0.00    -0.037 Cl 
HETATM    2  C   UNL     2      -8.516   9.248  66.859  1.00  0.00    -0.127 C  
HETATM    3  N   UNL     2      -8.944   7.798  67.142  1.00  0.00    -0.123 N  
HETATM    4  C   UNL     2     -10.446   7.710  67.060  1.00  0.00    -0.349 C  
HETATM    5  C   UNL     2      -8.492   7.449  68.567  1.00  0.00    -0.125 C  
ENDROOT
BRANCH   3   6
HETATM    6  C   UNL     2      -8.226   6.910  66.110  1.00  0.00    -0.121 C  
BRANCH   6   7
HETATM    7  C   UNL     2      -6.980   6.178  66.639  1.00  0.00    -0.067 C  
HETATM    8  O   UNL     2      -7.138   4.766  66.681  1.00  0.00    -0.068 OA 
HETATM    9  H   UNL     2      -6.368   4.314  67.007  1.00  0.00     0.000 HD 
ENDBRANCH   6   7
ENDBRANCH   3   6
TORSDOF 2
ENDMDL
MODEL      210
REMARK 921   NORMALIZED FREE ENERGY PREDICTED BY IDOCK:   -0.90 KCAL/MOL
REMARK 922        TOTAL FREE ENERGY PREDICTED BY IDOCK:   -1.07 KCAL/MOL
REMARK 923 INTER-LIGAND FREE ENERGY PREDICTED BY IDOCK:   -0.99 KCAL/MOL
REMARK 924 INTRA-LIGAND FREE ENERGY PREDICTED BY IDOCK:   -0.07 KCAL/MOL
REMARK 927      BINDING AFFINITY PREDICTED BY RF-SCORE:    0.00 PKD
ROOT
HETATM    1 CL   UNL     1      -9.848   3.978  64.985  1.00  0.00    -0.192 Cl 
HETATM    2  C   UNL     2     -10.403   6.549  67.461  1.00  0.00    -0.201 C  
HETATM    3  N   UNL     2      -8.966   7.023  67.731  1.00  0.00    -0.122 N  
HETATM    4  C   UNL     2      -8.993   8.492  68.066  1.00  0.00    -0.141 C  
HETATM    5  C   UNL     2      -8.156   6.811  66.444  1.00  0.00    -0.110 C  
ENDROOT
BRANCH   3   6
HETATM    6  C   UNL     2      -8.413   6.149  68.871  1.00  0.00    -0.118 C  
BRANCH   6   7
HETATM    7  C   UNL     2      -7.324   6.814  69.729  1.00  0.00    -0.089 C  
HETATM    8  O   UNL     2      -6.011   6.381  69.398  1.00  0.00    -0.020 OA 
HETATM    9  H   UNL     2      -5.338   6.793  69.928  1.00  0.00     0.000 HD 
ENDBRANCH   6   7
ENDBRANCH   3   6
TORSDOF 2
ENDMDL
MODEL      211
REMARK 921   NORMALIZED FREE ENERGY PREDICTED BY IDOCK:   -0.88 KCAL/MOL
REMARK 922        TOTAL FREE ENERGY PREDICTED BY IDOCK:   -1.04 KCAL/MOL
REMARK 923 INTER-LIGAND FREE ENERGY PREDICTED BY IDOCK:   -1.00 KCAL/MOL
REMARK 924 INTRA-LIGAND FREE ENERGY PREDICTED BY IDOCK:   -0.04 KCAL/MOL
REMARK 927      BINDING AFFINITY PREDICTED BY RF-SCORE:    0.00 PKD
ROOT
HETATM    1 CL   UNL     1     -10.203   5.941  68.568  1.00  0.00    -0.215 Cl 
HETATM    2  C   UNL     2      -9.757   5.244  72.083  1.00  0.00    -0.164 C  
HETATM    3  N   UNL     2      -8.422   4.482  72.073  1.00  0.00    -0.111 N  
HETATM    4  C   UNL     2      -7.683   4.777  73.352  1.00  0.00    -0.095 C  
HETATM    5  C   UNL     2      -7.602   4.996  70.882  1.00  0.00    -0.078 C  
ENDROOT
BRANCH   3   6
HETATM    6  C   UNL     2      -8.761   2.990  71.897  1.00  0.00    -0.077 C  
BRANCH   6   7
HETATM    7  C   UNL     2     -10.109   2.555  72.495  1.00  0.00    -0.162 C  
HETATM    8  O   UNL     2     -10.047   2.309  73.893  1.00  0.00    -0.095 OA 
HETATM    9  H   UNL     2     -10.881   2.041  74.262  1.00  0.00     0.000 HD 
ENDBRANCH   6   7
ENDBRANCH   3   6
TORSDOF 2
ENDMDL
MODEL      212
REMARK 921   NORMALIZED FREE ENERGY PREDICTED BY IDOCK:   -0.85 KCAL/MOL
REMARK 922        TOTAL FREE ENERGY PREDICTED BY IDOCK:   -1.01 KCAL/MOL
REMARK 923 INTER-LIGAND FREE ENERGY PREDICTED BY IDOCK:   -1.00 KCAL/MOL
REMARK 924 INTRA-LIGAND FREE ENERGY PREDICTED BY IDOCK:   -0.01 KCAL/MOL
REMARK 927      BINDING AFFINITY PREDICTED BY RF-SCORE:    0.00 PKD
ROOT
HETATM    1 CL   UNL     1     -10.843   2.927  63.354  1.00  0.00    -0.242 Cl 
HETATM    2  C   UNL     2      -9.518   3.898  66.570  1.00  0.00    -0.195 C  
HETATM    3  N   UNL     2      -8.213   3.087  66.617  1.00  0.00    -0.088 N  
HETATM    4  C   UNL     2      -7.184   3.865  67.394  1.00  0.00    -0.067 C  
HETATM    5  C   UNL     2      -7.727   2.904  65.172  1.00  0.00    -0.081 C  
ENDROOT
BRANCH   3   6
HETATM    6  C   UNL     2      -8.554   1.726  67.251  1.00  0.00    -0.096 C  
BRANCH   6   7
HETATM    7  C   UNL     2      -9.335   1.804  68.574  1.00  0.00    -0.186 C  
HETATM    8  O   UNL     2      -8.494   1.842  69.719  1.00  0.00    -0.045 OA 
HETATM    9  H   UNL     2      -8.977   1.890  70.535  1.00  0.00     0.000 HD 
ENDBRANCH   6   7
ENDBRANCH   3   6
TORSDOF 2
ENDMDL
MODEL      213
REMARK 921   NORMALIZED FREE ENERGY PREDICTED BY IDOCK:   -0.79 KCAL/MOL
REMARK 922        TOTAL FREE ENERGY PREDICTED BY IDOCK:   -0.94 KCAL/MOL
REMARK 923 INTER-LIGAND FREE ENERGY PREDICTED BY IDOCK:   -0.88 KCAL/MOL
REMARK 924 INTRA-LIGAND FREE ENERGY PREDICTED BY IDOCK:   -0.07 KCAL/MOL
REMARK 927      BINDING AFFINITY PREDICTED BY RF-SCORE:    0.00 PKD
ROOT
HETATM    1 CL   UNL     1     -10.246  11.140  66.476  1.00  0.00    -0.264 Cl 
HETATM    2  C   UNL     2      -7.514   9.643  68.300  1.00  0.00    -0.077 C  
HETATM    3  N   UNL     2      -6.593   9.197  67.153  1.00  0.00    -0.061 N  
HETATM    4  C   UNL     2      -5.161   9.287  67.615  1.00  0.00    -0.037 C  
HETATM    5  C   UNL     2      -6.809  10.164  65.980  1.00  0.00    -0.112 C  
ENDROOT
BRANCH   3   6
HETATM    6  C   UNL     2      -7.018   7.769  66.766  1.00  0.00    -0.072 C  
BRANCH   6   7
HETATM    7  C   UNL     2      -8.246   7.684  65.844  1.00  0.00    -0.133 C  
HETATM    8  O   UNL     2      -7.983   6.999  64.626  1.00  0.00    -0.122 OA 
HETATM    9  H   UNL     2      -8.742   6.947  64.057  1.00  0.00     0.000 HD 
ENDBRANCH   6   7
ENDBRANCH   3   6
TORSDOF 2
ENDMDL
MODEL      214
REMARK 921   NORMALIZED FREE ENERGY PREDICTED BY IDOCK:   -0.79 KCAL/MOL
REMARK 922        TOTAL FREE ENERGY PREDICTED BY IDOCK:   -0.94 KCAL/MOL
REMARK 923 INTER-LIGAND FREE ENERGY PREDICTED BY IDOCK:   -0.89 KCAL/MOL
REMARK 924 INTRA-LIGAND FREE ENERGY PREDICTED BY IDOCK:   -0.05 KCAL/MOL
REMARK 927      BINDING AFFINITY PREDICTED BY RF-SCORE:    0.00 PKD
ROOT
HETATM    1 CL   UNL     1      -9.708   7.759  71.268  1.00  0.00    -0.172 Cl 
HETATM    2  C   UNL     2      -9.232   9.030  67.921  1.00  0.00    -0.141 C  
HETATM    3  N   UNL     2      -8.295   7.968  67.325  1.00  0.00    -0.121 N  
HETATM    4  C   UNL     2      -8.584   7.834  65.852  1.00  0.00    -0.153 C  
HETATM    5  C   UNL     2      -8.596   6.635  68.025  1.00  0.00    -0.118 C  
ENDROOT
BRANCH   3   6
HETATM    6  C   UNL     2      -6.855   8.424  67.622  1.00  0.00    -0.067 C  
BRANCH   6   7
HETATM    7  C   UNL     2      -6.589   9.923  67.399  1.00  0.00    -0.069 C  
HETATM    8  O   UNL     2      -5.601  10.173  66.409  1.00  0.00    -0.047 OA 
HETATM    9  H   UNL     2      -5.437  11.099  66.271  1.00  0.00     0.000 HD 
ENDBRANCH   6   7
ENDBRANCH   3   6
TORSDOF 2
ENDMDL
MODEL      215
REMARK 921   NORMALIZED FREE ENERGY PREDICTED BY IDOCK:   -0.79 KCAL/MOL
REMARK 922        TOTAL FREE ENERGY PREDICTED BY IDOCK:   -0.94 KCAL/MOL
REMARK 923 INTER-LIGAND FREE ENERGY PREDICTED BY IDOCK:   -0.99 KCAL/MOL
REMARK 924 INTRA-LIGAND FREE ENERGY PREDICTED BY IDOCK:    0.05 KCAL/MOL
REMARK 927      BINDING AFFINITY PREDICTED BY RF-SCORE:    0.00 PKD
ROOT
HETATM    1 CL   UNL     1      -5.462   6.711  68.388  1.00  0.00    -0.015 Cl 
HETATM    2  C   UNL     2      -7.210   7.891  65.457  1.00  0.00    -0.067 C  
HETATM    3  N   UNL     2      -6.939   9.402  65.531  1.00  0.00    -0.084 N  
HETATM    4  C   UNL     2      -6.862   9.952  64.130  1.00  0.00    -0.126 C  
HETATM    5  C   UNL     2      -5.586   9.598  66.228  1.00  0.00    -0.052 C  
ENDROOT
BRANCH   3   6
HETATM    6  C   UNL     2      -8.075  10.021  66.365  1.00  0.00    -0.120 C  
BRANCH   6   7
HETATM    7  C   UNL     2      -9.156   9.029  66.828  1.00  0.00    -0.145 C  
HETATM    8  O   UNL     2     -10.250   8.934  65.926  1.00  0.00    -0.383 OA 
HETATM    9  H   UNL     2     -10.918   8.321  66.212  1.00  0.00     0.000 HD 
ENDBRANCH   6   7
ENDBRANCH   3   6
TORSDOF 2
ENDMDL
MODEL      216
REMARK 921   NORMALIZED FREE ENERGY PREDICTED BY IDOCK:   -0.62 KCAL/MOL
REMARK 922        TOTAL FREE ENERGY PREDICTED BY IDOCK:   -0.75 KCAL/MOL
REMARK 923 INTER-LIGAND FREE ENERGY PREDICTED BY IDOCK:   -0.64 KCAL/MOL
REMARK 924 INTRA-LIGAND FREE ENERGY PREDICTED BY IDOCK:   -0.11 KCAL/MOL
REMARK 927      BINDING AFFINITY PREDICTED BY RF-SCORE:    0.00 PKD
ROOT
HETATM    1 CL   UNL     1      -8.447   6.554  69.623  1.00  0.00    -0.130 Cl 
HETATM    2  C   UNL     2      -8.591   5.376  73.034  1.00  0.00    -0.122 C  
HETATM    3  N   UNL     2      -7.397   4.408  73.070  1.00  0.00    -0.074 N  
HETATM    4  C   UNL     2      -6.802   4.421  74.455  1.00  0.00    -0.065 C  
HETATM    5  C   UNL     2      -6.355   4.917  72.065  1.00  0.00    -0.030 C  
ENDROOT
BRANCH   3   6
HETATM    6  C   UNL     2      -7.929   3.026  72.650  1.00  0.00    -0.063 C  
BRANCH   6   7
HETATM    7  C   UNL     2      -7.911   2.756  71.136  1.00  0.00    -0.043 C  
HETATM    8  O   UNL     2      -9.182   2.928  70.523  1.00  0.00    -0.112 OA 
HETATM    9  H   UNL     2      -9.170   2.761  69.587  1.00  0.00     0.000 HD 
ENDBRANCH   6   7
ENDBRANCH   3   6
TORSDOF 2
ENDMDL
MODEL      217
REMARK 921   NORMALIZED FREE ENERGY PREDICTED BY IDOCK:   -0.51 KCAL/MOL
REMARK 922        TOTAL FREE ENERGY PREDICTED BY IDOCK:   -0.63 KCAL/MOL
REMARK 923 INTER-LIGAND FREE ENERGY PREDICTED BY IDOCK:   -0.61 KCAL/MOL
REMARK 924 INTRA-LIGAND FREE ENERGY PREDICTED BY IDOCK:   -0.03 KCAL/MOL
REMARK 927      BINDING AFFINITY PREDICTED BY RF-SCORE:    0.00 PKD
ROOT
HETATM    1 CL   UNL     1     -10.347   6.479  67.894  1.00  0.00    -0.195 Cl 
HETATM    2  C   UNL     2      -8.211   8.410  70.074  1.00  0.00    -0.121 C  
HETATM    3  N   UNL     2      -6.969   8.600  69.188  1.00  0.00    -0.062 N  
HETATM    4  C   UNL     2      -6.339   9.930  69.512  1.00  0.00    -0.047 C  
HETATM    5  C   UNL     2      -7.436   8.603  67.726  1.00  0.00    -0.097 C  
ENDROOT
BRANCH   3   6
HETATM    6  C   UNL     2      -6.038   7.405  69.459  1.00  0.00    -0.030 C  
BRANCH   6   7
HETATM    7  C   UNL     2      -6.467   6.499  70.626  1.00  0.00    -0.048 C  
HETATM    8  O   UNL     2      -5.550   5.442  70.879  1.00  0.00    -0.008 OA 
HETATM    9  H   UNL     2      -5.816   4.883  71.600  1.00  0.00     0.000 HD 
ENDBRANCH   6   7
ENDBRANCH   3   6
TORSDOF 2
ENDMDL
MODEL      218
REMARK 921   NORMALIZED FREE ENERGY PREDICTED BY IDOCK:   -0.08 KCAL/MOL
REMARK 922        TOTAL FREE ENERGY PREDICTED BY IDOCK:   -0.16 KCAL/MOL
REMARK 923 INTER-LIGAND FREE ENERGY PREDICTED BY IDOCK:   -1.89 KCAL/MOL
REMARK 924 INTRA-LIGAND FREE ENERGY PREDICTED BY IDOCK:    1.73 KCAL/MOL
REMARK 927      BINDING AFFINITY PREDICTED BY RF-SCORE:    0.00 PKD
ROOT
HETATM    1 CL   UNL     1     -12.754  12.490  71.463  1.00  0.00    -0.383 Cl 
HETATM    2  C   UNL     2     -10.800  13.624  68.646  1.00  0.00    -0.263 C  
HETATM    3  N   UNL     2     -10.801  12.373  67.754  1.00  0.00    -0.218 N  
HETATM    4  C   UNL     2     -10.767  12.804  66.311  1.00  0.00    -0.270 C  
HETATM    5  C   UNL     2     -12.104  11.609  68.026  1.00  0.00     0.075 C  
ENDROOT
BRANCH   3   6
HETATM    6  C   UNL     2      -9.581  11.529  68.165  1.00  0.00    -0.187 C  
BRANCH   6   7
HETATM    7  C   UNL     2      -9.909  10.266  68.980  1.00  0.00    -0.207 C  
HETATM    8  O   UNL     2     -11.244   9.814  68.796  1.00  0.00    -0.440 OA 
HETATM    9  H   UNL     2     -11.446   9.034  69.300  1.00  0.00     0.000 HD 
ENDBRANCH   6   7
ENDBRANCH   3   6
TORSDOF 2
ENDMDL
MODEL      219
REMARK 921   NORMALIZED FREE ENERGY PREDICTED BY IDOCK:    1.34 KCAL/MOL
REMARK 922        TOTAL FREE ENERGY PREDICTED BY IDOCK:    1.44 KCAL/MOL
REMARK 923 INTER-LIGAND FREE ENERGY PREDICTED BY IDOCK:    1.50 KCAL/MOL
REMARK 924 INTRA-LIGAND FREE ENERGY PREDICTED BY IDOCK:   -0.06 KCAL/MOL
REMARK 927      BINDING AFFINITY PREDICTED BY RF-SCORE:    0.00 PKD
ROOT
HETATM    1 CL   UNL     1      -8.385  15.018  71.004  1.00  0.00     2.199 Cl 
HETATM    2  C   UNL     2      -6.359  12.237  69.905  1.00  0.00    -0.060 C  
HETATM    3  N   UNL     2      -6.849  12.059  68.459  1.00  0.00    -0.072 N  
HETATM    4  C   UNL     2      -5.703  11.566  67.614  1.00  0.00    -0.054 C  
HETATM    5  C   UNL     2      -7.302  13.434  67.948  1.00  0.00    -0.140 C  
ENDROOT
BRANCH   3   6
HETATM    6  C   UNL     2      -8.035  11.079  68.506  1.00  0.00    -0.137 C  
BRANCH   6   7
HETATM    7  C   UNL     2      -7.866   9.899  69.478  1.00  0.00    -0.140 C  
HETATM    8  O   UNL     2      -7.718   8.649  68.818  1.00  0.00    -0.094 OA 
HETATM    9  H   UNL     2      -7.613   7.920  69.418  1.00  0.00     0.000 HD 
ENDBRANCH   6   7
ENDBRANCH   3   6
TORSDOF 2
ENDMDL
MODEL      220
REMARK 921   NORMALIZED FREE ENERGY PREDICTED BY IDOCK:    4.91 KCAL/MOL
REMARK 922        TOTAL FREE ENERGY PREDICTED BY IDOCK:    5.42 KCAL/MOL
REMARK 923 INTER-LIGAND FREE ENERGY PREDICTED BY IDOCK:    5.27 KCAL/MOL
REMARK 924 INTRA-LIGAND FREE ENERGY PREDICTED BY IDOCK:    0.15 KCAL/MOL
REMARK 927      BINDING AFFINITY PREDICTED BY RF-SCORE:    0.00 PKD
ROOT
HETATM    1 CL   UNL     1     -12.322  19.609  68.796  1.00  0.00     5.666 Cl 
HETATM    2  C   UNL     2     -10.068  17.008  67.703  1.00  0.00    -0.298 C  
HETATM    3  N   UNL     2      -8.863  17.835  67.224  1.00  0.00    -0.235 N  
HETATM    4  C   UNL     2      -7.603  17.046  67.472  1.00  0.00    -0.165 C  
HETATM    5  C   UNL     2      -8.825  19.126  68.053  1.00  0.00    -0.313 C  
ENDROOT
BRANCH   3   6
HETATM    6  C   UNL     2      -9.100  18.150  65.736  1.00  0.00     0.432 C  
BRANCH   6   7
HETATM    7  C   UNL     2      -9.808  19.488  65.461  1.00  0.00     0.328 C  
HETATM    8  O   UNL     2     -11.185  19.474  65.815  1.00  0.00    -0.145 OA 
HETATM    9  H   UNL     2     -11.622  20.300  65.645  1.00  0.00     0.000 HD 
ENDBRANCH   6   7
ENDBRANCH   3   6
TORSDOF 2
ENDMDL
