MODEL        1
REMARK 921   NORMALIZED FREE ENERGY PREDICTED BY IDOCK:   -7.73 KCAL/MOL
REMARK 922        TOTAL FREE ENERGY PREDICTED BY IDOCK:   -8.88 KCAL/MOL
REMARK 923 INTER-LIGAND FREE ENERGY PREDICTED BY IDOCK:   -8.63 KCAL/MOL
REMARK 924 INTRA-LIGAND FREE ENERGY PREDICTED BY IDOCK:   -0.24 KCAL/MOL
REMARK 927      BINDING AFFINITY PREDICTED BY RF-SCORE:    0.00 PKD
ROOT
HETATM    1  C   UNL     1      -9.754  14.426  67.014  1.00  0.00    -0.256 C  
HETATM    2  C   UNL     1      -9.781  16.149  67.231  1.00  0.00    -0.233 C  
HETATM    3  C   UNL     1      -9.255  13.951  68.360  1.00  0.00    -0.194 C  
HETATM    4  C   UNL     1     -10.519  17.152  66.264  1.00  0.00    -0.260 C  
HETATM    5  C   UNL     1     -10.586  13.997  69.129  1.00  0.00    -0.149 C  
HETATM    6  C   UNL     1      -9.913  16.740  68.680  1.00  0.00    -0.276 C  
HETATM    7  C   UNL     1     -11.493  13.050  68.335  1.00  0.00    -0.345 C  
HETATM    8  C   UNL     1     -11.919  13.886  65.800  1.00  0.00    -0.419 C  
HETATM    9  C   UNL     1     -10.967  13.296  66.863  1.00  0.00    -0.298 C  
HETATM   10  C   UNL     1     -11.246  11.725  69.142  1.00  0.00    -0.324 C  
HETATM   11  C   UNL     1     -10.709  11.820  66.294  1.00  0.00    -0.312 C  
HETATM   12  C   UNL     1     -12.258  11.683  70.304  1.00  0.00    -0.401 C  
HETATM   13  C   UNL     1     -10.214  10.646  67.193  1.00  0.00    -0.261 C  
HETATM   14  C   UNL     1     -11.103  10.398  68.430  1.00  0.00    -0.322 C  
HETATM   15  C   UNL     1     -12.241  10.410  71.086  1.00  0.00    -0.498 C  
HETATM   16  C   UNL     1     -11.497   9.349  70.755  1.00  0.00    -0.364 C  
HETATM   17  C   UNL     1     -11.254   8.325  71.834  1.00  0.00    -0.365 C  
HETATM   18  C   UNL     1      -9.905   8.698  72.438  1.00  0.00    -0.245 C  
HETATM   19  O   UNL     1      -9.599   7.825  73.537  1.00  0.00    -0.277 OA 
HETATM   20  C   UNL     1      -8.810   8.627  71.359  1.00  0.00    -0.276 C  
HETATM   21  C   UNL     1      -9.141   9.385  70.024  1.00  0.00    -0.244 C  
HETATM   22  H   UNL     1      -8.757   8.058  73.913  1.00  0.00     0.000 HD 
HETATM   23  C   UNL     1     -10.618   9.263  69.496  1.00  0.00    -0.236 C  
HETATM   24  C   UNL     1     -10.785   7.867  68.846  1.00  0.00    -0.098 C  
ENDROOT
BRANCH   4  25
HETATM   25  C   UNL     1     -10.403  18.685  66.681  1.00  0.00    -0.456 C  
BRANCH  25  26
HETATM   26  C   UNL     1      -9.063  19.354  66.335  1.00  0.00    -0.397 C  
HETATM   27  C   UNL     1      -8.388  20.195  67.447  1.00  0.00    -0.390 C  
HETATM   28  C   UNL     1      -7.125  20.871  66.879  1.00  0.00    -0.333 C  
HETATM   29  C   UNL     1      -7.973  19.426  68.701  1.00  0.00    -0.403 C  
ENDBRANCH  25  26
ENDBRANCH   4  25
TORSDOF 2
ENDMDL
MODEL        2
REMARK 921   NORMALIZED FREE ENERGY PREDICTED BY IDOCK:   -7.48 KCAL/MOL
REMARK 922        TOTAL FREE ENERGY PREDICTED BY IDOCK:   -8.60 KCAL/MOL
REMARK 923 INTER-LIGAND FREE ENERGY PREDICTED BY IDOCK:   -8.57 KCAL/MOL
REMARK 924 INTRA-LIGAND FREE ENERGY PREDICTED BY IDOCK:   -0.03 KCAL/MOL
REMARK 927      BINDING AFFINITY PREDICTED BY RF-SCORE:    0.00 PKD
ROOT
HETATM    1  C   UNL     1      -9.773  13.659  66.785  1.00  0.00    -0.275 C  
HETATM    2  C   UNL     1      -9.939  15.388  66.823  1.00  0.00    -0.256 C  
HETATM    3  C   UNL     1      -9.414  13.350  68.221  1.00  0.00    -0.209 C  
HETATM    4  C   UNL     1     -10.616  16.238  65.680  1.00  0.00    -0.360 C  
HETATM    5  C   UNL     1     -10.830  13.365  68.822  1.00  0.00    -0.275 C  
HETATM    6  C   UNL     1     -10.287  16.098  68.180  1.00  0.00    -0.269 C  
HETATM    7  C   UNL     1     -11.568  12.281  68.027  1.00  0.00    -0.408 C  
HETATM    8  C   UNL     1     -11.732  12.844  65.388  1.00  0.00    -0.413 C  
HETATM    9  C   UNL     1     -10.882  12.430  66.609  1.00  0.00    -0.281 C  
HETATM   10  C   UNL     1     -11.337  11.059  68.986  1.00  0.00    -0.345 C  
HETATM   11  C   UNL     1     -10.460  10.933  66.226  1.00  0.00    -0.304 C  
HETATM   12  C   UNL     1     -12.480  11.047  70.020  1.00  0.00    -0.319 C  
HETATM   13  C   UNL     1     -10.004   9.888  67.289  1.00  0.00    -0.245 C  
HETATM   14  C   UNL     1     -11.021   9.687  68.433  1.00  0.00    -0.161 C  
HETATM   15  C   UNL     1     -12.477   9.857  70.924  1.00  0.00    -0.401 C  
HETATM   16  C   UNL     1     -11.630   8.829  70.790  1.00  0.00    -0.288 C  
HETATM   17  C   UNL     1     -11.456   7.931  71.988  1.00  0.00    -0.351 C  
HETATM   18  C   UNL     1     -10.219   8.461  72.704  1.00  0.00    -0.249 C  
HETATM   19  O   UNL     1      -9.994   7.719  73.914  1.00  0.00    -0.345 OA 
HETATM   20  C   UNL     1      -8.997   8.375  71.773  1.00  0.00    -0.262 C  
HETATM   21  C   UNL     1      -9.209   8.979  70.338  1.00  0.00    -0.243 C  
HETATM   22  H   UNL     1      -9.223   8.049  74.360  1.00  0.00     0.000 HD 
HETATM   23  C   UNL     1     -10.598   8.696  69.658  1.00  0.00    -0.219 C  
HETATM   24  C   UNL     1     -10.592   7.237  69.137  1.00  0.00    -0.219 C  
ENDROOT
BRANCH   4  25
HETATM   25  C   UNL     1     -10.652  17.807  65.952  1.00  0.00    -0.205 C  
BRANCH  25  26
HETATM   26  C   UNL     1      -9.302  18.432  66.339  1.00  0.00    -0.287 C  
HETATM   27  C   UNL     1      -9.339  19.830  67.004  1.00  0.00    -0.460 C  
HETATM   28  C   UNL     1      -7.897  20.333  67.214  1.00  0.00    -0.362 C  
HETATM   29  C   UNL     1     -10.051  19.903  68.355  1.00  0.00    -0.557 C  
ENDBRANCH  25  26
ENDBRANCH   4  25
TORSDOF 2
ENDMDL
MODEL        3
REMARK 921   NORMALIZED FREE ENERGY PREDICTED BY IDOCK:   -7.14 KCAL/MOL
REMARK 922        TOTAL FREE ENERGY PREDICTED BY IDOCK:   -8.22 KCAL/MOL
REMARK 923 INTER-LIGAND FREE ENERGY PREDICTED BY IDOCK:   -7.75 KCAL/MOL
REMARK 924 INTRA-LIGAND FREE ENERGY PREDICTED BY IDOCK:   -0.47 KCAL/MOL
REMARK 927      BINDING AFFINITY PREDICTED BY RF-SCORE:    0.00 PKD
ROOT
HETATM    1  C   UNL     1     -11.845   9.971  69.500  1.00  0.00     0.017 C  
HETATM    2  C   UNL     1     -11.264  11.397  68.697  1.00  0.00    -0.303 C  
HETATM    3  C   UNL     1     -10.697   9.009  69.298  1.00  0.00    -0.189 C  
HETATM    4  C   UNL     1     -11.905  12.828  68.857  1.00  0.00    -0.351 C  
HETATM    5  C   UNL     1      -9.791   9.486  70.447  1.00  0.00    -0.329 C  
HETATM    6  C   UNL     1      -9.716  11.612  68.535  1.00  0.00    -0.187 C  
HETATM    7  C   UNL     1     -10.663   9.296  71.694  1.00  0.00    -0.393 C  
HETATM    8  C   UNL     1     -12.896  10.818  71.653  1.00  0.00    -0.562 C  
HETATM    9  C   UNL     1     -12.098   9.614  71.107  1.00  0.00    -0.448 C  
HETATM   10  C   UNL     1     -10.190   7.860  72.119  1.00  0.00    -0.286 C  
HETATM   11  C   UNL     1     -12.994   8.376  71.588  1.00  0.00    -0.355 C  
HETATM   12  C   UNL     1      -8.959   8.017  73.031  1.00  0.00    -0.313 C  
HETATM   13  C   UNL     1     -12.428   6.929  71.723  1.00  0.00    -0.397 C  
HETATM   14  C   UNL     1     -11.181   6.836  72.628  1.00  0.00    -0.291 C  
HETATM   15  C   UNL     1      -8.473   6.738  73.632  1.00  0.00    -0.138 C  
HETATM   16  C   UNL     1      -9.105   5.567  73.489  1.00  0.00    -0.128 C  
HETATM   17  C   UNL     1      -8.303   4.323  73.774  1.00  0.00    -0.093 C  
HETATM   18  C   UNL     1      -7.789   3.864  72.415  1.00  0.00    -0.080 C  
HETATM   19  O   UNL     1      -6.943   2.712  72.571  1.00  0.00    -0.028 OA 
HETATM   20  C   UNL     1      -8.973   3.551  71.483  1.00  0.00    -0.158 C  
HETATM   21  C   UNL     1     -10.071   4.672  71.403  1.00  0.00    -0.248 C  
HETATM   22  H   UNL     1      -6.623   2.426  71.724  1.00  0.00     0.000 HD 
HETATM   23  C   UNL     1     -10.443   5.387  72.754  1.00  0.00    -0.255 C  
HETATM   24  C   UNL     1     -11.354   4.434  73.568  1.00  0.00    -0.334 C  
ENDROOT
BRANCH   4  25
HETATM   25  C   UNL     1     -11.185  13.977  68.019  1.00  0.00    -0.302 C  
BRANCH  25  26
HETATM   26  C   UNL     1     -11.915  14.399  66.734  1.00  0.00    -0.423 C  
HETATM   27  C   UNL     1     -11.368  13.837  65.398  1.00  0.00    -0.314 C  
HETATM   28  C   UNL     1     -12.153  14.458  64.225  1.00  0.00    -0.461 C  
HETATM   29  C   UNL     1     -11.434  12.318  65.241  1.00  0.00    -0.399 C  
ENDBRANCH  25  26
ENDBRANCH   4  25
TORSDOF 2
ENDMDL
MODEL        4
REMARK 921   NORMALIZED FREE ENERGY PREDICTED BY IDOCK:   -7.10 KCAL/MOL
REMARK 922        TOTAL FREE ENERGY PREDICTED BY IDOCK:   -8.18 KCAL/MOL
REMARK 923 INTER-LIGAND FREE ENERGY PREDICTED BY IDOCK:   -7.85 KCAL/MOL
REMARK 924 INTRA-LIGAND FREE ENERGY PREDICTED BY IDOCK:   -0.33 KCAL/MOL
REMARK 927      BINDING AFFINITY PREDICTED BY RF-SCORE:    0.00 PKD
ROOT
HETATM    1  C   UNL     1      -9.624  14.581  66.319  1.00  0.00    -0.328 C  
HETATM    2  C   UNL     1      -9.469  16.239  66.815  1.00  0.00    -0.253 C  
HETATM    3  C   UNL     1      -8.844  13.860  67.394  1.00  0.00    -0.209 C  
HETATM    4  C   UNL     1     -10.347  17.419  66.248  1.00  0.00    -0.330 C  
HETATM    5  C   UNL     1      -9.936  13.809  68.477  1.00  0.00    -0.217 C  
HETATM    6  C   UNL     1      -9.193  16.567  68.326  1.00  0.00    -0.214 C  
HETATM    7  C   UNL     1     -11.079  13.045  67.799  1.00  0.00    -0.291 C  
HETATM    8  C   UNL     1     -12.057  14.330  65.631  1.00  0.00    -0.399 C  
HETATM    9  C   UNL     1     -10.917  13.533  66.301  1.00  0.00    -0.293 C  
HETATM   10  C   UNL     1     -10.739  11.592  68.287  1.00  0.00    -0.247 C  
HETATM   11  C   UNL     1     -10.919  12.175  65.452  1.00  0.00    -0.346 C  
HETATM   12  C   UNL     1     -11.431  11.375  69.646  1.00  0.00    -0.380 C  
HETATM   13  C   UNL     1     -10.305  10.845  65.988  1.00  0.00    -0.304 C  
HETATM   14  C   UNL     1     -10.876  10.408  67.354  1.00  0.00    -0.344 C  
HETATM   15  C   UNL     1     -11.316   9.983  70.178  1.00  0.00    -0.357 C  
HETATM   16  C   UNL     1     -10.758   8.976  69.497  1.00  0.00    -0.215 C  
HETATM   17  C   UNL     1     -10.332   7.770  70.295  1.00  0.00    -0.215 C  
HETATM   18  C   UNL     1      -8.851   7.989  70.585  1.00  0.00    -0.143 C  
HETATM   19  O   UNL     1      -8.348   6.926  71.409  1.00  0.00    -0.114 OA 
HETATM   20  C   UNL     1      -8.066   8.077  69.264  1.00  0.00    -0.118 C  
HETATM   21  C   UNL     1      -8.661   9.070  68.201  1.00  0.00    -0.130 C  
HETATM   22  H   UNL     1      -7.425   7.063  71.590  1.00  0.00     0.000 HD 
HETATM   23  C   UNL     1     -10.227   9.088  68.059  1.00  0.00    -0.260 C  
HETATM   24  C   UNL     1     -10.653   7.835  67.254  1.00  0.00    -0.376 C  
ENDROOT
BRANCH   4  25
HETATM   25  C   UNL     1     -10.017  18.850  66.867  1.00  0.00    -0.391 C  
BRANCH  25  26
HETATM   26  C   UNL     1      -8.755  19.525  66.308  1.00  0.00    -0.383 C  
HETATM   27  C   UNL     1      -7.854  20.279  67.317  1.00  0.00    -0.362 C  
HETATM   28  C   UNL     1      -6.710  20.978  66.557  1.00  0.00    -0.281 C  
HETATM   29  C   UNL     1      -7.220  19.419  68.411  1.00  0.00    -0.345 C  
ENDBRANCH  25  26
ENDBRANCH   4  25
TORSDOF 2
ENDMDL
MODEL        5
REMARK 921   NORMALIZED FREE ENERGY PREDICTED BY IDOCK:   -7.07 KCAL/MOL
REMARK 922        TOTAL FREE ENERGY PREDICTED BY IDOCK:   -8.15 KCAL/MOL
REMARK 923 INTER-LIGAND FREE ENERGY PREDICTED BY IDOCK:   -7.78 KCAL/MOL
REMARK 924 INTRA-LIGAND FREE ENERGY PREDICTED BY IDOCK:   -0.36 KCAL/MOL
REMARK 927      BINDING AFFINITY PREDICTED BY RF-SCORE:    0.00 PKD
ROOT
HETATM    1  C   UNL     1     -11.892  11.867  67.759  1.00  0.00    -0.289 C  
HETATM    2  C   UNL     1     -11.386  12.825  66.402  1.00  0.00    -0.369 C  
HETATM    3  C   UNL     1     -11.262  10.529  67.448  1.00  0.00    -0.249 C  
HETATM    4  C   UNL     1     -11.481  14.398  66.342  1.00  0.00    -0.365 C  
HETATM    5  C   UNL     1      -9.843  10.815  67.969  1.00  0.00    -0.180 C  
HETATM    6  C   UNL     1     -10.087  12.421  65.616  1.00  0.00    -0.277 C  
HETATM    7  C   UNL     1     -10.067  11.166  69.445  1.00  0.00     0.009 C  
HETATM    8  C   UNL     1     -11.582  13.379  69.777  1.00  0.00    -0.305 C  
HETATM    9  C   UNL     1     -11.470  11.894  69.369  1.00  0.00    -0.366 C  
HETATM   10  C   UNL     1      -9.851   9.746  70.080  1.00  0.00    -0.306 C  
HETATM   11  C   UNL     1     -12.340  11.172  70.504  1.00  0.00    -0.454 C  
HETATM   12  C   UNL     1      -8.347   9.581  70.371  1.00  0.00    -0.226 C  
HETATM   13  C   UNL     1     -12.180   9.661  70.855  1.00  0.00    -0.368 C  
HETATM   14  C   UNL     1     -10.733   9.259  71.210  1.00  0.00    -0.422 C  
HETATM   15  C   UNL     1      -7.998   8.328  71.108  1.00  0.00    -0.112 C  
HETATM   16  C   UNL     1      -8.910   7.469  71.578  1.00  0.00    -0.133 C  
HETATM   17  C   UNL     1      -8.428   6.080  71.909  1.00  0.00    -0.133 C  
HETATM   18  C   UNL     1      -8.730   5.249  70.667  1.00  0.00    -0.126 C  
HETATM   19  O   UNL     1      -8.244   3.908  70.841  1.00  0.00    -0.065 OA 
HETATM   20  C   UNL     1     -10.244   5.252  70.390  1.00  0.00    -0.338 C  
HETATM   21  C   UNL     1     -10.917   6.671  70.385  1.00  0.00    -0.341 C  
HETATM   22  H   UNL     1      -8.433   3.390  70.067  1.00  0.00     0.000 HD 
HETATM   23  C   UNL     1     -10.431   7.681  71.488  1.00  0.00    -0.231 C  
HETATM   24  C   UNL     1     -11.086   7.280  72.833  1.00  0.00    -0.369 C  
ENDROOT
BRANCH   4  25
HETATM   25  C   UNL     1     -10.946  15.046  64.988  1.00  0.00    -0.436 C  
BRANCH  25  26
HETATM   26  C   UNL     1     -10.798  16.575  65.014  1.00  0.00    -0.245 C  
HETATM   27  C   UNL     1     -10.050  17.190  66.223  1.00  0.00    -0.329 C  
HETATM   28  C   UNL     1     -10.102  18.727  66.127  1.00  0.00    -0.421 C  
HETATM   29  C   UNL     1      -8.582  16.789  66.368  1.00  0.00    -0.338 C  
ENDBRANCH  25  26
ENDBRANCH   4  25
TORSDOF 2
ENDMDL
MODEL        6
REMARK 921   NORMALIZED FREE ENERGY PREDICTED BY IDOCK:   -7.05 KCAL/MOL
REMARK 922        TOTAL FREE ENERGY PREDICTED BY IDOCK:   -8.12 KCAL/MOL
REMARK 923 INTER-LIGAND FREE ENERGY PREDICTED BY IDOCK:   -7.75 KCAL/MOL
REMARK 924 INTRA-LIGAND FREE ENERGY PREDICTED BY IDOCK:   -0.36 KCAL/MOL
REMARK 927      BINDING AFFINITY PREDICTED BY RF-SCORE:    0.00 PKD
ROOT
HETATM    1  C   UNL     1      -9.678  12.588  68.380  1.00  0.00    -0.189 C  
HETATM    2  C   UNL     1      -9.588  11.092  67.502  1.00  0.00    -0.181 C  
HETATM    3  C   UNL     1      -8.696  13.453  67.623  1.00  0.00    -0.198 C  
HETATM    4  C   UNL     1     -10.630   9.918  67.643  1.00  0.00    -0.325 C  
HETATM    5  C   UNL     1      -9.613  13.887  66.467  1.00  0.00    -0.299 C  
HETATM    6  C   UNL     1      -9.125  11.108  66.001  1.00  0.00    -0.217 C  
HETATM    7  C   UNL     1     -10.776  14.591  67.176  1.00  0.00    -0.286 C  
HETATM    8  C   UNL     1     -12.156  12.942  68.815  1.00  0.00    -0.175 C  
HETATM    9  C   UNL     1     -10.871  13.742  68.509  1.00  0.00    -0.280 C  
HETATM   10  C   UNL     1     -10.253  16.070  67.117  1.00  0.00    -0.278 C  
HETATM   11  C   UNL     1     -10.884  14.847  69.669  1.00  0.00    -0.269 C  
HETATM   12  C   UNL     1     -10.724  16.685  65.784  1.00  0.00    -0.210 C  
HETATM   13  C   UNL     1     -10.095  16.188  69.564  1.00  0.00    -0.241 C  
HETATM   14  C   UNL     1     -10.426  17.003  68.296  1.00  0.00    -0.363 C  
HETATM   15  C   UNL     1     -10.421  18.141  65.640  1.00  0.00    -0.103 C  
HETATM   16  C   UNL     1      -9.887  18.885  66.615  1.00  0.00    -0.396 C  
HETATM   17  C   UNL     1      -9.255  20.191  66.206  1.00  0.00    -0.383 C  
HETATM   18  C   UNL     1      -7.771  19.880  66.048  1.00  0.00    -0.325 C  
HETATM   19  O   UNL     1      -7.070  21.047  65.586  1.00  0.00    -0.496 OA 
HETATM   20  C   UNL     1      -7.193  19.388  67.387  1.00  0.00    -0.239 C  
HETATM   21  C   UNL     1      -8.012  18.244  68.085  1.00  0.00    -0.295 C  
HETATM   22  H   UNL     1      -6.144  20.853  65.488  1.00  0.00     0.000 HD 
HETATM   23  C   UNL     1      -9.579  18.371  68.031  1.00  0.00    -0.316 C  
HETATM   24  C   UNL     1     -10.013  19.433  69.071  1.00  0.00    -0.477 C  
ENDROOT
BRANCH   4  25
HETATM   25  C   UNL     1     -10.332   8.650  66.725  1.00  0.00    -0.336 C  
BRANCH  25  26
HETATM   26  C   UNL     1      -9.405   7.597  67.352  1.00  0.00    -0.166 C  
HETATM   27  C   UNL     1      -9.791   7.066  68.755  1.00  0.00    -0.152 C  
HETATM   28  C   UNL     1      -8.691   6.111  69.259  1.00  0.00    -0.122 C  
HETATM   29  C   UNL     1     -11.121   6.316  68.836  1.00  0.00    -0.434 C  
ENDBRANCH  25  26
ENDBRANCH   4  25
TORSDOF 2
ENDMDL
MODEL        7
REMARK 921   NORMALIZED FREE ENERGY PREDICTED BY IDOCK:   -6.91 KCAL/MOL
REMARK 922        TOTAL FREE ENERGY PREDICTED BY IDOCK:   -7.97 KCAL/MOL
REMARK 923 INTER-LIGAND FREE ENERGY PREDICTED BY IDOCK:   -7.63 KCAL/MOL
REMARK 924 INTRA-LIGAND FREE ENERGY PREDICTED BY IDOCK:   -0.33 KCAL/MOL
REMARK 927      BINDING AFFINITY PREDICTED BY RF-SCORE:    0.00 PKD
ROOT
HETATM    1  C   UNL     1     -10.836   9.584  70.820  1.00  0.00    -0.386 C  
HETATM    2  C   UNL     1     -10.442   7.917  70.531  1.00  0.00    -0.214 C  
HETATM    3  C   UNL     1      -9.802  10.299  69.980  1.00  0.00    -0.082 C  
HETATM    4  C   UNL     1     -11.384   6.708  70.895  1.00  0.00    -0.377 C  
HETATM    5  C   UNL     1     -10.504  10.200  68.615  1.00  0.00    -0.225 C  
HETATM    6  C   UNL     1      -9.691   7.522  69.209  1.00  0.00    -0.163 C  
HETATM    7  C   UNL     1     -11.842  10.911  68.847  1.00  0.00    -0.340 C  
HETATM    8  C   UNL     1     -13.372   9.684  70.708  1.00  0.00    -0.083 C  
HETATM    9  C   UNL     1     -12.127  10.527  70.356  1.00  0.00    -0.418 C  
HETATM   10  C   UNL     1     -11.449  12.355  68.371  1.00  0.00    -0.356 C  
HETATM   11  C   UNL     1     -12.469  11.929  71.052  1.00  0.00    -0.390 C  
HETATM   12  C   UNL     1     -11.696  12.436  66.852  1.00  0.00    -0.432 C  
HETATM   13  C   UNL     1     -11.795  13.268  70.624  1.00  0.00    -0.128 C  
HETATM   14  C   UNL     1     -11.935  13.578  69.119  1.00  0.00    -0.378 C  
HETATM   15  C   UNL     1     -11.498  13.798  66.270  1.00  0.00    -0.349 C  
HETATM   16  C   UNL     1     -11.238  14.885  67.006  1.00  0.00    -0.344 C  
HETATM   17  C   UNL     1     -10.653  16.071  66.282  1.00  0.00    -0.288 C  
HETATM   18  C   UNL     1      -9.146  15.951  66.478  1.00  0.00    -0.286 C  
HETATM   19  O   UNL     1      -8.471  17.000  65.764  1.00  0.00    -0.508 OA 
HETATM   20  C   UNL     1      -8.807  16.003  67.978  1.00  0.00    -0.175 C  
HETATM   21  C   UNL     1      -9.646  15.032  68.884  1.00  0.00    -0.221 C  
HETATM   22  H   UNL     1      -7.532  16.925  65.887  1.00  0.00     0.000 HD 
HETATM   23  C   UNL     1     -11.175  14.900  68.542  1.00  0.00    -0.292 C  
HETATM   24  C   UNL     1     -11.900  16.162  69.074  1.00  0.00    -0.181 C  
ENDROOT
BRANCH   4  25
HETATM   25  C   UNL     1     -10.799   5.273  70.525  1.00  0.00    -0.119 C  
BRANCH  25  26
HETATM   26  C   UNL     1      -9.741   4.731  71.499  1.00  0.00    -0.235 C  
HETATM   27  C   UNL     1      -9.883   5.133  72.988  1.00  0.00    -0.177 C  
HETATM   28  C   UNL     1      -8.678   4.591  73.780  1.00  0.00    -0.105 C  
HETATM   29  C   UNL     1     -11.151   4.644  73.688  1.00  0.00    -0.379 C  
ENDBRANCH  25  26
ENDBRANCH   4  25
TORSDOF 2
ENDMDL
MODEL        8
REMARK 921   NORMALIZED FREE ENERGY PREDICTED BY IDOCK:   -6.88 KCAL/MOL
REMARK 922        TOTAL FREE ENERGY PREDICTED BY IDOCK:   -7.92 KCAL/MOL
REMARK 923 INTER-LIGAND FREE ENERGY PREDICTED BY IDOCK:   -7.48 KCAL/MOL
REMARK 924 INTRA-LIGAND FREE ENERGY PREDICTED BY IDOCK:   -0.45 KCAL/MOL
REMARK 927      BINDING AFFINITY PREDICTED BY RF-SCORE:    0.00 PKD
ROOT
HETATM    1  C   UNL     1     -11.018  10.360  68.324  1.00  0.00    -0.321 C  
HETATM    2  C   UNL     1     -10.462   9.104  69.388  1.00  0.00    -0.226 C  
HETATM    3  C   UNL     1     -10.744  11.603  69.140  1.00  0.00    -0.188 C  
HETATM    4  C   UNL     1     -10.205   7.614  68.942  1.00  0.00    -0.217 C  
HETATM    5  C   UNL     1      -9.249  11.766  68.818  1.00  0.00    -0.009 C  
HETATM    6  C   UNL     1      -9.383   9.442  70.479  1.00  0.00    -0.319 C  
HETATM    7  C   UNL     1      -9.223  11.901  67.291  1.00  0.00    -0.179 C  
HETATM    8  C   UNL     1     -10.153   9.700  66.028  1.00  0.00    -0.318 C  
HETATM    9  C   UNL     1     -10.425  10.954  66.886  1.00  0.00    -0.299 C  
HETATM   10  C   UNL     1      -9.265  13.467  67.172  1.00  0.00    -0.240 C  
HETATM   11  C   UNL     1     -11.305  11.851  65.893  1.00  0.00    -0.365 C  
HETATM   12  C   UNL     1      -7.815  13.984  67.220  1.00  0.00    -0.143 C  
HETATM   13  C   UNL     1     -11.452  13.395  66.059  1.00  0.00    -0.351 C  
HETATM   14  C   UNL     1     -10.104  14.143  66.109  1.00  0.00    -0.324 C  
HETATM   15  C   UNL     1      -7.679  15.453  66.979  1.00  0.00    -0.220 C  
HETATM   16  C   UNL     1      -8.704  16.244  66.642  1.00  0.00    -0.294 C  
HETATM   17  C   UNL     1      -8.514  17.726  66.847  1.00  0.00    -0.260 C  
HETATM   18  C   UNL     1      -9.132  18.020  68.209  1.00  0.00    -0.278 C  
HETATM   19  O   UNL     1      -8.945  19.404  68.546  1.00  0.00    -0.353 OA 
HETATM   20  C   UNL     1     -10.627  17.656  68.197  1.00  0.00    -0.359 C  
HETATM   21  C   UNL     1     -10.958  16.223  67.644  1.00  0.00    -0.245 C  
HETATM   22  H   UNL     1      -9.330  19.587  69.395  1.00  0.00     0.000 HD 
HETATM   23  C   UNL     1     -10.137  15.749  66.389  1.00  0.00    -0.305 C  
HETATM   24  C   UNL     1     -10.713  16.459  65.139  1.00  0.00    -0.309 C  
ENDROOT
BRANCH   4  25
HETATM   25  C   UNL     1      -9.691   6.652  70.104  1.00  0.00    -0.174 C  
BRANCH  25  26
HETATM   26  C   UNL     1     -10.797   5.922  70.881  1.00  0.00    -0.347 C  
HETATM   27  C   UNL     1     -10.715   5.964  72.428  1.00  0.00    -0.274 C  
HETATM   28  C   UNL     1     -11.838   5.090  73.021  1.00  0.00    -0.141 C  
HETATM   29  C   UNL     1     -10.830   7.351  73.060  1.00  0.00    -0.423 C  
ENDBRANCH  25  26
ENDBRANCH   4  25
TORSDOF 2
ENDMDL
MODEL        9
REMARK 921   NORMALIZED FREE ENERGY PREDICTED BY IDOCK:   -6.85 KCAL/MOL
REMARK 922        TOTAL FREE ENERGY PREDICTED BY IDOCK:   -7.89 KCAL/MOL
REMARK 923 INTER-LIGAND FREE ENERGY PREDICTED BY IDOCK:   -7.69 KCAL/MOL
REMARK 924 INTRA-LIGAND FREE ENERGY PREDICTED BY IDOCK:   -0.21 KCAL/MOL
REMARK 927      BINDING AFFINITY PREDICTED BY RF-SCORE:    0.00 PKD
ROOT
HETATM    1  C   UNL     1     -12.116  10.786  69.215  1.00  0.00    -0.278 C  
HETATM    2  C   UNL     1     -11.550  12.204  68.387  1.00  0.00    -0.381 C  
HETATM    3  C   UNL     1     -11.082   9.758  68.815  1.00  0.00    -0.140 C  
HETATM    4  C   UNL     1     -12.054  13.667  68.688  1.00  0.00    -0.325 C  
HETATM    5  C   UNL     1      -9.990  10.119  69.837  1.00  0.00    -0.250 C  
HETATM    6  C   UNL     1     -10.029  12.320  68.011  1.00  0.00    -0.202 C  
HETATM    7  C   UNL     1     -10.689   9.932  71.189  1.00  0.00    -0.150 C  
HETATM    8  C   UNL     1     -12.787  11.603  71.525  1.00  0.00    -0.469 C  
HETATM    9  C   UNL     1     -12.165  10.374  70.827  1.00  0.00    -0.457 C  
HETATM   10  C   UNL     1     -10.269   8.449  71.490  1.00  0.00    -0.294 C  
HETATM   11  C   UNL     1     -13.073   9.180  71.387  1.00  0.00    -0.363 C  
HETATM   12  C   UNL     1      -8.913   8.480  72.221  1.00  0.00    -0.299 C  
HETATM   13  C   UNL     1     -12.603   7.693  71.389  1.00  0.00    -0.359 C  
HETATM   14  C   UNL     1     -11.251   7.473  72.100  1.00  0.00    -0.313 C  
HETATM   15  C   UNL     1      -8.443   7.145  72.700  1.00  0.00    -0.124 C  
HETATM   16  C   UNL     1      -9.174   6.028  72.608  1.00  0.00    -0.143 C  
HETATM   17  C   UNL     1      -8.435   4.720  72.730  1.00  0.00    -0.112 C  
HETATM   18  C   UNL     1      -8.152   4.289  71.295  1.00  0.00    -0.081 C  
HETATM   19  O   UNL     1      -7.381   3.077  71.288  1.00  0.00    -0.032 OA 
HETATM   20  C   UNL     1      -9.476   4.101  70.534  1.00  0.00    -0.243 C  
HETATM   21  C   UNL     1     -10.488   5.297  70.652  1.00  0.00    -0.306 C  
HETATM   22  H   UNL     1      -7.205   2.809  70.393  1.00  0.00     0.000 HD 
HETATM   23  C   UNL     1     -10.612   5.973  72.067  1.00  0.00    -0.267 C  
HETATM   24  C   UNL     1     -11.467   5.049  72.970  1.00  0.00    -0.344 C  
ENDROOT
BRANCH   4  25
HETATM   25  C   UNL     1     -11.377  14.801  67.797  1.00  0.00    -0.344 C  
BRANCH  25  26
HETATM   26  C   UNL     1     -11.268  16.179  68.469  1.00  0.00    -0.365 C  
HETATM   27  C   UNL     1     -10.148  17.122  67.964  1.00  0.00    -0.311 C  
HETATM   28  C   UNL     1     -10.128  18.398  68.829  1.00  0.00    -0.393 C  
HETATM   29  C   UNL     1     -10.258  17.559  66.504  1.00  0.00    -0.342 C  
ENDBRANCH  25  26
ENDBRANCH   4  25
TORSDOF 2
ENDMDL
MODEL       10
REMARK 921   NORMALIZED FREE ENERGY PREDICTED BY IDOCK:   -6.77 KCAL/MOL
REMARK 922        TOTAL FREE ENERGY PREDICTED BY IDOCK:   -7.80 KCAL/MOL
REMARK 923 INTER-LIGAND FREE ENERGY PREDICTED BY IDOCK:   -7.41 KCAL/MOL
REMARK 924 INTRA-LIGAND FREE ENERGY PREDICTED BY IDOCK:   -0.40 KCAL/MOL
REMARK 927      BINDING AFFINITY PREDICTED BY RF-SCORE:    0.00 PKD
ROOT
HETATM    1  C   UNL     1      -8.518   7.926  68.626  1.00  0.00    -0.128 C  
HETATM    2  C   UNL     1      -9.177   6.377  69.052  1.00  0.00    -0.129 C  
HETATM    3  C   UNL     1      -9.419   8.346  67.487  1.00  0.00    -0.182 C  
HETATM    4  C   UNL     1      -8.840   5.607  70.386  1.00  0.00    -0.143 C  
HETATM    5  C   UNL     1     -10.597   8.891  68.312  1.00  0.00    -0.203 C  
HETATM    6  C   UNL     1     -10.678   6.060  68.715  1.00  0.00    -0.375 C  
HETATM    7  C   UNL     1      -9.960  10.001  69.157  1.00  0.00    -0.213 C  
HETATM    8  C   UNL     1      -8.064   9.075  70.846  1.00  0.00    -0.203 C  
HETATM    9  C   UNL     1      -8.518   9.397  69.406  1.00  0.00    -0.142 C  
HETATM   10  C   UNL     1     -10.245  11.229  68.220  1.00  0.00    -0.198 C  
HETATM   11  C   UNL     1      -7.527  10.590  69.004  1.00  0.00    -0.112 C  
HETATM   12  C   UNL     1     -11.636  11.785  68.579  1.00  0.00    -0.380 C  
HETATM   13  C   UNL     1      -7.845  11.599  67.859  1.00  0.00    -0.129 C  
HETATM   14  C   UNL     1      -9.205  12.310  68.020  1.00  0.00    -0.195 C  
HETATM   15  C   UNL     1     -11.995  13.047  67.864  1.00  0.00    -0.338 C  
HETATM   16  C   UNL     1     -11.151  13.709  67.064  1.00  0.00    -0.313 C  
HETATM   17  C   UNL     1     -11.760  14.695  66.100  1.00  0.00    -0.316 C  
HETATM   18  C   UNL     1     -11.917  13.926  64.793  1.00  0.00    -0.406 C  
HETATM   19  O   UNL     1     -12.560  14.753  63.809  1.00  0.00    -0.998 OA 
HETATM   20  C   UNL     1     -10.540  13.453  64.294  1.00  0.00    -0.358 C  
HETATM   21  C   UNL     1      -9.662  12.713  65.367  1.00  0.00    -0.076 C  
HETATM   22  H   UNL     1     -12.657  14.274  62.994  1.00  0.00     0.000 HD 
HETATM   23  C   UNL     1      -9.686  13.307  66.823  1.00  0.00    -0.258 C  
HETATM   24  C   UNL     1      -8.795  14.574  66.843  1.00  0.00    -0.257 C  
ENDROOT
BRANCH   4  25
HETATM   25  C   UNL     1      -9.578   4.204  70.548  1.00  0.00    -0.261 C  
BRANCH  25  26
HETATM   26  C   UNL     1     -10.087   3.896  71.965  1.00  0.00    -0.220 C  
HETATM   27  C   UNL     1     -10.357   5.107  72.894  1.00  0.00    -0.238 C  
HETATM   28  C   UNL     1     -10.748   4.597  74.295  1.00  0.00    -0.277 C  
HETATM   29  C   UNL     1     -11.453   6.065  72.431  1.00  0.00    -0.357 C  
ENDBRANCH  25  26
ENDBRANCH   4  25
TORSDOF 2
ENDMDL
MODEL       11
REMARK 921   NORMALIZED FREE ENERGY PREDICTED BY IDOCK:   -6.70 KCAL/MOL
REMARK 922        TOTAL FREE ENERGY PREDICTED BY IDOCK:   -7.72 KCAL/MOL
REMARK 923 INTER-LIGAND FREE ENERGY PREDICTED BY IDOCK:   -7.27 KCAL/MOL
REMARK 924 INTRA-LIGAND FREE ENERGY PREDICTED BY IDOCK:   -0.45 KCAL/MOL
REMARK 927      BINDING AFFINITY PREDICTED BY RF-SCORE:    0.00 PKD
ROOT
HETATM    1  C   UNL     1      -9.856  14.130  67.029  1.00  0.00    -0.258 C  
HETATM    2  C   UNL     1      -9.736  15.745  67.658  1.00  0.00    -0.222 C  
HETATM    3  C   UNL     1      -9.061  13.340  68.045  1.00  0.00    -0.202 C  
HETATM    4  C   UNL     1     -10.638  16.948  67.187  1.00  0.00    -0.249 C  
HETATM    5  C   UNL     1     -10.152  13.179  69.118  1.00  0.00     0.276 C  
HETATM    6  C   UNL     1      -9.467  15.955  69.191  1.00  0.00    -0.260 C  
HETATM    7  C   UNL     1     -11.278  12.449  68.377  1.00  0.00    -0.316 C  
HETATM    8  C   UNL     1     -12.283  13.885  66.319  1.00  0.00    -0.498 C  
HETATM    9  C   UNL     1     -11.127  13.059  66.925  1.00  0.00    -0.306 C  
HETATM   10  C   UNL     1     -10.909  10.968  68.747  1.00  0.00    -0.253 C  
HETATM   11  C   UNL     1     -11.099  11.775  65.968  1.00  0.00    -0.363 C  
HETATM   12  C   UNL     1     -11.597  10.628  70.083  1.00  0.00    -0.414 C  
HETATM   13  C   UNL     1     -10.459  10.419  66.396  1.00  0.00    -0.246 C  
HETATM   14  C   UNL     1     -11.020   9.861  67.721  1.00  0.00    -0.278 C  
HETATM   15  C   UNL     1     -11.452   9.201  70.501  1.00  0.00    -0.271 C  
HETATM   16  C   UNL     1     -10.873   8.263  69.742  1.00  0.00    -0.186 C  
HETATM   17  C   UNL     1     -10.422   7.006  70.441  1.00  0.00    -0.225 C  
HETATM   18  C   UNL     1      -8.947   7.232  70.750  1.00  0.00    -0.152 C  
HETATM   19  O   UNL     1      -8.421   6.116  71.487  1.00  0.00    -0.126 OA 
HETATM   20  C   UNL     1      -8.163   7.443  69.442  1.00  0.00    -0.131 C  
HETATM   21  C   UNL     1      -8.778   8.506  68.462  1.00  0.00    -0.139 C  
HETATM   22  H   UNL     1      -7.501   6.257  71.679  1.00  0.00     0.000 HD 
HETATM   23  C   UNL     1     -10.344   8.502  68.318  1.00  0.00    -0.246 C  
HETATM   24  C   UNL     1     -10.744   7.310  67.414  1.00  0.00    -0.358 C  
ENDROOT
BRANCH   4  25
HETATM   25  C   UNL     1     -10.338  18.331  67.920  1.00  0.00    -0.417 C  
BRANCH  25  26
HETATM   26  C   UNL     1      -9.314  19.233  67.214  1.00  0.00    -0.366 C  
HETATM   27  C   UNL     1      -8.126  19.749  68.064  1.00  0.00    -0.338 C  
HETATM   28  C   UNL     1      -7.278  20.719  67.219  1.00  0.00    -0.415 C  
HETATM   29  C   UNL     1      -7.186  18.674  68.610  1.00  0.00    -0.315 C  
ENDBRANCH  25  26
ENDBRANCH   4  25
TORSDOF 2
ENDMDL
MODEL       12
REMARK 921   NORMALIZED FREE ENERGY PREDICTED BY IDOCK:   -6.61 KCAL/MOL
REMARK 922        TOTAL FREE ENERGY PREDICTED BY IDOCK:   -7.62 KCAL/MOL
REMARK 923 INTER-LIGAND FREE ENERGY PREDICTED BY IDOCK:   -7.23 KCAL/MOL
REMARK 924 INTRA-LIGAND FREE ENERGY PREDICTED BY IDOCK:   -0.39 KCAL/MOL
REMARK 927      BINDING AFFINITY PREDICTED BY RF-SCORE:    0.00 PKD
ROOT
HETATM    1  C   UNL     1      -9.773  17.291  66.706  1.00  0.00    -0.285 C  
HETATM    2  C   UNL     1      -8.605  18.533  66.372  1.00  0.00    -0.272 C  
HETATM    3  C   UNL     1      -9.280  16.157  65.837  1.00  0.00    -0.296 C  
HETATM    4  C   UNL     1      -8.428  19.839  67.236  1.00  0.00    -0.363 C  
HETATM    5  C   UNL     1      -8.186  15.609  66.770  1.00  0.00    -0.300 C  
HETATM    6  C   UNL     1      -7.174  18.127  65.868  1.00  0.00    -0.275 C  
HETATM    7  C   UNL     1      -8.954  15.241  68.045  1.00  0.00    -0.171 C  
HETATM    8  C   UNL     1     -10.117  17.379  69.222  1.00  0.00    -0.162 C  
HETATM    9  C   UNL     1     -10.069  16.365  68.058  1.00  0.00    -0.248 C  
HETATM   10  C   UNL     1      -9.243  13.727  67.741  1.00  0.00    -0.206 C  
HETATM   11  C   UNL     1     -11.433  15.553  68.269  1.00  0.00    -0.359 C  
HETATM   12  C   UNL     1      -8.045  12.905  68.253  1.00  0.00    -0.151 C  
HETATM   13  C   UNL     1     -11.665  14.128  67.680  1.00  0.00    -0.421 C  
HETATM   14  C   UNL     1     -10.580  13.108  68.085  1.00  0.00    -0.257 C  
HETATM   15  C   UNL     1      -8.231  11.425  68.160  1.00  0.00    -0.143 C  
HETATM   16  C   UNL     1      -9.374  10.848  67.772  1.00  0.00    -0.162 C  
HETATM   17  C   UNL     1      -9.291   9.411  67.324  1.00  0.00    -0.159 C  
HETATM   18  C   UNL     1      -9.164   9.476  65.806  1.00  0.00    -0.211 C  
HETATM   19  O   UNL     1      -9.005   8.154  65.267  1.00  0.00    -0.381 OA 
HETATM   20  C   UNL     1     -10.401  10.167  65.205  1.00  0.00    -0.154 C  
HETATM   21  C   UNL     1     -10.788  11.536  65.872  1.00  0.00    -0.316 C  
HETATM   22  H   UNL     1      -8.926   8.195  64.321  1.00  0.00     0.000 HD 
HETATM   23  C   UNL     1     -10.665  11.613  67.438  1.00  0.00    -0.277 C  
HETATM   24  C   UNL     1     -11.877  10.872  68.055  1.00  0.00    -0.070 C  
ENDROOT
BRANCH   4  25
HETATM   25  C   UNL     1      -7.283  20.823  66.728  1.00  0.00    -0.290 C  
BRANCH  25  26
HETATM   26  C   UNL     1      -6.321  21.320  67.818  1.00  0.00    -0.341 C  
HETATM   27  C   UNL     1      -6.010  20.344  68.981  1.00  0.00    -0.377 C  
HETATM   28  C   UNL     1      -5.125  21.057  70.022  1.00  0.00    -0.383 C  
HETATM   29  C   UNL     1      -5.301  19.048  68.586  1.00  0.00    -0.199 C  
ENDBRANCH  25  26
ENDBRANCH   4  25
TORSDOF 2
ENDMDL
MODEL       13
REMARK 921   NORMALIZED FREE ENERGY PREDICTED BY IDOCK:   -6.57 KCAL/MOL
REMARK 922        TOTAL FREE ENERGY PREDICTED BY IDOCK:   -7.58 KCAL/MOL
REMARK 923 INTER-LIGAND FREE ENERGY PREDICTED BY IDOCK:   -7.17 KCAL/MOL
REMARK 924 INTRA-LIGAND FREE ENERGY PREDICTED BY IDOCK:   -0.41 KCAL/MOL
REMARK 927      BINDING AFFINITY PREDICTED BY RF-SCORE:    0.00 PKD
ROOT
HETATM    1  C   UNL     1      -7.393   8.823  66.222  1.00  0.00    -0.087 C  
HETATM    2  C   UNL     1      -6.302   7.879  65.256  1.00  0.00    -0.041 C  
HETATM    3  C   UNL     1      -7.283  10.185  65.576  1.00  0.00    -0.142 C  
HETATM    4  C   UNL     1      -6.247   6.304  65.265  1.00  0.00    -0.034 C  
HETATM    5  C   UNL     1      -8.254   9.964  64.402  1.00  0.00    -0.164 C  
HETATM    6  C   UNL     1      -5.986   8.333  63.785  1.00  0.00    -0.067 C  
HETATM    7  C   UNL     1      -9.577   9.613  65.093  1.00  0.00    -0.324 C  
HETATM    8  C   UNL     1      -9.430   7.339  66.547  1.00  0.00    -0.218 C  
HETATM    9  C   UNL     1      -9.053   8.825  66.361  1.00  0.00    -0.221 C  
HETATM   10  C   UNL     1     -10.219  11.044  65.156  1.00  0.00    -0.352 C  
HETATM   11  C   UNL     1      -9.817   9.516  67.588  1.00  0.00    -0.206 C  
HETATM   12  C   UNL     1     -10.991  11.276  63.844  1.00  0.00    -0.382 C  
HETATM   13  C   UNL     1     -10.171  11.035  67.611  1.00  0.00    -0.211 C  
HETATM   14  C   UNL     1     -10.980  11.500  66.383  1.00  0.00    -0.336 C  
HETATM   15  C   UNL     1     -11.777  12.546  63.809  1.00  0.00    -0.564 C  
HETATM   16  C   UNL     1     -11.898  13.369  64.858  1.00  0.00    -0.403 C  
HETATM   17  C   UNL     1     -12.342  14.780  64.567  1.00  0.00    -0.384 C  
HETATM   18  C   UNL     1     -11.054  15.589  64.469  1.00  0.00    -0.274 C  
HETATM   19  O   UNL     1     -11.353  16.951  64.120  1.00  0.00    -1.389 OA 
HETATM   20  C   UNL     1     -10.288  15.520  65.802  1.00  0.00    -0.384 C  
HETATM   21  C   UNL     1     -10.088  14.073  66.380  1.00  0.00    -0.299 C  
HETATM   22  H   UNL     1     -10.550  17.455  64.059  1.00  0.00     0.000 HD 
HETATM   23  C   UNL     1     -11.311  13.092  66.252  1.00  0.00    -0.354 C  
HETATM   24  C   UNL     1     -12.352  13.473  67.333  1.00  0.00    -0.131 C  
ENDROOT
BRANCH   4  25
HETATM   25  C   UNL     1      -5.162   5.671  64.285  1.00  0.00    -0.010 C  
BRANCH  25  26
HETATM   26  C   UNL     1      -5.640   4.444  63.491  1.00  0.00    -0.013 C  
HETATM   27  C   UNL     1      -7.166   4.300  63.270  1.00  0.00    -0.049 C  
HETATM   28  C   UNL     1      -7.454   2.963  62.559  1.00  0.00    -0.052 C  
HETATM   29  C   UNL     1      -7.825   5.408  62.449  1.00  0.00    -0.077 C  
ENDBRANCH  25  26
ENDBRANCH   4  25
TORSDOF 2
ENDMDL
MODEL       14
REMARK 921   NORMALIZED FREE ENERGY PREDICTED BY IDOCK:   -6.51 KCAL/MOL
REMARK 922        TOTAL FREE ENERGY PREDICTED BY IDOCK:   -7.51 KCAL/MOL
REMARK 923 INTER-LIGAND FREE ENERGY PREDICTED BY IDOCK:   -7.18 KCAL/MOL
REMARK 924 INTRA-LIGAND FREE ENERGY PREDICTED BY IDOCK:   -0.33 KCAL/MOL
REMARK 927      BINDING AFFINITY PREDICTED BY RF-SCORE:    0.00 PKD
ROOT
HETATM    1  C   UNL     1     -10.035  13.281  68.284  1.00  0.00    -0.236 C  
HETATM    2  C   UNL     1      -9.517  11.720  67.723  1.00  0.00    -0.181 C  
HETATM    3  C   UNL     1      -8.716  13.986  68.506  1.00  0.00    -0.156 C  
HETATM    4  C   UNL     1     -10.465  10.668  67.032  1.00  0.00    -0.295 C  
HETATM    5  C   UNL     1      -8.436  14.417  67.056  1.00  0.00    -0.206 C  
HETATM    6  C   UNL     1      -8.108  11.575  67.043  1.00  0.00    -0.161 C  
HETATM    7  C   UNL     1      -9.650  15.283  66.699  1.00  0.00    -0.276 C  
HETATM    8  C   UNL     1     -11.976  13.907  66.769  1.00  0.00    -0.472 C  
HETATM    9  C   UNL     1     -10.790  14.552  67.519  1.00  0.00    -0.289 C  
HETATM   10  C   UNL     1      -9.074  16.695  67.071  1.00  0.00    -0.232 C  
HETATM   11  C   UNL     1     -11.510  15.739  68.319  1.00  0.00    -0.338 C  
HETATM   12  C   UNL     1      -8.344  17.249  65.832  1.00  0.00    -0.014 C  
HETATM   13  C   UNL     1     -10.738  16.984  68.853  1.00  0.00    -0.300 C  
HETATM   14  C   UNL     1      -9.937  17.728  67.764  1.00  0.00    -0.322 C  
HETATM   15  C   UNL     1      -7.856  18.653  65.985  1.00  0.00    -0.187 C  
HETATM   16  C   UNL     1      -8.117  19.415  67.054  1.00  0.00    -0.290 C  
HETATM   17  C   UNL     1      -7.233  20.617  67.264  1.00  0.00    -0.388 C  
HETATM   18  C   UNL     1      -6.157  20.152  68.240  1.00  0.00    -0.264 C  
HETATM   19  O   UNL     1      -5.206  21.206  68.462  1.00  0.00    -0.339 OA 
HETATM   20  C   UNL     1      -6.805  19.710  69.564  1.00  0.00    -0.350 C  
HETATM   21  C   UNL     1      -8.006  18.708  69.415  1.00  0.00     0.216 C  
HETATM   22  H   UNL     1      -4.535  20.915  69.070  1.00  0.00     0.000 HD 
HETATM   23  C   UNL     1      -9.005  18.982  68.232  1.00  0.00    -0.372 C  
HETATM   24  C   UNL     1      -9.926  20.159  68.641  1.00  0.00    -0.343 C  
ENDROOT
BRANCH   4  25
HETATM   25  C   UNL     1      -9.750   9.310  66.602  1.00  0.00    -0.281 C  
BRANCH  25  26
HETATM   26  C   UNL     1     -10.392   8.031  67.161  1.00  0.00    -0.395 C  
HETATM   27  C   UNL     1      -9.900   7.544  68.547  1.00  0.00    -0.170 C  
HETATM   28  C   UNL     1     -10.574   6.199  68.883  1.00  0.00    -0.335 C  
HETATM   29  C   UNL     1     -10.164   8.494  69.715  1.00  0.00    -0.206 C  
ENDBRANCH  25  26
ENDBRANCH   4  25
TORSDOF 2
ENDMDL
MODEL       15
REMARK 921   NORMALIZED FREE ENERGY PREDICTED BY IDOCK:   -6.42 KCAL/MOL
REMARK 922        TOTAL FREE ENERGY PREDICTED BY IDOCK:   -7.41 KCAL/MOL
REMARK 923 INTER-LIGAND FREE ENERGY PREDICTED BY IDOCK:   -7.00 KCAL/MOL
REMARK 924 INTRA-LIGAND FREE ENERGY PREDICTED BY IDOCK:   -0.42 KCAL/MOL
REMARK 927      BINDING AFFINITY PREDICTED BY RF-SCORE:    0.00 PKD
ROOT
HETATM    1  C   UNL     1     -11.286  14.886  67.411  1.00  0.00    -0.354 C  
HETATM    2  C   UNL     1     -10.731  16.351  66.660  1.00  0.00    -0.173 C  
HETATM    3  C   UNL     1     -10.710  13.829  66.497  1.00  0.00    -0.284 C  
HETATM    4  C   UNL     1     -10.760  17.767  67.351  1.00  0.00    -0.287 C  
HETATM    5  C   UNL     1      -9.284  13.778  67.072  1.00  0.00    -0.256 C  
HETATM    6  C   UNL     1      -9.445  16.314  65.759  1.00  0.00    -0.229 C  
HETATM    7  C   UNL     1      -9.504  13.399  68.541  1.00  0.00    -0.121 C  
HETATM    8  C   UNL     1     -10.928  15.253  69.900  1.00  0.00    -0.303 C  
HETATM    9  C   UNL     1     -10.875  14.133  68.838  1.00  0.00    -0.276 C  
HETATM   10  C   UNL     1      -9.352  11.840  68.429  1.00  0.00    -0.185 C  
HETATM   11  C   UNL     1     -11.782  12.996  69.509  1.00  0.00    -0.381 C  
HETATM   12  C   UNL     1      -7.858  11.497  68.587  1.00  0.00    -0.137 C  
HETATM   13  C   UNL     1     -11.688  11.494  69.103  1.00  0.00    -0.395 C  
HETATM   14  C   UNL     1     -10.261  10.914  69.207  1.00  0.00    -0.190 C  
HETATM   15  C   UNL     1      -7.568  10.033  68.641  1.00  0.00    -0.088 C  
HETATM   16  C   UNL     1      -8.518   9.091  68.661  1.00  0.00    -0.128 C  
HETATM   17  C   UNL     1      -8.096   7.692  68.291  1.00  0.00    -0.124 C  
HETATM   18  C   UNL     1      -8.425   7.558  66.808  1.00  0.00    -0.124 C  
HETATM   19  O   UNL     1      -7.996   6.276  66.322  1.00  0.00    -0.105 OA 
HETATM   20  C   UNL     1      -9.935   7.752  66.586  1.00  0.00    -0.299 C  
HETATM   21  C   UNL     1     -10.548   9.031  67.261  1.00  0.00    -0.301 C  
HETATM   22  H   UNL     1      -8.201   6.193  65.398  1.00  0.00     0.000 HD 
HETATM   23  C   UNL     1     -10.027   9.380  68.703  1.00  0.00    -0.187 C  
HETATM   24  C   UNL     1     -10.708   8.418  69.708  1.00  0.00    -0.211 C  
ENDROOT
BRANCH   4  25
HETATM   25  C   UNL     1     -10.189  18.955  66.456  1.00  0.00    -0.470 C  
BRANCH  25  26
HETATM   26  C   UNL     1      -9.240  19.920  67.184  1.00  0.00    -0.463 C  
HETATM   27  C   UNL     1      -7.720  19.673  67.015  1.00  0.00    -0.290 C  
HETATM   28  C   UNL     1      -6.941  20.664  67.903  1.00  0.00    -0.312 C  
HETATM   29  C   UNL     1      -7.181  19.811  65.591  1.00  0.00    -0.322 C  
ENDBRANCH  25  26
ENDBRANCH   4  25
TORSDOF 2
ENDMDL
MODEL       16
REMARK 921   NORMALIZED FREE ENERGY PREDICTED BY IDOCK:   -6.37 KCAL/MOL
REMARK 922        TOTAL FREE ENERGY PREDICTED BY IDOCK:   -7.36 KCAL/MOL
REMARK 923 INTER-LIGAND FREE ENERGY PREDICTED BY IDOCK:   -6.84 KCAL/MOL
REMARK 924 INTRA-LIGAND FREE ENERGY PREDICTED BY IDOCK:   -0.52 KCAL/MOL
REMARK 927      BINDING AFFINITY PREDICTED BY RF-SCORE:    0.00 PKD
ROOT
HETATM    1  C   UNL     1      -7.840   8.651  66.922  1.00  0.00    -0.091 C  
HETATM    2  C   UNL     1      -6.924   7.495  66.004  1.00  0.00    -0.061 C  
HETATM    3  C   UNL     1      -7.662   9.910  66.104  1.00  0.00    -0.107 C  
HETATM    4  C   UNL     1      -7.010   5.934  66.206  1.00  0.00    -0.063 C  
HETATM    5  C   UNL     1      -8.744   9.650  65.042  1.00  0.00    -0.202 C  
HETATM    6  C   UNL     1      -6.694   7.740  64.469  1.00  0.00    -0.052 C  
HETATM    7  C   UNL     1     -10.030   9.517  65.866  1.00  0.00    -0.342 C  
HETATM    8  C   UNL     1      -9.967   7.425  67.578  1.00  0.00    -0.225 C  
HETATM    9  C   UNL     1      -9.474   8.834  67.181  1.00  0.00    -0.208 C  
HETATM   10  C   UNL     1     -10.533  11.003  65.797  1.00  0.00    -0.290 C  
HETATM   11  C   UNL     1     -10.066   9.738  68.364  1.00  0.00    -0.189 C  
HETATM   12  C   UNL     1     -11.390  11.154  64.526  1.00  0.00     0.054 C  
HETATM   13  C   UNL     1     -10.278  11.276  68.224  1.00  0.00    -0.198 C  
HETATM   14  C   UNL     1     -11.143  11.673  67.009  1.00  0.00    -0.359 C  
HETATM   15  C   UNL     1     -12.057  12.484  64.390  1.00  0.00    -0.500 C  
HETATM   16  C   UNL     1     -12.014  13.432  65.334  1.00  0.00    -0.419 C  
HETATM   17  C   UNL     1     -12.353  14.836  64.903  1.00  0.00    -0.258 C  
HETATM   18  C   UNL     1     -11.010  15.496  64.610  1.00  0.00    -0.322 C  
HETATM   19  O   UNL     1     -11.213  16.830  64.118  1.00  0.00    -1.415 OA 
HETATM   20  C   UNL     1     -10.143  15.507  65.882  1.00  0.00    -0.374 C  
HETATM   21  C   UNL     1     -10.026  14.125  66.620  1.00  0.00    -0.280 C  
HETATM   22  H   UNL     1     -10.375  17.241  63.936  1.00  0.00     0.000 HD 
HETATM   23  C   UNL     1     -11.339  13.263  66.705  1.00  0.00    -0.359 C  
HETATM   24  C   UNL     1     -12.246  13.871  67.804  1.00  0.00    -0.217 C  
ENDROOT
BRANCH   4  25
HETATM   25  C   UNL     1      -6.074   5.085  65.235  1.00  0.00    -0.030 C  
BRANCH  25  26
HETATM   26  C   UNL     1      -6.681   3.763  64.739  1.00  0.00    -0.048 C  
HETATM   27  C   UNL     1      -8.154   3.800  64.263  1.00  0.00    -0.089 C  
HETATM   28  C   UNL     1      -8.613   2.370  63.913  1.00  0.00    -0.086 C  
HETATM   29  C   UNL     1      -8.435   4.682  63.046  1.00  0.00    -0.111 C  
ENDBRANCH  25  26
ENDBRANCH   4  25
TORSDOF 2
ENDMDL
MODEL       17
REMARK 921   NORMALIZED FREE ENERGY PREDICTED BY IDOCK:   -6.32 KCAL/MOL
REMARK 922        TOTAL FREE ENERGY PREDICTED BY IDOCK:   -7.30 KCAL/MOL
REMARK 923 INTER-LIGAND FREE ENERGY PREDICTED BY IDOCK:   -7.15 KCAL/MOL
REMARK 924 INTRA-LIGAND FREE ENERGY PREDICTED BY IDOCK:   -0.15 KCAL/MOL
REMARK 927      BINDING AFFINITY PREDICTED BY RF-SCORE:    0.00 PKD
ROOT
HETATM    1  C   UNL     1     -11.066  10.030  68.280  1.00  0.00    -0.247 C  
HETATM    2  C   UNL     1     -10.548   8.787  69.377  1.00  0.00    -0.218 C  
HETATM    3  C   UNL     1     -10.855  11.280  69.103  1.00  0.00    -0.269 C  
HETATM    4  C   UNL     1     -10.245   7.300  68.951  1.00  0.00    -0.196 C  
HETATM    5  C   UNL     1      -9.347  11.466  68.860  1.00  0.00    -0.044 C  
HETATM    6  C   UNL     1      -9.533   9.145  70.521  1.00  0.00    -0.291 C  
HETATM    7  C   UNL     1      -9.243  11.596  67.336  1.00  0.00    -0.168 C  
HETATM    8  C   UNL     1     -10.071   9.376  66.035  1.00  0.00    -0.302 C  
HETATM    9  C   UNL     1     -10.407  10.629  66.873  1.00  0.00    -0.288 C  
HETATM   10  C   UNL     1      -9.302  13.160  67.209  1.00  0.00    -0.225 C  
HETATM   11  C   UNL     1     -11.247  11.509  65.831  1.00  0.00    -0.239 C  
HETATM   12  C   UNL     1      -7.864  13.700  67.331  1.00  0.00    -0.162 C  
HETATM   13  C   UNL     1     -11.426  13.051  65.983  1.00  0.00    -0.374 C  
HETATM   14  C   UNL     1     -10.093  13.819  66.101  1.00  0.00    -0.314 C  
HETATM   15  C   UNL     1      -7.738  15.170  67.092  1.00  0.00    -0.223 C  
HETATM   16  C   UNL     1      -8.756  15.944  66.698  1.00  0.00    -0.324 C  
HETATM   17  C   UNL     1      -8.600  17.429  66.906  1.00  0.00    -0.270 C  
HETATM   18  C   UNL     1      -9.293  17.718  68.233  1.00  0.00    -0.288 C  
HETATM   19  O   UNL     1      -9.145  19.106  68.574  1.00  0.00    -0.344 OA 
HETATM   20  C   UNL     1     -10.779  17.331  68.144  1.00  0.00    -0.363 C  
HETATM   21  C   UNL     1     -11.059  15.891  67.580  1.00  0.00    -0.235 C  
HETATM   22  H   UNL     1      -9.578  19.286  69.401  1.00  0.00     0.000 HD 
HETATM   23  C   UNL     1     -10.166  15.426  66.372  1.00  0.00    -0.296 C  
HETATM   24  C   UNL     1     -10.686  16.123  65.090  1.00  0.00    -0.391 C  
ENDROOT
BRANCH   4  25
HETATM   25  C   UNL     1      -9.778   6.349  70.142  1.00  0.00    -0.185 C  
BRANCH  25  26
HETATM   26  C   UNL     1     -10.030   4.850  69.914  1.00  0.00    -0.317 C  
HETATM   27  C   UNL     1      -9.376   3.867  70.916  1.00  0.00    -0.222 C  
HETATM   28  C   UNL     1      -9.647   2.419  70.461  1.00  0.00    -0.132 C  
HETATM   29  C   UNL     1      -9.847   3.987  72.366  1.00  0.00    -0.220 C  
ENDBRANCH  25  26
ENDBRANCH   4  25
TORSDOF 2
ENDMDL
MODEL       18
REMARK 921   NORMALIZED FREE ENERGY PREDICTED BY IDOCK:   -6.25 KCAL/MOL
REMARK 922        TOTAL FREE ENERGY PREDICTED BY IDOCK:   -7.22 KCAL/MOL
REMARK 923 INTER-LIGAND FREE ENERGY PREDICTED BY IDOCK:   -6.93 KCAL/MOL
REMARK 924 INTRA-LIGAND FREE ENERGY PREDICTED BY IDOCK:   -0.29 KCAL/MOL
REMARK 927      BINDING AFFINITY PREDICTED BY RF-SCORE:    0.00 PKD
ROOT
HETATM    1  C   UNL     1      -9.689  13.258  66.549  1.00  0.00    -0.273 C  
HETATM    2  C   UNL     1      -9.857  14.765  67.397  1.00  0.00    -0.222 C  
HETATM    3  C   UNL     1      -8.788  12.477  67.478  1.00  0.00    -0.184 C  
HETATM    4  C   UNL     1     -10.944  15.856  67.059  1.00  0.00    -0.189 C  
HETATM    5  C   UNL     1      -9.853  11.986  68.474  1.00  0.00    -0.177 C  
HETATM    6  C   UNL     1      -9.653  14.798  68.954  1.00  0.00    -0.210 C  
HETATM    7  C   UNL     1     -10.826  11.190  67.596  1.00  0.00    -0.295 C  
HETATM    8  C   UNL     1     -12.027  12.715  65.714  1.00  0.00    -0.503 C  
HETATM    9  C   UNL     1     -10.757  12.017  66.248  1.00  0.00    -0.302 C  
HETATM   10  C   UNL     1     -10.215   9.755  67.774  1.00  0.00    -0.254 C  
HETATM   11  C   UNL     1     -10.495  10.903  65.126  1.00  0.00    -0.316 C  
HETATM   12  C   UNL     1     -10.856   9.118  69.022  1.00  0.00    -0.115 C  
HETATM   13  C   UNL     1      -9.639   9.627  65.390  1.00  0.00    -0.361 C  
HETATM   14  C   UNL     1     -10.118   8.801  66.602  1.00  0.00    -0.358 C  
HETATM   15  C   UNL     1     -10.476   7.691  69.246  1.00  0.00    -0.220 C  
HETATM   16  C   UNL     1      -9.734   6.980  68.390  1.00  0.00    -0.139 C  
HETATM   17  C   UNL     1      -9.086   5.729  68.927  1.00  0.00    -0.121 C  
HETATM   18  C   UNL     1      -7.676   6.152  69.323  1.00  0.00    -0.099 C  
HETATM   19  O   UNL     1      -6.980   5.046  69.921  1.00  0.00    -0.050 OA 
HETATM   20  C   UNL     1      -6.919   6.674  68.090  1.00  0.00    -0.077 C  
HETATM   21  C   UNL     1      -7.690   7.747  67.240  1.00  0.00    -0.113 C  
HETATM   22  H   UNL     1      -6.101   5.310  70.168  1.00  0.00     0.000 HD 
HETATM   23  C   UNL     1      -9.231   7.503  67.035  1.00  0.00    -0.167 C  
HETATM   24  C   UNL     1      -9.406   6.402  65.960  1.00  0.00    -0.053 C  
ENDROOT
BRANCH   4  25
HETATM   25  C   UNL     1     -10.897  17.151  67.986  1.00  0.00    -0.317 C  
BRANCH  25  26
HETATM   26  C   UNL     1     -10.511  18.453  67.266  1.00  0.00    -0.434 C  
HETATM   27  C   UNL     1      -9.777  19.530  68.104  1.00  0.00    -0.483 C  
HETATM   28  C   UNL     1      -9.577  20.794  67.246  1.00  0.00    -0.494 C  
HETATM   29  C   UNL     1      -8.408  19.124  68.651  1.00  0.00    -0.403 C  
ENDBRANCH  25  26
ENDBRANCH   4  25
TORSDOF 2
ENDMDL
MODEL       19
REMARK 921   NORMALIZED FREE ENERGY PREDICTED BY IDOCK:   -6.20 KCAL/MOL
REMARK 922        TOTAL FREE ENERGY PREDICTED BY IDOCK:   -7.17 KCAL/MOL
REMARK 923 INTER-LIGAND FREE ENERGY PREDICTED BY IDOCK:   -6.80 KCAL/MOL
REMARK 924 INTRA-LIGAND FREE ENERGY PREDICTED BY IDOCK:   -0.38 KCAL/MOL
REMARK 927      BINDING AFFINITY PREDICTED BY RF-SCORE:    0.00 PKD
ROOT
HETATM    1  C   UNL     1      -8.912   7.853  69.148  1.00  0.00    -0.145 C  
HETATM    2  C   UNL     1      -9.681   6.435  69.792  1.00  0.00    -0.172 C  
HETATM    3  C   UNL     1      -9.847   8.231  68.022  1.00  0.00    -0.201 C  
HETATM    4  C   UNL     1      -9.326   5.790  71.186  1.00  0.00    -0.174 C  
HETATM    5  C   UNL     1     -10.909   8.980  68.844  1.00  0.00    -0.075 C  
HETATM    6  C   UNL     1     -11.226   6.236  69.583  1.00  0.00    -0.506 C  
HETATM    7  C   UNL     1     -10.115  10.108  69.513  1.00  0.00    -0.258 C  
HETATM    8  C   UNL     1      -8.200   9.192  71.187  1.00  0.00    -0.142 C  
HETATM    9  C   UNL     1      -8.721   9.395  69.747  1.00  0.00    -0.189 C  
HETATM   10  C   UNL     1     -10.347  11.246  68.455  1.00  0.00    -0.217 C  
HETATM   11  C   UNL     1      -7.653  10.429  69.150  1.00  0.00    -0.117 C  
HETATM   12  C   UNL     1     -11.652  11.976  68.826  1.00  0.00    -0.366 C  
HETATM   13  C   UNL     1      -7.954  11.330  67.914  1.00  0.00    -0.118 C  
HETATM   14  C   UNL     1      -9.228  12.188  68.069  1.00  0.00    -0.194 C  
HETATM   15  C   UNL     1     -11.941  13.180  67.988  1.00  0.00    -0.345 C  
HETATM   16  C   UNL     1     -11.096  13.659  67.068  1.00  0.00    -0.313 C  
HETATM   17  C   UNL     1     -11.676  14.587  66.031  1.00  0.00    -0.347 C  
HETATM   18  C   UNL     1     -11.994  13.696  64.835  1.00  0.00    -0.383 C  
HETATM   19  O   UNL     1     -12.624  14.468  63.800  1.00  0.00    -0.972 OA 
HETATM   20  C   UNL     1     -10.705  13.035  64.317  1.00  0.00    -0.430 C  
HETATM   21  C   UNL     1      -9.828  12.335  65.417  1.00  0.00    -0.209 C  
HETATM   22  H   UNL     1     -12.822  13.913  63.054  1.00  0.00     0.000 HD 
HETATM   23  C   UNL     1      -9.696  13.088  66.792  1.00  0.00    -0.248 C  
HETATM   24  C   UNL     1      -8.691  14.253  66.610  1.00  0.00    -0.098 C  
ENDROOT
BRANCH   4  25
HETATM   25  C   UNL     1     -10.178   4.495  71.556  1.00  0.00    -0.195 C  
BRANCH  25  26
HETATM   26  C   UNL     1      -9.649   3.178  70.966  1.00  0.00    -0.228 C  
HETATM   27  C   UNL     1      -8.137   2.888  71.137  1.00  0.00    -0.064 C  
HETATM   28  C   UNL     1      -7.780   1.589  70.389  1.00  0.00    -0.035 C  
HETATM   29  C   UNL     1      -7.650   2.736  72.578  1.00  0.00    -0.053 C  
ENDBRANCH  25  26
ENDBRANCH   4  25
TORSDOF 2
ENDMDL
MODEL       20
REMARK 921   NORMALIZED FREE ENERGY PREDICTED BY IDOCK:   -6.19 KCAL/MOL
REMARK 922        TOTAL FREE ENERGY PREDICTED BY IDOCK:   -7.16 KCAL/MOL
REMARK 923 INTER-LIGAND FREE ENERGY PREDICTED BY IDOCK:   -6.96 KCAL/MOL
REMARK 924 INTRA-LIGAND FREE ENERGY PREDICTED BY IDOCK:   -0.20 KCAL/MOL
REMARK 927      BINDING AFFINITY PREDICTED BY RF-SCORE:    0.00 PKD
ROOT
HETATM    1  C   UNL     1     -10.036  10.270  69.250  1.00  0.00    -0.244 C  
HETATM    2  C   UNL     1     -11.114  10.668  70.553  1.00  0.00    -0.176 C  
HETATM    3  C   UNL     1      -9.549   8.898  69.657  1.00  0.00    -0.170 C  
HETATM    4  C   UNL     1     -12.158  11.848  70.510  1.00  0.00    -0.422 C  
HETATM    5  C   UNL     1     -10.739   8.068  69.145  1.00  0.00    -0.121 C  
HETATM    6  C   UNL     1     -11.774   9.512  71.386  1.00  0.00    -0.465 C  
HETATM    7  C   UNL     1     -10.781   8.389  67.646  1.00  0.00    -0.191 C  
HETATM    8  C   UNL     1     -11.258  11.002  67.146  1.00  0.00    -0.290 C  
HETATM    9  C   UNL     1     -10.303   9.898  67.649  1.00  0.00    -0.275 C  
HETATM   10  C   UNL     1      -9.912   7.198  67.106  1.00  0.00    -0.270 C  
HETATM   11  C   UNL     1      -9.141   9.937  66.547  1.00  0.00    -0.179 C  
HETATM   12  C   UNL     1     -10.851   6.003  66.853  1.00  0.00    -0.396 C  
HETATM   13  C   UNL     1      -8.178   8.736  66.296  1.00  0.00    -0.115 C  
HETATM   14  C   UNL     1      -8.908   7.411  65.994  1.00  0.00    -0.173 C  
HETATM   15  C   UNL     1     -10.191   4.830  66.204  1.00  0.00    -0.313 C  
HETATM   16  C   UNL     1      -8.924   4.840  65.774  1.00  0.00    -0.138 C  
HETATM   17  C   UNL     1      -8.275   3.499  65.541  1.00  0.00    -0.097 C  
HETATM   18  C   UNL     1      -7.515   3.198  66.827  1.00  0.00    -0.075 C  
HETATM   19  O   UNL     1      -6.907   1.898  66.747  1.00  0.00    -0.037 OA 
HETATM   20  C   UNL     1      -6.453   4.284  67.076  1.00  0.00    -0.042 C  
HETATM   21  C   UNL     1      -6.978   5.762  66.978  1.00  0.00    -0.065 C  
HETATM   22  H   UNL     1      -6.433   1.710  67.549  1.00  0.00     0.000 HD 
HETATM   23  C   UNL     1      -8.000   6.067  65.821  1.00  0.00    -0.113 C  
HETATM   24  C   UNL     1      -7.210   6.168  64.493  1.00  0.00    -0.064 C  
ENDROOT
BRANCH   4  25
HETATM   25  C   UNL     1     -13.037  12.007  71.830  1.00  0.00    -0.460 C  
BRANCH  25  26
HETATM   26  C   UNL     1     -13.765  13.353  71.968  1.00  0.00    -0.541 C  
HETATM   27  C   UNL     1     -13.005  14.495  72.688  1.00  0.00    -0.538 C  
HETATM   28  C   UNL     1     -13.933  15.717  72.827  1.00  0.00    -0.541 C  
HETATM   29  C   UNL     1     -11.721  14.968  72.006  1.00  0.00    -0.447 C  
ENDBRANCH  25  26
ENDBRANCH   4  25
TORSDOF 2
ENDMDL
MODEL       21
REMARK 921   NORMALIZED FREE ENERGY PREDICTED BY IDOCK:   -6.17 KCAL/MOL
REMARK 922        TOTAL FREE ENERGY PREDICTED BY IDOCK:   -7.13 KCAL/MOL
REMARK 923 INTER-LIGAND FREE ENERGY PREDICTED BY IDOCK:   -6.93 KCAL/MOL
REMARK 924 INTRA-LIGAND FREE ENERGY PREDICTED BY IDOCK:   -0.21 KCAL/MOL
REMARK 927      BINDING AFFINITY PREDICTED BY RF-SCORE:    0.00 PKD
ROOT
HETATM    1  C   UNL     1      -8.817   7.832  69.093  1.00  0.00    -0.138 C  
HETATM    2  C   UNL     1      -9.564   6.372  69.668  1.00  0.00    -0.157 C  
HETATM    3  C   UNL     1      -9.708   8.199  67.927  1.00  0.00    -0.191 C  
HETATM    4  C   UNL     1      -9.255   5.710  71.065  1.00  0.00    -0.173 C  
HETATM    5  C   UNL     1     -10.838   8.890  68.708  1.00  0.00    -0.040 C  
HETATM    6  C   UNL     1     -11.086   6.120  69.375  1.00  0.00    -0.479 C  
HETATM    7  C   UNL     1     -10.123  10.032  69.439  1.00  0.00    -0.235 C  
HETATM    8  C   UNL     1      -8.262   9.152  71.191  1.00  0.00    -0.142 C  
HETATM    9  C   UNL     1      -8.717   9.366  69.731  1.00  0.00    -0.189 C  
HETATM   10  C   UNL     1     -10.345  11.183  68.395  1.00  0.00    -0.201 C  
HETATM   11  C   UNL     1      -7.660  10.452  69.211  1.00  0.00    -0.132 C  
HETATM   12  C   UNL     1     -11.694  11.856  68.712  1.00  0.00    -0.379 C  
HETATM   13  C   UNL     1      -7.932  11.368  67.979  1.00  0.00    -0.127 C  
HETATM   14  C   UNL     1      -9.244  12.174  68.085  1.00  0.00    -0.197 C  
HETATM   15  C   UNL     1     -11.986  13.066  67.885  1.00  0.00    -0.338 C  
HETATM   16  C   UNL     1     -11.115  13.597  67.019  1.00  0.00    -0.313 C  
HETATM   17  C   UNL     1     -11.677  14.525  65.973  1.00  0.00    -0.347 C  
HETATM   18  C   UNL     1     -11.899  13.649  64.744  1.00  0.00    -0.387 C  
HETATM   19  O   UNL     1     -12.505  14.420  63.693  1.00  0.00    -1.066 OA 
HETATM   20  C   UNL     1     -10.561  13.048  64.280  1.00  0.00    -0.434 C  
HETATM   21  C   UNL     1      -9.715  12.357  65.410  1.00  0.00    -0.129 C  
HETATM   22  H   UNL     1     -12.643  13.874  62.928  1.00  0.00     0.000 HD 
HETATM   23  C   UNL     1      -9.681  13.084  66.804  1.00  0.00    -0.248 C  
HETATM   24  C   UNL     1      -8.714  14.289  66.698  1.00  0.00    -0.098 C  
ENDROOT
BRANCH   4  25
HETATM   25  C   UNL     1     -10.074   4.377  71.364  1.00  0.00    -0.210 C  
BRANCH  25  26
HETATM   26  C   UNL     1      -9.279   3.271  72.075  1.00  0.00    -0.173 C  
HETATM   27  C   UNL     1      -9.442   3.165  73.612  1.00  0.00    -0.119 C  
HETATM   28  C   UNL     1      -8.488   2.081  74.152  1.00  0.00    -0.058 C  
HETATM   29  C   UNL     1     -10.848   2.827  74.108  1.00  0.00    -0.226 C  
ENDBRANCH  25  26
ENDBRANCH   4  25
TORSDOF 2
ENDMDL
MODEL       22
REMARK 921   NORMALIZED FREE ENERGY PREDICTED BY IDOCK:   -6.15 KCAL/MOL
REMARK 922        TOTAL FREE ENERGY PREDICTED BY IDOCK:   -7.12 KCAL/MOL
REMARK 923 INTER-LIGAND FREE ENERGY PREDICTED BY IDOCK:   -7.32 KCAL/MOL
REMARK 924 INTRA-LIGAND FREE ENERGY PREDICTED BY IDOCK:    0.21 KCAL/MOL
REMARK 927      BINDING AFFINITY PREDICTED BY RF-SCORE:    0.00 PKD
ROOT
HETATM    1  C   UNL     1      -9.611  12.491  67.928  1.00  0.00    -0.206 C  
HETATM    2  C   UNL     1     -10.561  13.419  66.809  1.00  0.00    -0.277 C  
HETATM    3  C   UNL     1     -10.678  11.820  68.762  1.00  0.00    -0.255 C  
HETATM    4  C   UNL     1      -9.991  14.076  65.495  1.00  0.00    -0.302 C  
HETATM    5  C   UNL     1     -11.008  10.651  67.818  1.00  0.00    -0.364 C  
HETATM    6  C   UNL     1     -12.030  12.967  66.487  1.00  0.00    -0.447 C  
HETATM    7  C   UNL     1      -9.668   9.923  67.667  1.00  0.00    -0.183 C  
HETATM    8  C   UNL     1      -7.764  11.461  66.519  1.00  0.00    -0.093 C  
HETATM    9  C   UNL     1      -8.657  11.139  67.737  1.00  0.00    -0.131 C  
HETATM   10  C   UNL     1      -9.828   8.852  68.804  1.00  0.00    -0.182 C  
HETATM   11  C   UNL     1      -7.577  10.681  68.828  1.00  0.00    -0.109 C  
HETATM   12  C   UNL     1     -10.537   7.624  68.202  1.00  0.00    -0.187 C  
HETATM   13  C   UNL     1      -7.949   9.806  70.064  1.00  0.00    -0.196 C  
HETATM   14  C   UNL     1      -8.662   8.488  69.697  1.00  0.00    -0.133 C  
HETATM   15  C   UNL     1     -10.640   6.458  69.131  1.00  0.00    -0.305 C  
HETATM   16  C   UNL     1     -10.075   6.427  70.343  1.00  0.00    -0.221 C  
HETATM   17  C   UNL     1     -10.603   5.401  71.313  1.00  0.00    -0.276 C  
HETATM   18  C   UNL     1     -11.640   6.142  72.150  1.00  0.00    -0.317 C  
HETATM   19  O   UNL     1     -12.268   5.235  73.071  1.00  0.00    -0.513 OA 
HETATM   20  C   UNL     1     -10.973   7.309  72.898  1.00  0.00    -0.381 C  
HETATM   21  C   UNL     1     -10.084   8.250  72.007  1.00  0.00    -0.331 C  
HETATM   22  H   UNL     1     -12.914   5.698  73.593  1.00  0.00     0.000 HD 
HETATM   23  C   UNL     1      -9.192   7.546  70.919  1.00  0.00    -0.153 C  
HETATM   24  C   UNL     1      -7.967   6.920  71.630  1.00  0.00    -0.101 C  
ENDROOT
BRANCH   4  25
HETATM   25  C   UNL     1     -11.065  14.874  64.630  1.00  0.00    -0.335 C  
BRANCH  25  26
HETATM   26  C   UNL     1     -11.004  16.403  64.767  1.00  0.00    -0.246 C  
HETATM   27  C   UNL     1     -10.314  16.970  66.033  1.00  0.00    -0.324 C  
HETATM   28  C   UNL     1     -10.452  18.505  66.045  1.00  0.00    -0.433 C  
HETATM   29  C   UNL     1      -8.829  16.640  66.181  1.00  0.00    -0.323 C  
ENDBRANCH  25  26
ENDBRANCH   4  25
TORSDOF 2
ENDMDL
MODEL       23
REMARK 921   NORMALIZED FREE ENERGY PREDICTED BY IDOCK:   -6.15 KCAL/MOL
REMARK 922        TOTAL FREE ENERGY PREDICTED BY IDOCK:   -7.11 KCAL/MOL
REMARK 923 INTER-LIGAND FREE ENERGY PREDICTED BY IDOCK:   -6.80 KCAL/MOL
REMARK 924 INTRA-LIGAND FREE ENERGY PREDICTED BY IDOCK:   -0.32 KCAL/MOL
REMARK 927      BINDING AFFINITY PREDICTED BY RF-SCORE:    0.00 PKD
ROOT
HETATM    1  C   UNL     1     -10.884   7.477  69.959  1.00  0.00    -0.260 C  
HETATM    2  C   UNL     1     -10.664   6.854  71.565  1.00  0.00    -0.248 C  
HETATM    3  C   UNL     1     -11.211   8.928  70.229  1.00  0.00    -0.219 C  
HETATM    4  C   UNL     1      -9.995   5.465  71.892  1.00  0.00    -0.233 C  
HETATM    5  C   UNL     1      -9.778   9.457  70.415  1.00  0.00    -0.315 C  
HETATM    6  C   UNL     1     -10.256   7.836  72.722  1.00  0.00    -0.360 C  
HETATM    7  C   UNL     1      -9.097   9.122  69.083  1.00  0.00    -0.144 C  
HETATM    8  C   UNL     1      -8.991   6.464  68.600  1.00  0.00    -0.125 C  
HETATM    9  C   UNL     1      -9.819   7.763  68.711  1.00  0.00    -0.171 C  
HETATM   10  C   UNL     1      -9.337  10.476  68.325  1.00  0.00    -0.156 C  
HETATM   11  C   UNL     1     -10.297   7.982  67.198  1.00  0.00    -0.395 C  
HETATM   12  C   UNL     1      -8.167  11.420  68.660  1.00  0.00    -0.142 C  
HETATM   13  C   UNL     1     -10.753   9.370  66.652  1.00  0.00    -0.076 C  
HETATM   14  C   UNL     1      -9.711  10.489  66.859  1.00  0.00    -0.218 C  
HETATM   15  C   UNL     1      -8.180  12.707  67.901  1.00  0.00    -0.170 C  
HETATM   16  C   UNL     1      -9.061  12.985  66.933  1.00  0.00    -0.227 C  
HETATM   17  C   UNL     1      -9.228  14.437  66.563  1.00  0.00    -0.269 C  
HETATM   18  C   UNL     1     -10.428  14.917  67.372  1.00  0.00    -0.255 C  
HETATM   19  O   UNL     1     -10.640  16.321  67.152  1.00  0.00    -0.312 OA 
HETATM   20  C   UNL     1     -11.678  14.107  66.988  1.00  0.00    -0.430 C  
HETATM   21  C   UNL     1     -11.488  12.547  66.996  1.00  0.00    -0.419 C  
HETATM   22  H   UNL     1     -11.388  16.620  67.656  1.00  0.00     0.000 HD 
HETATM   23  C   UNL     1     -10.129  12.004  66.422  1.00  0.00    -0.242 C  
HETATM   24  C   UNL     1     -10.194  12.075  64.876  1.00  0.00    -0.302 C  
ENDROOT
BRANCH   4  25
HETATM   25  C   UNL     1      -9.903   5.121  73.445  1.00  0.00    -0.170 C  
BRANCH  25  26
HETATM   26  C   UNL     1     -10.794   3.957  73.908  1.00  0.00    -0.308 C  
HETATM   27  C   UNL     1     -10.735   2.652  73.075  1.00  0.00    -0.231 C  
HETATM   28  C   UNL     1     -11.772   1.652  73.622  1.00  0.00    -0.303 C  
HETATM   29  C   UNL     1      -9.381   1.943  73.049  1.00  0.00    -0.096 C  
ENDBRANCH  25  26
ENDBRANCH   4  25
TORSDOF 2
ENDMDL
MODEL       24
REMARK 921   NORMALIZED FREE ENERGY PREDICTED BY IDOCK:   -6.14 KCAL/MOL
REMARK 922        TOTAL FREE ENERGY PREDICTED BY IDOCK:   -7.10 KCAL/MOL
REMARK 923 INTER-LIGAND FREE ENERGY PREDICTED BY IDOCK:   -6.75 KCAL/MOL
REMARK 924 INTRA-LIGAND FREE ENERGY PREDICTED BY IDOCK:   -0.35 KCAL/MOL
REMARK 927      BINDING AFFINITY PREDICTED BY RF-SCORE:    0.00 PKD
ROOT
HETATM    1  C   UNL     1     -10.066   8.095  69.446  1.00  0.00    -0.194 C  
HETATM    2  C   UNL     1     -10.264   7.902  71.161  1.00  0.00    -0.221 C  
HETATM    3  C   UNL     1     -11.098   9.154  69.131  1.00  0.00     0.036 C  
HETATM    4  C   UNL     1      -9.234   7.156  72.093  1.00  0.00    -0.144 C  
HETATM    5  C   UNL     1     -10.284  10.397  69.530  1.00  0.00    -0.258 C  
HETATM    6  C   UNL     1     -10.863   9.084  72.004  1.00  0.00    -0.342 C  
HETATM    7  C   UNL     1      -9.048  10.321  68.626  1.00  0.00    -0.152 C  
HETATM    8  C   UNL     1      -7.553   8.115  69.077  1.00  0.00    -0.097 C  
HETATM    9  C   UNL     1      -8.845   8.755  68.526  1.00  0.00    -0.138 C  
HETATM   10  C   UNL     1      -9.547  11.217  67.437  1.00  0.00    -0.183 C  
HETATM   11  C   UNL     1      -8.705   8.484  66.953  1.00  0.00    -0.137 C  
HETATM   12  C   UNL     1      -9.190  12.680  67.763  1.00  0.00    -0.195 C  
HETATM   13  C   UNL     1      -9.476   9.316  65.883  1.00  0.00    -0.325 C  
HETATM   14  C   UNL     1      -9.249  10.838  66.002  1.00  0.00    -0.210 C  
HETATM   15  C   UNL     1      -9.479  13.643  66.659  1.00  0.00    -0.285 C  
HETATM   16  C   UNL     1      -9.907  13.271  65.446  1.00  0.00    -0.128 C  
HETATM   17  C   UNL     1     -10.550  14.336  64.596  1.00  0.00    -0.364 C  
HETATM   18  C   UNL     1     -12.048  14.183  64.836  1.00  0.00    -0.428 C  
HETATM   19  O   UNL     1     -12.768  15.203  64.124  1.00  0.00    -0.694 OA 
HETATM   20  C   UNL     1     -12.509  12.782  64.399  1.00  0.00    -0.476 C  
HETATM   21  C   UNL     1     -11.649  11.593  64.962  1.00  0.00    -0.133 C  
HETATM   22  H   UNL     1     -13.702  15.108  64.273  1.00  0.00     0.000 HD 
HETATM   23  C   UNL     1     -10.092  11.811  65.001  1.00  0.00    -0.302 C  
HETATM   24  C   UNL     1      -9.545  11.639  63.562  1.00  0.00    -0.269 C  
ENDROOT
BRANCH   4  25
HETATM   25  C   UNL     1      -9.639   7.118  73.633  1.00  0.00    -0.287 C  
BRANCH  25  26
HETATM   26  C   UNL     1     -10.511   5.921  74.047  1.00  0.00    -0.276 C  
HETATM   27  C   UNL     1     -10.211   4.563  73.365  1.00  0.00    -0.220 C  
HETATM   28  C   UNL     1     -11.253   3.523  73.822  1.00  0.00    -0.234 C  
HETATM   29  C   UNL     1      -8.826   3.976  73.637  1.00  0.00    -0.093 C  
ENDBRANCH  25  26
ENDBRANCH   4  25
TORSDOF 2
ENDMDL
MODEL       25
REMARK 921   NORMALIZED FREE ENERGY PREDICTED BY IDOCK:   -6.08 KCAL/MOL
REMARK 922        TOTAL FREE ENERGY PREDICTED BY IDOCK:   -7.04 KCAL/MOL
REMARK 923 INTER-LIGAND FREE ENERGY PREDICTED BY IDOCK:   -6.78 KCAL/MOL
REMARK 924 INTRA-LIGAND FREE ENERGY PREDICTED BY IDOCK:   -0.25 KCAL/MOL
REMARK 927      BINDING AFFINITY PREDICTED BY RF-SCORE:    0.00 PKD
ROOT
HETATM    1  C   UNL     1      -8.571  12.657  66.873  1.00  0.00    -0.151 C  
HETATM    2  C   UNL     1      -8.124  14.260  67.372  1.00  0.00    -0.213 C  
HETATM    3  C   UNL     1      -8.016  11.814  67.999  1.00  0.00    -0.141 C  
HETATM    4  C   UNL     1      -8.717  15.579  66.746  1.00  0.00    -0.302 C  
HETATM    5  C   UNL     1      -9.160  11.996  69.011  1.00  0.00     0.334 C  
HETATM    6  C   UNL     1      -7.882  14.552  68.896  1.00  0.00    -0.134 C  
HETATM    7  C   UNL     1     -10.387  11.460  68.264  1.00  0.00    -0.209 C  
HETATM    8  C   UNL     1     -10.959  12.876  66.034  1.00  0.00    -0.301 C  
HETATM    9  C   UNL     1     -10.042  11.882  66.778  1.00  0.00    -0.225 C  
HETATM   10  C   UNL     1     -10.370   9.976  68.778  1.00  0.00    -0.216 C  
HETATM   11  C   UNL     1     -10.258  10.536  65.936  1.00  0.00    -0.311 C  
HETATM   12  C   UNL     1     -11.174   9.921  70.092  1.00  0.00    -0.347 C  
HETATM   13  C   UNL     1      -9.952   9.121  66.515  1.00  0.00    -0.359 C  
HETATM   14  C   UNL     1     -10.679   8.827  67.843  1.00  0.00    -0.171 C  
HETATM   15  C   UNL     1     -11.367   8.543  70.636  1.00  0.00    -0.265 C  
HETATM   16  C   UNL     1     -10.978   7.434  69.996  1.00  0.00    -0.264 C  
HETATM   17  C   UNL     1     -10.846   6.182  70.824  1.00  0.00    -0.350 C  
HETATM   18  C   UNL     1      -9.372   6.111  71.206  1.00  0.00    -0.159 C  
HETATM   19  O   UNL     1      -9.139   4.983  72.065  1.00  0.00    -0.134 OA 
HETATM   20  C   UNL     1      -8.505   6.023  69.937  1.00  0.00    -0.130 C  
HETATM   21  C   UNL     1      -8.827   7.095  68.835  1.00  0.00    -0.130 C  
HETATM   22  H   UNL     1      -8.219   4.940  72.302  1.00  0.00     0.000 HD 
HETATM   23  C   UNL     1     -10.348   7.417  68.593  1.00  0.00    -0.215 C  
HETATM   24  C   UNL     1     -10.961   6.259  67.768  1.00  0.00    -0.427 C  
ENDROOT
BRANCH   4  25
HETATM   25  C   UNL     1      -8.151  16.928  67.379  1.00  0.00    -0.193 C  
BRANCH  25  26
HETATM   26  C   UNL     1      -8.598  18.216  66.671  1.00  0.00    -0.284 C  
HETATM   27  C   UNL     1      -9.943  18.838  67.124  1.00  0.00    -0.376 C  
HETATM   28  C   UNL     1     -10.272  20.049  66.229  1.00  0.00    -0.595 C  
HETATM   29  C   UNL     1      -9.998  19.312  68.576  1.00  0.00    -0.513 C  
ENDBRANCH  25  26
ENDBRANCH   4  25
TORSDOF 2
ENDMDL
MODEL       26
REMARK 921   NORMALIZED FREE ENERGY PREDICTED BY IDOCK:   -6.06 KCAL/MOL
REMARK 922        TOTAL FREE ENERGY PREDICTED BY IDOCK:   -7.01 KCAL/MOL
REMARK 923 INTER-LIGAND FREE ENERGY PREDICTED BY IDOCK:   -6.59 KCAL/MOL
REMARK 924 INTRA-LIGAND FREE ENERGY PREDICTED BY IDOCK:   -0.42 KCAL/MOL
REMARK 927      BINDING AFFINITY PREDICTED BY RF-SCORE:    0.00 PKD
ROOT
HETATM    1  C   UNL     1     -10.878  13.176  67.459  1.00  0.00    -0.269 C  
HETATM    2  C   UNL     1     -10.728  11.551  68.053  1.00  0.00    -0.241 C  
HETATM    3  C   UNL     1     -10.192  13.971  68.547  1.00  0.00    -0.237 C  
HETATM    4  C   UNL     1     -10.981  10.262  67.182  1.00  0.00    -0.233 C  
HETATM    5  C   UNL     1      -8.734  13.766  68.099  1.00  0.00    -0.183 C  
HETATM    6  C   UNL     1      -9.566  11.201  69.050  1.00  0.00    -0.099 C  
HETATM    7  C   UNL     1      -8.712  14.345  66.679  1.00  0.00    -0.131 C  
HETATM    8  C   UNL     1     -10.343  13.017  64.980  1.00  0.00    -0.336 C  
HETATM    9  C   UNL     1     -10.167  13.972  66.181  1.00  0.00    -0.308 C  
HETATM   10  C   UNL     1      -8.247  15.808  67.007  1.00  0.00    -0.262 C  
HETATM   11  C   UNL     1     -10.738  15.350  65.595  1.00  0.00    -0.381 C  
HETATM   12  C   UNL     1      -6.707  15.826  67.014  1.00  0.00    -0.020 C  
HETATM   13  C   UNL     1     -10.372  16.739  66.201  1.00  0.00    -0.338 C  
HETATM   14  C   UNL     1      -8.852  16.994  66.287  1.00  0.00    -0.289 C  
HETATM   15  C   UNL     1      -6.109  17.186  67.176  1.00  0.00    -0.195 C  
HETATM   16  C   UNL     1      -6.832  18.312  67.204  1.00  0.00    -0.209 C  
HETATM   17  C   UNL     1      -6.166  19.532  67.787  1.00  0.00    -0.229 C  
HETATM   18  C   UNL     1      -6.614  19.570  69.243  1.00  0.00    -0.339 C  
HETATM   19  O   UNL     1      -5.978  20.663  69.926  1.00  0.00    -0.373 OA 
HETATM   20  C   UNL     1      -8.146  19.694  69.318  1.00  0.00    -0.030 C  
HETATM   21  C   UNL     1      -8.940  18.666  68.434  1.00  0.00    -0.356 C  
HETATM   22  H   UNL     1      -6.258  20.687  70.834  1.00  0.00     0.000 HD 
HETATM   23  C   UNL     1      -8.355  18.372  67.004  1.00  0.00    -0.257 C  
HETATM   24  C   UNL     1      -8.706  19.567  66.083  1.00  0.00    -0.332 C  
ENDROOT
BRANCH   4  25
HETATM   25  C   UNL     1     -10.773   8.885  67.956  1.00  0.00    -0.168 C  
BRANCH  25  26
HETATM   26  C   UNL     1     -10.359   7.698  67.071  1.00  0.00    -0.400 C  
HETATM   27  C   UNL     1      -8.939   7.742  66.453  1.00  0.00    -0.196 C  
HETATM   28  C   UNL     1      -8.753   6.532  65.517  1.00  0.00    -0.063 C  
HETATM   29  C   UNL     1      -7.781   7.733  67.451  1.00  0.00    -0.113 C  
ENDBRANCH  25  26
ENDBRANCH   4  25
TORSDOF 2
ENDMDL
MODEL       27
REMARK 921   NORMALIZED FREE ENERGY PREDICTED BY IDOCK:   -6.03 KCAL/MOL
REMARK 922        TOTAL FREE ENERGY PREDICTED BY IDOCK:   -6.98 KCAL/MOL
REMARK 923 INTER-LIGAND FREE ENERGY PREDICTED BY IDOCK:   -6.70 KCAL/MOL
REMARK 924 INTRA-LIGAND FREE ENERGY PREDICTED BY IDOCK:   -0.28 KCAL/MOL
REMARK 927      BINDING AFFINITY PREDICTED BY RF-SCORE:    0.00 PKD
ROOT
HETATM    1  C   UNL     1     -11.290  11.505  67.669  1.00  0.00    -0.358 C  
HETATM    2  C   UNL     1     -10.811  10.027  68.445  1.00  0.00    -0.277 C  
HETATM    3  C   UNL     1     -10.796  12.545  68.648  1.00  0.00    -0.280 C  
HETATM    4  C   UNL     1     -10.781   8.621  67.732  1.00  0.00    -0.178 C  
HETATM    5  C   UNL     1      -9.323  12.599  68.206  1.00  0.00    -0.195 C  
HETATM    6  C   UNL     1      -9.611  10.044  69.459  1.00  0.00    -0.249 C  
HETATM    7  C   UNL     1      -9.408  13.000  66.728  1.00  0.00    -0.244 C  
HETATM    8  C   UNL     1     -10.709  11.175  65.218  1.00  0.00    -0.271 C  
HETATM    9  C   UNL     1     -10.748  12.278  66.298  1.00  0.00    -0.293 C  
HETATM   10  C   UNL     1      -9.262  14.557  66.878  1.00  0.00    -0.267 C  
HETATM   11  C   UNL     1     -11.588  13.429  65.565  1.00  0.00    -0.346 C  
HETATM   12  C   UNL     1      -7.759  14.895  66.861  1.00  0.00     0.062 C  
HETATM   13  C   UNL     1     -11.525  14.925  66.001  1.00  0.00    -0.275 C  
HETATM   14  C   UNL     1     -10.093  15.499  66.036  1.00  0.00    -0.354 C  
HETATM   15  C   UNL     1      -7.459  16.359  66.857  1.00  0.00    -0.269 C  
HETATM   16  C   UNL     1      -8.401  17.305  66.765  1.00  0.00    -0.276 C  
HETATM   17  C   UNL     1      -8.010  18.697  67.193  1.00  0.00    -0.249 C  
HETATM   18  C   UNL     1      -8.470  18.809  68.642  1.00  0.00    -0.329 C  
HETATM   19  O   UNL     1      -8.083  20.082  69.185  1.00  0.00    -0.043 OA 
HETATM   20  C   UNL     1      -9.995  18.619  68.724  1.00  0.00    -0.427 C  
HETATM   21  C   UNL     1     -10.549  17.353  67.977  1.00  0.00    -0.389 C  
HETATM   22  H   UNL     1      -8.371  20.152  70.088  1.00  0.00     0.000 HD 
HETATM   23  C   UNL     1      -9.901  17.024  66.582  1.00  0.00    -0.297 C  
HETATM   24  C   UNL     1     -10.485  18.004  65.534  1.00  0.00     0.031 C  
ENDROOT
BRANCH   4  25
HETATM   25  C   UNL     1     -10.298   7.417  68.656  1.00  0.00    -0.215 C  
BRANCH  25  26
HETATM   26  C   UNL     1      -9.174   6.552  68.063  1.00  0.00    -0.111 C  
HETATM   27  C   UNL     1      -9.577   5.168  67.495  1.00  0.00    -0.159 C  
HETATM   28  C   UNL     1      -8.310   4.410  67.053  1.00  0.00    -0.101 C  
HETATM   29  C   UNL     1     -10.536   5.194  66.304  1.00  0.00    -0.341 C  
ENDBRANCH  25  26
ENDBRANCH   4  25
TORSDOF 2
ENDMDL
MODEL       28
REMARK 921   NORMALIZED FREE ENERGY PREDICTED BY IDOCK:   -5.97 KCAL/MOL
REMARK 922        TOTAL FREE ENERGY PREDICTED BY IDOCK:   -6.92 KCAL/MOL
REMARK 923 INTER-LIGAND FREE ENERGY PREDICTED BY IDOCK:   -6.59 KCAL/MOL
REMARK 924 INTRA-LIGAND FREE ENERGY PREDICTED BY IDOCK:   -0.32 KCAL/MOL
REMARK 927      BINDING AFFINITY PREDICTED BY RF-SCORE:    0.00 PKD
ROOT
HETATM    1  C   UNL     1      -9.448  11.327  68.555  1.00  0.00    -0.191 C  
HETATM    2  C   UNL     1     -10.666  12.397  69.180  1.00  0.00    -0.081 C  
HETATM    3  C   UNL     1      -9.652  10.093  69.405  1.00  0.00    -0.249 C  
HETATM    4  C   UNL     1     -11.136  13.719  68.462  1.00  0.00    -0.292 C  
HETATM    5  C   UNL     1     -10.828   9.471  68.632  1.00  0.00    -0.177 C  
HETATM    6  C   UNL     1     -11.932  11.792  69.887  1.00  0.00    -0.405 C  
HETATM    7  C   UNL     1     -10.264   9.273  67.220  1.00  0.00    -0.315 C  
HETATM    8  C   UNL     1      -9.571  11.601  66.032  1.00  0.00    -0.249 C  
HETATM    9  C   UNL     1      -9.300  10.523  67.104  1.00  0.00    -0.173 C  
HETATM   10  C   UNL     1      -9.763   7.791  67.351  1.00  0.00    -0.211 C  
HETATM   11  C   UNL     1      -7.915   9.896  66.601  1.00  0.00    -0.113 C  
HETATM   12  C   UNL     1     -10.936   6.861  66.989  1.00  0.00    -0.404 C  
HETATM   13  C   UNL     1      -7.428   8.478  67.029  1.00  0.00    -0.084 C  
HETATM   14  C   UNL     1      -8.449   7.359  66.736  1.00  0.00    -0.124 C  
HETATM   15  C   UNL     1     -10.576   5.412  66.933  1.00  0.00    -0.320 C  
HETATM   16  C   UNL     1      -9.326   4.955  67.073  1.00  0.00    -0.136 C  
HETATM   17  C   UNL     1      -9.170   3.495  67.416  1.00  0.00    -0.226 C  
HETATM   18  C   UNL     1      -9.030   3.458  68.934  1.00  0.00    -0.128 C  
HETATM   19  O   UNL     1      -8.946   2.096  69.387  1.00  0.00    -0.082 OA 
HETATM   20  C   UNL     1      -7.788   4.257  69.366  1.00  0.00    -0.057 C  
HETATM   21  C   UNL     1      -7.679   5.699  68.753  1.00  0.00    -0.089 C  
HETATM   22  H   UNL     1      -8.858   2.073  70.333  1.00  0.00     0.000 HD 
HETATM   23  C   UNL     1      -8.088   5.851  67.241  1.00  0.00    -0.102 C  
HETATM   24  C   UNL     1      -6.932   5.299  66.370  1.00  0.00    -0.067 C  
ENDROOT
BRANCH   4  25
HETATM   25  C   UNL     1     -12.273  14.527  69.234  1.00  0.00    -0.264 C  
BRANCH  25  26
HETATM   26  C   UNL     1     -11.810  15.233  70.518  1.00  0.00    -0.363 C  
HETATM   27  C   UNL     1     -12.878  15.469  71.615  1.00  0.00    -0.518 C  
HETATM   28  C   UNL     1     -12.255  16.283  72.766  1.00  0.00    -0.592 C  
HETATM   29  C   UNL     1     -13.493  14.209  72.224  1.00  0.00    -0.578 C  
ENDBRANCH  25  26
ENDBRANCH   4  25
TORSDOF 2
ENDMDL
MODEL       29
REMARK 921   NORMALIZED FREE ENERGY PREDICTED BY IDOCK:   -5.92 KCAL/MOL
REMARK 922        TOTAL FREE ENERGY PREDICTED BY IDOCK:   -6.85 KCAL/MOL
REMARK 923 INTER-LIGAND FREE ENERGY PREDICTED BY IDOCK:   -6.34 KCAL/MOL
REMARK 924 INTRA-LIGAND FREE ENERGY PREDICTED BY IDOCK:   -0.52 KCAL/MOL
REMARK 927      BINDING AFFINITY PREDICTED BY RF-SCORE:    0.00 PKD
ROOT
HETATM    1  C   UNL     1      -8.442   7.940  67.114  1.00  0.00    -0.117 C  
HETATM    2  C   UNL     1      -7.473   6.800  66.232  1.00  0.00    -0.077 C  
HETATM    3  C   UNL     1      -7.817   9.257  66.712  1.00  0.00    -0.104 C  
HETATM    4  C   UNL     1      -7.863   5.288  66.013  1.00  0.00    -0.103 C  
HETATM    5  C   UNL     1      -8.528   9.448  65.361  1.00  0.00    -0.159 C  
HETATM    6  C   UNL     1      -6.728   7.267  64.930  1.00  0.00    -0.047 C  
HETATM    7  C   UNL     1     -10.015   9.455  65.737  1.00  0.00    -0.278 C  
HETATM    8  C   UNL     1     -10.831   7.122  66.832  1.00  0.00    -0.307 C  
HETATM    9  C   UNL     1     -10.023   8.434  66.946  1.00  0.00    -0.341 C  
HETATM   10  C   UNL     1     -10.230  11.002  65.898  1.00  0.00    -0.309 C  
HETATM   11  C   UNL     1     -10.814   9.211  68.102  1.00  0.00    -0.118 C  
HETATM   12  C   UNL     1     -10.599  11.575  64.516  1.00  0.00    -0.387 C  
HETATM   13  C   UNL     1     -10.726  10.757  68.290  1.00  0.00    -0.253 C  
HETATM   14  C   UNL     1     -11.083  11.555  67.019  1.00  0.00    -0.365 C  
HETATM   15  C   UNL     1     -10.971  13.022  64.531  1.00  0.00    -0.381 C  
HETATM   16  C   UNL     1     -11.085  13.744  65.652  1.00  0.00    -0.297 C  
HETATM   17  C   UNL     1     -11.043  15.244  65.501  1.00  0.00    -0.330 C  
HETATM   18  C   UNL     1      -9.591  15.628  65.764  1.00  0.00    -0.326 C  
HETATM   19  O   UNL     1      -9.415  17.042  65.577  1.00  0.00    -0.496 OA 
HETATM   20  C   UNL     1      -9.187  15.209  67.188  1.00  0.00    -0.226 C  
HETATM   21  C   UNL     1      -9.531  13.724  67.568  1.00  0.00    -0.220 C  
HETATM   22  H   UNL     1      -8.509  17.281  65.741  1.00  0.00     0.000 HD 
HETATM   23  C   UNL     1     -10.920  13.177  67.071  1.00  0.00    -0.289 C  
HETATM   24  C   UNL     1     -12.024  13.758  67.989  1.00  0.00    -0.390 C  
ENDROOT
BRANCH   4  25
HETATM   25  C   UNL     1      -6.810   4.446  65.163  1.00  0.00    -0.053 C  
BRANCH  25  26
HETATM   26  C   UNL     1      -7.426   3.447  64.171  1.00  0.00    -0.074 C  
HETATM   27  C   UNL     1      -8.655   3.927  63.360  1.00  0.00    -0.096 C  
HETATM   28  C   UNL     1      -9.194   2.759  62.511  1.00  0.00    -0.087 C  
HETATM   29  C   UNL     1      -8.408   5.105  62.417  1.00  0.00    -0.106 C  
ENDBRANCH  25  26
ENDBRANCH   4  25
TORSDOF 2
ENDMDL
MODEL       30
REMARK 921   NORMALIZED FREE ENERGY PREDICTED BY IDOCK:   -5.89 KCAL/MOL
REMARK 922        TOTAL FREE ENERGY PREDICTED BY IDOCK:   -6.83 KCAL/MOL
REMARK 923 INTER-LIGAND FREE ENERGY PREDICTED BY IDOCK:   -6.52 KCAL/MOL
REMARK 924 INTRA-LIGAND FREE ENERGY PREDICTED BY IDOCK:   -0.31 KCAL/MOL
REMARK 927      BINDING AFFINITY PREDICTED BY RF-SCORE:    0.00 PKD
ROOT
HETATM    1  C   UNL     1      -9.958  13.299  68.229  1.00  0.00    -0.236 C  
HETATM    2  C   UNL     1      -9.376  11.725  67.779  1.00  0.00    -0.181 C  
HETATM    3  C   UNL     1      -8.674  14.021  68.568  1.00  0.00    -0.156 C  
HETATM    4  C   UNL     1     -10.239  10.643  67.025  1.00  0.00    -0.267 C  
HETATM    5  C   UNL     1      -8.243  14.408  67.142  1.00  0.00    -0.202 C  
HETATM    6  C   UNL     1      -7.902  11.570  67.257  1.00  0.00    -0.153 C  
HETATM    7  C   UNL     1      -9.416  15.252  66.630  1.00  0.00    -0.281 C  
HETATM    8  C   UNL     1     -11.730  13.860  66.497  1.00  0.00    -0.414 C  
HETATM    9  C   UNL     1     -10.634  14.539  67.347  1.00  0.00    -0.271 C  
HETATM   10  C   UNL     1      -8.890  16.680  67.014  1.00  0.00    -0.220 C  
HETATM   11  C   UNL     1     -11.441  15.744  68.027  1.00  0.00    -0.264 C  
HETATM   12  C   UNL     1      -8.034  17.200  65.843  1.00  0.00    -0.019 C  
HETATM   13  C   UNL     1     -10.736  17.012  68.599  1.00  0.00    -0.333 C  
HETATM   14  C   UNL     1      -9.826  17.727  67.578  1.00  0.00    -0.304 C  
HETATM   15  C   UNL     1      -7.572  18.613  66.001  1.00  0.00    -0.236 C  
HETATM   16  C   UNL     1      -7.950  19.406  67.010  1.00  0.00    -0.287 C  
HETATM   17  C   UNL     1      -7.099  20.622  67.275  1.00  0.00    -0.385 C  
HETATM   18  C   UNL     1      -6.131  20.197  68.373  1.00  0.00    -0.279 C  
HETATM   19  O   UNL     1      -5.214  21.265  68.662  1.00  0.00    -0.429 OA 
HETATM   20  C   UNL     1      -6.914  19.792  69.635  1.00  0.00    -0.251 C  
HETATM   21  C   UNL     1      -8.087  18.776  69.392  1.00  0.00     0.213 C  
HETATM   22  H   UNL     1      -4.610  21.000  69.347  1.00  0.00     0.000 HD 
HETATM   23  C   UNL     1      -8.956  19.004  68.101  1.00  0.00    -0.355 C  
HETATM   24  C   UNL     1      -9.921  20.185  68.371  1.00  0.00    -0.410 C  
ENDROOT
BRANCH   4  25
HETATM   25  C   UNL     1      -9.476   9.279  66.718  1.00  0.00    -0.228 C  
BRANCH  25  26
HETATM   26  C   UNL     1      -9.397   8.898  65.232  1.00  0.00    -0.095 C  
HETATM   27  C   UNL     1      -8.346   9.640  64.369  1.00  0.00    -0.171 C  
HETATM   28  C   UNL     1      -8.496   9.206  62.898  1.00  0.00    -0.209 C  
HETATM   29  C   UNL     1      -6.887   9.420  64.767  1.00  0.00    -0.094 C  
ENDBRANCH  25  26
ENDBRANCH   4  25
TORSDOF 2
ENDMDL
MODEL       31
REMARK 921   NORMALIZED FREE ENERGY PREDICTED BY IDOCK:   -5.89 KCAL/MOL
REMARK 922        TOTAL FREE ENERGY PREDICTED BY IDOCK:   -6.83 KCAL/MOL
REMARK 923 INTER-LIGAND FREE ENERGY PREDICTED BY IDOCK:   -6.36 KCAL/MOL
REMARK 924 INTRA-LIGAND FREE ENERGY PREDICTED BY IDOCK:   -0.47 KCAL/MOL
REMARK 927      BINDING AFFINITY PREDICTED BY RF-SCORE:    0.00 PKD
ROOT
HETATM    1  C   UNL     1     -11.041   7.486  70.180  1.00  0.00    -0.246 C  
HETATM    2  C   UNL     1     -10.890   6.919  71.815  1.00  0.00    -0.253 C  
HETATM    3  C   UNL     1     -11.399   8.940  70.386  1.00  0.00    -0.229 C  
HETATM    4  C   UNL     1     -10.220   5.552  72.221  1.00  0.00    -0.244 C  
HETATM    5  C   UNL     1      -9.983   9.495  70.621  1.00  0.00    -0.342 C  
HETATM    6  C   UNL     1     -10.551   7.944  72.956  1.00  0.00    -0.406 C  
HETATM    7  C   UNL     1      -9.235   9.125  69.335  1.00  0.00    -0.156 C  
HETATM    8  C   UNL     1      -9.072   6.455  68.948  1.00  0.00    -0.129 C  
HETATM    9  C   UNL     1      -9.921   7.745  68.976  1.00  0.00    -0.182 C  
HETATM   10  C   UNL     1      -9.455  10.450  68.521  1.00  0.00    -0.159 C  
HETATM   11  C   UNL     1     -10.328   7.907  67.435  1.00  0.00    -0.349 C  
HETATM   12  C   UNL     1      -8.314  11.421  68.879  1.00  0.00    -0.042 C  
HETATM   13  C   UNL     1     -10.776   9.268  66.821  1.00  0.00    -0.120 C  
HETATM   14  C   UNL     1      -9.759  10.409  67.039  1.00  0.00    -0.216 C  
HETATM   15  C   UNL     1      -8.308  12.682  68.078  1.00  0.00    -0.175 C  
HETATM   16  C   UNL     1      -9.145  12.915  67.060  1.00  0.00    -0.228 C  
HETATM   17  C   UNL     1      -9.312  14.351  66.633  1.00  0.00    -0.297 C  
HETATM   18  C   UNL     1     -10.555  14.841  67.367  1.00  0.00    -0.268 C  
HETATM   19  O   UNL     1     -10.775  16.234  67.090  1.00  0.00    -0.309 OA 
HETATM   20  C   UNL     1     -11.775  14.000  66.952  1.00  0.00    -0.435 C  
HETATM   21  C   UNL     1     -11.567  12.445  67.022  1.00  0.00    -0.434 C  
HETATM   22  H   UNL     1     -11.550  16.539  67.548  1.00  0.00     0.000 HD 
HETATM   23  C   UNL     1     -10.174  11.902  66.532  1.00  0.00    -0.232 C  
HETATM   24  C   UNL     1     -10.166  11.921  64.983  1.00  0.00    -0.316 C  
ENDROOT
BRANCH   4  25
HETATM   25  C   UNL     1     -10.198   5.261  73.788  1.00  0.00    -0.250 C  
BRANCH  25  26
HETATM   26  C   UNL     1      -8.871   4.706  74.328  1.00  0.00    -0.109 C  
HETATM   27  C   UNL     1      -7.569   5.242  73.681  1.00  0.00    -0.095 C  
HETATM   28  C   UNL     1      -6.360   4.491  74.272  1.00  0.00    -0.055 C  
HETATM   29  C   UNL     1      -7.310   6.738  73.855  1.00  0.00    -0.082 C  
ENDBRANCH  25  26
ENDBRANCH   4  25
TORSDOF 2
ENDMDL
MODEL       32
REMARK 921   NORMALIZED FREE ENERGY PREDICTED BY IDOCK:   -5.89 KCAL/MOL
REMARK 922        TOTAL FREE ENERGY PREDICTED BY IDOCK:   -6.82 KCAL/MOL
REMARK 923 INTER-LIGAND FREE ENERGY PREDICTED BY IDOCK:   -6.37 KCAL/MOL
REMARK 924 INTRA-LIGAND FREE ENERGY PREDICTED BY IDOCK:   -0.45 KCAL/MOL
REMARK 927      BINDING AFFINITY PREDICTED BY RF-SCORE:    0.00 PKD
ROOT
HETATM    1  C   UNL     1     -10.004   7.770  69.192  1.00  0.00    -0.182 C  
HETATM    2  C   UNL     1      -9.540   6.927  70.638  1.00  0.00    -0.171 C  
HETATM    3  C   UNL     1     -10.441   9.110  69.739  1.00  0.00    -0.234 C  
HETATM    4  C   UNL     1      -8.702   5.592  70.655  1.00  0.00    -0.138 C  
HETATM    5  C   UNL     1      -9.057   9.768  69.875  1.00  0.00    -0.257 C  
HETATM    6  C   UNL     1      -9.103   7.751  71.902  1.00  0.00    -0.173 C  
HETATM    7  C   UNL     1      -8.502   9.733  68.446  1.00  0.00    -0.114 C  
HETATM    8  C   UNL     1      -8.186   7.219  67.504  1.00  0.00    -0.113 C  
HETATM    9  C   UNL     1      -9.122   8.377  67.916  1.00  0.00    -0.137 C  
HETATM   10  C   UNL     1      -8.962  11.154  67.959  1.00  0.00    -0.149 C  
HETATM   11  C   UNL     1      -9.789   8.778  66.517  1.00  0.00    -0.349 C  
HETATM   12  C   UNL     1      -7.861  12.163  68.338  1.00  0.00    -0.149 C  
HETATM   13  C   UNL     1     -10.442  10.172  66.264  1.00  0.00    -0.192 C  
HETATM   14  C   UNL     1      -9.500  11.358  66.560  1.00  0.00    -0.218 C  
HETATM   15  C   UNL     1      -8.090  13.545  67.818  1.00  0.00    -0.177 C  
HETATM   16  C   UNL     1      -9.100  13.869  67.001  1.00  0.00    -0.259 C  
HETATM   17  C   UNL     1      -9.453  15.331  66.904  1.00  0.00    -0.249 C  
HETATM   18  C   UNL     1     -10.594  15.530  67.895  1.00  0.00    -0.274 C  
HETATM   19  O   UNL     1     -10.970  16.917  67.941  1.00  0.00    -0.342 OA 
HETATM   20  C   UNL     1     -11.792  14.650  67.499  1.00  0.00    -0.375 C  
HETATM   21  C   UNL     1     -11.448  13.143  67.219  1.00  0.00    -0.375 C  
HETATM   22  H   UNL     1     -11.681  17.040  68.559  1.00  0.00     0.000 HD 
HETATM   23  C   UNL     1     -10.115  12.864  66.433  1.00  0.00    -0.272 C  
HETATM   24  C   UNL     1     -10.363  13.174  64.936  1.00  0.00    -0.352 C  
ENDROOT
BRANCH   4  25
HETATM   25  C   UNL     1      -8.399   5.016  72.110  1.00  0.00    -0.124 C  
BRANCH  25  26
HETATM   26  C   UNL     1      -9.111   3.697  72.448  1.00  0.00    -0.141 C  
HETATM   27  C   UNL     1     -10.167   3.737  73.581  1.00  0.00    -0.212 C  
HETATM   28  C   UNL     1     -10.683   2.309  73.847  1.00  0.00    -0.249 C  
HETATM   29  C   UNL     1     -11.384   4.624  73.320  1.00  0.00    -0.393 C  
ENDBRANCH  25  26
ENDBRANCH   4  25
TORSDOF 2
ENDMDL
MODEL       33
REMARK 921   NORMALIZED FREE ENERGY PREDICTED BY IDOCK:   -5.86 KCAL/MOL
REMARK 922        TOTAL FREE ENERGY PREDICTED BY IDOCK:   -6.79 KCAL/MOL
REMARK 923 INTER-LIGAND FREE ENERGY PREDICTED BY IDOCK:   -6.52 KCAL/MOL
REMARK 924 INTRA-LIGAND FREE ENERGY PREDICTED BY IDOCK:   -0.28 KCAL/MOL
REMARK 927      BINDING AFFINITY PREDICTED BY RF-SCORE:    0.00 PKD
ROOT
HETATM    1  C   UNL     1      -9.968  13.585  67.678  1.00  0.00    -0.229 C  
HETATM    2  C   UNL     1     -10.584  14.906  66.733  1.00  0.00    -0.305 C  
HETATM    3  C   UNL     1     -10.849  12.442  67.228  1.00  0.00    -0.279 C  
HETATM    4  C   UNL     1      -9.842  16.284  66.547  1.00  0.00    -0.287 C  
HETATM    5  C   UNL     1     -10.108  12.075  65.931  1.00  0.00    -0.264 C  
HETATM    6  C   UNL     1     -11.323  14.605  65.379  1.00  0.00    -0.344 C  
HETATM    7  C   UNL     1      -8.693  11.731  66.412  1.00  0.00    -0.147 C  
HETATM    8  C   UNL     1      -7.441  13.829  67.570  1.00  0.00    -0.182 C  
HETATM    9  C   UNL     1      -8.535  12.740  67.622  1.00  0.00    -0.178 C  
HETATM   10  C   UNL     1      -8.851  10.178  66.583  1.00  0.00    -0.145 C  
HETATM   11  C   UNL     1      -8.027  11.817  68.829  1.00  0.00    -0.063 C  
HETATM   12  C   UNL     1      -8.527   9.518  65.229  1.00  0.00    -0.159 C  
HETATM   13  C   UNL     1      -8.481  10.336  69.005  1.00  0.00    -0.150 C  
HETATM   14  C   UNL     1      -8.229   9.459  67.760  1.00  0.00    -0.114 C  
HETATM   15  C   UNL     1      -8.500   8.024  65.266  1.00  0.00    -0.133 C  
HETATM   16  C   UNL     1      -8.635   7.310  66.390  1.00  0.00    -0.141 C  
HETATM   17  C   UNL     1      -9.009   5.859  66.232  1.00  0.00    -0.153 C  
HETATM   18  C   UNL     1     -10.525   5.822  66.389  1.00  0.00    -0.157 C  
HETATM   19  O   UNL     1     -11.009   4.484  66.186  1.00  0.00    -0.507 OA 
HETATM   20  C   UNL     1     -10.922   6.341  67.783  1.00  0.00    -0.427 C  
HETATM   21  C   UNL     1     -10.273   7.713  68.191  1.00  0.00    -0.236 C  
HETATM   22  H   UNL     1     -11.954   4.461  66.284  1.00  0.00     0.000 HD 
HETATM   23  C   UNL     1      -8.764   7.919  67.796  1.00  0.00    -0.127 C  
HETATM   24  C   UNL     1      -7.891   7.113  68.789  1.00  0.00    -0.122 C  
ENDROOT
BRANCH   4  25
HETATM   25  C   UNL     1     -10.611  17.334  65.627  1.00  0.00    -0.173 C  
BRANCH  25  26
HETATM   26  C   UNL     1     -10.702  18.757  66.200  1.00  0.00    -0.320 C  
HETATM   27  C   UNL     1      -9.442  19.312  66.910  1.00  0.00    -0.386 C  
HETATM   28  C   UNL     1      -9.763  20.694  67.511  1.00  0.00    -0.509 C  
HETATM   29  C   UNL     1      -8.201  19.470  66.031  1.00  0.00    -0.280 C  
ENDBRANCH  25  26
ENDBRANCH   4  25
TORSDOF 2
ENDMDL
MODEL       34
REMARK 921   NORMALIZED FREE ENERGY PREDICTED BY IDOCK:   -5.77 KCAL/MOL
REMARK 922        TOTAL FREE ENERGY PREDICTED BY IDOCK:   -6.69 KCAL/MOL
REMARK 923 INTER-LIGAND FREE ENERGY PREDICTED BY IDOCK:   -6.41 KCAL/MOL
REMARK 924 INTRA-LIGAND FREE ENERGY PREDICTED BY IDOCK:   -0.28 KCAL/MOL
REMARK 927      BINDING AFFINITY PREDICTED BY RF-SCORE:    0.00 PKD
ROOT
HETATM    1  C   UNL     1      -9.141  11.559  66.427  1.00  0.00    -0.206 C  
HETATM    2  C   UNL     1     -10.307  12.812  66.127  1.00  0.00    -0.283 C  
HETATM    3  C   UNL     1      -9.678  10.930  67.692  1.00  0.00    -0.188 C  
HETATM    4  C   UNL     1     -10.438  13.592  64.764  1.00  0.00    -0.436 C  
HETATM    5  C   UNL     1     -10.742  10.015  67.063  1.00  0.00    -0.248 C  
HETATM    6  C   UNL     1     -11.760  12.664  66.705  1.00  0.00    -0.460 C  
HETATM    7  C   UNL     1      -9.932   9.122  66.116  1.00  0.00    -0.338 C  
HETATM    8  C   UNL     1      -8.705  10.516  64.152  1.00  0.00    -0.180 C  
HETATM    9  C   UNL     1      -8.806  10.129  65.643  1.00  0.00    -0.185 C  
HETATM   10  C   UNL     1      -9.671   7.905  67.074  1.00  0.00    -0.269 C  
HETATM   11  C   UNL     1      -7.444   9.317  65.869  1.00  0.00    -0.095 C  
HETATM   12  C   UNL     1     -10.859   6.933  66.939  1.00  0.00    -0.380 C  
HETATM   13  C   UNL     1      -7.249   8.307  67.041  1.00  0.00    -0.083 C  
HETATM   14  C   UNL     1      -8.329   7.206  67.094  1.00  0.00    -0.118 C  
HETATM   15  C   UNL     1     -10.691   5.652  67.691  1.00  0.00    -0.260 C  
HETATM   16  C   UNL     1      -9.570   5.317  68.338  1.00  0.00    -0.176 C  
HETATM   17  C   UNL     1      -9.685   4.231  69.378  1.00  0.00    -0.257 C  
HETATM   18  C   UNL     1      -9.865   4.968  70.701  1.00  0.00    -0.212 C  
HETATM   19  O   UNL     1     -10.059   4.024  71.768  1.00  0.00    -0.180 OA 
HETATM   20  C   UNL     1      -8.644   5.862  70.975  1.00  0.00    -0.131 C  
HETATM   21  C   UNL     1      -8.218   6.791  69.782  1.00  0.00    -0.127 C  
HETATM   22  H   UNL     1     -10.171   4.483  72.592  1.00  0.00     0.000 HD 
HETATM   23  C   UNL     1      -8.284   6.160  68.343  1.00  0.00    -0.115 C  
HETATM   24  C   UNL     1      -7.058   5.229  68.168  1.00  0.00    -0.066 C  
ENDROOT
BRANCH   4  25
HETATM   25  C   UNL     1     -11.591  14.692  64.736  1.00  0.00    -0.418 C  
BRANCH  25  26
HETATM   26  C   UNL     1     -11.099  16.149  64.718  1.00  0.00    -0.345 C  
HETATM   27  C   UNL     1     -10.744  16.789  66.083  1.00  0.00    -0.116 C  
HETATM   28  C   UNL     1     -10.383  18.272  65.871  1.00  0.00    -0.297 C  
HETATM   29  C   UNL     1      -9.585  16.138  66.838  1.00  0.00    -0.243 C  
ENDBRANCH  25  26
ENDBRANCH   4  25
TORSDOF 2
ENDMDL
MODEL       35
REMARK 921   NORMALIZED FREE ENERGY PREDICTED BY IDOCK:   -5.77 KCAL/MOL
REMARK 922        TOTAL FREE ENERGY PREDICTED BY IDOCK:   -6.68 KCAL/MOL
REMARK 923 INTER-LIGAND FREE ENERGY PREDICTED BY IDOCK:   -6.35 KCAL/MOL
REMARK 924 INTRA-LIGAND FREE ENERGY PREDICTED BY IDOCK:   -0.34 KCAL/MOL
REMARK 927      BINDING AFFINITY PREDICTED BY RF-SCORE:    0.00 PKD
ROOT
HETATM    1  C   UNL     1     -10.174   8.979  71.208  1.00  0.00    -0.384 C  
HETATM    2  C   UNL     1      -9.400   7.424  71.176  1.00  0.00    -0.156 C  
HETATM    3  C   UNL     1      -9.222   9.818  70.385  1.00  0.00    -0.169 C  
HETATM    4  C   UNL     1     -10.099   6.078  71.603  1.00  0.00    -0.227 C  
HETATM    5  C   UNL     1      -9.715   9.418  68.984  1.00  0.00    -0.166 C  
HETATM    6  C   UNL     1      -8.427   7.073  69.994  1.00  0.00    -0.140 C  
HETATM    7  C   UNL     1     -11.192   9.828  68.993  1.00  0.00    -0.080 C  
HETATM    8  C   UNL     1     -12.640   8.489  70.842  1.00  0.00     0.051 C  
HETATM    9  C   UNL     1     -11.570   9.550  70.505  1.00  0.00    -0.316 C  
HETATM   10  C   UNL     1     -11.063  11.265  68.373  1.00  0.00    -0.296 C  
HETATM   11  C   UNL     1     -12.286  10.904  70.978  1.00  0.00    -0.464 C  
HETATM   12  C   UNL     1     -11.134  11.127  66.840  1.00  0.00    -0.313 C  
HETATM   13  C   UNL     1     -11.867  12.308  70.446  1.00  0.00    -0.259 C  
HETATM   14  C   UNL     1     -11.886  12.417  68.906  1.00  0.00    -0.350 C  
HETATM   15  C   UNL     1     -11.163  12.430  66.108  1.00  0.00    -0.364 C  
HETATM   16  C   UNL     1     -11.233  13.619  66.718  1.00  0.00    -0.327 C  
HETATM   17  C   UNL     1     -10.831  14.824  65.906  1.00  0.00    -0.331 C  
HETATM   18  C   UNL     1      -9.369  15.070  66.259  1.00  0.00    -0.307 C  
HETATM   19  O   UNL     1      -8.852  16.164  65.482  1.00  0.00    -0.239 OA 
HETATM   20  C   UNL     1      -9.234  15.356  67.765  1.00  0.00    -0.183 C  
HETATM   21  C   UNL     1      -9.950  14.320  68.705  1.00  0.00    -0.205 C  
HETATM   22  H   UNL     1      -7.941  16.317  65.703  1.00  0.00     0.000 HD 
HETATM   23  C   UNL     1     -11.362  13.809  68.238  1.00  0.00    -0.317 C  
HETATM   24  C   UNL     1     -12.399  14.922  68.531  1.00  0.00     0.059 C  
ENDROOT
BRANCH   4  25
HETATM   25  C   UNL     1      -9.180   4.782  71.479  1.00  0.00    -0.186 C  
BRANCH  25  26
HETATM   26  C   UNL     1      -9.644   3.753  70.436  1.00  0.00    -0.262 C  
HETATM   27  C   UNL     1      -8.793   3.623  69.148  1.00  0.00    -0.157 C  
HETATM   28  C   UNL     1      -9.475   2.631  68.185  1.00  0.00    -0.217 C  
HETATM   29  C   UNL     1      -7.353   3.151  69.350  1.00  0.00    -0.045 C  
ENDBRANCH  25  26
ENDBRANCH   4  25
TORSDOF 2
ENDMDL
MODEL       36
REMARK 921   NORMALIZED FREE ENERGY PREDICTED BY IDOCK:   -5.68 KCAL/MOL
REMARK 922        TOTAL FREE ENERGY PREDICTED BY IDOCK:   -6.58 KCAL/MOL
REMARK 923 INTER-LIGAND FREE ENERGY PREDICTED BY IDOCK:   -6.07 KCAL/MOL
REMARK 924 INTRA-LIGAND FREE ENERGY PREDICTED BY IDOCK:   -0.51 KCAL/MOL
REMARK 927      BINDING AFFINITY PREDICTED BY RF-SCORE:    0.00 PKD
ROOT
HETATM    1  C   UNL     1      -9.174  11.123  67.189  1.00  0.00    -0.165 C  
HETATM    2  C   UNL     1     -10.217  12.485  66.918  1.00  0.00    -0.237 C  
HETATM    3  C   UNL     1      -9.493  10.767  68.623  1.00  0.00    -0.188 C  
HETATM    4  C   UNL     1     -10.548  13.078  65.496  1.00  0.00    -0.297 C  
HETATM    5  C   UNL     1     -10.772   9.947  68.379  1.00  0.00    -0.271 C  
HETATM    6  C   UNL     1     -11.516  12.645  67.787  1.00  0.00    -0.375 C  
HETATM    7  C   UNL     1     -10.303   8.816  67.456  1.00  0.00    -0.334 C  
HETATM    8  C   UNL     1      -9.375   9.717  65.082  1.00  0.00    -0.322 C  
HETATM    9  C   UNL     1      -9.194   9.563  66.608  1.00  0.00    -0.190 C  
HETATM   10  C   UNL     1      -9.987   7.720  68.536  1.00  0.00    -0.193 C  
HETATM   11  C   UNL     1      -7.924   8.591  66.694  1.00  0.00    -0.100 C  
HETATM   12  C   UNL     1     -11.284   6.933  68.804  1.00  0.00    -0.095 C  
HETATM   13  C   UNL     1      -7.601   7.737  67.958  1.00  0.00    -0.120 C  
HETATM   14  C   UNL     1      -8.768   6.833  68.408  1.00  0.00    -0.123 C  
HETATM   15  C   UNL     1     -11.113   5.759  69.713  1.00  0.00    -0.318 C  
HETATM   16  C   UNL     1      -9.925   5.349  70.174  1.00  0.00    -0.301 C  
HETATM   17  C   UNL     1      -9.940   4.451  71.384  1.00  0.00    -0.248 C  
HETATM   18  C   UNL     1      -9.737   5.383  72.573  1.00  0.00    -0.152 C  
HETATM   19  O   UNL     1      -9.805   4.639  73.800  1.00  0.00    -0.136 OA 
HETATM   20  C   UNL     1      -8.386   6.109  72.446  1.00  0.00    -0.115 C  
HETATM   21  C   UNL     1      -8.123   6.786  71.053  1.00  0.00    -0.115 C  
HETATM   22  H   UNL     1      -9.678   5.221  74.541  1.00  0.00     0.000 HD 
HETATM   23  C   UNL     1      -8.577   5.977  69.783  1.00  0.00    -0.130 C  
HETATM   24  C   UNL     1      -7.541   4.854  69.530  1.00  0.00    -0.056 C  
ENDROOT
BRANCH   4  25
HETATM   25  C   UNL     1     -11.538  14.327  65.510  1.00  0.00    -0.338 C  
BRANCH  25  26
HETATM   26  C   UNL     1     -10.865  15.692  65.294  1.00  0.00    -0.420 C  
HETATM   27  C   UNL     1     -10.772  16.633  66.522  1.00  0.00    -0.127 C  
HETATM   28  C   UNL     1     -10.173  17.984  66.084  1.00  0.00    -0.364 C  
HETATM   29  C   UNL     1      -9.933  16.116  67.690  1.00  0.00    -0.241 C  
ENDBRANCH  25  26
ENDBRANCH   4  25
TORSDOF 2
ENDMDL
MODEL       37
REMARK 921   NORMALIZED FREE ENERGY PREDICTED BY IDOCK:   -5.66 KCAL/MOL
REMARK 922        TOTAL FREE ENERGY PREDICTED BY IDOCK:   -6.56 KCAL/MOL
REMARK 923 INTER-LIGAND FREE ENERGY PREDICTED BY IDOCK:   -6.19 KCAL/MOL
REMARK 924 INTRA-LIGAND FREE ENERGY PREDICTED BY IDOCK:   -0.37 KCAL/MOL
REMARK 927      BINDING AFFINITY PREDICTED BY RF-SCORE:    0.00 PKD
ROOT
HETATM    1  C   UNL     1      -8.914  11.222  66.294  1.00  0.00    -0.204 C  
HETATM    2  C   UNL     1      -9.776  12.637  66.813  1.00  0.00    -0.240 C  
HETATM    3  C   UNL     1      -8.832  10.421  67.574  1.00  0.00    -0.134 C  
HETATM    4  C   UNL     1     -10.432  13.684  65.833  1.00  0.00    -0.297 C  
HETATM    5  C   UNL     1     -10.231   9.782  67.538  1.00  0.00    -0.271 C  
HETATM    6  C   UNL     1     -10.711  12.551  68.072  1.00  0.00    -0.242 C  
HETATM    7  C   UNL     1     -10.236   9.006  66.216  1.00  0.00    -0.237 C  
HETATM    8  C   UNL     1      -9.951  10.608  64.058  1.00  0.00    -0.401 C  
HETATM    9  C   UNL     1      -9.340   9.947  65.312  1.00  0.00    -0.309 C  
HETATM   10  C   UNL     1      -9.774   7.601  66.743  1.00  0.00    -0.290 C  
HETATM   11  C   UNL     1      -8.262   8.951  64.670  1.00  0.00    -0.163 C  
HETATM   12  C   UNL     1     -11.030   6.822  67.180  1.00  0.00    -0.458 C  
HETATM   13  C   UNL     1      -7.701   7.712  65.433  1.00  0.00    -0.104 C  
HETATM   14  C   UNL     1      -8.797   6.758  65.953  1.00  0.00    -0.127 C  
HETATM   15  C   UNL     1     -10.767   5.407  67.579  1.00  0.00    -0.143 C  
HETATM   16  C   UNL     1      -9.570   4.819  67.470  1.00  0.00    -0.190 C  
HETATM   17  C   UNL     1      -9.350   3.569  68.284  1.00  0.00    -0.235 C  
HETATM   18  C   UNL     1      -8.660   4.043  69.558  1.00  0.00    -0.076 C  
HETATM   19  O   UNL     1      -8.462   2.935  70.452  1.00  0.00    -0.053 OA 
HETATM   20  C   UNL     1      -7.319   4.714  69.211  1.00  0.00    -0.052 C  
HETATM   21  C   UNL     1      -7.394   5.806  68.084  1.00  0.00    -0.077 C  
HETATM   22  H   UNL     1      -8.032   3.231  71.246  1.00  0.00     0.000 HD 
HETATM   23  C   UNL     1      -8.327   5.485  66.858  1.00  0.00    -0.108 C  
HETATM   24  C   UNL     1      -7.595   4.470  65.946  1.00  0.00    -0.086 C  
ENDROOT
BRANCH   4  25
HETATM   25  C   UNL     1     -11.173  14.896  66.554  1.00  0.00    -0.335 C  
BRANCH  25  26
HETATM   26  C   UNL     1     -10.252  16.025  67.041  1.00  0.00    -0.282 C  
HETATM   27  C   UNL     1     -10.767  16.898  68.213  1.00  0.00    -0.377 C  
HETATM   28  C   UNL     1      -9.762  18.036  68.481  1.00  0.00    -0.357 C  
HETATM   29  C   UNL     1     -10.995  16.165  69.535  1.00  0.00    -0.341 C  
ENDBRANCH  25  26
ENDBRANCH   4  25
TORSDOF 2
ENDMDL
MODEL       38
REMARK 921   NORMALIZED FREE ENERGY PREDICTED BY IDOCK:   -5.64 KCAL/MOL
REMARK 922        TOTAL FREE ENERGY PREDICTED BY IDOCK:   -6.54 KCAL/MOL
REMARK 923 INTER-LIGAND FREE ENERGY PREDICTED BY IDOCK:   -6.20 KCAL/MOL
REMARK 924 INTRA-LIGAND FREE ENERGY PREDICTED BY IDOCK:   -0.34 KCAL/MOL
REMARK 927      BINDING AFFINITY PREDICTED BY RF-SCORE:    0.00 PKD
ROOT
HETATM    1  C   UNL     1      -8.455  11.105  66.949  1.00  0.00    -0.147 C  
HETATM    2  C   UNL     1      -9.480   9.720  66.728  1.00  0.00    -0.209 C  
HETATM    3  C   UNL     1      -9.284  12.208  66.331  1.00  0.00    -0.207 C  
HETATM    4  C   UNL     1      -9.274   8.340  67.461  1.00  0.00    -0.155 C  
HETATM    5  C   UNL     1     -10.211  12.498  67.524  1.00  0.00    -0.219 C  
HETATM    6  C   UNL     1     -11.030   9.926  66.578  1.00  0.00     0.148 C  
HETATM    7  C   UNL     1      -9.240  12.886  68.646  1.00  0.00     0.036 C  
HETATM    8  C   UNL     1      -7.556  10.880  69.315  1.00  0.00    -0.113 C  
HETATM    9  C   UNL     1      -8.003  11.959  68.305  1.00  0.00    -0.148 C  
HETATM   10  C   UNL     1      -9.244  14.445  68.459  1.00  0.00    -0.198 C  
HETATM   11  C   UNL     1      -6.755  12.964  68.319  1.00  0.00    -0.093 C  
HETATM   12  C   UNL     1     -10.404  15.019  69.294  1.00  0.00    -0.249 C  
HETATM   13  C   UNL     1      -6.864  14.449  67.856  1.00  0.00    -0.178 C  
HETATM   14  C   UNL     1      -7.966  15.245  68.586  1.00  0.00    -0.149 C  
HETATM   15  C   UNL     1     -10.454  16.512  69.329  1.00  0.00    -0.326 C  
HETATM   16  C   UNL     1      -9.519  17.296  68.780  1.00  0.00    -0.256 C  
HETATM   17  C   UNL     1      -9.902  18.731  68.520  1.00  0.00    -0.444 C  
HETATM   18  C   UNL     1     -10.350  18.763  67.063  1.00  0.00    -0.403 C  
HETATM   19  O   UNL     1     -10.811  20.080  66.718  1.00  0.00    -0.374 OA 
HETATM   20  C   UNL     1      -9.191  18.331  66.148  1.00  0.00    -0.135 C  
HETATM   21  C   UNL     1      -8.476  16.996  66.564  1.00  0.00    -0.306 C  
HETATM   22  H   UNL     1     -11.089  20.100  65.810  1.00  0.00     0.000 HD 
HETATM   23  C   UNL     1      -8.239  16.779  68.104  1.00  0.00    -0.199 C  
HETATM   24  C   UNL     1      -7.038  17.656  68.536  1.00  0.00    -0.239 C  
ENDROOT
BRANCH   4  25
HETATM   25  C   UNL     1     -10.352   7.225  67.093  1.00  0.00    -0.367 C  
BRANCH  25  26
HETATM   26  C   UNL     1     -10.225   5.913  67.883  1.00  0.00    -0.225 C  
HETATM   27  C   UNL     1     -10.216   6.019  69.428  1.00  0.00    -0.269 C  
HETATM   28  C   UNL     1      -9.970   4.623  70.033  1.00  0.00    -0.302 C  
HETATM   29  C   UNL     1     -11.492   6.575  70.061  1.00  0.00    -0.476 C  
ENDBRANCH  25  26
ENDBRANCH   4  25
TORSDOF 2
ENDMDL
MODEL       39
REMARK 921   NORMALIZED FREE ENERGY PREDICTED BY IDOCK:   -5.60 KCAL/MOL
REMARK 922        TOTAL FREE ENERGY PREDICTED BY IDOCK:   -6.49 KCAL/MOL
REMARK 923 INTER-LIGAND FREE ENERGY PREDICTED BY IDOCK:   -5.99 KCAL/MOL
REMARK 924 INTRA-LIGAND FREE ENERGY PREDICTED BY IDOCK:   -0.50 KCAL/MOL
REMARK 927      BINDING AFFINITY PREDICTED BY RF-SCORE:    0.00 PKD
ROOT
HETATM    1  C   UNL     1      -9.254  10.513  68.163  1.00  0.00    -0.148 C  
HETATM    2  C   UNL     1     -10.318  11.886  68.168  1.00  0.00    -0.210 C  
HETATM    3  C   UNL     1      -9.330  10.054  69.601  1.00  0.00    -0.242 C  
HETATM    4  C   UNL     1     -10.880  12.578  66.868  1.00  0.00    -0.280 C  
HETATM    5  C   UNL     1     -10.637   9.247  69.517  1.00  0.00    -0.236 C  
HETATM    6  C   UNL     1     -11.451  11.976  69.253  1.00  0.00    -0.361 C  
HETATM    7  C   UNL     1     -10.337   8.188  68.451  1.00  0.00    -0.236 C  
HETATM    8  C   UNL     1      -9.816   9.261  66.025  1.00  0.00    -0.363 C  
HETATM    9  C   UNL     1      -9.382   8.999  67.483  1.00  0.00    -0.159 C  
HETATM   10  C   UNL     1      -9.852   7.019  69.381  1.00  0.00    -0.160 C  
HETATM   11  C   UNL     1      -8.121   8.030  67.286  1.00  0.00    -0.121 C  
HETATM   12  C   UNL     1     -11.091   6.208  69.806  1.00  0.00    -0.486 C  
HETATM   13  C   UNL     1      -7.597   7.090  68.413  1.00  0.00    -0.111 C  
HETATM   14  C   UNL     1      -8.678   6.150  68.987  1.00  0.00    -0.124 C  
HETATM   15  C   UNL     1     -10.777   4.973  70.587  1.00  0.00    -0.040 C  
HETATM   16  C   UNL     1      -9.532   4.537  70.812  1.00  0.00    -0.238 C  
HETATM   17  C   UNL     1      -9.350   3.554  71.940  1.00  0.00    -0.191 C  
HETATM   18  C   UNL     1      -8.944   4.401  73.142  1.00  0.00    -0.115 C  
HETATM   19  O   UNL     1      -8.810   3.571  74.307  1.00  0.00    -0.087 OA 
HETATM   20  C   UNL     1      -7.628   5.141  72.841  1.00  0.00    -0.097 C  
HETATM   21  C   UNL     1      -7.598   5.917  71.476  1.00  0.00    -0.099 C  
HETATM   22  H   UNL     1      -8.556   4.099  75.055  1.00  0.00     0.000 HD 
HETATM   23  C   UNL     1      -8.265   5.199  70.246  1.00  0.00    -0.090 C  
HETATM   24  C   UNL     1      -7.294   4.102  69.743  1.00  0.00    -0.049 C  
ENDROOT
BRANCH   4  25
HETATM   25  C   UNL     1     -11.844  13.817  67.137  1.00  0.00    -0.441 C  
BRANCH  25  26
HETATM   26  C   UNL     1     -11.187  15.198  66.981  1.00  0.00    -0.308 C  
HETATM   27  C   UNL     1     -11.071  16.071  68.255  1.00  0.00    -0.351 C  
HETATM   28  C   UNL     1     -10.494  17.449  67.878  1.00  0.00    -0.383 C  
HETATM   29  C   UNL     1     -10.199  15.498  69.373  1.00  0.00    -0.262 C  
ENDBRANCH  25  26
ENDBRANCH   4  25
TORSDOF 2
ENDMDL
MODEL       40
REMARK 921   NORMALIZED FREE ENERGY PREDICTED BY IDOCK:   -5.54 KCAL/MOL
REMARK 922        TOTAL FREE ENERGY PREDICTED BY IDOCK:   -6.44 KCAL/MOL
REMARK 923 INTER-LIGAND FREE ENERGY PREDICTED BY IDOCK:   -6.26 KCAL/MOL
REMARK 924 INTRA-LIGAND FREE ENERGY PREDICTED BY IDOCK:   -0.17 KCAL/MOL
REMARK 927      BINDING AFFINITY PREDICTED BY RF-SCORE:    0.00 PKD
ROOT
HETATM    1  C   UNL     1     -10.115  12.231  67.310  1.00  0.00    -0.212 C  
HETATM    2  C   UNL     1     -10.714  13.637  66.483  1.00  0.00    -0.284 C  
HETATM    3  C   UNL     1     -10.873  11.119  66.621  1.00  0.00    -0.308 C  
HETATM    4  C   UNL     1     -10.045  15.062  66.561  1.00  0.00    -0.286 C  
HETATM    5  C   UNL     1      -9.982  10.968  65.376  1.00  0.00    -0.313 C  
HETATM    6  C   UNL     1     -11.290  13.487  65.030  1.00  0.00    -0.334 C  
HETATM    7  C   UNL     1      -8.604  10.631  65.960  1.00  0.00    -0.177 C  
HETATM    8  C   UNL     1      -7.611  12.609  67.512  1.00  0.00    -0.160 C  
HETATM    9  C   UNL     1      -8.634  11.472  67.301  1.00  0.00    -0.150 C  
HETATM   10  C   UNL     1      -8.682   9.063  65.908  1.00  0.00    -0.193 C  
HETATM   11  C   UNL     1      -8.195  10.418  68.425  1.00  0.00    -0.114 C  
HETATM   12  C   UNL     1      -8.181   8.610  64.524  1.00  0.00    -0.166 C  
HETATM   13  C   UNL     1      -8.571   8.907  68.356  1.00  0.00    -0.134 C  
HETATM   14  C   UNL     1      -8.139   8.222  67.043  1.00  0.00    -0.104 C  
HETATM   15  C   UNL     1      -8.064   7.128  64.368  1.00  0.00    -0.056 C  
HETATM   16  C   UNL     1      -8.267   6.262  65.368  1.00  0.00    -0.142 C  
HETATM   17  C   UNL     1      -8.532   4.829  64.982  1.00  0.00    -0.137 C  
HETATM   18  C   UNL     1     -10.051   4.698  64.966  1.00  0.00    -0.002 C  
HETATM   19  O   UNL     1     -10.427   3.378  64.538  1.00  0.00    -0.400 OA 
HETATM   20  C   UNL     1     -10.619   5.003  66.364  1.00  0.00    -0.317 C  
HETATM   21  C   UNL     1     -10.102   6.336  67.015  1.00  0.00    -0.225 C  
HETATM   22  H   UNL     1     -11.374   3.296  64.528  1.00  0.00     0.000 HD 
HETATM   23  C   UNL     1      -8.577   6.667  66.818  1.00  0.00    -0.118 C  
HETATM   24  C   UNL     1      -7.761   5.776  67.787  1.00  0.00    -0.097 C  
ENDROOT
BRANCH   4  25
HETATM   25  C   UNL     1     -10.780  16.189  65.707  1.00  0.00    -0.289 C  
BRANCH  25  26
HETATM   26  C   UNL     1     -10.161  17.592  65.813  1.00  0.00    -0.184 C  
HETATM   27  C   UNL     1     -10.654  18.493  66.973  1.00  0.00    -0.421 C  
HETATM   28  C   UNL     1     -10.008  19.886  66.846  1.00  0.00    -0.563 C  
HETATM   29  C   UNL     1     -10.361  17.977  68.382  1.00  0.00    -0.377 C  
ENDBRANCH  25  26
ENDBRANCH   4  25
TORSDOF 2
ENDMDL
MODEL       41
REMARK 921   NORMALIZED FREE ENERGY PREDICTED BY IDOCK:   -5.54 KCAL/MOL
REMARK 922        TOTAL FREE ENERGY PREDICTED BY IDOCK:   -6.43 KCAL/MOL
REMARK 923 INTER-LIGAND FREE ENERGY PREDICTED BY IDOCK:   -6.07 KCAL/MOL
REMARK 924 INTRA-LIGAND FREE ENERGY PREDICTED BY IDOCK:   -0.36 KCAL/MOL
REMARK 927      BINDING AFFINITY PREDICTED BY RF-SCORE:    0.00 PKD
ROOT
HETATM    1  C   UNL     1      -8.379   7.104  66.842  1.00  0.00    -0.118 C  
HETATM    2  C   UNL     1      -8.975   5.486  67.048  1.00  0.00    -0.113 C  
HETATM    3  C   UNL     1      -9.533   7.773  66.130  1.00  0.00    -0.135 C  
HETATM    4  C   UNL     1      -8.329   4.419  68.012  1.00  0.00    -0.096 C  
HETATM    5  C   UNL     1     -10.415   8.078  67.353  1.00  0.00    -0.357 C  
HETATM    6  C   UNL     1     -10.526   5.234  67.070  1.00  0.00    -0.290 C  
HETATM    7  C   UNL     1      -9.518   8.959  68.231  1.00  0.00    -0.150 C  
HETATM    8  C   UNL     1      -7.284   7.683  69.061  1.00  0.00    -0.080 C  
HETATM    9  C   UNL     1      -8.095   8.339  67.922  1.00  0.00    -0.127 C  
HETATM   10  C   UNL     1      -9.983  10.373  67.733  1.00  0.00    -0.203 C  
HETATM   11  C   UNL     1      -7.191   9.612  67.562  1.00  0.00    -0.090 C  
HETATM   12  C   UNL     1     -11.196  10.800  68.583  1.00  0.00    -0.333 C  
HETATM   13  C   UNL     1      -7.755  10.865  66.826  1.00  0.00    -0.141 C  
HETATM   14  C   UNL     1      -8.983  11.489  67.521  1.00  0.00    -0.159 C  
HETATM   15  C   UNL     1     -11.671  12.192  68.319  1.00  0.00    -0.401 C  
HETATM   16  C   UNL     1     -11.043  13.044  67.501  1.00  0.00    -0.297 C  
HETATM   17  C   UNL     1     -11.840  14.225  67.008  1.00  0.00    -0.455 C  
HETATM   18  C   UNL     1     -12.383  13.797  65.649  1.00  0.00    -0.482 C  
HETATM   19  O   UNL     1     -13.226  14.828  65.109  1.00  0.00    -0.236 OA 
HETATM   20  C   UNL     1     -11.218  13.486  64.693  1.00  0.00    -0.377 C  
HETATM   21  C   UNL     1     -10.121  12.522  65.273  1.00  0.00    -0.275 C  
HETATM   22  H   UNL     1     -13.564  14.561  64.262  1.00  0.00     0.000 HD 
HETATM   23  C   UNL     1      -9.720  12.740  66.778  1.00  0.00    -0.243 C  
HETATM   24  C   UNL     1      -8.795  13.980  66.856  1.00  0.00    -0.212 C  
ENDROOT
BRANCH   4  25
HETATM   25  C   UNL     1      -9.065   3.006  68.028  1.00  0.00    -0.226 C  
BRANCH  25  26
HETATM   26  C   UNL     1      -8.680   2.086  69.198  1.00  0.00    -0.122 C  
HETATM   27  C   UNL     1      -8.479   2.754  70.581  1.00  0.00    -0.092 C  
HETATM   28  C   UNL     1      -7.992   1.697  71.591  1.00  0.00    -0.041 C  
HETATM   29  C   UNL     1      -9.716   3.425  71.179  1.00  0.00    -0.222 C  
ENDBRANCH  25  26
ENDBRANCH   4  25
TORSDOF 2
ENDMDL
MODEL       42
REMARK 921   NORMALIZED FREE ENERGY PREDICTED BY IDOCK:   -5.52 KCAL/MOL
REMARK 922        TOTAL FREE ENERGY PREDICTED BY IDOCK:   -6.41 KCAL/MOL
REMARK 923 INTER-LIGAND FREE ENERGY PREDICTED BY IDOCK:   -6.13 KCAL/MOL
REMARK 924 INTRA-LIGAND FREE ENERGY PREDICTED BY IDOCK:   -0.28 KCAL/MOL
REMARK 927      BINDING AFFINITY PREDICTED BY RF-SCORE:    0.00 PKD
ROOT
HETATM    1  C   UNL     1      -9.444  10.930  67.762  1.00  0.00    -0.165 C  
HETATM    2  C   UNL     1     -10.593  12.232  67.783  1.00  0.00    -0.241 C  
HETATM    3  C   UNL     1      -9.514  10.428  69.186  1.00  0.00    -0.220 C  
HETATM    4  C   UNL     1     -11.175  12.922  66.491  1.00  0.00    -0.340 C  
HETATM    5  C   UNL     1     -10.766   9.543  69.058  1.00  0.00    -0.224 C  
HETATM    6  C   UNL     1     -11.747  12.222  68.849  1.00  0.00    -0.380 C  
HETATM    7  C   UNL     1     -10.382   8.534  67.970  1.00  0.00    -0.272 C  
HETATM    8  C   UNL     1      -9.890   9.702  65.582  1.00  0.00    -0.369 C  
HETATM    9  C   UNL     1      -9.464   9.429  67.041  1.00  0.00    -0.200 C  
HETATM   10  C   UNL     1      -9.840   7.373  68.878  1.00  0.00    -0.157 C  
HETATM   11  C   UNL     1      -8.142   8.547  66.841  1.00  0.00    -0.099 C  
HETATM   12  C   UNL     1     -11.032   6.475  69.259  1.00  0.00    -0.389 C  
HETATM   13  C   UNL     1      -7.578   7.611  67.954  1.00  0.00    -0.117 C  
HETATM   14  C   UNL     1      -8.607   6.591  68.484  1.00  0.00    -0.123 C  
HETATM   15  C   UNL     1     -10.654   5.241  70.014  1.00  0.00    -0.300 C  
HETATM   16  C   UNL     1      -9.387   4.879  70.250  1.00  0.00    -0.216 C  
HETATM   17  C   UNL     1      -9.162   3.879  71.356  1.00  0.00    -0.189 C  
HETATM   18  C   UNL     1      -8.830   4.717  72.586  1.00  0.00    -0.114 C  
HETATM   19  O   UNL     1      -8.663   3.866  73.731  1.00  0.00    -0.093 OA 
HETATM   20  C   UNL     1      -7.559   5.546  72.329  1.00  0.00    -0.101 C  
HETATM   21  C   UNL     1      -7.556   6.359  70.985  1.00  0.00    -0.090 C  
HETATM   22  H   UNL     1      -8.456   4.388  74.498  1.00  0.00     0.000 HD 
HETATM   23  C   UNL     1      -8.155   5.633  69.725  1.00  0.00    -0.102 C  
HETATM   24  C   UNL     1      -7.108   4.614  69.211  1.00  0.00    -0.052 C  
ENDROOT
BRANCH   4  25
HETATM   25  C   UNL     1     -12.220  14.091  66.775  1.00  0.00    -0.439 C  
BRANCH  25  26
HETATM   26  C   UNL     1     -11.644  15.316  67.502  1.00  0.00    -0.223 C  
HETATM   27  C   UNL     1     -10.262  15.830  67.028  1.00  0.00    -0.280 C  
HETATM   28  C   UNL     1      -9.806  16.983  67.944  1.00  0.00    -0.269 C  
HETATM   29  C   UNL     1     -10.202  16.337  65.587  1.00  0.00    -0.368 C  
ENDBRANCH  25  26
ENDBRANCH   4  25
TORSDOF 2
ENDMDL
MODEL       43
REMARK 921   NORMALIZED FREE ENERGY PREDICTED BY IDOCK:   -5.48 KCAL/MOL
REMARK 922        TOTAL FREE ENERGY PREDICTED BY IDOCK:   -6.37 KCAL/MOL
REMARK 923 INTER-LIGAND FREE ENERGY PREDICTED BY IDOCK:   -5.95 KCAL/MOL
REMARK 924 INTRA-LIGAND FREE ENERGY PREDICTED BY IDOCK:   -0.41 KCAL/MOL
REMARK 927      BINDING AFFINITY PREDICTED BY RF-SCORE:    0.00 PKD
ROOT
HETATM    1  C   UNL     1     -10.304   8.206  71.632  1.00  0.00    -0.284 C  
HETATM    2  C   UNL     1      -9.545   6.643  71.628  1.00  0.00    -0.167 C  
HETATM    3  C   UNL     1      -9.326   9.029  70.825  1.00  0.00    -0.305 C  
HETATM    4  C   UNL     1     -10.268   5.306  72.047  1.00  0.00    -0.259 C  
HETATM    5  C   UNL     1      -9.790   8.625  69.415  1.00  0.00    -0.184 C  
HETATM    6  C   UNL     1      -8.549   6.274  70.471  1.00  0.00    -0.139 C  
HETATM    7  C   UNL     1     -11.263   9.049  69.388  1.00  0.00     0.102 C  
HETATM    8  C   UNL     1     -12.766   7.737  71.212  1.00  0.00    -0.277 C  
HETATM    9  C   UNL     1     -11.679   8.786  70.892  1.00  0.00    -0.299 C  
HETATM   10  C   UNL     1     -11.105  10.480  68.762  1.00  0.00    -0.315 C  
HETATM   11  C   UNL     1     -12.392  10.149  71.339  1.00  0.00    -0.515 C  
HETATM   12  C   UNL     1     -11.143  10.333  67.229  1.00  0.00    -0.215 C  
HETATM   13  C   UNL     1     -11.947  11.546  70.808  1.00  0.00    -0.317 C  
HETATM   14  C   UNL     1     -11.930  11.644  69.268  1.00  0.00    -0.382 C  
HETATM   15  C   UNL     1     -11.142  11.631  66.487  1.00  0.00    -0.357 C  
HETATM   16  C   UNL     1     -11.214  12.824  67.087  1.00  0.00    -0.336 C  
HETATM   17  C   UNL     1     -10.782  14.020  66.276  1.00  0.00    -0.289 C  
HETATM   18  C   UNL     1      -9.326  14.255  66.662  1.00  0.00    -0.284 C  
HETATM   19  O   UNL     1      -8.781  15.338  65.890  1.00  0.00    -0.387 OA 
HETATM   20  C   UNL     1      -9.223  14.549  68.169  1.00  0.00    -0.195 C  
HETATM   21  C   UNL     1      -9.970  13.527  69.099  1.00  0.00     0.251 C  
HETATM   22  H   UNL     1      -7.873  15.484  66.131  1.00  0.00     0.000 HD 
HETATM   23  C   UNL     1     -11.376  13.027  68.603  1.00  0.00    -0.329 C  
HETATM   24  C   UNL     1     -12.409  14.152  68.864  1.00  0.00    -0.115 C  
ENDROOT
BRANCH   4  25
HETATM   25  C   UNL     1      -9.358   4.001  71.953  1.00  0.00    -0.192 C  
BRANCH  25  26
HETATM   26  C   UNL     1      -8.460   3.745  73.173  1.00  0.00    -0.091 C  
HETATM   27  C   UNL     1      -7.068   3.122  72.904  1.00  0.00    -0.043 C  
HETATM   28  C   UNL     1      -6.368   2.839  74.248  1.00  0.00    -0.020 C  
HETATM   29  C   UNL     1      -6.115   3.968  72.060  1.00  0.00    -0.013 C  
ENDBRANCH  25  26
ENDBRANCH   4  25
TORSDOF 2
ENDMDL
MODEL       44
REMARK 921   NORMALIZED FREE ENERGY PREDICTED BY IDOCK:   -5.38 KCAL/MOL
REMARK 922        TOTAL FREE ENERGY PREDICTED BY IDOCK:   -6.25 KCAL/MOL
REMARK 923 INTER-LIGAND FREE ENERGY PREDICTED BY IDOCK:   -5.94 KCAL/MOL
REMARK 924 INTRA-LIGAND FREE ENERGY PREDICTED BY IDOCK:   -0.31 KCAL/MOL
REMARK 927      BINDING AFFINITY PREDICTED BY RF-SCORE:    0.00 PKD
ROOT
HETATM    1  C   UNL     1      -8.401   7.110  66.816  1.00  0.00    -0.116 C  
HETATM    2  C   UNL     1      -9.025   5.491  66.902  1.00  0.00    -0.111 C  
HETATM    3  C   UNL     1      -9.459   7.808  65.992  1.00  0.00    -0.058 C  
HETATM    4  C   UNL     1      -8.503   4.392  67.904  1.00  0.00    -0.102 C  
HETATM    5  C   UNL     1     -10.478   8.085  67.110  1.00  0.00    -0.408 C  
HETATM    6  C   UNL     1     -10.568   5.251  66.733  1.00  0.00    -0.309 C  
HETATM    7  C   UNL     1      -9.688   8.933  68.114  1.00  0.00    -0.180 C  
HETATM    8  C   UNL     1      -7.574   7.616  69.164  1.00  0.00    -0.100 C  
HETATM    9  C   UNL     1      -8.241   8.311  67.957  1.00  0.00    -0.128 C  
HETATM   10  C   UNL     1     -10.084  10.365  67.605  1.00  0.00    -0.223 C  
HETATM   11  C   UNL     1      -7.295   9.586  67.745  1.00  0.00    -0.083 C  
HETATM   12  C   UNL     1     -11.387  10.777  68.317  1.00  0.00    -0.376 C  
HETATM   13  C   UNL     1      -7.762  10.864  66.983  1.00  0.00    -0.129 C  
HETATM   14  C   UNL     1      -9.061  11.479  67.546  1.00  0.00    -0.166 C  
HETATM   15  C   UNL     1     -11.821  12.180  68.040  1.00  0.00    -0.351 C  
HETATM   16  C   UNL     1     -11.096  13.050  67.327  1.00  0.00    -0.303 C  
HETATM   17  C   UNL     1     -11.824  14.251  66.778  1.00  0.00    -0.449 C  
HETATM   18  C   UNL     1     -12.203  13.866  65.352  1.00  0.00    -0.444 C  
HETATM   19  O   UNL     1     -12.972  14.919  64.746  1.00  0.00    -0.294 OA 
HETATM   20  C   UNL     1     -10.935  13.573  64.533  1.00  0.00    -0.405 C  
HETATM   21  C   UNL     1      -9.919  12.584  65.210  1.00  0.00    -0.226 C  
HETATM   22  H   UNL     1     -13.208  14.679  63.857  1.00  0.00     0.000 HD 
HETATM   23  C   UNL     1      -9.699  12.756  66.758  1.00  0.00    -0.243 C  
HETATM   24  C   UNL     1      -8.783  13.985  66.981  1.00  0.00    -0.220 C  
ENDROOT
BRANCH   4  25
HETATM   25  C   UNL     1      -9.242   2.985  67.792  1.00  0.00    -0.244 C  
BRANCH  25  26
HETATM   26  C   UNL     1      -8.994   2.223  66.480  1.00  0.00    -0.123 C  
HETATM   27  C   UNL     1      -7.539   2.191  65.949  1.00  0.00    -0.071 C  
HETATM   28  C   UNL     1      -7.512   1.484  64.579  1.00  0.00    -0.054 C  
HETATM   29  C   UNL     1      -6.521   1.490  66.848  1.00  0.00    -0.024 C  
ENDBRANCH  25  26
ENDBRANCH   4  25
TORSDOF 2
ENDMDL
MODEL       45
REMARK 921   NORMALIZED FREE ENERGY PREDICTED BY IDOCK:   -5.23 KCAL/MOL
REMARK 922        TOTAL FREE ENERGY PREDICTED BY IDOCK:   -6.08 KCAL/MOL
REMARK 923 INTER-LIGAND FREE ENERGY PREDICTED BY IDOCK:   -5.84 KCAL/MOL
REMARK 924 INTRA-LIGAND FREE ENERGY PREDICTED BY IDOCK:   -0.24 KCAL/MOL
REMARK 927      BINDING AFFINITY PREDICTED BY RF-SCORE:    0.00 PKD
ROOT
HETATM    1  C   UNL     1      -8.754  10.279  69.506  1.00  0.00    -0.155 C  
HETATM    2  C   UNL     1      -9.700  11.368  68.537  1.00  0.00    -0.199 C  
HETATM    3  C   UNL     1      -9.824   9.541  70.278  1.00  0.00    -0.313 C  
HETATM    4  C   UNL     1      -9.139  12.167  67.300  1.00  0.00    -0.181 C  
HETATM    5  C   UNL     1     -10.214   8.509  69.206  1.00  0.00    -0.211 C  
HETATM    6  C   UNL     1     -11.190  11.003  68.201  1.00  0.00    -0.364 C  
HETATM    7  C   UNL     1      -8.901   7.767  68.928  1.00  0.00    -0.135 C  
HETATM    8  C   UNL     1      -6.975   9.381  67.931  1.00  0.00    -0.080 C  
HETATM    9  C   UNL     1      -7.850   8.935  69.122  1.00  0.00    -0.093 C  
HETATM   10  C   UNL     1      -9.070   6.568  69.928  1.00  0.00    -0.143 C  
HETATM   11  C   UNL     1      -6.761   8.312  70.118  1.00  0.00    -0.036 C  
HETATM   12  C   UNL     1      -9.832   5.446  69.196  1.00  0.00    -0.242 C  
HETATM   13  C   UNL     1      -7.132   7.300  71.246  1.00  0.00    -0.064 C  
HETATM   14  C   UNL     1      -7.896   6.060  70.736  1.00  0.00    -0.103 C  
HETATM   15  C   UNL     1      -9.952   4.177  69.975  1.00  0.00    -0.137 C  
HETATM   16  C   UNL     1      -9.360   3.978  71.159  1.00  0.00    -0.216 C  
HETATM   17  C   UNL     1      -9.899   2.853  72.007  1.00  0.00    -0.242 C  
HETATM   18  C   UNL     1     -10.891   3.514  72.957  1.00  0.00    -0.102 C  
HETATM   19  O   UNL     1     -11.527   2.518  73.776  1.00  0.00    -0.213 OA 
HETATM   20  C   UNL     1     -10.170   4.558  73.827  1.00  0.00    -0.233 C  
HETATM   21  C   UNL     1      -9.271   5.577  73.036  1.00  0.00    -0.137 C  
HETATM   22  H   UNL     1     -12.146   2.930  74.368  1.00  0.00     0.000 HD 
HETATM   23  C   UNL     1      -8.428   4.989  71.846  1.00  0.00    -0.124 C  
HETATM   24  C   UNL     1      -7.208   4.243  72.440  1.00  0.00    -0.066 C  
ENDROOT
BRANCH   4  25
HETATM   25  C   UNL     1     -10.207  13.099  66.570  1.00  0.00    -0.277 C  
BRANCH  25  26
HETATM   26  C   UNL     1     -10.669  12.601  65.191  1.00  0.00    -0.321 C  
HETATM   27  C   UNL     1     -12.195  12.576  64.928  1.00  0.00    -0.534 C  
HETATM   28  C   UNL     1     -12.463  11.947  63.546  1.00  0.00    -0.609 C  
HETATM   29  C   UNL     1     -12.895  13.935  64.957  1.00  0.00    -0.309 C  
ENDBRANCH  25  26
ENDBRANCH   4  25
TORSDOF 2
ENDMDL
MODEL       46
REMARK 921   NORMALIZED FREE ENERGY PREDICTED BY IDOCK:   -5.19 KCAL/MOL
REMARK 922        TOTAL FREE ENERGY PREDICTED BY IDOCK:   -6.04 KCAL/MOL
REMARK 923 INTER-LIGAND FREE ENERGY PREDICTED BY IDOCK:   -5.80 KCAL/MOL
REMARK 924 INTRA-LIGAND FREE ENERGY PREDICTED BY IDOCK:   -0.24 KCAL/MOL
REMARK 927      BINDING AFFINITY PREDICTED BY RF-SCORE:    0.00 PKD
ROOT
HETATM    1  C   UNL     1     -11.493  13.814  68.384  1.00  0.00    -0.351 C  
HETATM    2  C   UNL     1     -12.296  12.968  69.671  1.00  0.00    -0.104 C  
HETATM    3  C   UNL     1     -11.191  15.147  69.028  1.00  0.00    -0.282 C  
HETATM    4  C   UNL     1     -12.559  11.413  69.682  1.00  0.00    -0.003 C  
HETATM    5  C   UNL     1      -9.913  14.753  69.788  1.00  0.00     0.108 C  
HETATM    6  C   UNL     1     -12.019  13.389  71.159  1.00  0.00     0.093 C  
HETATM    7  C   UNL     1      -8.970  14.274  68.678  1.00  0.00    -0.154 C  
HETATM    8  C   UNL     1      -9.912  12.105  67.367  1.00  0.00    -0.206 C  
HETATM    9  C   UNL     1     -10.001  13.616  67.673  1.00  0.00    -0.239 C  
HETATM   10  C   UNL     1      -8.207  15.616  68.394  1.00  0.00    -0.146 C  
HETATM   11  C   UNL     1      -9.625  14.264  66.256  1.00  0.00    -0.310 C  
HETATM   12  C   UNL     1      -7.003  15.689  69.353  1.00  0.00    -0.196 C  
HETATM   13  C   UNL     1      -9.104  15.726  66.111  1.00  0.00    -0.377 C  
HETATM   14  C   UNL     1      -7.865  16.031  66.979  1.00  0.00    -0.263 C  
HETATM   15  C   UNL     1      -6.094  16.850  69.111  1.00  0.00    -0.184 C  
HETATM   16  C   UNL     1      -6.237  17.699  68.086  1.00  0.00    -0.167 C  
HETATM   17  C   UNL     1      -5.537  19.028  68.203  1.00  0.00    -0.195 C  
HETATM   18  C   UNL     1      -6.592  19.985  68.746  1.00  0.00    -0.321 C  
HETATM   19  O   UNL     1      -6.013  21.282  68.968  1.00  0.00    -0.139 OA 
HETATM   20  C   UNL     1      -7.775  20.074  67.766  1.00  0.00    -0.327 C  
HETATM   21  C   UNL     1      -8.352  18.691  67.294  1.00  0.00    -0.270 C  
HETATM   22  H   UNL     1      -6.672  21.879  69.306  1.00  0.00     0.000 HD 
HETATM   23  C   UNL     1      -7.302  17.561  66.986  1.00  0.00    -0.222 C  
HETATM   24  C   UNL     1      -6.660  17.861  65.608  1.00  0.00    -0.194 C  
ENDROOT
BRANCH   4  25
HETATM   25  C   UNL     1     -13.310  10.875  70.980  1.00  0.00     0.021 C  
BRANCH  25  26
HETATM   26  C   UNL     1     -12.991   9.420  71.359  1.00  0.00    -0.421 C  
HETATM   27  C   UNL     1     -11.710   8.798  70.747  1.00  0.00    -0.253 C  
HETATM   28  C   UNL     1     -11.623   7.313  71.150  1.00  0.00    -0.323 C  
HETATM   29  C   UNL     1     -10.394   9.462  71.150  1.00  0.00    -0.377 C  
ENDBRANCH  25  26
ENDBRANCH   4  25
TORSDOF 2
ENDMDL
MODEL       47
REMARK 921   NORMALIZED FREE ENERGY PREDICTED BY IDOCK:   -5.18 KCAL/MOL
REMARK 922        TOTAL FREE ENERGY PREDICTED BY IDOCK:   -6.03 KCAL/MOL
REMARK 923 INTER-LIGAND FREE ENERGY PREDICTED BY IDOCK:   -5.71 KCAL/MOL
REMARK 924 INTRA-LIGAND FREE ENERGY PREDICTED BY IDOCK:   -0.32 KCAL/MOL
REMARK 927      BINDING AFFINITY PREDICTED BY RF-SCORE:    0.00 PKD
ROOT
HETATM    1  C   UNL     1      -9.856  13.244  67.208  1.00  0.00    -0.233 C  
HETATM    2  C   UNL     1      -8.935  14.713  67.314  1.00  0.00    -0.216 C  
HETATM    3  C   UNL     1      -8.849  12.288  66.610  1.00  0.00    -0.167 C  
HETATM    4  C   UNL     1      -9.369  15.973  68.157  1.00  0.00    -0.200 C  
HETATM    5  C   UNL     1      -8.093  11.914  67.897  1.00  0.00    -0.147 C  
HETATM    6  C   UNL     1      -7.368  14.635  67.395  1.00  0.00    -0.195 C  
HETATM    7  C   UNL     1      -9.185  11.322  68.796  1.00  0.00    -0.133 C  
HETATM    8  C   UNL     1     -11.122  13.107  69.407  1.00  0.00    -0.140 C  
HETATM    9  C   UNL     1     -10.433  12.197  68.366  1.00  0.00    -0.242 C  
HETATM   10  C   UNL     1      -9.017   9.803  68.435  1.00  0.00    -0.123 C  
HETATM   11  C   UNL     1     -11.576  11.116  68.063  1.00  0.00    -0.337 C  
HETATM   12  C   UNL     1      -7.952   9.208  69.376  1.00  0.00    -0.097 C  
HETATM   13  C   UNL     1     -11.268   9.712  67.458  1.00  0.00     0.159 C  
HETATM   14  C   UNL     1     -10.225   8.908  68.262  1.00  0.00    -0.239 C  
HETATM   15  C   UNL     1      -7.777   7.730  69.249  1.00  0.00    -0.100 C  
HETATM   16  C   UNL     1      -8.545   6.959  68.470  1.00  0.00    -0.123 C  
HETATM   17  C   UNL     1      -8.003   5.599  68.113  1.00  0.00    -0.097 C  
HETATM   18  C   UNL     1      -7.337   5.781  66.754  1.00  0.00    -0.079 C  
HETATM   19  O   UNL     1      -6.716   4.553  66.341  1.00  0.00    -0.048 OA 
HETATM   20  C   UNL     1      -8.377   6.245  65.719  1.00  0.00    -0.145 C  
HETATM   21  C   UNL     1      -9.261   7.465  66.163  1.00  0.00    -0.148 C  
HETATM   22  H   UNL     1      -6.301   4.667  65.493  1.00  0.00     0.000 HD 
HETATM   23  C   UNL     1      -9.748   7.469  67.659  1.00  0.00    -0.182 C  
HETATM   24  C   UNL     1     -10.919   6.464  67.788  1.00  0.00    -0.425 C  
ENDROOT
BRANCH   4  25
HETATM   25  C   UNL     1      -8.350  17.196  68.098  1.00  0.00    -0.226 C  
BRANCH  25  26
HETATM   26  C   UNL     1      -8.701  18.286  67.073  1.00  0.00    -0.265 C  
HETATM   27  C   UNL     1     -10.039  19.040  67.277  1.00  0.00    -0.436 C  
HETATM   28  C   UNL     1     -10.265  20.006  66.098  1.00  0.00    -0.589 C  
HETATM   29  C   UNL     1     -10.150  19.855  68.566  1.00  0.00    -0.538 C  
ENDBRANCH  25  26
ENDBRANCH   4  25
TORSDOF 2
ENDMDL
MODEL       48
REMARK 921   NORMALIZED FREE ENERGY PREDICTED BY IDOCK:   -5.16 KCAL/MOL
REMARK 922        TOTAL FREE ENERGY PREDICTED BY IDOCK:   -6.01 KCAL/MOL
REMARK 923 INTER-LIGAND FREE ENERGY PREDICTED BY IDOCK:   -5.51 KCAL/MOL
REMARK 924 INTRA-LIGAND FREE ENERGY PREDICTED BY IDOCK:   -0.50 KCAL/MOL
REMARK 927      BINDING AFFINITY PREDICTED BY RF-SCORE:    0.00 PKD
ROOT
HETATM    1  C   UNL     1     -10.560  10.496  68.382  1.00  0.00    -0.230 C  
HETATM    2  C   UNL     1     -11.244  12.048  68.009  1.00  0.00    -0.316 C  
HETATM    3  C   UNL     1     -11.152   9.626  67.296  1.00  0.00     0.050 C  
HETATM    4  C   UNL     1     -10.733  13.411  68.615  1.00  0.00    -0.275 C  
HETATM    5  C   UNL     1     -10.169   9.970  66.163  1.00  0.00    -0.283 C  
HETATM    6  C   UNL     1     -11.705  12.354  66.539  1.00  0.00    -0.443 C  
HETATM    7  C   UNL     1      -8.806   9.561  66.733  1.00  0.00    -0.145 C  
HETATM    8  C   UNL     1      -8.127  10.971  68.937  1.00  0.00    -0.135 C  
HETATM    9  C   UNL     1      -9.011   9.897  68.267  1.00  0.00    -0.119 C  
HETATM   10  C   UNL     1      -8.718   8.101  66.162  1.00  0.00    -0.179 C  
HETATM   11  C   UNL     1      -8.541   8.563  69.019  1.00  0.00    -0.130 C  
HETATM   12  C   UNL     1      -8.083   8.179  64.761  1.00  0.00    -0.152 C  
HETATM   13  C   UNL     1      -8.754   7.139  68.421  1.00  0.00    -0.125 C  
HETATM   14  C   UNL     1      -8.168   6.970  67.004  1.00  0.00    -0.117 C  
HETATM   15  C   UNL     1      -7.804   6.849  64.139  1.00  0.00    -0.104 C  
HETATM   16  C   UNL     1      -7.982   5.684  64.774  1.00  0.00    -0.119 C  
HETATM   17  C   UNL     1      -8.072   4.449  63.915  1.00  0.00    -0.095 C  
HETATM   18  C   UNL     1      -9.565   4.216  63.710  1.00  0.00    -0.137 C  
HETATM   19  O   UNL     1      -9.773   3.094  62.837  1.00  0.00    -0.093 OA 
HETATM   20  C   UNL     1     -10.252   3.990  65.068  1.00  0.00    -0.192 C  
HETATM   21  C   UNL     1      -9.920   5.061  66.168  1.00  0.00    -0.240 C  
HETATM   22  H   UNL     1     -10.704   2.949  62.710  1.00  0.00     0.000 HD 
HETATM   23  C   UNL     1      -8.428   5.553  66.239  1.00  0.00    -0.122 C  
HETATM   24  C   UNL     1      -7.589   4.452  66.935  1.00  0.00    -0.085 C  
ENDROOT
BRANCH   4  25
HETATM   25  C   UNL     1     -11.522  14.700  68.113  1.00  0.00    -0.346 C  
BRANCH  25  26
HETATM   26  C   UNL     1     -10.635  15.888  67.707  1.00  0.00    -0.302 C  
HETATM   27  C   UNL     1      -9.773  15.720  66.431  1.00  0.00    -0.305 C  
HETATM   28  C   UNL     1      -8.877  16.962  66.254  1.00  0.00    -0.314 C  
HETATM   29  C   UNL     1     -10.548  15.524  65.129  1.00  0.00    -0.455 C  
ENDBRANCH  25  26
ENDBRANCH   4  25
TORSDOF 2
ENDMDL
MODEL       49
REMARK 921   NORMALIZED FREE ENERGY PREDICTED BY IDOCK:   -5.15 KCAL/MOL
REMARK 922        TOTAL FREE ENERGY PREDICTED BY IDOCK:   -6.00 KCAL/MOL
REMARK 923 INTER-LIGAND FREE ENERGY PREDICTED BY IDOCK:   -5.63 KCAL/MOL
REMARK 924 INTRA-LIGAND FREE ENERGY PREDICTED BY IDOCK:   -0.37 KCAL/MOL
REMARK 927      BINDING AFFINITY PREDICTED BY RF-SCORE:    0.00 PKD
ROOT
HETATM    1  C   UNL     1      -9.316  11.213  67.731  1.00  0.00    -0.166 C  
HETATM    2  C   UNL     1      -8.919   9.832  66.755  1.00  0.00    -0.156 C  
HETATM    3  C   UNL     1      -8.372  12.261  67.187  1.00  0.00    -0.183 C  
HETATM    4  C   UNL     1      -9.805   8.532  66.656  1.00  0.00    -0.342 C  
HETATM    5  C   UNL     1      -9.188  12.691  65.956  1.00  0.00     0.011 C  
HETATM    6  C   UNL     1      -8.280  10.051  65.336  1.00  0.00    -0.149 C  
HETATM    7  C   UNL     1     -10.514  13.175  66.556  1.00  0.00    -0.283 C  
HETATM    8  C   UNL     1     -11.853  11.218  67.853  1.00  0.00    -0.209 C  
HETATM    9  C   UNL     1     -10.659  12.195  67.790  1.00  0.00    -0.229 C  
HETATM   10  C   UNL     1     -10.190  14.706  66.689  1.00  0.00    -0.275 C  
HETATM   11  C   UNL     1     -10.963  13.171  69.024  1.00  0.00    -0.241 C  
HETATM   12  C   UNL     1     -10.569  15.387  65.360  1.00  0.00    -0.430 C  
HETATM   13  C   UNL     1     -10.353  14.601  69.136  1.00  0.00    -0.222 C  
HETATM   14  C   UNL     1     -10.630  15.490  67.906  1.00  0.00    -0.274 C  
HETATM   15  C   UNL     1     -10.448  16.876  65.376  1.00  0.00    -0.172 C  
HETATM   16  C   UNL     1     -10.143  17.580  66.473  1.00  0.00    -0.331 C  
HETATM   17  C   UNL     1      -9.645  18.987  66.260  1.00  0.00    -0.367 C  
HETATM   18  C   UNL     1      -8.125  18.876  66.280  1.00  0.00    -0.269 C  
HETATM   19  O   UNL     1      -7.534  20.159  66.014  1.00  0.00    -0.337 OA 
HETATM   20  C   UNL     1      -7.657  18.329  67.640  1.00  0.00    -0.222 C  
HETATM   21  C   UNL     1      -8.396  17.030  68.125  1.00  0.00    -0.222 C  
HETATM   22  H   UNL     1      -6.586  20.089  66.027  1.00  0.00     0.000 HD 
HETATM   23  C   UNL     1      -9.947  16.970  67.870  1.00  0.00    -0.281 C  
HETATM   24  C   UNL     1     -10.645  17.865  68.925  1.00  0.00    -0.020 C  
ENDROOT
BRANCH   4  25
HETATM   25  C   UNL     1      -9.228   7.406  65.687  1.00  0.00     0.157 C  
BRANCH  25  26
HETATM   26  C   UNL     1      -9.114   6.007  66.312  1.00  0.00    -0.160 C  
HETATM   27  C   UNL     1      -7.686   5.476  66.594  1.00  0.00    -0.100 C  
HETATM   28  C   UNL     1      -7.774   4.026  67.110  1.00  0.00    -0.084 C  
HETATM   29  C   UNL     1      -6.871   6.276  67.610  1.00  0.00    -0.069 C  
ENDBRANCH  25  26
ENDBRANCH   4  25
TORSDOF 2
ENDMDL
MODEL       50
REMARK 921   NORMALIZED FREE ENERGY PREDICTED BY IDOCK:   -5.14 KCAL/MOL
REMARK 922        TOTAL FREE ENERGY PREDICTED BY IDOCK:   -5.99 KCAL/MOL
REMARK 923 INTER-LIGAND FREE ENERGY PREDICTED BY IDOCK:   -5.75 KCAL/MOL
REMARK 924 INTRA-LIGAND FREE ENERGY PREDICTED BY IDOCK:   -0.24 KCAL/MOL
REMARK 927      BINDING AFFINITY PREDICTED BY RF-SCORE:    0.00 PKD
ROOT
HETATM    1  C   UNL     1      -8.848  14.588  68.819  1.00  0.00    -0.153 C  
HETATM    2  C   UNL     1      -9.553  16.075  68.262  1.00  0.00    -0.210 C  
HETATM    3  C   UNL     1      -9.924  13.584  68.473  1.00  0.00    -0.202 C  
HETATM    4  C   UNL     1      -8.752  17.419  68.072  1.00  0.00    -0.241 C  
HETATM    5  C   UNL     1      -9.582  13.381  66.987  1.00  0.00    -0.244 C  
HETATM    6  C   UNL     1     -10.642  16.034  67.130  1.00  0.00    -0.305 C  
HETATM    7  C   UNL     1      -8.133  12.883  67.018  1.00  0.00    -0.057 C  
HETATM    8  C   UNL     1      -6.423  14.694  68.069  1.00  0.00    -0.161 C  
HETATM    9  C   UNL     1      -7.569  13.678  68.265  1.00  0.00    -0.130 C  
HETATM   10  C   UNL     1      -8.395  11.335  67.013  1.00  0.00    -0.153 C  
HETATM   11  C   UNL     1      -6.862  12.549  69.154  1.00  0.00    -0.062 C  
HETATM   12  C   UNL     1      -8.497  10.876  65.546  1.00  0.00    -0.115 C  
HETATM   13  C   UNL     1      -7.400  11.088  69.244  1.00  0.00    -0.113 C  
HETATM   14  C   UNL     1      -7.565  10.404  67.871  1.00  0.00    -0.088 C  
HETATM   15  C   UNL     1      -8.610   9.396  65.372  1.00  0.00    -0.176 C  
HETATM   16  C   UNL     1      -8.521   8.524  66.383  1.00  0.00    -0.122 C  
HETATM   17  C   UNL     1      -9.065   7.140  66.137  1.00  0.00    -0.155 C  
HETATM   18  C   UNL     1     -10.486   7.170  66.690  1.00  0.00    -0.135 C  
HETATM   19  O   UNL     1     -11.136   5.912  66.445  1.00  0.00    -0.722 OA 
HETATM   20  C   UNL     1     -10.456   7.487  68.196  1.00  0.00    -0.233 C  
HETATM   21  C   UNL     1      -9.592   8.737  68.595  1.00  0.00    -0.159 C  
HETATM   22  H   UNL     1     -12.021   5.930  66.790  1.00  0.00     0.000 HD 
HETATM   23  C   UNL     1      -8.223   8.912  67.841  1.00  0.00    -0.110 C  
HETATM   24  C   UNL     1      -7.208   7.909  68.443  1.00  0.00    -0.089 C  
ENDROOT
BRANCH   4  25
HETATM   25  C   UNL     1      -9.623  18.644  67.543  1.00  0.00    -0.317 C  
BRANCH  25  26
HETATM   26  C   UNL     1      -8.878  19.985  67.463  1.00  0.00    -0.426 C  
HETATM   27  C   UNL     1      -7.360  19.930  67.157  1.00  0.00    -0.279 C  
HETATM   28  C   UNL     1      -6.773  21.354  67.228  1.00  0.00    -0.287 C  
HETATM   29  C   UNL     1      -6.979  19.344  65.798  1.00  0.00    -0.307 C  
ENDBRANCH  25  26
ENDBRANCH   4  25
TORSDOF 2
ENDMDL
MODEL       51
REMARK 921   NORMALIZED FREE ENERGY PREDICTED BY IDOCK:   -5.14 KCAL/MOL
REMARK 922        TOTAL FREE ENERGY PREDICTED BY IDOCK:   -5.98 KCAL/MOL
REMARK 923 INTER-LIGAND FREE ENERGY PREDICTED BY IDOCK:   -5.65 KCAL/MOL
REMARK 924 INTRA-LIGAND FREE ENERGY PREDICTED BY IDOCK:   -0.34 KCAL/MOL
REMARK 927      BINDING AFFINITY PREDICTED BY RF-SCORE:    0.00 PKD
ROOT
HETATM    1  C   UNL     1      -9.652   8.587  66.842  1.00  0.00    -0.257 C  
HETATM    2  C   UNL     1      -8.628   7.283  67.360  1.00  0.00    -0.121 C  
HETATM    3  C   UNL     1      -9.942   9.293  68.148  1.00  0.00    -0.206 C  
HETATM    4  C   UNL     1      -7.757   6.401  66.386  1.00  0.00    -0.099 C  
HETATM    5  C   UNL     1      -8.653  10.128  68.250  1.00  0.00    -0.116 C  
HETATM    6  C   UNL     1      -7.806   7.432  68.691  1.00  0.00    -0.122 C  
HETATM    7  C   UNL     1      -8.670  10.972  66.970  1.00  0.00    -0.141 C  
HETATM    8  C   UNL     1      -8.563   9.472  64.724  1.00  0.00    -0.196 C  
HETATM    9  C   UNL     1      -9.352   9.965  65.957  1.00  0.00    -0.240 C  
HETATM   10  C   UNL     1      -9.372  12.263  67.525  1.00  0.00    -0.183 C  
HETATM   11  C   UNL     1     -10.518  10.830  65.280  1.00  0.00    -0.282 C  
HETATM   12  C   UNL     1      -8.279  13.188  68.094  1.00  0.00    -0.160 C  
HETATM   13  C   UNL     1     -11.309  11.929  66.054  1.00  0.00    -0.375 C  
HETATM   14  C   UNL     1     -10.405  12.999  66.702  1.00  0.00    -0.263 C  
HETATM   15  C   UNL     1      -8.776  14.525  68.538  1.00  0.00    -0.177 C  
HETATM   16  C   UNL     1     -10.037  14.940  68.362  1.00  0.00    -0.225 C  
HETATM   17  C   UNL     1     -10.496  16.095  69.214  1.00  0.00    -0.267 C  
HETATM   18  C   UNL     1     -11.196  15.454  70.408  1.00  0.00    -0.323 C  
HETATM   19  O   UNL     1     -11.618  16.468  71.334  1.00  0.00    -0.610 OA 
HETATM   20  C   UNL     1     -12.394  14.618  69.926  1.00  0.00    -0.341 C  
HETATM   21  C   UNL     1     -12.080  13.615  68.758  1.00  0.00    -0.332 C  
HETATM   22  H   UNL     1     -12.055  16.068  72.078  1.00  0.00     0.000 HD 
HETATM   23  C   UNL     1     -11.121  14.137  67.626  1.00  0.00    -0.296 C  
HETATM   24  C   UNL     1     -11.930  15.086  66.708  1.00  0.00     0.006 C  
ENDROOT
BRANCH   4  25
HETATM   25  C   UNL     1      -6.896   5.269  67.106  1.00  0.00    -0.060 C  
BRANCH  25  26
HETATM   26  C   UNL     1      -7.711   4.103  67.687  1.00  0.00    -0.079 C  
HETATM   27  C   UNL     1      -8.787   3.470  66.770  1.00  0.00    -0.142 C  
HETATM   28  C   UNL     1      -9.568   2.403  67.562  1.00  0.00     0.050 C  
HETATM   29  C   UNL     1      -8.265   2.807  65.496  1.00  0.00    -0.089 C  
ENDBRANCH  25  26
ENDBRANCH   4  25
TORSDOF 2
ENDMDL
MODEL       52
REMARK 921   NORMALIZED FREE ENERGY PREDICTED BY IDOCK:   -5.12 KCAL/MOL
REMARK 922        TOTAL FREE ENERGY PREDICTED BY IDOCK:   -5.97 KCAL/MOL
REMARK 923 INTER-LIGAND FREE ENERGY PREDICTED BY IDOCK:   -5.47 KCAL/MOL
REMARK 924 INTRA-LIGAND FREE ENERGY PREDICTED BY IDOCK:   -0.49 KCAL/MOL
REMARK 927      BINDING AFFINITY PREDICTED BY RF-SCORE:    0.00 PKD
ROOT
HETATM    1  C   UNL     1      -9.714   7.876  71.795  1.00  0.00    -0.219 C  
HETATM    2  C   UNL     1      -9.209   6.546  72.792  1.00  0.00    -0.143 C  
HETATM    3  C   UNL     1      -8.502   8.085  70.916  1.00  0.00    -0.126 C  
HETATM    4  C   UNL     1     -10.184   5.687  73.684  1.00  0.00    -0.232 C  
HETATM    5  C   UNL     1      -8.778   6.986  69.876  1.00  0.00    -0.142 C  
HETATM    6  C   UNL     1      -8.099   5.567  72.265  1.00  0.00    -0.108 C  
HETATM    7  C   UNL     1     -10.144   7.373  69.299  1.00  0.00    -0.186 C  
HETATM    8  C   UNL     1     -12.112   7.335  71.152  1.00  0.00    -0.376 C  
HETATM    9  C   UNL     1     -10.842   7.997  70.576  1.00  0.00    -0.241 C  
HETATM   10  C   UNL     1      -9.670   8.215  68.062  1.00  0.00    -0.186 C  
HETATM   11  C   UNL     1     -11.407   9.403  70.057  1.00  0.00    -0.172 C  
HETATM   12  C   UNL     1      -9.471   7.248  66.879  1.00  0.00    -0.208 C  
HETATM   13  C   UNL     1     -10.674  10.260  68.979  1.00  0.00    -0.257 C  
HETATM   14  C   UNL     1     -10.383   9.492  67.673  1.00  0.00    -0.299 C  
HETATM   15  C   UNL     1      -9.150   7.920  65.584  1.00  0.00    -0.018 C  
HETATM   16  C   UNL     1      -9.142   9.249  65.423  1.00  0.00    -0.277 C  
HETATM   17  C   UNL     1      -8.405   9.783  64.221  1.00  0.00    -0.168 C  
HETATM   18  C   UNL     1      -7.016  10.143  64.736  1.00  0.00    -0.126 C  
HETATM   19  O   UNL     1      -6.193  10.602  63.651  1.00  0.00    -0.347 OA 
HETATM   20  C   UNL     1      -7.125  11.216  65.834  1.00  0.00     0.123 C  
HETATM   21  C   UNL     1      -8.163  10.903  66.970  1.00  0.00    -0.134 C  
HETATM   22  H   UNL     1      -5.327  10.826  63.973  1.00  0.00     0.000 HD 
HETATM   23  C   UNL     1      -9.525  10.259  66.517  1.00  0.00    -0.212 C  
HETATM   24  C   UNL     1     -10.405  11.375  65.902  1.00  0.00    -0.299 C  
ENDROOT
BRANCH   4  25
HETATM   25  C   UNL     1      -9.479   4.517  74.504  1.00  0.00    -0.141 C  
BRANCH  25  26
HETATM   26  C   UNL     1     -10.250   3.188  74.534  1.00  0.00    -0.216 C  
HETATM   27  C   UNL     1     -10.984   2.770  73.236  1.00  0.00    -0.265 C  
HETATM   28  C   UNL     1     -11.784   1.479  73.496  1.00  0.00    -0.306 C  
HETATM   29  C   UNL     1     -10.090   2.519  72.021  1.00  0.00    -0.195 C  
ENDBRANCH  25  26
ENDBRANCH   4  25
TORSDOF 2
ENDMDL
MODEL       53
REMARK 921   NORMALIZED FREE ENERGY PREDICTED BY IDOCK:   -5.07 KCAL/MOL
REMARK 922        TOTAL FREE ENERGY PREDICTED BY IDOCK:   -5.91 KCAL/MOL
REMARK 923 INTER-LIGAND FREE ENERGY PREDICTED BY IDOCK:   -5.71 KCAL/MOL
REMARK 924 INTRA-LIGAND FREE ENERGY PREDICTED BY IDOCK:   -0.20 KCAL/MOL
REMARK 927      BINDING AFFINITY PREDICTED BY RF-SCORE:    0.00 PKD
ROOT
HETATM    1  C   UNL     1     -10.145  11.611  68.180  1.00  0.00    -0.202 C  
HETATM    2  C   UNL     1     -10.845  12.882  67.224  1.00  0.00    -0.277 C  
HETATM    3  C   UNL     1     -10.790  10.381  67.583  1.00  0.00    -0.361 C  
HETATM    4  C   UNL     1     -10.303  14.362  67.184  1.00  0.00    -0.262 C  
HETATM    5  C   UNL     1      -9.864  10.201  66.368  1.00  0.00    -0.279 C  
HETATM    6  C   UNL     1     -11.377  12.557  65.783  1.00  0.00    -0.373 C  
HETATM    7  C   UNL     1      -8.476  10.037  66.997  1.00  0.00    -0.125 C  
HETATM    8  C   UNL     1      -7.687  12.222  68.380  1.00  0.00    -0.141 C  
HETATM    9  C   UNL     1      -8.604  10.986  68.258  1.00  0.00    -0.143 C  
HETATM   10  C   UNL     1      -8.418   8.471  67.084  1.00  0.00    -0.118 C  
HETATM   11  C   UNL     1      -8.100  10.077  69.477  1.00  0.00    -0.166 C  
HETATM   12  C   UNL     1      -7.851   7.943  65.752  1.00  0.00    -0.103 C  
HETATM   13  C   UNL     1      -8.344   8.538  69.537  1.00  0.00    -0.118 C  
HETATM   14  C   UNL     1      -7.828   7.782  68.295  1.00  0.00    -0.121 C  
HETATM   15  C   UNL     1      -7.605   6.470  65.730  1.00  0.00    -0.085 C  
HETATM   16  C   UNL     1      -7.753   5.680  66.800  1.00  0.00    -0.100 C  
HETATM   17  C   UNL     1      -7.887   4.201  66.539  1.00  0.00    -0.094 C  
HETATM   18  C   UNL     1      -9.388   3.937  66.516  1.00  0.00    -0.186 C  
HETATM   19  O   UNL     1      -9.640   2.557  66.201  1.00  0.00    -0.375 OA 
HETATM   20  C   UNL     1     -10.008   4.312  67.873  1.00  0.00    -0.055 C  
HETATM   21  C   UNL     1      -9.621   5.736  68.411  1.00  0.00    -0.147 C  
HETATM   22  H   UNL     1     -10.576   2.392  66.187  1.00  0.00     0.000 HD 
HETATM   23  C   UNL     1      -8.127   6.181  68.205  1.00  0.00    -0.111 C  
HETATM   24  C   UNL     1      -7.256   5.452  69.259  1.00  0.00    -0.065 C  
ENDROOT
BRANCH   4  25
HETATM   25  C   UNL     1     -11.114  15.341  66.224  1.00  0.00    -0.273 C  
BRANCH  25  26
HETATM   26  C   UNL     1     -10.386  16.644  65.859  1.00  0.00    -0.355 C  
HETATM   27  C   UNL     1     -10.646  17.874  66.766  1.00  0.00    -0.253 C  
HETATM   28  C   UNL     1      -9.923  19.102  66.179  1.00  0.00    -0.441 C  
HETATM   29  C   UNL     1     -10.199  17.730  68.221  1.00  0.00    -0.382 C  
ENDBRANCH  25  26
ENDBRANCH   4  25
TORSDOF 2
ENDMDL
MODEL       54
REMARK 921   NORMALIZED FREE ENERGY PREDICTED BY IDOCK:   -5.06 KCAL/MOL
REMARK 922        TOTAL FREE ENERGY PREDICTED BY IDOCK:   -5.89 KCAL/MOL
REMARK 923 INTER-LIGAND FREE ENERGY PREDICTED BY IDOCK:   -5.42 KCAL/MOL
REMARK 924 INTRA-LIGAND FREE ENERGY PREDICTED BY IDOCK:   -0.47 KCAL/MOL
REMARK 927      BINDING AFFINITY PREDICTED BY RF-SCORE:    0.00 PKD
ROOT
HETATM    1  C   UNL     1      -9.006   8.024  68.675  1.00  0.00    -0.134 C  
HETATM    2  C   UNL     1      -7.784   7.057  69.442  1.00  0.00    -0.108 C  
HETATM    3  C   UNL     1      -9.272   9.080  69.723  1.00  0.00    -0.172 C  
HETATM    4  C   UNL     1      -6.894   5.995  68.692  1.00  0.00    -0.070 C  
HETATM    5  C   UNL     1      -8.096  10.021  69.408  1.00  0.00    -0.150 C  
HETATM    6  C   UNL     1      -6.880   7.700  70.554  1.00  0.00    -0.047 C  
HETATM    7  C   UNL     1      -8.328  10.405  67.942  1.00  0.00    -0.114 C  
HETATM    8  C   UNL     1      -8.220   8.282  66.272  1.00  0.00    -0.112 C  
HETATM    9  C   UNL     1      -8.958   9.067  67.378  1.00  0.00    -0.135 C  
HETATM   10  C   UNL     1      -9.138  11.734  68.151  1.00  0.00    -0.185 C  
HETATM   11  C   UNL     1     -10.278   9.556  66.612  1.00  0.00    -0.310 C  
HETATM   12  C   UNL     1      -8.128  12.891  68.271  1.00  0.00    -0.151 C  
HETATM   13  C   UNL     1     -11.134  10.766  67.097  1.00  0.00    -0.297 C  
HETATM   14  C   UNL     1     -10.322  12.067  67.270  1.00  0.00    -0.232 C  
HETATM   15  C   UNL     1      -8.752  14.247  68.337  1.00  0.00    -0.181 C  
HETATM   16  C   UNL     1     -10.065  14.463  68.194  1.00  0.00    -0.226 C  
HETATM   17  C   UNL     1     -10.594  15.782  68.697  1.00  0.00    -0.250 C  
HETATM   18  C   UNL     1     -11.104  15.494  70.104  1.00  0.00    -0.323 C  
HETATM   19  O   UNL     1     -11.573  16.707  70.716  1.00  0.00    -0.527 OA 
HETATM   20  C   UNL     1     -12.223  14.439  70.051  1.00  0.00    -0.408 C  
HETATM   21  C   UNL     1     -11.883  13.149  69.221  1.00  0.00    -0.377 C  
HETATM   22  H   UNL     1     -11.891  16.527  71.594  1.00  0.00     0.000 HD 
HETATM   23  C   UNL     1     -11.097  13.368  67.877  1.00  0.00    -0.289 C  
HETATM   24  C   UNL     1     -12.094  13.894  66.814  1.00  0.00    -0.476 C  
ENDROOT
BRANCH   4  25
HETATM   25  C   UNL     1      -5.839   5.239  69.617  1.00  0.00    -0.017 C  
BRANCH  25  26
HETATM   26  C   UNL     1      -6.316   3.891  70.180  1.00  0.00    -0.028 C  
HETATM   27  C   UNL     1      -6.238   3.703  71.716  1.00  0.00    -0.014 C  
HETATM   28  C   UNL     1      -6.650   2.262  72.074  1.00  0.00    -0.015 C  
HETATM   29  C   UNL     1      -7.109   4.649  72.544  1.00  0.00    -0.079 C  
ENDBRANCH  25  26
ENDBRANCH   4  25
TORSDOF 2
ENDMDL
MODEL       55
REMARK 921   NORMALIZED FREE ENERGY PREDICTED BY IDOCK:   -4.99 KCAL/MOL
REMARK 922        TOTAL FREE ENERGY PREDICTED BY IDOCK:   -5.82 KCAL/MOL
REMARK 923 INTER-LIGAND FREE ENERGY PREDICTED BY IDOCK:   -5.57 KCAL/MOL
REMARK 924 INTRA-LIGAND FREE ENERGY PREDICTED BY IDOCK:   -0.25 KCAL/MOL
REMARK 927      BINDING AFFINITY PREDICTED BY RF-SCORE:    0.00 PKD
ROOT
HETATM    1  C   UNL     1      -9.069  10.454  68.601  1.00  0.00    -0.157 C  
HETATM    2  C   UNL     1      -8.277   9.060  67.933  1.00  0.00    -0.110 C  
HETATM    3  C   UNL     1      -8.132  11.569  68.196  1.00  0.00    -0.146 C  
HETATM    4  C   UNL     1      -8.958   7.648  67.768  1.00  0.00    -0.131 C  
HETATM    5  C   UNL     1      -8.628  11.775  66.754  1.00  0.00    -0.185 C  
HETATM    6  C   UNL     1      -7.307   9.239  66.710  1.00  0.00    -0.086 C  
HETATM    7  C   UNL     1     -10.110  12.125  66.930  1.00  0.00    -0.222 C  
HETATM    8  C   UNL     1     -11.531  10.125  68.066  1.00  0.00     0.007 C  
HETATM    9  C   UNL     1     -10.476  11.246  68.195  1.00  0.00    -0.215 C  
HETATM   10  C   UNL     1     -10.001  13.691  66.956  1.00  0.00    -0.248 C  
HETATM   11  C   UNL     1     -11.206  12.276  69.182  1.00  0.00    -0.300 C  
HETATM   12  C   UNL     1     -10.078  14.196  65.503  1.00  0.00    -0.360 C  
HETATM   13  C   UNL     1     -10.806  13.780  69.274  1.00  0.00    -0.141 C  
HETATM   14  C   UNL     1     -10.835  14.512  67.916  1.00  0.00    -0.260 C  
HETATM   15  C   UNL     1     -10.127  15.683  65.371  1.00  0.00    -0.370 C  
HETATM   16  C   UNL     1     -10.207  16.515  66.415  1.00  0.00    -0.324 C  
HETATM   17  C   UNL     1      -9.825  17.953  66.170  1.00  0.00    -0.256 C  
HETATM   18  C   UNL     1      -8.363  18.051  66.594  1.00  0.00    -0.262 C  
HETATM   19  O   UNL     1      -7.864  19.374  66.335  1.00  0.00    -0.272 OA 
HETATM   20  C   UNL     1      -8.224  17.694  68.084  1.00  0.00    -0.257 C  
HETATM   21  C   UNL     1      -8.922  16.355  68.515  1.00  0.00    -0.224 C  
HETATM   22  H   UNL     1      -6.953  19.435  66.600  1.00  0.00     0.000 HD 
HETATM   23  C   UNL     1     -10.331  16.063  67.879  1.00  0.00    -0.269 C  
HETATM   24  C   UNL     1     -11.379  16.943  68.603  1.00  0.00     0.046 C  
ENDROOT
BRANCH   4  25
HETATM   25  C   UNL     1      -8.024   6.530  67.122  1.00  0.00    -0.112 C  
BRANCH  25  26
HETATM   26  C   UNL     1      -8.190   5.122  67.715  1.00  0.00    -0.098 C  
HETATM   27  C   UNL     1      -9.452   4.327  67.298  1.00  0.00    -0.209 C  
HETATM   28  C   UNL     1      -9.497   2.997  68.076  1.00  0.00    -0.217 C  
HETATM   29  C   UNL     1      -9.563   3.993  65.810  1.00  0.00    -0.191 C  
ENDBRANCH  25  26
ENDBRANCH   4  25
TORSDOF 2
ENDMDL
MODEL       56
REMARK 921   NORMALIZED FREE ENERGY PREDICTED BY IDOCK:   -4.97 KCAL/MOL
REMARK 922        TOTAL FREE ENERGY PREDICTED BY IDOCK:   -5.80 KCAL/MOL
REMARK 923 INTER-LIGAND FREE ENERGY PREDICTED BY IDOCK:   -5.64 KCAL/MOL
REMARK 924 INTRA-LIGAND FREE ENERGY PREDICTED BY IDOCK:   -0.15 KCAL/MOL
REMARK 927      BINDING AFFINITY PREDICTED BY RF-SCORE:    0.00 PKD
ROOT
HETATM    1  C   UNL     1      -7.909  10.881  67.000  1.00  0.00    -0.132 C  
HETATM    2  C   UNL     1      -8.758   9.443  66.524  1.00  0.00    -0.148 C  
HETATM    3  C   UNL     1      -8.664  11.953  66.247  1.00  0.00    -0.070 C  
HETATM    4  C   UNL     1      -8.615   8.049  67.246  1.00  0.00    -0.124 C  
HETATM    5  C   UNL     1      -9.843  12.130  67.219  1.00  0.00    -0.202 C  
HETATM    6  C   UNL     1     -10.252   9.553  66.048  1.00  0.00    -0.242 C  
HETATM    7  C   UNL     1      -9.166  12.533  68.534  1.00  0.00    -0.071 C  
HETATM    8  C   UNL     1      -7.522  10.615  69.497  1.00  0.00    -0.132 C  
HETATM    9  C   UNL     1      -7.821  11.704  68.444  1.00  0.00    -0.137 C  
HETATM   10  C   UNL     1      -9.243  14.095  68.393  1.00  0.00    -0.203 C  
HETATM   11  C   UNL     1      -6.681  12.786  68.755  1.00  0.00    -0.093 C  
HETATM   12  C   UNL     1     -10.594  14.557  68.973  1.00  0.00    -0.250 C  
HETATM   13  C   UNL     1      -6.796  14.279  68.320  1.00  0.00    -0.109 C  
HETATM   14  C   UNL     1      -8.083  14.970  68.816  1.00  0.00    -0.166 C  
HETATM   15  C   UNL     1     -10.759  16.041  69.037  1.00  0.00    -0.274 C  
HETATM   16  C   UNL     1      -9.787  16.906  68.725  1.00  0.00    -0.269 C  
HETATM   17  C   UNL     1     -10.209  18.323  68.428  1.00  0.00    -0.402 C  
HETATM   18  C   UNL     1     -10.336  18.387  66.910  1.00  0.00    -0.390 C  
HETATM   19  O   UNL     1     -10.807  19.685  66.510  1.00  0.00    -0.447 OA 
HETATM   20  C   UNL     1      -8.979  18.071  66.256  1.00  0.00    -0.194 C  
HETATM   21  C   UNL     1      -8.275  16.768  66.781  1.00  0.00    -0.271 C  
HETATM   22  H   UNL     1     -10.885  19.725  65.563  1.00  0.00     0.000 HD 
HETATM   23  C   UNL     1      -8.358  16.502  68.329  1.00  0.00    -0.190 C  
HETATM   24  C   UNL     1      -7.345  17.437  69.034  1.00  0.00    -0.204 C  
ENDROOT
BRANCH   4  25
HETATM   25  C   UNL     1      -9.505   6.883  66.623  1.00  0.00    -0.209 C  
BRANCH  25  26
HETATM   26  C   UNL     1      -9.037   5.458  66.958  1.00  0.00    -0.112 C  
HETATM   27  C   UNL     1      -9.993   4.297  66.586  1.00  0.00    -0.202 C  
HETATM   28  C   UNL     1      -9.404   2.968  67.097  1.00  0.00    -0.178 C  
HETATM   29  C   UNL     1     -10.280   4.128  65.094  1.00  0.00    -0.218 C  
ENDBRANCH  25  26
ENDBRANCH   4  25
TORSDOF 2
ENDMDL
MODEL       57
REMARK 921   NORMALIZED FREE ENERGY PREDICTED BY IDOCK:   -4.96 KCAL/MOL
REMARK 922        TOTAL FREE ENERGY PREDICTED BY IDOCK:   -5.79 KCAL/MOL
REMARK 923 INTER-LIGAND FREE ENERGY PREDICTED BY IDOCK:   -5.71 KCAL/MOL
REMARK 924 INTRA-LIGAND FREE ENERGY PREDICTED BY IDOCK:   -0.08 KCAL/MOL
REMARK 927      BINDING AFFINITY PREDICTED BY RF-SCORE:    0.00 PKD
ROOT
HETATM    1  C   UNL     1      -8.518  15.126  68.951  1.00  0.00    -0.199 C  
HETATM    2  C   UNL     1      -9.500  16.548  69.134  1.00  0.00    -0.212 C  
HETATM    3  C   UNL     1      -9.523  14.022  69.187  1.00  0.00     0.223 C  
HETATM    4  C   UNL     1      -9.059  17.993  68.684  1.00  0.00    -0.276 C  
HETATM    5  C   UNL     1     -10.146  13.971  67.782  1.00  0.00    -0.240 C  
HETATM    6  C   UNL     1     -11.048  16.451  68.886  1.00  0.00    -0.328 C  
HETATM    7  C   UNL     1      -8.952  13.660  66.871  1.00  0.00    -0.229 C  
HETATM    8  C   UNL     1      -7.064  15.593  66.921  1.00  0.00     0.003 C  
HETATM    9  C   UNL     1      -7.792  14.428  67.626  1.00  0.00    -0.194 C  
HETATM   10  C   UNL     1      -9.074  12.096  66.817  1.00  0.00    -0.205 C  
HETATM   11  C   UNL     1      -6.626  13.337  67.753  1.00  0.00    -0.156 C  
HETATM   12  C   UNL     1     -10.023  11.735  65.658  1.00  0.00    -0.271 C  
HETATM   13  C   UNL     1      -6.914  11.817  67.949  1.00  0.00    -0.085 C  
HETATM   14  C   UNL     1      -7.842  11.219  66.872  1.00  0.00    -0.156 C  
HETATM   15  C   UNL     1     -10.134  10.269  65.389  1.00  0.00    -0.354 C  
HETATM   16  C   UNL     1      -9.397   9.345  66.016  1.00  0.00    -0.279 C  
HETATM   17  C   UNL     1      -9.899   7.925  65.962  1.00  0.00     0.126 C  
HETATM   18  C   UNL     1     -10.687   7.733  67.253  1.00  0.00    -0.255 C  
HETATM   19  O   UNL     1     -11.278   6.424  67.280  1.00  0.00    -0.570 OA 
HETATM   20  C   UNL     1      -9.764   7.942  68.467  1.00  0.00    -0.167 C  
HETATM   21  C   UNL     1      -8.908   9.259  68.433  1.00  0.00    -0.129 C  
HETATM   22  H   UNL     1     -11.769   6.304  68.085  1.00  0.00     0.000 HD 
HETATM   23  C   UNL     1      -8.296   9.661  67.041  1.00  0.00    -0.117 C  
HETATM   24  C   UNL     1      -7.069   8.755  66.774  1.00  0.00    -0.081 C  
ENDROOT
BRANCH   4  25
HETATM   25  C   UNL     1     -10.140  19.132  68.953  1.00  0.00    -0.422 C  
BRANCH  25  26
HETATM   26  C   UNL     1     -10.616  19.885  67.701  1.00  0.00    -0.483 C  
HETATM   27  C   UNL     1     -10.128  19.353  66.331  1.00  0.00    -0.532 C  
HETATM   28  C   UNL     1     -10.614  20.297  65.215  1.00  0.00     0.112 C  
HETATM   29  C   UNL     1     -10.585  17.940  65.969  1.00  0.00    -0.235 C  
ENDBRANCH  25  26
ENDBRANCH   4  25
TORSDOF 2
ENDMDL
MODEL       58
REMARK 921   NORMALIZED FREE ENERGY PREDICTED BY IDOCK:   -4.90 KCAL/MOL
REMARK 922        TOTAL FREE ENERGY PREDICTED BY IDOCK:   -5.72 KCAL/MOL
REMARK 923 INTER-LIGAND FREE ENERGY PREDICTED BY IDOCK:   -5.45 KCAL/MOL
REMARK 924 INTRA-LIGAND FREE ENERGY PREDICTED BY IDOCK:   -0.27 KCAL/MOL
REMARK 927      BINDING AFFINITY PREDICTED BY RF-SCORE:    0.00 PKD
ROOT
HETATM    1  C   UNL     1     -11.404   9.747  68.057  1.00  0.00     0.101 C  
HETATM    2  C   UNL     1     -11.150  11.172  67.098  1.00  0.00    -0.352 C  
HETATM    3  C   UNL     1     -10.522   8.738  67.356  1.00  0.00    -0.349 C  
HETATM    4  C   UNL     1     -11.566  12.626  67.543  1.00  0.00    -0.418 C  
HETATM    5  C   UNL     1      -9.176   9.125  67.992  1.00  0.00    -0.142 C  
HETATM    6  C   UNL     1      -9.821  11.317  66.271  1.00  0.00    -0.248 C  
HETATM    7  C   UNL     1      -9.420   8.930  69.493  1.00  0.00    -0.159 C  
HETATM    8  C   UNL     1     -11.346  10.560  70.463  1.00  0.00    -0.400 C  
HETATM    9  C   UNL     1     -10.944   9.341  69.605  1.00  0.00    -0.192 C  
HETATM   10  C   UNL     1      -8.897   7.457  69.647  1.00  0.00    -0.141 C  
HETATM   11  C   UNL     1     -11.611   8.130  70.416  1.00  0.00    -0.063 C  
HETATM   12  C   UNL     1      -7.383   7.519  69.924  1.00  0.00    -0.082 C  
HETATM   13  C   UNL     1     -11.133   6.654  70.269  1.00  0.00    -0.379 C  
HETATM   14  C   UNL     1      -9.623   6.464  70.528  1.00  0.00    -0.179 C  
HETATM   15  C   UNL     1      -6.761   6.195  70.232  1.00  0.00    -0.050 C  
HETATM   16  C   UNL     1      -7.462   5.063  70.368  1.00  0.00    -0.062 C  
HETATM   17  C   UNL     1      -6.694   3.771  70.253  1.00  0.00    -0.033 C  
HETATM   18  C   UNL     1      -6.860   3.340  68.800  1.00  0.00    -0.045 C  
HETATM   19  O   UNL     1      -6.103   2.143  68.552  1.00  0.00    -0.024 OA 
HETATM   20  C   UNL     1      -8.350   3.122  68.484  1.00  0.00    -0.091 C  
HETATM   21  C   UNL     1      -9.300   4.298  68.911  1.00  0.00    -0.222 C  
HETATM   22  H   UNL     1      -6.207   1.874  67.646  1.00  0.00     0.000 HD 
HETATM   23  C   UNL     1      -8.995   4.977  70.296  1.00  0.00    -0.151 C  
HETATM   24  C   UNL     1      -9.510   4.040  71.417  1.00  0.00    -0.230 C  
ENDROOT
BRANCH   4  25
HETATM   25  C   UNL     1     -11.220  13.769  66.488  1.00  0.00    -0.319 C  
BRANCH  25  26
HETATM   26  C   UNL     1     -11.411  15.205  67.001  1.00  0.00    -0.277 C  
HETATM   27  C   UNL     1     -10.148  15.944  67.512  1.00  0.00    -0.247 C  
HETATM   28  C   UNL     1     -10.557  17.316  68.083  1.00  0.00    -0.386 C  
HETATM   29  C   UNL     1      -9.056  16.187  66.470  1.00  0.00    -0.311 C  
ENDBRANCH  25  26
ENDBRANCH   4  25
TORSDOF 2
ENDMDL
MODEL       59
REMARK 921   NORMALIZED FREE ENERGY PREDICTED BY IDOCK:   -4.80 KCAL/MOL
REMARK 922        TOTAL FREE ENERGY PREDICTED BY IDOCK:   -5.60 KCAL/MOL
REMARK 923 INTER-LIGAND FREE ENERGY PREDICTED BY IDOCK:   -5.43 KCAL/MOL
REMARK 924 INTRA-LIGAND FREE ENERGY PREDICTED BY IDOCK:   -0.17 KCAL/MOL
REMARK 927      BINDING AFFINITY PREDICTED BY RF-SCORE:    0.00 PKD
ROOT
HETATM    1  C   UNL     1     -10.854   9.722  67.657  1.00  0.00    -0.301 C  
HETATM    2  C   UNL     1     -10.546  11.321  67.052  1.00  0.00    -0.287 C  
HETATM    3  C   UNL     1     -10.247   8.857  66.576  1.00  0.00    -0.319 C  
HETATM    4  C   UNL     1     -10.673  12.634  67.914  1.00  0.00    -0.237 C  
HETATM    5  C   UNL     1      -8.777   8.922  67.025  1.00  0.00    -0.130 C  
HETATM    6  C   UNL     1      -9.354  11.550  66.055  1.00  0.00    -0.239 C  
HETATM    7  C   UNL     1      -8.813   8.354  68.449  1.00  0.00    -0.140 C  
HETATM    8  C   UNL     1     -10.309   9.845  70.136  1.00  0.00    -0.336 C  
HETATM    9  C   UNL     1     -10.226   8.869  68.942  1.00  0.00    -0.220 C  
HETATM   10  C   UNL     1      -8.492   6.850  68.132  1.00  0.00    -0.124 C  
HETATM   11  C   UNL     1     -10.928   7.558  69.537  1.00  0.00    -0.127 C  
HETATM   12  C   UNL     1      -6.961   6.682  68.128  1.00  0.00    -0.077 C  
HETATM   13  C   UNL     1     -10.698   6.136  68.941  1.00  0.00    -0.376 C  
HETATM   14  C   UNL     1      -9.211   5.733  68.858  1.00  0.00    -0.127 C  
HETATM   15  C   UNL     1      -6.498   5.270  67.975  1.00  0.00    -0.048 C  
HETATM   16  C   UNL     1      -7.327   4.219  67.954  1.00  0.00    -0.068 C  
HETATM   17  C   UNL     1      -6.782   2.936  67.380  1.00  0.00    -0.041 C  
HETATM   18  C   UNL     1      -7.230   2.932  65.923  1.00  0.00    -0.066 C  
HETATM   19  O   UNL     1      -6.703   1.777  65.249  1.00  0.00    -0.029 OA 
HETATM   20  C   UNL     1      -8.767   2.957  65.847  1.00  0.00    -0.129 C  
HETATM   21  C   UNL     1      -9.458   4.063  66.722  1.00  0.00    -0.219 C  
HETATM   22  H   UNL     1      -6.983   1.775  64.341  1.00  0.00     0.000 HD 
HETATM   23  C   UNL     1      -8.849   4.309  68.151  1.00  0.00    -0.129 C  
HETATM   24  C   UNL     1      -9.316   3.160  69.079  1.00  0.00    -0.230 C  
ENDROOT
BRANCH   4  25
HETATM   25  C   UNL     1     -10.331  13.979  67.132  1.00  0.00    -0.265 C  
BRANCH  25  26
HETATM   26  C   UNL     1     -10.684  15.275  67.880  1.00  0.00    -0.275 C  
HETATM   27  C   UNL     1      -9.606  16.388  67.907  1.00  0.00    -0.228 C  
HETATM   28  C   UNL     1     -10.097  17.551  68.791  1.00  0.00    -0.363 C  
HETATM   29  C   UNL     1      -9.224  16.973  66.547  1.00  0.00    -0.296 C  
ENDBRANCH  25  26
ENDBRANCH   4  25
TORSDOF 2
ENDMDL
MODEL       60
REMARK 921   NORMALIZED FREE ENERGY PREDICTED BY IDOCK:   -4.69 KCAL/MOL
REMARK 922        TOTAL FREE ENERGY PREDICTED BY IDOCK:   -5.48 KCAL/MOL
REMARK 923 INTER-LIGAND FREE ENERGY PREDICTED BY IDOCK:   -5.07 KCAL/MOL
REMARK 924 INTRA-LIGAND FREE ENERGY PREDICTED BY IDOCK:   -0.41 KCAL/MOL
REMARK 927      BINDING AFFINITY PREDICTED BY RF-SCORE:    0.00 PKD
ROOT
HETATM    1  C   UNL     1      -9.902   9.962  69.887  1.00  0.00    -0.285 C  
HETATM    2  C   UNL     1      -9.312   8.358  69.579  1.00  0.00    -0.158 C  
HETATM    3  C   UNL     1      -8.827  10.816  69.253  1.00  0.00    -0.039 C  
HETATM    4  C   UNL     1     -10.180   7.050  69.733  1.00  0.00    -0.213 C  
HETATM    5  C   UNL     1      -9.305  10.744  67.793  1.00  0.00    -0.158 C  
HETATM    6  C   UNL     1      -8.339   8.114  68.370  1.00  0.00    -0.126 C  
HETATM    7  C   UNL     1     -10.724  11.320  67.851  1.00  0.00    -0.250 C  
HETATM    8  C   UNL     1     -12.391   9.850  69.390  1.00  0.00     0.708 C  
HETATM    9  C   UNL     1     -11.193  10.818  69.277  1.00  0.00    -0.333 C  
HETATM   10  C   UNL     1     -10.404  12.820  67.514  1.00  0.00    -0.219 C  
HETATM   11  C   UNL     1     -11.766  12.138  69.981  1.00  0.00    -0.330 C  
HETATM   12  C   UNL     1     -10.428  12.976  65.981  1.00  0.00    -0.289 C  
HETATM   13  C   UNL     1     -11.166  13.555  69.729  1.00  0.00    -0.067 C  
HETATM   14  C   UNL     1     -11.110  13.946  68.237  1.00  0.00    -0.280 C  
HETATM   15  C   UNL     1     -10.276  14.385  65.505  1.00  0.00    -0.386 C  
HETATM   16  C   UNL     1     -10.233  15.441  66.325  1.00  0.00    -0.303 C  
HETATM   17  C   UNL     1      -9.662  16.717  65.760  1.00  0.00    -0.194 C  
HETATM   18  C   UNL     1      -8.196  16.715  66.180  1.00  0.00    -0.260 C  
HETATM   19  O   UNL     1      -7.526  17.862  65.632  1.00  0.00    -0.544 OA 
HETATM   20  C   UNL     1      -8.091  16.701  67.716  1.00  0.00    -0.185 C  
HETATM   21  C   UNL     1      -8.959  15.605  68.432  1.00  0.00    -0.185 C  
HETATM   22  H   UNL     1      -6.612  17.861  65.894  1.00  0.00     0.000 HD 
HETATM   23  C   UNL     1     -10.401  15.364  67.851  1.00  0.00    -0.247 C  
HETATM   24  C   UNL     1     -11.314  16.521  68.328  1.00  0.00    -0.180 C  
ENDROOT
BRANCH   4  25
HETATM   25  C   UNL     1      -9.412   5.698  69.385  1.00  0.00    -0.169 C  
BRANCH  25  26
HETATM   26  C   UNL     1     -10.077   4.832  68.304  1.00  0.00    -0.109 C  
HETATM   27  C   UNL     1      -9.398   4.800  66.912  1.00  0.00    -0.141 C  
HETATM   28  C   UNL     1     -10.266   3.976  65.941  1.00  0.00    -0.031 C  
HETATM   29  C   UNL     1      -7.987   4.214  66.877  1.00  0.00    -0.097 C  
ENDBRANCH  25  26
ENDBRANCH   4  25
TORSDOF 2
ENDMDL
MODEL       61
REMARK 921   NORMALIZED FREE ENERGY PREDICTED BY IDOCK:   -4.67 KCAL/MOL
REMARK 922        TOTAL FREE ENERGY PREDICTED BY IDOCK:   -5.45 KCAL/MOL
REMARK 923 INTER-LIGAND FREE ENERGY PREDICTED BY IDOCK:   -5.27 KCAL/MOL
REMARK 924 INTRA-LIGAND FREE ENERGY PREDICTED BY IDOCK:   -0.18 KCAL/MOL
REMARK 927      BINDING AFFINITY PREDICTED BY RF-SCORE:    0.00 PKD
ROOT
HETATM    1  C   UNL     1      -7.253   9.268  66.360  1.00  0.00    -0.088 C  
HETATM    2  C   UNL     1      -7.360   7.970  65.211  1.00  0.00    -0.070 C  
HETATM    3  C   UNL     1      -7.494  10.478  65.486  1.00  0.00    -0.111 C  
HETATM    4  C   UNL     1      -7.507   6.450  65.603  1.00  0.00    -0.082 C  
HETATM    5  C   UNL     1      -9.031  10.428  65.439  1.00  0.00    -0.207 C  
HETATM    6  C   UNL     1      -8.184   8.177  63.890  1.00  0.00    -0.066 C  
HETATM    7  C   UNL     1      -9.438  10.527  66.914  1.00  0.00    -0.191 C  
HETATM    8  C   UNL     1      -8.540   8.450  68.392  1.00  0.00    -0.139 C  
HETATM    9  C   UNL     1      -8.248   9.746  67.606  1.00  0.00    -0.114 C  
HETATM   10  C   UNL     1      -9.643  12.081  67.018  1.00  0.00    -0.200 C  
HETATM   11  C   UNL     1      -7.763  10.736  68.769  1.00  0.00    -0.121 C  
HETATM   12  C   UNL     1     -11.097  12.394  66.618  1.00  0.00    -0.336 C  
HETATM   13  C   UNL     1      -7.796  12.288  68.622  1.00  0.00    -0.063 C  
HETATM   14  C   UNL     1      -9.184  12.844  68.241  1.00  0.00    -0.187 C  
HETATM   15  C   UNL     1     -11.488  13.825  66.799  1.00  0.00    -0.367 C  
HETATM   16  C   UNL     1     -10.693  14.743  67.361  1.00  0.00    -0.281 C  
HETATM   17  C   UNL     1     -11.032  16.188  67.097  1.00  0.00    -0.144 C  
HETATM   18  C   UNL     1     -10.154  16.592  65.918  1.00  0.00    -0.337 C  
HETATM   19  O   UNL     1     -10.445  17.944  65.527  1.00  0.00    -0.650 OA 
HETATM   20  C   UNL     1      -8.669  16.437  66.291  1.00  0.00    -0.369 C  
HETATM   21  C   UNL     1      -8.284  15.052  66.927  1.00  0.00    -0.206 C  
HETATM   22  H   UNL     1      -9.897  18.195  64.792  1.00  0.00     0.000 HD 
HETATM   23  C   UNL     1      -9.307  14.445  67.956  1.00  0.00    -0.200 C  
HETATM   24  C   UNL     1      -9.150  15.202  69.298  1.00  0.00    -0.201 C  
ENDROOT
BRANCH   4  25
HETATM   25  C   UNL     1      -7.592   5.449  64.365  1.00  0.00    -0.075 C  
BRANCH  25  26
HETATM   26  C   UNL     1      -8.946   4.745  64.190  1.00  0.00    -0.093 C  
HETATM   27  C   UNL     1      -8.916   3.221  63.912  1.00  0.00    -0.093 C  
HETATM   28  C   UNL     1     -10.351   2.721  63.656  1.00  0.00    -0.188 C  
HETATM   29  C   UNL     1      -8.320   2.356  65.023  1.00  0.00    -0.090 C  
ENDBRANCH  25  26
ENDBRANCH   4  25
TORSDOF 2
ENDMDL
MODEL       62
REMARK 921   NORMALIZED FREE ENERGY PREDICTED BY IDOCK:   -4.63 KCAL/MOL
REMARK 922        TOTAL FREE ENERGY PREDICTED BY IDOCK:   -5.41 KCAL/MOL
REMARK 923 INTER-LIGAND FREE ENERGY PREDICTED BY IDOCK:   -5.00 KCAL/MOL
REMARK 924 INTRA-LIGAND FREE ENERGY PREDICTED BY IDOCK:   -0.41 KCAL/MOL
REMARK 927      BINDING AFFINITY PREDICTED BY RF-SCORE:    0.00 PKD
ROOT
HETATM    1  C   UNL     1      -8.942  10.605  68.457  1.00  0.00    -0.156 C  
HETATM    2  C   UNL     1     -10.217  11.783  68.518  1.00  0.00    -0.215 C  
HETATM    3  C   UNL     1      -9.528   9.469  69.264  1.00  0.00    -0.171 C  
HETATM    4  C   UNL     1     -10.299  13.050  67.584  1.00  0.00    -0.222 C  
HETATM    5  C   UNL     1     -10.394   8.829  68.166  1.00  0.00    -0.266 C  
HETATM    6  C   UNL     1     -11.694  11.306  68.761  1.00  0.00    -0.405 C  
HETATM    7  C   UNL     1      -9.381   8.471  67.073  1.00  0.00    -0.204 C  
HETATM    8  C   UNL     1      -8.135  10.641  66.048  1.00  0.00    -0.159 C  
HETATM    9  C   UNL     1      -8.347   9.660  67.222  1.00  0.00    -0.114 C  
HETATM   10  C   UNL     1      -9.073   6.987  67.485  1.00  0.00    -0.122 C  
HETATM   11  C   UNL     1      -6.925   8.927  67.302  1.00  0.00    -0.078 C  
HETATM   12  C   UNL     1     -10.107   6.079  66.792  1.00  0.00    -0.235 C  
HETATM   13  C   UNL     1      -6.732   7.536  67.981  1.00  0.00    -0.059 C  
HETATM   14  C   UNL     1      -7.663   6.441  67.422  1.00  0.00    -0.104 C  
HETATM   15  C   UNL     1      -9.861   4.617  66.977  1.00  0.00    -0.232 C  
HETATM   16  C   UNL     1      -8.782   4.121  67.594  1.00  0.00    -0.119 C  
HETATM   17  C   UNL     1      -8.871   2.696  68.077  1.00  0.00    -0.163 C  
HETATM   18  C   UNL     1      -9.284   2.798  69.541  1.00  0.00    -0.134 C  
HETATM   19  O   UNL     1      -9.471   1.484  70.092  1.00  0.00    -0.107 OA 
HETATM   20  C   UNL     1      -8.222   3.579  70.333  1.00  0.00    -0.071 C  
HETATM   21  C   UNL     1      -7.791   4.950  69.696  1.00  0.00    -0.067 C  
HETATM   22  H   UNL     1      -9.728   1.548  71.005  1.00  0.00     0.000 HD 
HETATM   23  C   UNL     1      -7.621   4.973  68.133  1.00  0.00    -0.079 C  
HETATM   24  C   UNL     1      -6.276   4.290  67.783  1.00  0.00    -0.036 C  
ENDROOT
BRANCH   4  25
HETATM   25  C   UNL     1     -11.571  13.977  67.830  1.00  0.00    -0.378 C  
BRANCH  25  26
HETATM   26  C   UNL     1     -12.040  14.777  66.604  1.00  0.00    -0.117 C  
HETATM   27  C   UNL     1     -11.895  14.095  65.221  1.00  0.00    -0.367 C  
HETATM   28  C   UNL     1     -12.309  15.087  64.117  1.00  0.00    -0.167 C  
HETATM   29  C   UNL     1     -12.715  12.819  65.023  1.00  0.00    -0.455 C  
ENDBRANCH  25  26
ENDBRANCH   4  25
TORSDOF 2
ENDMDL
MODEL       63
REMARK 921   NORMALIZED FREE ENERGY PREDICTED BY IDOCK:   -4.61 KCAL/MOL
REMARK 922        TOTAL FREE ENERGY PREDICTED BY IDOCK:   -5.39 KCAL/MOL
REMARK 923 INTER-LIGAND FREE ENERGY PREDICTED BY IDOCK:   -5.02 KCAL/MOL
REMARK 924 INTRA-LIGAND FREE ENERGY PREDICTED BY IDOCK:   -0.37 KCAL/MOL
REMARK 927      BINDING AFFINITY PREDICTED BY RF-SCORE:    0.00 PKD
ROOT
HETATM    1  C   UNL     1      -9.349  11.038  68.368  1.00  0.00    -0.179 C  
HETATM    2  C   UNL     1     -10.518  12.322  68.375  1.00  0.00    -0.244 C  
HETATM    3  C   UNL     1     -10.123   9.916  67.713  1.00  0.00    -0.221 C  
HETATM    4  C   UNL     1     -10.171  13.835  68.650  1.00  0.00    -0.209 C  
HETATM    5  C   UNL     1      -9.925  10.326  66.243  1.00  0.00    -0.295 C  
HETATM    6  C   UNL     1     -11.681  12.311  67.319  1.00  0.00    -0.394 C  
HETATM    7  C   UNL     1      -8.401  10.328  66.074  1.00  0.00    -0.142 C  
HETATM    8  C   UNL     1      -7.172  12.140  67.660  1.00  0.00    -0.123 C  
HETATM    9  C   UNL     1      -7.941  10.809  67.510  1.00  0.00    -0.110 C  
HETATM   10  C   UNL     1      -8.202   8.866  65.536  1.00  0.00    -0.130 C  
HETATM   11  C   UNL     1      -6.831   9.736  67.939  1.00  0.00    -0.073 C  
HETATM   12  C   UNL     1      -8.350   8.902  64.003  1.00  0.00    -0.168 C  
HETATM   13  C   UNL     1      -6.907   8.234  67.525  1.00  0.00    -0.070 C  
HETATM   14  C   UNL     1      -7.038   8.019  66.002  1.00  0.00    -0.062 C  
HETATM   15  C   UNL     1      -8.049   7.603  63.327  1.00  0.00    -0.051 C  
HETATM   16  C   UNL     1      -7.586   6.526  63.970  1.00  0.00    -0.100 C  
HETATM   17  C   UNL     1      -7.732   5.200  63.268  1.00  0.00    -0.072 C  
HETATM   18  C   UNL     1      -9.019   4.599  63.821  1.00  0.00    -0.110 C  
HETATM   19  O   UNL     1      -9.302   3.352  63.164  1.00  0.00    -0.095 OA 
HETATM   20  C   UNL     1      -8.895   4.402  65.342  1.00  0.00    -0.133 C  
HETATM   21  C   UNL     1      -8.387   5.658  66.136  1.00  0.00    -0.120 C  
HETATM   22  H   UNL     1     -10.105   2.977  63.510  1.00  0.00     0.000 HD 
HETATM   23  C   UNL     1      -7.233   6.491  65.466  1.00  0.00    -0.073 C  
HETATM   24  C   UNL     1      -5.904   5.721  65.664  1.00  0.00    -0.021 C  
ENDROOT
BRANCH   4  25
HETATM   25  C   UNL     1     -11.419  14.824  68.596  1.00  0.00    -0.325 C  
BRANCH  25  26
HETATM   26  C   UNL     1     -11.943  15.286  69.965  1.00  0.00    -0.375 C  
HETATM   27  C   UNL     1     -13.081  14.449  70.602  1.00  0.00    -0.279 C  
HETATM   28  C   UNL     1     -13.544  15.128  71.906  1.00  0.00    -0.545 C  
HETATM   29  C   UNL     1     -12.729  13.000  70.938  1.00  0.00    -0.299 C  
ENDBRANCH  25  26
ENDBRANCH   4  25
TORSDOF 2
ENDMDL
MODEL       64
REMARK 921   NORMALIZED FREE ENERGY PREDICTED BY IDOCK:   -4.59 KCAL/MOL
REMARK 922        TOTAL FREE ENERGY PREDICTED BY IDOCK:   -5.37 KCAL/MOL
REMARK 923 INTER-LIGAND FREE ENERGY PREDICTED BY IDOCK:   -4.88 KCAL/MOL
REMARK 924 INTRA-LIGAND FREE ENERGY PREDICTED BY IDOCK:   -0.49 KCAL/MOL
REMARK 927      BINDING AFFINITY PREDICTED BY RF-SCORE:    0.00 PKD
ROOT
HETATM    1  C   UNL     1      -6.914   8.947  67.055  1.00  0.00    -0.074 C  
HETATM    2  C   UNL     1      -6.880   7.296  66.515  1.00  0.00    -0.061 C  
HETATM    3  C   UNL     1      -7.625   9.634  65.911  1.00  0.00    -0.103 C  
HETATM    4  C   UNL     1      -6.542   6.067  67.443  1.00  0.00    -0.056 C  
HETATM    5  C   UNL     1      -9.074   9.302  66.305  1.00  0.00    -0.213 C  
HETATM    6  C   UNL     1      -7.956   6.801  65.484  1.00  0.00    -0.119 C  
HETATM    7  C   UNL     1      -9.216   9.921  67.701  1.00  0.00    -0.146 C  
HETATM    8  C   UNL     1      -7.542   8.816  69.513  1.00  0.00    -0.080 C  
HETATM    9  C   UNL     1      -7.755   9.710  68.272  1.00  0.00    -0.082 C  
HETATM   10  C   UNL     1      -9.805  11.321  67.300  1.00  0.00    -0.203 C  
HETATM   11  C   UNL     1      -7.348  11.155  68.831  1.00  0.00    -0.110 C  
HETATM   12  C   UNL     1     -11.338  11.186  67.229  1.00  0.00    -0.302 C  
HETATM   13  C   UNL     1      -7.819  12.481  68.159  1.00  0.00    -0.151 C  
HETATM   14  C   UNL     1      -9.351  12.583  68.000  1.00  0.00    -0.205 C  
HETATM   15  C   UNL     1     -12.057  12.475  66.992  1.00  0.00    -0.147 C  
HETATM   16  C   UNL     1     -11.446  13.665  66.953  1.00  0.00    -0.369 C  
HETATM   17  C   UNL     1     -12.201  14.794  66.298  1.00  0.00    -0.034 C  
HETATM   18  C   UNL     1     -11.693  14.829  64.861  1.00  0.00    -0.390 C  
HETATM   19  O   UNL     1     -12.400  15.831  64.113  1.00  0.00    -0.715 OA 
HETATM   20  C   UNL     1     -10.179  15.100  64.845  1.00  0.00    -0.231 C  
HETATM   21  C   UNL     1      -9.329  14.185  65.799  1.00  0.00     0.057 C  
HETATM   22  H   UNL     1     -12.084  15.853  63.217  1.00  0.00     0.000 HD 
HETATM   23  C   UNL     1      -9.947  13.881  67.213  1.00  0.00    -0.242 C  
HETATM   24  C   UNL     1      -9.754  15.134  68.103  1.00  0.00    -0.217 C  
ENDROOT
BRANCH   4  25
HETATM   25  C   UNL     1      -6.581   4.652  66.712  1.00  0.00    -0.050 C  
BRANCH  25  26
HETATM   26  C   UNL     1      -7.305   3.540  67.487  1.00  0.00    -0.059 C  
HETATM   27  C   UNL     1      -8.732   3.855  68.003  1.00  0.00    -0.122 C  
HETATM   28  C   UNL     1      -9.243   2.669  68.845  1.00  0.00    -0.224 C  
HETATM   29  C   UNL     1      -9.778   4.138  66.926  1.00  0.00    -0.232 C  
ENDBRANCH  25  26
ENDBRANCH   4  25
TORSDOF 2
ENDMDL
MODEL       65
REMARK 921   NORMALIZED FREE ENERGY PREDICTED BY IDOCK:   -4.58 KCAL/MOL
REMARK 922        TOTAL FREE ENERGY PREDICTED BY IDOCK:   -5.36 KCAL/MOL
REMARK 923 INTER-LIGAND FREE ENERGY PREDICTED BY IDOCK:   -5.09 KCAL/MOL
REMARK 924 INTRA-LIGAND FREE ENERGY PREDICTED BY IDOCK:   -0.27 KCAL/MOL
REMARK 927      BINDING AFFINITY PREDICTED BY RF-SCORE:    0.00 PKD
ROOT
HETATM    1  C   UNL     1      -8.519   9.177  69.249  1.00  0.00    -0.132 C  
HETATM    2  C   UNL     1      -7.368   7.935  68.861  1.00  0.00    -0.085 C  
HETATM    3  C   UNL     1      -7.801  10.424  68.785  1.00  0.00    -0.108 C  
HETATM    4  C   UNL     1      -7.703   6.395  68.829  1.00  0.00    -0.101 C  
HETATM    5  C   UNL     1      -8.144  10.345  67.287  1.00  0.00    -0.114 C  
HETATM    6  C   UNL     1      -6.313   8.192  67.726  1.00  0.00    -0.053 C  
HETATM    7  C   UNL     1      -9.677  10.363  67.269  1.00  0.00    -0.195 C  
HETATM    8  C   UNL     1     -10.765   8.233  68.528  1.00  0.00    -0.065 C  
HETATM    9  C   UNL     1     -10.002   9.573  68.602  1.00  0.00    -0.181 C  
HETATM   10  C   UNL     1      -9.912  11.905  67.087  1.00  0.00    -0.209 C  
HETATM   11  C   UNL     1     -11.053  10.513  69.360  1.00  0.00    -0.310 C  
HETATM   12  C   UNL     1      -9.913  12.208  65.576  1.00  0.00    -0.269 C  
HETATM   13  C   UNL     1     -11.002  12.069  69.281  1.00  0.00    -0.189 C  
HETATM   14  C   UNL     1     -11.017  12.615  67.837  1.00  0.00    -0.262 C  
HETATM   15  C   UNL     1     -10.264  13.620  65.234  1.00  0.00    -0.341 C  
HETATM   16  C   UNL     1     -10.653  14.525  66.140  1.00  0.00    -0.308 C  
HETATM   17  C   UNL     1     -10.561  15.974  65.736  1.00  0.00    -0.366 C  
HETATM   18  C   UNL     1      -9.220  16.454  66.281  1.00  0.00    -0.315 C  
HETATM   19  O   UNL     1      -8.989  17.817  65.891  1.00  0.00    -0.511 OA 
HETATM   20  C   UNL     1      -9.195  16.310  67.813  1.00  0.00    -0.203 C  
HETATM   21  C   UNL     1      -9.637  14.904  68.357  1.00  0.00    -0.209 C  
HETATM   22  H   UNL     1      -8.153  18.116  66.231  1.00  0.00     0.000 HD 
HETATM   23  C   UNL     1     -10.859  14.226  67.634  1.00  0.00    -0.273 C  
HETATM   24  C   UNL     1     -12.155  14.918  68.124  1.00  0.00    -0.120 C  
ENDROOT
BRANCH   4  25
HETATM   25  C   UNL     1      -6.476   5.456  68.439  1.00  0.00    -0.040 C  
BRANCH  25  26
HETATM   26  C   UNL     1      -6.062   4.445  69.519  1.00  0.00    -0.026 C  
HETATM   27  C   UNL     1      -7.032   3.268  69.791  1.00  0.00    -0.041 C  
HETATM   28  C   UNL     1      -6.502   2.434  70.974  1.00  0.00    -0.023 C  
HETATM   29  C   UNL     1      -7.258   2.312  68.620  1.00  0.00    -0.044 C  
ENDBRANCH  25  26
ENDBRANCH   4  25
TORSDOF 2
ENDMDL
MODEL       66
REMARK 921   NORMALIZED FREE ENERGY PREDICTED BY IDOCK:   -4.46 KCAL/MOL
REMARK 922        TOTAL FREE ENERGY PREDICTED BY IDOCK:   -5.22 KCAL/MOL
REMARK 923 INTER-LIGAND FREE ENERGY PREDICTED BY IDOCK:   -5.00 KCAL/MOL
REMARK 924 INTRA-LIGAND FREE ENERGY PREDICTED BY IDOCK:   -0.22 KCAL/MOL
REMARK 927      BINDING AFFINITY PREDICTED BY RF-SCORE:    0.00 PKD
ROOT
HETATM    1  C   UNL     1      -9.154   9.299  68.800  1.00  0.00    -0.136 C  
HETATM    2  C   UNL     1     -10.252  10.611  69.100  1.00  0.00    -0.238 C  
HETATM    3  C   UNL     1      -8.815   8.849  70.203  1.00  0.00    -0.172 C  
HETATM    4  C   UNL     1     -11.180  11.258  68.002  1.00  0.00    -0.351 C  
HETATM    5  C   UNL     1     -10.050   7.971  70.470  1.00  0.00    -0.195 C  
HETATM    6  C   UNL     1     -11.056  10.648  70.449  1.00  0.00    -0.253 C  
HETATM    7  C   UNL     1      -9.989   6.920  69.355  1.00  0.00    -0.166 C  
HETATM    8  C   UNL     1     -10.199   7.997  66.885  1.00  0.00    -0.385 C  
HETATM    9  C   UNL     1      -9.375   7.773  68.172  1.00  0.00    -0.148 C  
HETATM   10  C   UNL     1      -9.208   5.788  70.114  1.00  0.00    -0.173 C  
HETATM   11  C   UNL     1      -8.163   6.873  67.637  1.00  0.00    -0.117 C  
HETATM   12  C   UNL     1     -10.240   4.914  70.852  1.00  0.00    -0.272 C  
HETATM   13  C   UNL     1      -7.303   5.974  68.576  1.00  0.00    -0.085 C  
HETATM   14  C   UNL     1      -8.136   4.982  69.414  1.00  0.00    -0.079 C  
HETATM   15  C   UNL     1      -9.659   3.706  71.513  1.00  0.00    -0.234 C  
HETATM   16  C   UNL     1      -8.378   3.341  71.392  1.00  0.00    -0.082 C  
HETATM   17  C   UNL     1      -7.844   2.381  72.424  1.00  0.00    -0.053 C  
HETATM   18  C   UNL     1      -7.178   3.260  73.477  1.00  0.00    -0.050 C  
HETATM   19  O   UNL     1      -6.690   2.449  74.558  1.00  0.00    -0.024 OA 
HETATM   20  C   UNL     1      -6.035   4.068  72.838  1.00  0.00    -0.015 C  
HETATM   21  C   UNL     1      -6.416   4.832  71.520  1.00  0.00    -0.023 C  
HETATM   22  H   UNL     1      -6.274   2.997  75.214  1.00  0.00     0.000 HD 
HETATM   23  C   UNL     1      -7.348   4.066  70.510  1.00  0.00    -0.041 C  
HETATM   24  C   UNL     1      -6.488   3.020  69.758  1.00  0.00    -0.033 C  
ENDROOT
BRANCH   4  25
HETATM   25  C   UNL     1     -12.104  12.445  68.528  1.00  0.00    -0.126 C  
BRANCH  25  26
HETATM   26  C   UNL     1     -11.347  13.683  69.034  1.00  0.00    -0.333 C  
HETATM   27  C   UNL     1     -12.123  14.654  69.958  1.00  0.00    -0.383 C  
HETATM   28  C   UNL     1     -11.241  15.880  70.266  1.00  0.00    -0.388 C  
HETATM   29  C   UNL     1     -12.583  14.072  71.295  1.00  0.00    -0.444 C  
ENDBRANCH  25  26
ENDBRANCH   4  25
TORSDOF 2
ENDMDL
MODEL       67
REMARK 921   NORMALIZED FREE ENERGY PREDICTED BY IDOCK:   -4.44 KCAL/MOL
REMARK 922        TOTAL FREE ENERGY PREDICTED BY IDOCK:   -5.20 KCAL/MOL
REMARK 923 INTER-LIGAND FREE ENERGY PREDICTED BY IDOCK:   -4.75 KCAL/MOL
REMARK 924 INTRA-LIGAND FREE ENERGY PREDICTED BY IDOCK:   -0.45 KCAL/MOL
REMARK 927      BINDING AFFINITY PREDICTED BY RF-SCORE:    0.00 PKD
ROOT
HETATM    1  C   UNL     1      -6.181  12.070  67.915  1.00  0.00    -0.073 C  
HETATM    2  C   UNL     1      -6.853  10.505  67.576  1.00  0.00    -0.075 C  
HETATM    3  C   UNL     1      -6.954  12.954  66.963  1.00  0.00     0.220 C  
HETATM    4  C   UNL     1      -6.655   9.238  68.493  1.00  0.00    -0.054 C  
HETATM    5  C   UNL     1      -8.230  13.138  67.802  1.00  0.00    -0.168 C  
HETATM    6  C   UNL     1      -8.299  10.402  66.970  1.00  0.00    -0.127 C  
HETATM    7  C   UNL     1      -7.717  13.774  69.100  1.00  0.00     0.145 C  
HETATM    8  C   UNL     1      -6.008  12.171  70.448  1.00  0.00    -0.103 C  
HETATM    9  C   UNL     1      -6.301  13.079  69.234  1.00  0.00    -0.107 C  
HETATM   10  C   UNL     1      -7.918  15.289  68.738  1.00  0.00    -0.158 C  
HETATM   11  C   UNL     1      -5.295  14.301  69.483  1.00  0.00    -0.090 C  
HETATM   12  C   UNL     1      -9.352  15.685  69.138  1.00  0.00    -0.252 C  
HETATM   13  C   UNL     1      -5.500  15.706  68.838  1.00  0.00    -0.103 C  
HETATM   14  C   UNL     1      -6.884  16.323  69.128  1.00  0.00    -0.202 C  
HETATM   15  C   UNL     1      -9.652  17.141  68.982  1.00  0.00    -0.189 C  
HETATM   16  C   UNL     1      -8.736  18.051  68.633  1.00  0.00    -0.272 C  
HETATM   17  C   UNL     1      -9.251  19.367  68.109  1.00  0.00    -0.395 C  
HETATM   18  C   UNL     1      -9.241  19.221  66.591  1.00  0.00    -0.338 C  
HETATM   19  O   UNL     1      -9.785  20.402  65.979  1.00  0.00    -0.655 OA 
HETATM   20  C   UNL     1      -7.806  18.960  66.099  1.00  0.00    -0.272 C  
HETATM   21  C   UNL     1      -7.043  17.813  66.854  1.00  0.00    -0.217 C  
HETATM   22  H   UNL     1      -9.778  20.311  65.033  1.00  0.00     0.000 HD 
HETATM   23  C   UNL     1      -7.246  17.744  68.413  1.00  0.00    -0.250 C  
HETATM   24  C   UNL     1      -6.389  18.859  69.061  1.00  0.00    -0.289 C  
ENDROOT
BRANCH   4  25
HETATM   25  C   UNL     1      -7.377   7.918  67.968  1.00  0.00    -0.096 C  
BRANCH  25  26
HETATM   26  C   UNL     1      -8.221   7.177  69.018  1.00  0.00    -0.125 C  
HETATM   27  C   UNL     1      -9.461   7.920  69.576  1.00  0.00    -0.160 C  
HETATM   28  C   UNL     1     -10.107   7.070  70.687  1.00  0.00    -0.201 C  
HETATM   29  C   UNL     1     -10.552   8.247  68.555  1.00  0.00    -0.143 C  
ENDBRANCH  25  26
ENDBRANCH   4  25
TORSDOF 2
ENDMDL
MODEL       68
REMARK 921   NORMALIZED FREE ENERGY PREDICTED BY IDOCK:   -4.32 KCAL/MOL
REMARK 922        TOTAL FREE ENERGY PREDICTED BY IDOCK:   -5.07 KCAL/MOL
REMARK 923 INTER-LIGAND FREE ENERGY PREDICTED BY IDOCK:   -4.83 KCAL/MOL
REMARK 924 INTRA-LIGAND FREE ENERGY PREDICTED BY IDOCK:   -0.24 KCAL/MOL
REMARK 927      BINDING AFFINITY PREDICTED BY RF-SCORE:    0.00 PKD
ROOT
HETATM    1  C   UNL     1     -10.909   8.600  69.580  1.00  0.00    -0.163 C  
HETATM    2  C   UNL     1     -11.342  10.194  69.042  1.00  0.00    -0.188 C  
HETATM    3  C   UNL     1     -10.755   7.860  68.272  1.00  0.00    -0.088 C  
HETATM    4  C   UNL     1     -11.318  11.476  69.958  1.00  0.00    -0.222 C  
HETATM    5  C   UNL     1      -9.326   8.307  67.919  1.00  0.00    -0.150 C  
HETATM    6  C   UNL     1     -10.921  10.660  67.602  1.00  0.00    -0.370 C  
HETATM    7  C   UNL     1      -8.494   7.819  69.110  1.00  0.00    -0.138 C  
HETATM    8  C   UNL     1      -9.221   8.976  71.442  1.00  0.00    -0.293 C  
HETATM    9  C   UNL     1      -9.531   7.993  70.292  1.00  0.00    -0.167 C  
HETATM   10  C   UNL     1      -8.035   6.426  68.548  1.00  0.00    -0.106 C  
HETATM   11  C   UNL     1      -9.498   6.580  71.046  1.00  0.00    -0.171 C  
HETATM   12  C   UNL     1      -6.732   6.642  67.755  1.00  0.00    -0.071 C  
HETATM   13  C   UNL     1      -9.276   5.231  70.297  1.00  0.00    -0.185 C  
HETATM   14  C   UNL     1      -7.993   5.204  69.439  1.00  0.00    -0.084 C  
HETATM   15  C   UNL     1      -6.093   5.381  67.269  1.00  0.00    -0.030 C  
HETATM   16  C   UNL     1      -6.540   4.159  67.581  1.00  0.00    -0.042 C  
HETATM   17  C   UNL     1      -6.079   3.023  66.703  1.00  0.00    -0.024 C  
HETATM   18  C   UNL     1      -7.193   2.837  65.679  1.00  0.00    -0.066 C  
HETATM   19  O   UNL     1      -6.828   1.816  64.736  1.00  0.00    -0.036 OA 
HETATM   20  C   UNL     1      -8.508   2.478  66.394  1.00  0.00    -0.099 C  
HETATM   21  C   UNL     1      -8.894   3.421  67.589  1.00  0.00    -0.152 C  
HETATM   22  H   UNL     1      -7.523   1.700  64.097  1.00  0.00     0.000 HD 
HETATM   23  C   UNL     1      -7.718   3.880  68.528  1.00  0.00    -0.061 C  
HETATM   24  C   UNL     1      -7.358   2.699  69.463  1.00  0.00    -0.044 C  
ENDROOT
BRANCH   4  25
HETATM   25  C   UNL     1     -11.753  12.824  69.228  1.00  0.00    -0.376 C  
BRANCH  25  26
HETATM   26  C   UNL     1     -12.454  13.854  70.127  1.00  0.00    -0.355 C  
HETATM   27  C   UNL     1     -11.549  14.763  70.995  1.00  0.00    -0.313 C  
HETATM   28  C   UNL     1     -12.430  15.642  71.903  1.00  0.00    -0.505 C  
HETATM   29  C   UNL     1     -10.611  15.693  70.225  1.00  0.00    -0.329 C  
ENDBRANCH  25  26
ENDBRANCH   4  25
TORSDOF 2
ENDMDL
MODEL       69
REMARK 921   NORMALIZED FREE ENERGY PREDICTED BY IDOCK:   -4.27 KCAL/MOL
REMARK 922        TOTAL FREE ENERGY PREDICTED BY IDOCK:   -5.01 KCAL/MOL
REMARK 923 INTER-LIGAND FREE ENERGY PREDICTED BY IDOCK:   -4.77 KCAL/MOL
REMARK 924 INTRA-LIGAND FREE ENERGY PREDICTED BY IDOCK:   -0.24 KCAL/MOL
REMARK 927      BINDING AFFINITY PREDICTED BY RF-SCORE:    0.00 PKD
ROOT
HETATM    1  C   UNL     1      -9.080   9.806  67.958  1.00  0.00    -0.127 C  
HETATM    2  C   UNL     1      -8.587  11.439  67.626  1.00  0.00    -0.130 C  
HETATM    3  C   UNL     1      -7.895   9.274  68.731  1.00  0.00    -0.088 C  
HETATM    4  C   UNL     1      -9.559  12.573  67.121  1.00  0.00    -0.208 C  
HETATM    5  C   UNL     1      -8.252   9.837  70.118  1.00  0.00    -0.202 C  
HETATM    6  C   UNL     1      -7.536  12.131  68.566  1.00  0.00    -0.117 C  
HETATM    7  C   UNL     1      -9.624   9.221  70.413  1.00  0.00    -0.292 C  
HETATM    8  C   UNL     1     -11.520   9.988  68.644  1.00  0.00    -0.033 C  
HETATM    9  C   UNL     1     -10.248   9.170  68.959  1.00  0.00    -0.219 C  
HETATM   10  C   UNL     1      -9.167   7.950  71.213  1.00  0.00    -0.170 C  
HETATM   11  C   UNL     1     -10.780   7.665  68.821  1.00  0.00    -0.106 C  
HETATM   12  C   UNL     1      -9.049   8.343  72.699  1.00  0.00    -0.311 C  
HETATM   13  C   UNL     1     -10.057   6.452  69.484  1.00  0.00    -0.203 C  
HETATM   14  C   UNL     1      -9.846   6.614  71.004  1.00  0.00    -0.196 C  
HETATM   15  C   UNL     1      -8.754   7.200  73.614  1.00  0.00    -0.192 C  
HETATM   16  C   UNL     1      -8.702   5.925  73.212  1.00  0.00    -0.117 C  
HETATM   17  C   UNL     1      -7.993   4.954  74.121  1.00  0.00    -0.101 C  
HETATM   18  C   UNL     1      -6.572   4.865  73.574  1.00  0.00    -0.067 C  
HETATM   19  O   UNL     1      -5.774   4.013  74.412  1.00  0.00    -0.007 OA 
HETATM   20  C   UNL     1      -6.598   4.342  72.127  1.00  0.00    -0.023 C  
HETATM   21  C   UNL     1      -7.603   5.080  71.171  1.00  0.00    -0.086 C  
HETATM   22  H   UNL     1      -4.889   3.957  74.071  1.00  0.00     0.000 HD 
HETATM   23  C   UNL     1      -9.005   5.453  71.780  1.00  0.00    -0.146 C  
HETATM   24  C   UNL     1      -9.866   4.167  71.834  1.00  0.00    -0.251 C  
ENDROOT
BRANCH   4  25
HETATM   25  C   UNL     1      -8.866  13.990  66.895  1.00  0.00    -0.212 C  
BRANCH  25  26
HETATM   26  C   UNL     1      -9.569  15.173  67.578  1.00  0.00    -0.207 C  
HETATM   27  C   UNL     1      -9.814  16.438  66.718  1.00  0.00    -0.265 C  
HETATM   28  C   UNL     1     -10.422  17.545  67.601  1.00  0.00    -0.370 C  
HETATM   29  C   UNL     1     -10.738  16.252  65.514  1.00  0.00    -0.326 C  
ENDBRANCH  25  26
ENDBRANCH   4  25
TORSDOF 2
ENDMDL
MODEL       70
REMARK 921   NORMALIZED FREE ENERGY PREDICTED BY IDOCK:   -4.27 KCAL/MOL
REMARK 922        TOTAL FREE ENERGY PREDICTED BY IDOCK:   -5.01 KCAL/MOL
REMARK 923 INTER-LIGAND FREE ENERGY PREDICTED BY IDOCK:   -4.64 KCAL/MOL
REMARK 924 INTRA-LIGAND FREE ENERGY PREDICTED BY IDOCK:   -0.37 KCAL/MOL
REMARK 927      BINDING AFFINITY PREDICTED BY RF-SCORE:    0.00 PKD
ROOT
HETATM    1  C   UNL     1      -8.402  13.940  68.358  1.00  0.00    -0.157 C  
HETATM    2  C   UNL     1      -9.172  15.144  67.370  1.00  0.00    -0.199 C  
HETATM    3  C   UNL     1      -9.423  12.826  68.345  1.00  0.00    -0.162 C  
HETATM    4  C   UNL     1      -8.435  16.401  66.769  1.00  0.00    -0.279 C  
HETATM    5  C   UNL     1      -9.055  12.190  66.993  1.00  0.00    -0.198 C  
HETATM    6  C   UNL     1     -10.244  14.700  66.312  1.00  0.00    -0.302 C  
HETATM    7  C   UNL     1      -7.583  11.799  67.171  1.00  0.00    -0.155 C  
HETATM    8  C   UNL     1      -5.976  13.930  67.601  1.00  0.00    -0.059 C  
HETATM    9  C   UNL     1      -7.073  12.968  68.107  1.00  0.00    -0.107 C  
HETATM   10  C   UNL     1      -7.770  10.314  67.648  1.00  0.00    -0.090 C  
HETATM   11  C   UNL     1      -6.322  12.207  69.300  1.00  0.00    -0.103 C  
HETATM   12  C   UNL     1      -7.833   9.419  66.395  1.00  0.00    -0.100 C  
HETATM   13  C   UNL     1      -6.789  10.821  69.841  1.00  0.00    -0.146 C  
HETATM   14  C   UNL     1      -6.905   9.738  68.748  1.00  0.00    -0.051 C  
HETATM   15  C   UNL     1      -7.871   7.955  66.689  1.00  0.00    -0.102 C  
HETATM   16  C   UNL     1      -7.750   7.445  67.921  1.00  0.00    -0.116 C  
HETATM   17  C   UNL     1      -8.224   6.027  68.118  1.00  0.00    -0.113 C  
HETATM   18  C   UNL     1      -9.650   6.155  68.641  1.00  0.00    -0.127 C  
HETATM   19  O   UNL     1     -10.235   4.852  68.801  1.00  0.00    -0.142 OA 
HETATM   20  C   UNL     1      -9.653   6.925  69.974  1.00  0.00    -0.158 C  
HETATM   21  C   UNL     1      -8.856   8.278  69.963  1.00  0.00    -0.134 C  
HETATM   22  H   UNL     1     -11.124   4.933  69.128  1.00  0.00     0.000 HD 
HETATM   23  C   UNL     1      -7.489   8.279  69.185  1.00  0.00    -0.086 C  
HETATM   24  C   UNL     1      -6.432   7.564  70.063  1.00  0.00    -0.034 C  
ENDROOT
BRANCH   4  25
HETATM   25  C   UNL     1      -9.359  17.357  65.891  1.00  0.00     0.008 C  
BRANCH  25  26
HETATM   26  C   UNL     1     -10.168  18.392  66.689  1.00  0.00    -0.416 C  
HETATM   27  C   UNL     1      -9.385  19.276  67.692  1.00  0.00    -0.371 C  
HETATM   28  C   UNL     1     -10.376  20.164  68.469  1.00  0.00    -0.352 C  
HETATM   29  C   UNL     1      -8.327  20.194  67.080  1.00  0.00    -0.391 C  
ENDBRANCH  25  26
ENDBRANCH   4  25
TORSDOF 2
ENDMDL
MODEL       71
REMARK 921   NORMALIZED FREE ENERGY PREDICTED BY IDOCK:   -4.12 KCAL/MOL
REMARK 922        TOTAL FREE ENERGY PREDICTED BY IDOCK:   -4.84 KCAL/MOL
REMARK 923 INTER-LIGAND FREE ENERGY PREDICTED BY IDOCK:   -4.63 KCAL/MOL
REMARK 924 INTRA-LIGAND FREE ENERGY PREDICTED BY IDOCK:   -0.22 KCAL/MOL
REMARK 927      BINDING AFFINITY PREDICTED BY RF-SCORE:    0.00 PKD
ROOT
HETATM    1  C   UNL     1      -7.864   9.612  67.091  1.00  0.00    -0.091 C  
HETATM    2  C   UNL     1      -7.726  11.294  67.504  1.00  0.00    -0.122 C  
HETATM    3  C   UNL     1      -7.314   8.941  68.329  1.00  0.00    -0.083 C  
HETATM    4  C   UNL     1      -8.441  12.460  66.721  1.00  0.00    -0.095 C  
HETATM    5  C   UNL     1      -8.577   8.998  69.204  1.00  0.00    -0.133 C  
HETATM    6  C   UNL     1      -7.702  11.715  69.017  1.00  0.00    -0.002 C  
HETATM    7  C   UNL     1      -9.617   8.227  68.383  1.00  0.00    -0.153 C  
HETATM    8  C   UNL     1     -10.149   9.392  66.003  1.00  0.00    -0.302 C  
HETATM    9  C   UNL     1      -9.178   8.606  66.911  1.00  0.00    -0.198 C  
HETATM   10  C   UNL     1      -9.430   6.800  69.011  1.00  0.00    -0.133 C  
HETATM   11  C   UNL     1      -9.091   7.194  66.159  1.00  0.00    -0.155 C  
HETATM   12  C   UNL     1     -10.356   6.697  70.239  1.00  0.00    -0.235 C  
HETATM   13  C   UNL     1      -8.637   5.886  66.875  1.00  0.00    -0.111 C  
HETATM   14  C   UNL     1      -9.453   5.560  68.143  1.00  0.00    -0.133 C  
HETATM   15  C   UNL     1     -10.394   5.342  70.867  1.00  0.00    -0.312 C  
HETATM   16  C   UNL     1      -9.770   4.273  70.358  1.00  0.00    -0.280 C  
HETATM   17  C   UNL     1      -9.541   3.111  71.290  1.00  0.00    -0.229 C  
HETATM   18  C   UNL     1      -8.125   3.303  71.821  1.00  0.00    -0.058 C  
HETATM   19  O   UNL     1      -7.818   2.283  72.785  1.00  0.00    -0.051 OA 
HETATM   20  C   UNL     1      -7.120   3.277  70.657  1.00  0.00    -0.034 C  
HETATM   21  C   UNL     1      -7.478   4.214  69.447  1.00  0.00    -0.054 C  
HETATM   22  H   UNL     1      -6.935   2.402  73.116  1.00  0.00     0.000 HD 
HETATM   23  C   UNL     1      -8.994   4.271  69.031  1.00  0.00    -0.157 C  
HETATM   24  C   UNL     1      -9.327   2.981  68.242  1.00  0.00    -0.253 C  
ENDROOT
BRANCH   4  25
HETATM   25  C   UNL     1      -8.163  13.918  67.299  1.00  0.00    -0.176 C  
BRANCH  25  26
HETATM   26  C   UNL     1      -9.420  14.755  67.588  1.00  0.00    -0.204 C  
HETATM   27  C   UNL     1      -9.234  16.289  67.698  1.00  0.00    -0.206 C  
HETATM   28  C   UNL     1     -10.574  16.936  68.099  1.00  0.00    -0.360 C  
HETATM   29  C   UNL     1      -8.746  16.990  66.431  1.00  0.00    -0.308 C  
ENDBRANCH  25  26
ENDBRANCH   4  25
TORSDOF 2
ENDMDL
MODEL       72
REMARK 921   NORMALIZED FREE ENERGY PREDICTED BY IDOCK:   -4.08 KCAL/MOL
REMARK 922        TOTAL FREE ENERGY PREDICTED BY IDOCK:   -4.80 KCAL/MOL
REMARK 923 INTER-LIGAND FREE ENERGY PREDICTED BY IDOCK:   -4.51 KCAL/MOL
REMARK 924 INTRA-LIGAND FREE ENERGY PREDICTED BY IDOCK:   -0.30 KCAL/MOL
REMARK 927      BINDING AFFINITY PREDICTED BY RF-SCORE:    0.00 PKD
ROOT
HETATM    1  C   UNL     1      -9.549  11.866  67.091  1.00  0.00    -0.192 C  
HETATM    2  C   UNL     1      -8.847  13.450  67.203  1.00  0.00    -0.225 C  
HETATM    3  C   UNL     1      -8.376  11.037  66.622  1.00  0.00    -0.155 C  
HETATM    4  C   UNL     1      -9.517  14.667  67.949  1.00  0.00    -0.210 C  
HETATM    5  C   UNL     1      -7.690  10.816  67.981  1.00  0.00    -0.101 C  
HETATM    6  C   UNL     1      -7.296  13.591  67.413  1.00  0.00    -0.124 C  
HETATM    7  C   UNL     1      -8.765  10.111  68.815  1.00  0.00    -0.138 C  
HETATM    8  C   UNL     1     -10.969  11.632  69.185  1.00  0.00    -0.270 C  
HETATM    9  C   UNL     1     -10.078  10.790  68.247  1.00  0.00    -0.187 C  
HETATM   10  C   UNL     1      -8.364   8.618  68.540  1.00  0.00    -0.123 C  
HETATM   11  C   UNL     1     -11.035   9.552  67.904  1.00  0.00    -0.172 C  
HETATM   12  C   UNL     1      -7.314   8.209  69.590  1.00  0.00    -0.073 C  
HETATM   13  C   UNL     1     -10.490   8.184  67.391  1.00  0.00    -0.356 C  
HETATM   14  C   UNL     1      -9.421   7.559  68.312  1.00  0.00    -0.146 C  
HETATM   15  C   UNL     1      -6.931   6.765  69.546  1.00  0.00    -0.067 C  
HETATM   16  C   UNL     1      -7.519   5.869  68.744  1.00  0.00    -0.086 C  
HETATM   17  C   UNL     1      -6.770   4.585  68.496  1.00  0.00    -0.047 C  
HETATM   18  C   UNL     1      -6.021   4.810  67.187  1.00  0.00    -0.027 C  
HETATM   19  O   UNL     1      -5.207   3.665  66.883  1.00  0.00    -0.011 OA 
HETATM   20  C   UNL     1      -7.021   5.089  66.051  1.00  0.00    -0.066 C  
HETATM   21  C   UNL     1      -8.096   6.191  66.367  1.00  0.00    -0.111 C  
HETATM   22  H   UNL     1      -4.741   3.805  66.067  1.00  0.00     0.000 HD 
HETATM   23  C   UNL     1      -8.706   6.180  67.817  1.00  0.00    -0.112 C  
HETATM   24  C   UNL     1      -9.738   5.028  67.898  1.00  0.00    -0.196 C  
ENDROOT
BRANCH   4  25
HETATM   25  C   UNL     1      -8.670  16.016  67.916  1.00  0.00    -0.165 C  
BRANCH  25  26
HETATM   26  C   UNL     1      -9.503  17.305  67.838  1.00  0.00    -0.266 C  
HETATM   27  C   UNL     1      -9.647  17.967  66.445  1.00  0.00    -0.301 C  
HETATM   28  C   UNL     1     -10.415  19.296  66.590  1.00  0.00    -0.541 C  
HETATM   29  C   UNL     1     -10.368  17.133  65.386  1.00  0.00    -0.038 C  
ENDBRANCH  25  26
ENDBRANCH   4  25
TORSDOF 2
ENDMDL
MODEL       73
REMARK 921   NORMALIZED FREE ENERGY PREDICTED BY IDOCK:   -4.02 KCAL/MOL
REMARK 922        TOTAL FREE ENERGY PREDICTED BY IDOCK:   -4.74 KCAL/MOL
REMARK 923 INTER-LIGAND FREE ENERGY PREDICTED BY IDOCK:   -4.43 KCAL/MOL
REMARK 924 INTRA-LIGAND FREE ENERGY PREDICTED BY IDOCK:   -0.31 KCAL/MOL
REMARK 927      BINDING AFFINITY PREDICTED BY RF-SCORE:    0.00 PKD
ROOT
HETATM    1  C   UNL     1     -10.841  10.361  66.693  1.00  0.00    -0.140 C  
HETATM    2  C   UNL     1     -10.969  12.028  66.220  1.00  0.00    -0.340 C  
HETATM    3  C   UNL     1     -10.155   9.749  65.493  1.00  0.00    -0.242 C  
HETATM    4  C   UNL     1     -11.316  13.205  67.209  1.00  0.00    -0.344 C  
HETATM    5  C   UNL     1      -8.704  10.128  65.837  1.00  0.00    -0.159 C  
HETATM    6  C   UNL     1      -9.962  12.607  65.163  1.00  0.00    -0.194 C  
HETATM    7  C   UNL     1      -8.473   9.465  67.199  1.00  0.00    -0.128 C  
HETATM    8  C   UNL     1     -10.108  10.427  69.125  1.00  0.00    -0.236 C  
HETATM    9  C   UNL     1      -9.914   9.590  67.842  1.00  0.00    -0.209 C  
HETATM   10  C   UNL     1      -7.845   8.108  66.719  1.00  0.00    -0.095 C  
HETATM   11  C   UNL     1     -10.235   8.109  68.360  1.00  0.00    -0.240 C  
HETATM   12  C   UNL     1      -6.323   8.312  66.586  1.00  0.00    -0.055 C  
HETATM   13  C   UNL     1      -9.739   6.831  67.618  1.00  0.00    -0.146 C  
HETATM   14  C   UNL     1      -8.214   6.802  67.388  1.00  0.00    -0.122 C  
HETATM   15  C   UNL     1      -5.563   7.066  66.267  1.00  0.00    -0.026 C  
HETATM   16  C   UNL     1      -6.124   5.852  66.208  1.00  0.00    -0.029 C  
HETATM   17  C   UNL     1      -5.353   4.782  65.478  1.00  0.00    -0.013 C  
HETATM   18  C   UNL     1      -5.923   4.780  64.064  1.00  0.00    -0.018 C  
HETATM   19  O   UNL     1      -5.209   3.837  63.247  1.00  0.00    -0.005 OA 
HETATM   20  C   UNL     1      -7.424   4.443  64.104  1.00  0.00    -0.070 C  
HETATM   21  C   UNL     1      -8.268   5.284  65.128  1.00  0.00    -0.135 C  
HETATM   22  H   UNL     1      -5.565   3.835  62.365  1.00  0.00     0.000 HD 
HETATM   23  C   UNL     1      -7.600   5.561  66.525  1.00  0.00    -0.088 C  
HETATM   24  C   UNL     1      -7.699   4.269  67.373  1.00  0.00    -0.084 C  
ENDROOT
BRANCH   4  25
HETATM   25  C   UNL     1     -11.369  14.647  66.534  1.00  0.00    -0.353 C  
BRANCH  25  26
HETATM   26  C   UNL     1     -11.353  15.827  67.518  1.00  0.00    -0.150 C  
HETATM   27  C   UNL     1      -9.967  16.315  68.010  1.00  0.00    -0.240 C  
HETATM   28  C   UNL     1     -10.161  17.420  69.067  1.00  0.00    -0.317 C  
HETATM   29  C   UNL     1      -9.039  16.870  66.930  1.00  0.00    -0.248 C  
ENDBRANCH  25  26
ENDBRANCH   4  25
TORSDOF 2
ENDMDL
MODEL       74
REMARK 921   NORMALIZED FREE ENERGY PREDICTED BY IDOCK:   -4.01 KCAL/MOL
REMARK 922        TOTAL FREE ENERGY PREDICTED BY IDOCK:   -4.72 KCAL/MOL
REMARK 923 INTER-LIGAND FREE ENERGY PREDICTED BY IDOCK:   -4.90 KCAL/MOL
REMARK 924 INTRA-LIGAND FREE ENERGY PREDICTED BY IDOCK:    0.18 KCAL/MOL
REMARK 927      BINDING AFFINITY PREDICTED BY RF-SCORE:    0.00 PKD
ROOT
HETATM    1  C   UNL     1     -10.624  13.113  66.927  1.00  0.00    -0.265 C  
HETATM    2  C   UNL     1     -10.157  14.759  67.224  1.00  0.00    -0.236 C  
HETATM    3  C   UNL     1      -9.511  12.631  66.024  1.00  0.00    -0.140 C  
HETATM    4  C   UNL     1     -10.774  15.664  68.358  1.00  0.00    -0.271 C  
HETATM    5  C   UNL     1      -8.461  12.311  67.103  1.00  0.00    -0.184 C  
HETATM    6  C   UNL     1      -8.645  15.165  67.096  1.00  0.00    -0.247 C  
HETATM    7  C   UNL     1      -9.159  11.268  67.984  1.00  0.00    -0.156 C  
HETATM    8  C   UNL     1     -11.381  12.231  69.186  1.00  0.00    -0.330 C  
HETATM    9  C   UNL     1     -10.660  11.764  67.902  1.00  0.00    -0.231 C  
HETATM   10  C   UNL     1      -8.632   9.959  67.296  1.00  0.00    -0.125 C  
HETATM   11  C   UNL     1     -11.482  10.443  67.522  1.00  0.00     0.098 C  
HETATM   12  C   UNL     1      -7.291   9.585  67.955  1.00  0.00    -0.082 C  
HETATM   13  C   UNL     1     -10.901   9.325  66.604  1.00  0.00     0.078 C  
HETATM   14  C   UNL     1      -9.545   8.770  67.088  1.00  0.00    -0.228 C  
HETATM   15  C   UNL     1      -6.727   8.277  67.501  1.00  0.00    -0.063 C  
HETATM   16  C   UNL     1      -7.371   7.441  66.678  1.00  0.00    -0.084 C  
HETATM   17  C   UNL     1      -6.536   6.397  65.982  1.00  0.00    -0.048 C  
HETATM   18  C   UNL     1      -6.206   6.997  64.620  1.00  0.00    -0.037 C  
HETATM   19  O   UNL     1      -5.345   6.110  63.887  1.00  0.00    -0.017 OA 
HETATM   20  C   UNL     1      -7.503   7.271  63.839  1.00  0.00    -0.100 C  
HETATM   21  C   UNL     1      -8.603   8.063  64.633  1.00  0.00     0.085 C  
HETATM   22  H   UNL     1      -5.139   6.484  63.038  1.00  0.00     0.000 HD 
HETATM   23  C   UNL     1      -8.794   7.672  66.145  1.00  0.00    -0.192 C  
HETATM   24  C   UNL     1      -9.587   6.342  66.203  1.00  0.00    -0.059 C  
ENDROOT
BRANCH   4  25
HETATM   25  C   UNL     1     -10.173  17.138  68.432  1.00  0.00    -0.340 C  
BRANCH  25  26
HETATM   26  C   UNL     1     -10.120  17.887  67.091  1.00  0.00    -0.340 C  
HETATM   27  C   UNL     1     -10.746  19.304  67.051  1.00  0.00    -0.565 C  
HETATM   28  C   UNL     1     -10.696  19.841  65.607  1.00  0.00    -0.418 C  
HETATM   29  C   UNL     1     -10.085  20.346  67.952  1.00  0.00    -0.408 C  
ENDBRANCH  25  26
ENDBRANCH   4  25
TORSDOF 2
ENDMDL
MODEL       75
REMARK 921   NORMALIZED FREE ENERGY PREDICTED BY IDOCK:   -3.91 KCAL/MOL
REMARK 922        TOTAL FREE ENERGY PREDICTED BY IDOCK:   -4.61 KCAL/MOL
REMARK 923 INTER-LIGAND FREE ENERGY PREDICTED BY IDOCK:   -4.31 KCAL/MOL
REMARK 924 INTRA-LIGAND FREE ENERGY PREDICTED BY IDOCK:   -0.30 KCAL/MOL
REMARK 927      BINDING AFFINITY PREDICTED BY RF-SCORE:    0.00 PKD
ROOT
HETATM    1  C   UNL     1      -8.436   9.034  67.999  1.00  0.00    -0.125 C  
HETATM    2  C   UNL     1      -9.683  10.225  68.212  1.00  0.00    -0.154 C  
HETATM    3  C   UNL     1      -8.377   8.397  69.369  1.00  0.00    -0.120 C  
HETATM    4  C   UNL     1     -10.398  10.980  67.028  1.00  0.00    -0.269 C  
HETATM    5  C   UNL     1      -9.559   7.423  69.222  1.00  0.00    -0.154 C  
HETATM    6  C   UNL     1     -10.764  10.015  69.332  1.00  0.00    -0.258 C  
HETATM    7  C   UNL     1      -9.163   6.557  68.020  1.00  0.00    -0.111 C  
HETATM    8  C   UNL     1      -8.916   7.983  65.737  1.00  0.00    -0.148 C  
HETATM    9  C   UNL     1      -8.380   7.612  67.136  1.00  0.00    -0.121 C  
HETATM   10  C   UNL     1      -8.473   5.368  68.779  1.00  0.00    -0.096 C  
HETATM   11  C   UNL     1      -7.006   6.870  66.779  1.00  0.00    -0.066 C  
HETATM   12  C   UNL     1      -9.563   4.338  69.133  1.00  0.00    -0.249 C  
HETATM   13  C   UNL     1      -6.300   5.886  67.761  1.00  0.00    -0.038 C  
HETATM   14  C   UNL     1      -7.208   4.735  68.242  1.00  0.00    -0.065 C  
HETATM   15  C   UNL     1      -9.040   3.076  69.741  1.00  0.00    -0.200 C  
HETATM   16  C   UNL     1      -7.736   2.804  69.871  1.00  0.00    -0.045 C  
HETATM   17  C   UNL     1      -7.362   1.728  70.858  1.00  0.00    -0.033 C  
HETATM   18  C   UNL     1      -7.023   2.472  72.145  1.00  0.00    -0.030 C  
HETATM   19  O   UNL     1      -6.717   1.534  73.190  1.00  0.00    -0.013 OA 
HETATM   20  C   UNL     1      -5.842   3.428  71.903  1.00  0.00    -0.009 C  
HETATM   21  C   UNL     1      -5.988   4.361  70.648  1.00  0.00    -0.014 C  
HETATM   22  H   UNL     1      -6.506   1.998  73.992  1.00  0.00     0.000 HD 
HETATM   23  C   UNL     1      -6.604   3.708  69.357  1.00  0.00    -0.034 C  
HETATM   24  C   UNL     1      -5.513   2.836  68.688  1.00  0.00    -0.014 C  
ENDROOT
BRANCH   4  25
HETATM   25  C   UNL     1     -11.514  12.023  67.482  1.00  0.00    -0.403 C  
BRANCH  25  26
HETATM   26  C   UNL     1     -11.300  13.461  66.986  1.00  0.00    -0.346 C  
HETATM   27  C   UNL     1     -11.068  13.655  65.467  1.00  0.00    -0.301 C  
HETATM   28  C   UNL     1     -10.764  15.139  65.183  1.00  0.00    -0.442 C  
HETATM   29  C   UNL     1     -12.228  13.243  64.561  1.00  0.00    -0.456 C  
ENDBRANCH  25  26
ENDBRANCH   4  25
TORSDOF 2
ENDMDL
MODEL       76
REMARK 921   NORMALIZED FREE ENERGY PREDICTED BY IDOCK:   -3.81 KCAL/MOL
REMARK 922        TOTAL FREE ENERGY PREDICTED BY IDOCK:   -4.50 KCAL/MOL
REMARK 923 INTER-LIGAND FREE ENERGY PREDICTED BY IDOCK:   -4.16 KCAL/MOL
REMARK 924 INTRA-LIGAND FREE ENERGY PREDICTED BY IDOCK:   -0.34 KCAL/MOL
REMARK 927      BINDING AFFINITY PREDICTED BY RF-SCORE:    0.00 PKD
ROOT
HETATM    1  C   UNL     1     -10.197   9.602  67.573  1.00  0.00    -0.274 C  
HETATM    2  C   UNL     1      -9.876  11.265  67.185  1.00  0.00    -0.213 C  
HETATM    3  C   UNL     1     -10.159   8.951  66.209  1.00  0.00    -0.284 C  
HETATM    4  C   UNL     1      -9.480  12.362  68.245  1.00  0.00    -0.203 C  
HETATM    5  C   UNL     1      -8.635   8.796  66.069  1.00  0.00    -0.166 C  
HETATM    6  C   UNL     1      -9.098  11.611  65.865  1.00  0.00    -0.155 C  
HETATM    7  C   UNL     1      -8.250   7.933  67.276  1.00  0.00    -0.122 C  
HETATM    8  C   UNL     1      -8.792   9.132  69.637  1.00  0.00    -0.152 C  
HETATM    9  C   UNL     1      -9.295   8.440  68.352  1.00  0.00    -0.137 C  
HETATM   10  C   UNL     1      -8.305   6.515  66.604  1.00  0.00    -0.113 C  
HETATM   11  C   UNL     1      -9.936   7.091  68.931  1.00  0.00    -0.160 C  
HETATM   12  C   UNL     1      -6.922   6.229  65.987  1.00  0.00    -0.065 C  
HETATM   13  C   UNL     1     -10.161   5.821  68.054  1.00  0.00    -0.198 C  
HETATM   14  C   UNL     1      -8.883   5.328  67.342  1.00  0.00    -0.105 C  
HETATM   15  C   UNL     1      -6.772   4.852  65.427  1.00  0.00    -0.052 C  
HETATM   16  C   UNL     1      -7.708   3.903  65.540  1.00  0.00    -0.085 C  
HETATM   17  C   UNL     1      -7.613   2.738  64.588  1.00  0.00    -0.076 C  
HETATM   18  C   UNL     1      -8.545   3.092  63.434  1.00  0.00    -0.086 C  
HETATM   19  O   UNL     1      -8.482   2.075  62.420  1.00  0.00    -0.070 OA 
HETATM   20  C   UNL     1      -9.984   3.257  63.955  1.00  0.00    -0.176 C  
HETATM   21  C   UNL     1     -10.135   4.195  65.206  1.00  0.00    -0.213 C  
HETATM   22  H   UNL     1      -9.063   2.296  61.702  1.00  0.00     0.000 HD 
HETATM   23  C   UNL     1      -9.026   4.070  66.314  1.00  0.00    -0.127 C  
HETATM   24  C   UNL     1      -9.306   2.786  67.135  1.00  0.00    -0.130 C  
ENDROOT
BRANCH   4  25
HETATM   25  C   UNL     1      -9.232  13.814  67.639  1.00  0.00    -0.207 C  
BRANCH  25  26
HETATM   26  C   UNL     1     -10.405  14.794  67.797  1.00  0.00    -0.244 C  
HETATM   27  C   UNL     1     -11.042  14.908  69.204  1.00  0.00    -0.279 C  
HETATM   28  C   UNL     1     -12.263  15.846  69.136  1.00  0.00    -0.013 C  
HETATM   29  C   UNL     1     -10.122  15.431  70.308  1.00  0.00    -0.053 C  
ENDBRANCH  25  26
ENDBRANCH   4  25
TORSDOF 2
ENDMDL
MODEL       77
REMARK 921   NORMALIZED FREE ENERGY PREDICTED BY IDOCK:   -3.80 KCAL/MOL
REMARK 922        TOTAL FREE ENERGY PREDICTED BY IDOCK:   -4.49 KCAL/MOL
REMARK 923 INTER-LIGAND FREE ENERGY PREDICTED BY IDOCK:   -4.43 KCAL/MOL
REMARK 924 INTRA-LIGAND FREE ENERGY PREDICTED BY IDOCK:   -0.06 KCAL/MOL
REMARK 927      BINDING AFFINITY PREDICTED BY RF-SCORE:    0.00 PKD
ROOT
HETATM    1  C   UNL     1      -6.384   8.887  68.560  1.00  0.00    -0.054 C  
HETATM    2  C   UNL     1      -6.421   7.185  68.905  1.00  0.00    -0.032 C  
HETATM    3  C   UNL     1      -7.559   9.040  67.621  1.00  0.00    -0.093 C  
HETATM    4  C   UNL     1      -5.623   6.502  70.080  1.00  0.00    -0.018 C  
HETATM    5  C   UNL     1      -8.684   9.109  68.667  1.00  0.00    -0.129 C  
HETATM    6  C   UNL     1      -7.774   6.399  68.762  1.00  0.00    -0.101 C  
HETATM    7  C   UNL     1      -8.302  10.321  69.525  1.00  0.00    -0.162 C  
HETATM    8  C   UNL     1      -5.940   9.998  70.801  1.00  0.00    -0.095 C  
HETATM    9  C   UNL     1      -6.722  10.226  69.489  1.00  0.00    -0.073 C  
HETATM   10  C   UNL     1      -9.129  11.430  68.783  1.00  0.00    -0.096 C  
HETATM   11  C   UNL     1      -6.257  11.703  69.079  1.00  0.00    -0.066 C  
HETATM   12  C   UNL     1     -10.538  11.465  69.404  1.00  0.00    -0.097 C  
HETATM   13  C   UNL     1      -7.081  12.608  68.112  1.00  0.00    -0.102 C  
HETATM   14  C   UNL     1      -8.547  12.808  68.552  1.00  0.00    -0.048 C  
HETATM   15  C   UNL     1     -11.406  12.569  68.895  1.00  0.00    -0.346 C  
HETATM   16  C   UNL     1     -10.977  13.519  68.056  1.00  0.00    -0.271 C  
HETATM   17  C   UNL     1     -12.033  14.293  67.308  1.00  0.00    -0.439 C  
HETATM   18  C   UNL     1     -12.161  13.590  65.962  1.00  0.00    -0.445 C  
HETATM   19  O   UNL     1     -13.201  14.204  65.182  1.00  0.00    -0.743 OA 
HETATM   20  C   UNL     1     -10.816  13.637  65.215  1.00  0.00    -0.324 C  
HETATM   21  C   UNL     1      -9.572  13.178  66.057  1.00  0.00    -0.169 C  
HETATM   22  H   UNL     1     -13.280  13.766  64.343  1.00  0.00     0.000 HD 
HETATM   23  C   UNL     1      -9.528  13.649  67.557  1.00  0.00    -0.222 C  
HETATM   24  C   UNL     1      -9.106  15.139  67.584  1.00  0.00    -0.181 C  
ENDROOT
BRANCH   4  25
HETATM   25  C   UNL     1      -5.826   4.925  70.194  1.00  0.00    -0.017 C  
BRANCH  25  26
HETATM   26  C   UNL     1      -5.170   4.103  69.073  1.00  0.00    -0.011 C  
HETATM   27  C   UNL     1      -6.026   2.983  68.429  1.00  0.00    -0.024 C  
HETATM   28  C   UNL     1      -5.166   2.204  67.415  1.00  0.00    -0.012 C  
HETATM   29  C   UNL     1      -7.286   3.450  67.700  1.00  0.00    -0.058 C  
ENDBRANCH  25  26
ENDBRANCH   4  25
TORSDOF 2
ENDMDL
MODEL       78
REMARK 921   NORMALIZED FREE ENERGY PREDICTED BY IDOCK:   -3.67 KCAL/MOL
REMARK 922        TOTAL FREE ENERGY PREDICTED BY IDOCK:   -4.34 KCAL/MOL
REMARK 923 INTER-LIGAND FREE ENERGY PREDICTED BY IDOCK:   -4.64 KCAL/MOL
REMARK 924 INTRA-LIGAND FREE ENERGY PREDICTED BY IDOCK:    0.30 KCAL/MOL
REMARK 927      BINDING AFFINITY PREDICTED BY RF-SCORE:    0.00 PKD
ROOT
HETATM    1  C   UNL     1      -8.378   7.133  68.030  1.00  0.00    -0.119 C  
HETATM    2  C   UNL     1      -8.226   6.584  69.671  1.00  0.00    -0.126 C  
HETATM    3  C   UNL     1      -9.587   8.037  68.115  1.00  0.00    -0.165 C  
HETATM    4  C   UNL     1      -6.948   5.865  70.251  1.00  0.00    -0.062 C  
HETATM    5  C   UNL     1      -8.894   9.302  68.647  1.00  0.00    -0.132 C  
HETATM    6  C   UNL     1      -8.817   7.460  70.834  1.00  0.00    -0.148 C  
HETATM    7  C   UNL     1      -7.848   9.618  67.572  1.00  0.00    -0.095 C  
HETATM    8  C   UNL     1      -6.003   7.661  67.296  1.00  0.00    -0.047 C  
HETATM    9  C   UNL     1      -7.452   8.159  67.102  1.00  0.00    -0.089 C  
HETATM   10  C   UNL     1      -8.678  10.624  66.696  1.00  0.00    -0.144 C  
HETATM   11  C   UNL     1      -7.569   8.224  65.505  1.00  0.00    -0.087 C  
HETATM   12  C   UNL     1      -8.474  12.036  67.276  1.00  0.00    -0.175 C  
HETATM   13  C   UNL     1      -8.633   9.097  64.773  1.00  0.00    -0.209 C  
HETATM   14  C   UNL     1      -8.601  10.584  65.185  1.00  0.00    -0.187 C  
HETATM   15  C   UNL     1      -9.093  13.128  66.466  1.00  0.00    -0.135 C  
HETATM   16  C   UNL     1      -9.682  12.926  65.281  1.00  0.00    -0.006 C  
HETATM   17  C   UNL     1     -10.613  14.005  64.792  1.00  0.00    -0.441 C  
HETATM   18  C   UNL     1     -12.005  13.551  65.217  1.00  0.00    -0.373 C  
HETATM   19  O   UNL     1     -12.978  14.547  64.863  1.00  0.00    -0.569 OA 
HETATM   20  C   UNL     1     -12.339  12.200  64.560  1.00  0.00    -0.395 C  
HETATM   21  C   UNL     1     -11.234  11.094  64.713  1.00  0.00    -0.040 C  
HETATM   22  H   UNL     1     -13.846  14.263  65.129  1.00  0.00     0.000 HD 
HETATM   23  C   UNL     1      -9.742  11.569  64.561  1.00  0.00    -0.236 C  
HETATM   24  C   UNL     1      -9.451  11.773  63.054  1.00  0.00    -0.134 C  
ENDROOT
BRANCH   4  25
HETATM   25  C   UNL     1      -7.052   5.463  71.789  1.00  0.00    -0.076 C  
BRANCH  25  26
HETATM   26  C   UNL     1      -7.887   4.205  72.077  1.00  0.00    -0.084 C  
HETATM   27  C   UNL     1      -8.638   3.569  70.881  1.00  0.00    -0.112 C  
HETATM   28  C   UNL     1      -9.501   2.397  71.386  1.00  0.00    -0.213 C  
HETATM   29  C   UNL     1      -7.756   3.037  69.751  1.00  0.00    -0.045 C  
ENDBRANCH  25  26
ENDBRANCH   4  25
TORSDOF 2
ENDMDL
MODEL       79
REMARK 921   NORMALIZED FREE ENERGY PREDICTED BY IDOCK:   -3.65 KCAL/MOL
REMARK 922        TOTAL FREE ENERGY PREDICTED BY IDOCK:   -4.32 KCAL/MOL
REMARK 923 INTER-LIGAND FREE ENERGY PREDICTED BY IDOCK:   -4.12 KCAL/MOL
REMARK 924 INTRA-LIGAND FREE ENERGY PREDICTED BY IDOCK:   -0.20 KCAL/MOL
REMARK 927      BINDING AFFINITY PREDICTED BY RF-SCORE:    0.00 PKD
ROOT
HETATM    1  C   UNL     1      -6.671  10.473  67.548  1.00  0.00    -0.070 C  
HETATM    2  C   UNL     1      -6.994   8.898  66.890  1.00  0.00    -0.078 C  
HETATM    3  C   UNL     1      -7.260  11.379  66.490  1.00  0.00    -0.057 C  
HETATM    4  C   UNL     1      -6.888   7.557  67.711  1.00  0.00    -0.071 C  
HETATM    5  C   UNL     1      -8.734  11.318  66.928  1.00  0.00    -0.157 C  
HETATM    6  C   UNL     1      -8.181   8.715  65.878  1.00  0.00    -0.123 C  
HETATM    7  C   UNL     1      -8.702  11.840  68.369  1.00  0.00    -0.155 C  
HETATM    8  C   UNL     1      -7.235  10.278  70.017  1.00  0.00    -0.164 C  
HETATM    9  C   UNL     1      -7.298  11.292  68.855  1.00  0.00    -0.115 C  
HETATM   10  C   UNL     1      -9.002  13.357  68.098  1.00  0.00    -0.188 C  
HETATM   11  C   UNL     1      -6.585  12.575  69.495  1.00  0.00    -0.039 C  
HETATM   12  C   UNL     1     -10.531  13.543  68.088  1.00  0.00    -0.249 C  
HETATM   13  C   UNL     1      -6.794  14.018  68.943  1.00  0.00    -0.108 C  
HETATM   14  C   UNL     1      -8.276  14.441  68.864  1.00  0.00    -0.082 C  
HETATM   15  C   UNL     1     -10.976  14.965  67.978  1.00  0.00    -0.282 C  
HETATM   16  C   UNL     1     -10.135  16.006  67.996  1.00  0.00    -0.240 C  
HETATM   17  C   UNL     1     -10.661  17.313  67.460  1.00  0.00    -0.329 C  
HETATM   18  C   UNL     1     -10.202  17.358  66.006  1.00  0.00    -0.300 C  
HETATM   19  O   UNL     1     -10.711  18.540  65.366  1.00  0.00    -0.585 OA 
HETATM   20  C   UNL     1      -8.666  17.317  65.939  1.00  0.00     0.012 C  
HETATM   21  C   UNL     1      -7.993  16.175  66.784  1.00  0.00    -0.307 C  
HETATM   22  H   UNL     1     -10.425  18.568  64.460  1.00  0.00     0.000 HD 
HETATM   23  C   UNL     1      -8.616  15.892  68.200  1.00  0.00    -0.169 C  
HETATM   24  C   UNL     1      -8.142  17.004  69.168  1.00  0.00    -0.052 C  
ENDROOT
BRANCH   4  25
HETATM   25  C   UNL     1      -7.240   6.241  66.883  1.00  0.00    -0.074 C  
BRANCH  25  26
HETATM   26  C   UNL     1      -6.140   5.762  65.924  1.00  0.00    -0.029 C  
HETATM   27  C   UNL     1      -6.573   5.402  64.480  1.00  0.00    -0.042 C  
HETATM   28  C   UNL     1      -5.361   4.841  63.710  1.00  0.00    -0.009 C  
HETATM   29  C   UNL     1      -7.148   6.553  63.655  1.00  0.00    -0.055 C  
ENDBRANCH  25  26
ENDBRANCH   4  25
TORSDOF 2
ENDMDL
MODEL       80
REMARK 921   NORMALIZED FREE ENERGY PREDICTED BY IDOCK:   -3.47 KCAL/MOL
REMARK 922        TOTAL FREE ENERGY PREDICTED BY IDOCK:   -4.12 KCAL/MOL
REMARK 923 INTER-LIGAND FREE ENERGY PREDICTED BY IDOCK:   -4.23 KCAL/MOL
REMARK 924 INTRA-LIGAND FREE ENERGY PREDICTED BY IDOCK:    0.12 KCAL/MOL
REMARK 927      BINDING AFFINITY PREDICTED BY RF-SCORE:    0.00 PKD
ROOT
HETATM    1  C   UNL     1      -9.076  10.457  66.682  1.00  0.00    -0.169 C  
HETATM    2  C   UNL     1      -9.989  11.670  65.837  1.00  0.00    -0.264 C  
HETATM    3  C   UNL     1      -9.528   9.190  65.992  1.00  0.00    -0.321 C  
HETATM    4  C   UNL     1      -9.691  13.216  65.912  1.00  0.00    -0.190 C  
HETATM    5  C   UNL     1      -8.611   9.257  64.760  1.00  0.00    -0.207 C  
HETATM    6  C   UNL     1     -10.492  11.378  64.378  1.00  0.00    -0.388 C  
HETATM    7  C   UNL     1      -7.201   9.271  65.363  1.00  0.00    -0.090 C  
HETATM    8  C   UNL     1      -6.744  11.438  66.912  1.00  0.00    -0.145 C  
HETATM    9  C   UNL     1      -7.454  10.084  66.697  1.00  0.00    -0.104 C  
HETATM   10  C   UNL     1      -6.891   7.732  65.322  1.00  0.00    -0.051 C  
HETATM   11  C   UNL     1      -6.786   9.175  67.835  1.00  0.00    -0.068 C  
HETATM   12  C   UNL     1      -6.276   7.409  63.947  1.00  0.00    -0.048 C  
HETATM   13  C   UNL     1      -6.779   7.617  67.772  1.00  0.00    -0.067 C  
HETATM   14  C   UNL     1      -6.174   7.053  66.469  1.00  0.00    -0.042 C  
HETATM   15  C   UNL     1      -5.797   6.000  63.805  1.00  0.00    -0.022 C  
HETATM   16  C   UNL     1      -5.796   5.115  64.808  1.00  0.00    -0.017 C  
HETATM   17  C   UNL     1      -5.696   3.659  64.430  1.00  0.00    -0.014 C  
HETATM   18  C   UNL     1      -7.136   3.159  64.396  1.00  0.00    -0.057 C  
HETATM   19  O   UNL     1      -7.171   1.786  63.973  1.00  0.00    -0.051 OA 
HETATM   20  C   UNL     1      -7.781   3.322  65.784  1.00  0.00    -0.081 C  
HETATM   21  C   UNL     1      -7.615   4.744  66.432  1.00  0.00    -0.087 C  
HETATM   22  H   UNL     1      -8.069   1.475  63.953  1.00  0.00     0.000 HD 
HETATM   23  C   UNL     1      -6.216   5.438  66.252  1.00  0.00    -0.034 C  
HETATM   24  C   UNL     1      -5.219   4.778  67.237  1.00  0.00    -0.008 C  
ENDROOT
BRANCH   4  25
HETATM   25  C   UNL     1     -10.668  14.125  65.041  1.00  0.00    -0.429 C  
BRANCH  25  26
HETATM   26  C   UNL     1     -10.884  15.548  65.578  1.00  0.00    -0.372 C  
HETATM   27  C   UNL     1     -10.087  15.951  66.845  1.00  0.00    -0.267 C  
HETATM   28  C   UNL     1     -10.519  17.361  67.291  1.00  0.00    -0.321 C  
HETATM   29  C   UNL     1      -8.566  15.962  66.695  1.00  0.00    -0.320 C  
ENDBRANCH  25  26
ENDBRANCH   4  25
TORSDOF 2
ENDMDL
MODEL       81
REMARK 921   NORMALIZED FREE ENERGY PREDICTED BY IDOCK:   -3.25 KCAL/MOL
REMARK 922        TOTAL FREE ENERGY PREDICTED BY IDOCK:   -3.87 KCAL/MOL
REMARK 923 INTER-LIGAND FREE ENERGY PREDICTED BY IDOCK:   -3.70 KCAL/MOL
REMARK 924 INTRA-LIGAND FREE ENERGY PREDICTED BY IDOCK:   -0.17 KCAL/MOL
REMARK 927      BINDING AFFINITY PREDICTED BY RF-SCORE:    0.00 PKD
ROOT
HETATM    1  C   UNL     1      -7.164  10.876  67.996  1.00  0.00    -0.086 C  
HETATM    2  C   UNL     1      -8.208  12.264  67.968  1.00  0.00    -0.163 C  
HETATM    3  C   UNL     1      -8.132   9.764  68.330  1.00  0.00    -0.104 C  
HETATM    4  C   UNL     1      -7.808  13.662  67.361  1.00  0.00    -0.162 C  
HETATM    5  C   UNL     1      -8.695   9.516  66.921  1.00  0.00    -0.136 C  
HETATM    6  C   UNL     1      -9.740  12.068  67.680  1.00  0.00    -0.187 C  
HETATM    7  C   UNL     1      -7.455   9.151  66.097  1.00  0.00    -0.095 C  
HETATM    8  C   UNL     1      -5.649  11.159  65.976  1.00  0.00    -0.116 C  
HETATM    9  C   UNL     1      -6.357  10.056  66.792  1.00  0.00    -0.069 C  
HETATM   10  C   UNL     1      -7.511   7.588  66.231  1.00  0.00    -0.083 C  
HETATM   11  C   UNL     1      -5.155   9.042  67.092  1.00  0.00    -0.036 C  
HETATM   12  C   UNL     1      -8.397   7.047  65.092  1.00  0.00    -0.078 C  
HETATM   13  C   UNL     1      -5.388   7.545  67.464  1.00  0.00    -0.026 C  
HETATM   14  C   UNL     1      -6.248   6.780  66.436  1.00  0.00    -0.044 C  
HETATM   15  C   UNL     1      -8.437   5.556  65.001  1.00  0.00    -0.147 C  
HETATM   16  C   UNL     1      -7.690   4.749  65.763  1.00  0.00    -0.090 C  
HETATM   17  C   UNL     1      -8.131   3.311  65.866  1.00  0.00    -0.093 C  
HETATM   18  C   UNL     1      -8.962   3.242  67.142  1.00  0.00    -0.157 C  
HETATM   19  O   UNL     1      -9.501   1.920  67.308  1.00  0.00    -0.366 OA 
HETATM   20  C   UNL     1      -8.098   3.638  68.353  1.00  0.00    -0.076 C  
HETATM   21  C   UNL     1      -7.295   4.978  68.188  1.00  0.00    -0.074 C  
HETATM   22  H   UNL     1     -10.019   1.877  68.104  1.00  0.00     0.000 HD 
HETATM   23  C   UNL     1      -6.644   5.236  66.779  1.00  0.00    -0.052 C  
HETATM   24  C   UNL     1      -5.372   4.360  66.668  1.00  0.00    -0.013 C  
ENDROOT
BRANCH   4  25
HETATM   25  C   UNL     1      -8.945  14.776  67.450  1.00  0.00    -0.200 C  
BRANCH  25  26
HETATM   26  C   UNL     1      -8.502  16.108  68.076  1.00  0.00    -0.168 C  
HETATM   27  C   UNL     1      -8.863  17.402  67.305  1.00  0.00    -0.238 C  
HETATM   28  C   UNL     1      -8.242  18.615  68.025  1.00  0.00    -0.294 C  
HETATM   29  C   UNL     1     -10.358  17.681  67.142  1.00  0.00    -0.343 C  
ENDBRANCH  25  26
ENDBRANCH   4  25
TORSDOF 2
ENDMDL
MODEL       82
REMARK 921   NORMALIZED FREE ENERGY PREDICTED BY IDOCK:   -3.24 KCAL/MOL
REMARK 922        TOTAL FREE ENERGY PREDICTED BY IDOCK:   -3.87 KCAL/MOL
REMARK 923 INTER-LIGAND FREE ENERGY PREDICTED BY IDOCK:   -3.64 KCAL/MOL
REMARK 924 INTRA-LIGAND FREE ENERGY PREDICTED BY IDOCK:   -0.23 KCAL/MOL
REMARK 927      BINDING AFFINITY PREDICTED BY RF-SCORE:    0.00 PKD
ROOT
HETATM    1  C   UNL     1      -6.445  12.848  67.604  1.00  0.00    -0.157 C  
HETATM    2  C   UNL     1      -6.049  14.352  68.377  1.00  0.00    -0.102 C  
HETATM    3  C   UNL     1      -5.703  11.850  68.464  1.00  0.00    -0.049 C  
HETATM    4  C   UNL     1      -6.799  15.712  68.107  1.00  0.00    -0.130 C  
HETATM    5  C   UNL     1      -6.725  11.722  69.606  1.00  0.00    -0.034 C  
HETATM    6  C   UNL     1      -5.643  14.354  69.895  1.00  0.00    -0.103 C  
HETATM    7  C   UNL     1      -7.996  11.238  68.897  1.00  0.00    -0.104 C  
HETATM    8  C   UNL     1      -8.927  13.015  67.085  1.00  0.00    -0.223 C  
HETATM    9  C   UNL     1      -7.862  11.978  67.504  1.00  0.00    -0.155 C  
HETATM   10  C   UNL     1      -7.818   9.689  69.085  1.00  0.00    -0.090 C  
HETATM   11  C   UNL     1      -8.089  10.815  66.426  1.00  0.00    -0.153 C  
HETATM   12  C   UNL     1      -8.451   9.300  70.435  1.00  0.00    -0.234 C  
HETATM   13  C   UNL     1      -7.621   9.346  66.661  1.00  0.00    -0.094 C  
HETATM   14  C   UNL     1      -8.161   8.727  67.968  1.00  0.00    -0.107 C  
HETATM   15  C   UNL     1      -8.484   7.829  70.696  1.00  0.00    -0.126 C  
HETATM   16  C   UNL     1      -8.103   6.911  69.800  1.00  0.00    -0.126 C  
HETATM   17  C   UNL     1      -7.789   5.535  70.330  1.00  0.00    -0.093 C  
HETATM   18  C   UNL     1      -6.278   5.523  70.531  1.00  0.00    -0.026 C  
HETATM   19  O   UNL     1      -5.867   4.271  71.106  1.00  0.00    -0.012 OA 
HETATM   20  C   UNL     1      -5.567   5.768  69.189  1.00  0.00    -0.008 C  
HETATM   21  C   UNL     1      -6.091   7.006  68.375  1.00  0.00    -0.033 C  
HETATM   22  H   UNL     1      -4.925   4.264  71.232  1.00  0.00     0.000 HD 
HETATM   23  C   UNL     1      -7.648   7.232  68.367  1.00  0.00    -0.118 C  
HETATM   24  C   UNL     1      -8.279   6.212  67.387  1.00  0.00    -0.109 C  
ENDROOT
BRANCH   4  25
HETATM   25  C   UNL     1      -6.252  16.951  68.945  1.00  0.00    -0.173 C  
BRANCH  25  26
HETATM   26  C   UNL     1      -6.809  18.320  68.521  1.00  0.00    -0.255 C  
HETATM   27  C   UNL     1      -8.251  18.348  67.957  1.00  0.00    -0.286 C  
HETATM   28  C   UNL     1      -8.586  19.777  67.487  1.00  0.00    -0.377 C  
HETATM   29  C   UNL     1      -9.350  17.914  68.926  1.00  0.00    -0.163 C  
ENDBRANCH  25  26
ENDBRANCH   4  25
TORSDOF 2
ENDMDL
MODEL       83
REMARK 921   NORMALIZED FREE ENERGY PREDICTED BY IDOCK:   -3.21 KCAL/MOL
REMARK 922        TOTAL FREE ENERGY PREDICTED BY IDOCK:   -3.83 KCAL/MOL
REMARK 923 INTER-LIGAND FREE ENERGY PREDICTED BY IDOCK:   -4.13 KCAL/MOL
REMARK 924 INTRA-LIGAND FREE ENERGY PREDICTED BY IDOCK:    0.30 KCAL/MOL
REMARK 927      BINDING AFFINITY PREDICTED BY RF-SCORE:    0.00 PKD
ROOT
HETATM    1  C   UNL     1     -10.699   9.725  66.783  1.00  0.00    -0.143 C  
HETATM    2  C   UNL     1      -9.810   8.260  67.070  1.00  0.00    -0.298 C  
HETATM    3  C   UNL     1     -10.908  10.243  68.188  1.00  0.00    -0.312 C  
HETATM    4  C   UNL     1      -9.038   7.458  65.954  1.00  0.00    -0.073 C  
HETATM    5  C   UNL     1      -9.541  10.919  68.391  1.00  0.00    -0.177 C  
HETATM    6  C   UNL     1      -8.971   8.116  68.391  1.00  0.00    -0.136 C  
HETATM    7  C   UNL     1      -9.479  11.950  67.258  1.00  0.00    -0.176 C  
HETATM    8  C   UNL     1      -9.537  10.816  64.805  1.00  0.00    -0.314 C  
HETATM    9  C   UNL     1     -10.264  11.187  66.115  1.00  0.00    -0.293 C  
HETATM   10  C   UNL     1     -10.042  13.202  68.021  1.00  0.00    -0.232 C  
HETATM   11  C   UNL     1     -11.340  12.259  65.605  1.00  0.00    -0.394 C  
HETATM   12  C   UNL     1      -8.858  13.913  68.703  1.00  0.00    -0.076 C  
HETATM   13  C   UNL     1     -12.011  13.297  66.556  1.00  0.00    -0.448 C  
HETATM   14  C   UNL     1     -11.000  14.157  67.343  1.00  0.00    -0.306 C  
HETATM   15  C   UNL     1      -9.215  15.207  69.359  1.00  0.00    -0.175 C  
HETATM   16  C   UNL     1     -10.427  15.768  69.276  1.00  0.00    -0.247 C  
HETATM   17  C   UNL     1     -10.762  16.816  70.307  1.00  0.00     0.105 C  
HETATM   18  C   UNL     1     -11.517  16.069  71.401  1.00  0.00    -0.398 C  
HETATM   19  O   UNL     1     -11.829  16.963  72.482  1.00  0.00    -0.491 OA 
HETATM   20  C   UNL     1     -12.797  15.443  70.821  1.00  0.00    -0.524 C  
HETATM   21  C   UNL     1     -12.592  14.608  69.505  1.00  0.00    -0.039 C  
HETATM   22  H   UNL     1     -12.300  16.497  73.163  1.00  0.00     0.000 HD 
HETATM   23  C   UNL     1     -11.591  15.202  68.447  1.00  0.00    -0.356 C  
HETATM   24  C   UNL     1     -12.304  16.359  67.704  1.00  0.00     1.827 C  
ENDROOT
BRANCH   4  25
HETATM   25  C   UNL     1      -8.293   6.148  66.471  1.00  0.00    -0.113 C  
BRANCH  25  26
HETATM   26  C   UNL     1      -7.543   5.357  65.388  1.00  0.00    -0.079 C  
HETATM   27  C   UNL     1      -7.905   5.664  63.913  1.00  0.00    -0.112 C  
HETATM   28  C   UNL     1      -7.137   4.700  62.988  1.00  0.00    -0.039 C  
HETATM   29  C   UNL     1      -7.608   7.088  63.441  1.00  0.00    -0.105 C  
ENDBRANCH  25  26
ENDBRANCH   4  25
TORSDOF 2
ENDMDL
MODEL       84
REMARK 921   NORMALIZED FREE ENERGY PREDICTED BY IDOCK:   -2.95 KCAL/MOL
REMARK 922        TOTAL FREE ENERGY PREDICTED BY IDOCK:   -3.54 KCAL/MOL
REMARK 923 INTER-LIGAND FREE ENERGY PREDICTED BY IDOCK:   -3.15 KCAL/MOL
REMARK 924 INTRA-LIGAND FREE ENERGY PREDICTED BY IDOCK:   -0.39 KCAL/MOL
REMARK 927      BINDING AFFINITY PREDICTED BY RF-SCORE:    0.00 PKD
ROOT
HETATM    1  C   UNL     1     -10.893   9.224  68.971  1.00  0.00    -0.136 C  
HETATM    2  C   UNL     1     -10.153  10.553  68.132  1.00  0.00    -0.180 C  
HETATM    3  C   UNL     1      -9.729   8.273  69.135  1.00  0.00    -0.171 C  
HETATM    4  C   UNL     1     -10.811  11.977  67.973  1.00  0.00    -0.254 C  
HETATM    5  C   UNL     1      -9.082   8.910  70.376  1.00  0.00    -0.217 C  
HETATM    6  C   UNL     1      -8.605  10.784  68.269  1.00  0.00    -0.135 C  
HETATM    7  C   UNL     1     -10.196   8.854  71.429  1.00  0.00    -0.375 C  
HETATM    8  C   UNL     1     -12.369  10.304  70.734  1.00  0.00    -0.445 C  
HETATM    9  C   UNL     1     -11.476   9.062  70.522  1.00  0.00    -0.248 C  
HETATM   10  C   UNL     1      -9.826   7.494  72.120  1.00  0.00    -0.209 C  
HETATM   11  C   UNL     1     -12.455   7.872  70.958  1.00  0.00    -0.143 C  
HETATM   12  C   UNL     1      -8.812   7.793  73.242  1.00  0.00    -0.277 C  
HETATM   13  C   UNL     1     -11.933   6.467  71.390  1.00  0.00    -0.371 C  
HETATM   14  C   UNL     1     -10.903   6.517  72.538  1.00  0.00    -0.270 C  
HETATM   15  C   UNL     1      -8.465   6.611  74.087  1.00  0.00    -0.151 C  
HETATM   16  C   UNL     1      -9.056   5.416  73.965  1.00  0.00    -0.118 C  
HETATM   17  C   UNL     1      -8.334   4.237  74.564  1.00  0.00    -0.090 C  
HETATM   18  C   UNL     1      -7.547   3.626  73.411  1.00  0.00    -0.062 C  
HETATM   19  O   UNL     1      -6.755   2.524  73.884  1.00  0.00    -0.021 OA 
HETATM   20  C   UNL     1      -8.511   3.171  72.301  1.00  0.00    -0.081 C  
HETATM   21  C   UNL     1      -9.565   4.247  71.853  1.00  0.00    -0.212 C  
HETATM   22  H   UNL     1      -6.265   2.142  73.164  1.00  0.00     0.000 HD 
HETATM   23  C   UNL     1     -10.211   5.113  72.996  1.00  0.00    -0.217 C  
HETATM   24  C   UNL     1     -11.273   4.247  73.717  1.00  0.00    -0.265 C  
ENDROOT
BRANCH   4  25
HETATM   25  C   UNL     1      -9.930  13.030  67.165  1.00  0.00    -0.235 C  
BRANCH  25  26
HETATM   26  C   UNL     1      -9.775  14.402  67.840  1.00  0.00    -0.223 C  
HETATM   27  C   UNL     1      -9.592  14.413  69.378  1.00  0.00     0.210 C  
HETATM   28  C   UNL     1      -9.568  15.871  69.878  1.00  0.00     0.046 C  
HETATM   29  C   UNL     1      -8.328  13.729  69.900  1.00  0.00     1.700 C  
ENDBRANCH  25  26
ENDBRANCH   4  25
TORSDOF 2
ENDMDL
MODEL       85
REMARK 921   NORMALIZED FREE ENERGY PREDICTED BY IDOCK:   -2.61 KCAL/MOL
REMARK 922        TOTAL FREE ENERGY PREDICTED BY IDOCK:   -3.16 KCAL/MOL
REMARK 923 INTER-LIGAND FREE ENERGY PREDICTED BY IDOCK:   -2.73 KCAL/MOL
REMARK 924 INTRA-LIGAND FREE ENERGY PREDICTED BY IDOCK:   -0.43 KCAL/MOL
REMARK 927      BINDING AFFINITY PREDICTED BY RF-SCORE:    0.00 PKD
ROOT
HETATM    1  C   UNL     1      -9.047   7.364  69.351  1.00  0.00    -0.139 C  
HETATM    2  C   UNL     1      -7.736   6.257  69.622  1.00  0.00    -0.099 C  
HETATM    3  C   UNL     1      -8.395   8.697  69.640  1.00  0.00    -0.123 C  
HETATM    4  C   UNL     1      -7.740   4.749  69.163  1.00  0.00    -0.071 C  
HETATM    5  C   UNL     1      -7.710   8.919  68.281  1.00  0.00    -0.096 C  
HETATM    6  C   UNL     1      -6.257   6.768  69.481  1.00  0.00    -0.034 C  
HETATM    7  C   UNL     1      -8.875   8.903  67.285  1.00  0.00    -0.137 C  
HETATM    8  C   UNL     1     -10.175   6.533  67.231  1.00  0.00    -0.242 C  
HETATM    9  C   UNL     1      -9.838   7.848  67.968  1.00  0.00    -0.195 C  
HETATM   10  C   UNL     1      -9.174  10.443  67.217  1.00  0.00    -0.157 C  
HETATM   11  C   UNL     1     -11.260   8.586  67.997  1.00  0.00     0.554 C  
HETATM   12  C   UNL     1      -8.277  11.051  66.122  1.00  0.00    -0.155 C  
HETATM   13  C   UNL     1     -11.405  10.126  68.191  1.00  0.00    -0.171 C  
HETATM   14  C   UNL     1     -10.597  10.957  67.173  1.00  0.00    -0.302 C  
HETATM   15  C   UNL     1      -8.544  12.494  65.840  1.00  0.00     0.634 C  
HETATM   16  C   UNL     1      -9.545  13.183  66.401  1.00  0.00    -0.259 C  
HETATM   17  C   UNL     1      -9.440  14.687  66.362  1.00  0.00    -0.325 C  
HETATM   18  C   UNL     1      -8.826  15.076  67.702  1.00  0.00    -0.179 C  
HETATM   19  O   UNL     1      -8.611  16.496  67.751  1.00  0.00    -0.175 OA 
HETATM   20  C   UNL     1      -9.743  14.621  68.851  1.00  0.00    -0.196 C  
HETATM   21  C   UNL     1     -10.209  13.123  68.776  1.00  0.00    -0.109 C  
HETATM   22  H   UNL     1      -8.228  16.739  68.586  1.00  0.00     0.000 HD 
HETATM   23  C   UNL     1     -10.591  12.578  67.351  1.00  0.00    -0.242 C  
HETATM   24  C   UNL     1     -11.994  13.123  66.985  1.00  0.00    -0.412 C  
ENDROOT
BRANCH   4  25
HETATM   25  C   UNL     1      -6.415   3.941  69.524  1.00  0.00    -0.033 C  
BRANCH  25  26
HETATM   26  C   UNL     1      -5.838   3.095  68.378  1.00  0.00    -0.023 C  
HETATM   27  C   UNL     1      -5.955   3.675  66.947  1.00  0.00    -0.024 C  
HETATM   28  C   UNL     1      -5.426   2.641  65.933  1.00  0.00    -0.016 C  
HETATM   29  C   UNL     1      -5.207   4.985  66.699  1.00  0.00    -0.008 C  
ENDBRANCH  25  26
ENDBRANCH   4  25
TORSDOF 2
ENDMDL
MODEL       86
REMARK 921   NORMALIZED FREE ENERGY PREDICTED BY IDOCK:   -2.35 KCAL/MOL
REMARK 922        TOTAL FREE ENERGY PREDICTED BY IDOCK:   -2.87 KCAL/MOL
REMARK 923 INTER-LIGAND FREE ENERGY PREDICTED BY IDOCK:   -2.48 KCAL/MOL
REMARK 924 INTRA-LIGAND FREE ENERGY PREDICTED BY IDOCK:   -0.38 KCAL/MOL
REMARK 927      BINDING AFFINITY PREDICTED BY RF-SCORE:    0.00 PKD
ROOT
HETATM    1  C   UNL     1      -5.302   8.334  66.075  1.00  0.00    -0.028 C  
HETATM    2  C   UNL     1      -5.695   7.224  64.797  1.00  0.00    -0.037 C  
HETATM    3  C   UNL     1      -5.669   9.664  65.456  1.00  0.00    -0.059 C  
HETATM    4  C   UNL     1      -5.818   5.664  64.985  1.00  0.00    -0.021 C  
HETATM    5  C   UNL     1      -7.184   9.634  65.725  1.00  0.00    -0.100 C  
HETATM    6  C   UNL     1      -6.764   7.636  63.722  1.00  0.00    -0.057 C  
HETATM    7  C   UNL     1      -7.275   9.514  67.250  1.00  0.00    -0.087 C  
HETATM    8  C   UNL     1      -6.175   7.230  68.190  1.00  0.00    -0.036 C  
HETATM    9  C   UNL     1      -6.000   8.628  67.558  1.00  0.00    -0.047 C  
HETATM   10  C   UNL     1      -7.392  11.035  67.620  1.00  0.00    -0.094 C  
HETATM   11  C   UNL     1      -5.247   9.427  68.724  1.00  0.00    -0.037 C  
HETATM   12  C   UNL     1      -8.884  11.418  67.584  1.00  0.00    -0.139 C  
HETATM   13  C   UNL     1      -5.248  10.983  68.815  1.00  0.00    -0.040 C  
HETATM   14  C   UNL     1      -6.662  11.602  68.818  1.00  0.00    -0.077 C  
HETATM   15  C   UNL     1      -9.173  12.808  68.049  1.00  0.00    -0.208 C  
HETATM   16  C   UNL     1      -8.244  13.624  68.559  1.00  0.00    -0.112 C  
HETATM   17  C   UNL     1      -8.572  15.096  68.585  1.00  0.00    -0.172 C  
HETATM   18  C   UNL     1      -7.940  15.665  67.320  1.00  0.00    -0.197 C  
HETATM   19  O   UNL     1      -8.251  17.063  67.200  1.00  0.00    -0.179 OA 
HETATM   20  C   UNL     1      -6.417  15.443  67.348  1.00  0.00    -0.115 C  
HETATM   21  C   UNL     1      -5.965  13.976  67.680  1.00  0.00    -0.048 C  
HETATM   22  H   UNL     1      -7.857  17.418  66.411  1.00  0.00     0.000 HD 
HETATM   23  C   UNL     1      -6.778  13.229  68.801  1.00  0.00    -0.099 C  
HETATM   24  C   UNL     1      -6.318  13.774  70.176  1.00  0.00    -0.060 C  
ENDROOT
BRANCH   4  25
HETATM   25  C   UNL     1      -6.195   4.862  63.661  1.00  0.00    -0.022 C  
BRANCH  25  26
HETATM   26  C   UNL     1      -7.085   3.629  63.878  1.00  0.00    -0.050 C  
HETATM   27  C   UNL     1      -8.006   3.636  65.124  1.00  0.00    -0.090 C  
HETATM   28  C   UNL     1      -8.730   2.280  65.230  1.00  0.00    -0.118 C  
HETATM   29  C   UNL     1      -9.074   4.730  65.151  1.00  0.00    -0.155 C  
ENDBRANCH  25  26
ENDBRANCH   4  25
TORSDOF 2
ENDMDL
MODEL       87
REMARK 921   NORMALIZED FREE ENERGY PREDICTED BY IDOCK:   -2.29 KCAL/MOL
REMARK 922        TOTAL FREE ENERGY PREDICTED BY IDOCK:   -2.80 KCAL/MOL
REMARK 923 INTER-LIGAND FREE ENERGY PREDICTED BY IDOCK:   -2.51 KCAL/MOL
REMARK 924 INTRA-LIGAND FREE ENERGY PREDICTED BY IDOCK:   -0.29 KCAL/MOL
REMARK 927      BINDING AFFINITY PREDICTED BY RF-SCORE:    0.00 PKD
ROOT
HETATM    1  C   UNL     1      -6.766   9.024  65.122  1.00  0.00    -0.072 C  
HETATM    2  C   UNL     1      -7.178   7.468  64.468  1.00  0.00    -0.077 C  
HETATM    3  C   UNL     1      -8.045   9.801  64.908  1.00  0.00    -0.140 C  
HETATM    4  C   UNL     1      -6.337   6.157  64.705  1.00  0.00    -0.033 C  
HETATM    5  C   UNL     1      -8.824   9.307  66.139  1.00  0.00    -0.183 C  
HETATM    6  C   UNL     1      -8.686   7.033  64.410  1.00  0.00     0.525 C  
HETATM    7  C   UNL     1      -7.933   9.720  67.317  1.00  0.00    -0.106 C  
HETATM    8  C   UNL     1      -5.513   8.517  67.273  1.00  0.00    -0.038 C  
HETATM    9  C   UNL     1      -6.495   9.549  66.678  1.00  0.00    -0.067 C  
HETATM   10  C   UNL     1      -8.582  11.110  67.652  1.00  0.00    -0.126 C  
HETATM   11  C   UNL     1      -5.760  10.934  67.008  1.00  0.00    -0.059 C  
HETATM   12  C   UNL     1      -9.738  10.867  68.641  1.00  0.00    -0.188 C  
HETATM   13  C   UNL     1      -6.516  12.297  67.060  1.00  0.00    -0.051 C  
HETATM   14  C   UNL     1      -7.722  12.299  68.022  1.00  0.00    -0.132 C  
HETATM   15  C   UNL     1     -10.370  12.115  69.165  1.00  0.00     0.090 C  
HETATM   16  C   UNL     1      -9.914  13.344  68.895  1.00  0.00     0.032 C  
HETATM   17  C   UNL     1     -10.869  14.488  69.124  1.00  0.00    -0.278 C  
HETATM   18  C   UNL     1     -11.502  14.755  67.763  1.00  0.00    -0.345 C  
HETATM   19  O   UNL     1     -12.492  15.790  67.874  1.00  0.00     0.106 OA 
HETATM   20  C   UNL     1     -10.415  15.143  66.745  1.00  0.00    -0.283 C  
HETATM   21  C   UNL     1      -9.177  14.178  66.693  1.00  0.00    -0.272 C  
HETATM   22  H   UNL     1     -12.887  15.956  67.026  1.00  0.00     0.000 HD 
HETATM   23  C   UNL     1      -8.649  13.640  68.073  1.00  0.00    -0.175 C  
HETATM   24  C   UNL     1      -7.845  14.774  68.758  1.00  0.00    -0.146 C  
ENDROOT
BRANCH   4  25
HETATM   25  C   UNL     1      -6.926   4.853  64.003  1.00  0.00    -0.049 C  
BRANCH  25  26
HETATM   26  C   UNL     1      -7.429   3.767  64.966  1.00  0.00    -0.073 C  
HETATM   27  C   UNL     1      -8.954   3.717  65.236  1.00  0.00    -0.133 C  
HETATM   28  C   UNL     1      -9.248   2.645  66.303  1.00  0.00    -0.066 C  
HETATM   29  C   UNL     1      -9.832   3.410  64.022  1.00  0.00    -0.170 C  
ENDBRANCH  25  26
ENDBRANCH   4  25
TORSDOF 2
ENDMDL
MODEL       88
REMARK 921   NORMALIZED FREE ENERGY PREDICTED BY IDOCK:   -2.28 KCAL/MOL
REMARK 922        TOTAL FREE ENERGY PREDICTED BY IDOCK:   -2.80 KCAL/MOL
REMARK 923 INTER-LIGAND FREE ENERGY PREDICTED BY IDOCK:   -2.61 KCAL/MOL
REMARK 924 INTRA-LIGAND FREE ENERGY PREDICTED BY IDOCK:   -0.18 KCAL/MOL
REMARK 927      BINDING AFFINITY PREDICTED BY RF-SCORE:    0.00 PKD
ROOT
HETATM    1  C   UNL     1      -9.632  11.992  67.784  1.00  0.00    -0.193 C  
HETATM    2  C   UNL     1      -8.639  10.711  68.409  1.00  0.00    -0.134 C  
HETATM    3  C   UNL     1      -9.250  13.147  68.682  1.00  0.00     0.026 C  
HETATM    4  C   UNL     1      -8.377   9.348  67.661  1.00  0.00    -0.119 C  
HETATM    5  C   UNL     1      -7.958  13.579  67.968  1.00  0.00    -0.151 C  
HETATM    6  C   UNL     1      -7.314  11.067  69.175  1.00  0.00    -0.121 C  
HETATM    7  C   UNL     1      -8.428  13.912  66.547  1.00  0.00     0.289 C  
HETATM    8  C   UNL     1      -9.467  11.774  65.258  1.00  0.00    -0.132 C  
HETATM    9  C   UNL     1      -9.588  12.851  66.359  1.00  0.00    -0.252 C  
HETATM   10  C   UNL     1      -8.672  15.454  66.713  1.00  0.00    -0.304 C  
HETATM   11  C   UNL     1     -10.826  13.722  65.835  1.00  0.00    -0.283 C  
HETATM   12  C   UNL     1      -7.344  16.178  66.419  1.00  0.00     0.138 C  
HETATM   13  C   UNL     1     -11.077  15.190  66.297  1.00  0.00    -0.309 C  
HETATM   14  C   UNL     1      -9.869  16.124  66.074  1.00  0.00    -0.375 C  
HETATM   15  C   UNL     1      -7.448  17.668  66.402  1.00  0.00    -0.324 C  
HETATM   16  C   UNL     1      -8.606  18.330  66.521  1.00  0.00    -0.283 C  
HETATM   17  C   UNL     1      -8.521  19.784  66.909  1.00  0.00    -0.364 C  
HETATM   18  C   UNL     1      -8.707  19.802  68.422  1.00  0.00    -0.248 C  
HETATM   19  O   UNL     1      -8.573  21.143  68.919  1.00  0.00     1.700 OA 
HETATM   20  C   UNL     1     -10.083  19.216  68.788  1.00  0.00    -0.445 C  
HETATM   21  C   UNL     1     -10.416  17.833  68.122  1.00  0.00    -0.382 C  
HETATM   22  H   UNL     1      -8.690  21.154  69.862  1.00  0.00     0.000 HD 
HETATM   23  C   UNL     1      -9.985  17.657  66.620  1.00  0.00    -0.328 C  
HETATM   24  C   UNL     1     -10.997  18.425  65.734  1.00  0.00     0.183 C  
ENDROOT
BRANCH   4  25
HETATM   25  C   UNL     1      -7.424   8.335  68.439  1.00  0.00    -0.096 C  
BRANCH  25  26
HETATM   26  C   UNL     1      -7.067   7.055  67.666  1.00  0.00    -0.085 C  
HETATM   27  C   UNL     1      -5.645   6.478  67.880  1.00  0.00    -0.008 C  
HETATM   28  C   UNL     1      -5.439   5.271  66.944  1.00  0.00    -0.013 C  
HETATM   29  C   UNL     1      -5.325   6.016  69.302  1.00  0.00    -0.004 C  
ENDBRANCH  25  26
ENDBRANCH   4  25
TORSDOF 2
ENDMDL
MODEL       89
REMARK 921   NORMALIZED FREE ENERGY PREDICTED BY IDOCK:   -2.23 KCAL/MOL
REMARK 922        TOTAL FREE ENERGY PREDICTED BY IDOCK:   -2.73 KCAL/MOL
REMARK 923 INTER-LIGAND FREE ENERGY PREDICTED BY IDOCK:   -2.23 KCAL/MOL
REMARK 924 INTRA-LIGAND FREE ENERGY PREDICTED BY IDOCK:   -0.50 KCAL/MOL
REMARK 927      BINDING AFFINITY PREDICTED BY RF-SCORE:    0.00 PKD
ROOT
HETATM    1  C   UNL     1      -5.708   6.330  65.545  1.00  0.00    -0.021 C  
HETATM    2  C   UNL     1      -6.059   5.447  64.091  1.00  0.00    -0.022 C  
HETATM    3  C   UNL     1      -5.819   7.762  65.075  1.00  0.00    -0.038 C  
HETATM    4  C   UNL     1      -6.401   3.908  64.049  1.00  0.00    -0.030 C  
HETATM    5  C   UNL     1      -7.347   7.914  65.156  1.00  0.00    -0.071 C  
HETATM    6  C   UNL     1      -6.913   6.130  62.963  1.00  0.00    -0.045 C  
HETATM    7  C   UNL     1      -7.659   7.627  66.629  1.00  0.00    -0.097 C  
HETATM    8  C   UNL     1      -6.991   5.116  67.372  1.00  0.00    -0.065 C  
HETATM    9  C   UNL     1      -6.558   6.540  66.962  1.00  0.00    -0.051 C  
HETATM   10  C   UNL     1      -7.634   9.095  67.186  1.00  0.00    -0.091 C  
HETATM   11  C   UNL     1      -5.877   7.080  68.307  1.00  0.00    -0.022 C  
HETATM   12  C   UNL     1      -9.048   9.686  67.026  1.00  0.00    -0.154 C  
HETATM   13  C   UNL     1      -5.695   8.599  68.608  1.00  0.00    -0.041 C  
HETATM   14  C   UNL     1      -7.008   9.406  68.528  1.00  0.00    -0.066 C  
HETATM   15  C   UNL     1      -9.221  11.038  67.639  1.00  0.00    -0.151 C  
HETATM   16  C   UNL     1      -8.275  11.648  68.362  1.00  0.00    -0.155 C  
HETATM   17  C   UNL     1      -8.418  13.137  68.549  1.00  0.00    -0.058 C  
HETATM   18  C   UNL     1      -7.554  13.758  67.456  1.00  0.00    -0.173 C  
HETATM   19  O   UNL     1      -7.669  15.190  67.492  1.00  0.00    -0.148 OA 
HETATM   20  C   UNL     1      -6.089  13.322  67.634  1.00  0.00    -0.140 C  
HETATM   21  C   UNL     1      -5.873  11.776  67.815  1.00  0.00    -0.057 C  
HETATM   22  H   UNL     1      -7.130  15.577  66.811  1.00  0.00     0.000 HD 
HETATM   23  C   UNL     1      -6.917  11.024  68.719  1.00  0.00    -0.081 C  
HETATM   24  C   UNL     1      -6.583  11.331  70.200  1.00  0.00    -0.002 C  
ENDROOT
BRANCH   4  25
HETATM   25  C   UNL     1      -6.691   3.331  62.593  1.00  0.00    -0.030 C  
BRANCH  25  26
HETATM   26  C   UNL     1      -7.859   2.336  62.509  1.00  0.00    -0.058 C  
HETATM   27  C   UNL     1      -9.100   2.631  63.387  1.00  0.00    -0.092 C  
HETATM   28  C   UNL     1     -10.107   1.472  63.252  1.00  0.00    -0.119 C  
HETATM   29  C   UNL     1      -9.845   3.927  63.067  1.00  0.00    -0.154 C  
ENDBRANCH  25  26
ENDBRANCH   4  25
TORSDOF 2
ENDMDL
MODEL       90
REMARK 921   NORMALIZED FREE ENERGY PREDICTED BY IDOCK:   -2.06 KCAL/MOL
REMARK 922        TOTAL FREE ENERGY PREDICTED BY IDOCK:   -2.55 KCAL/MOL
REMARK 923 INTER-LIGAND FREE ENERGY PREDICTED BY IDOCK:   -2.18 KCAL/MOL
REMARK 924 INTRA-LIGAND FREE ENERGY PREDICTED BY IDOCK:   -0.37 KCAL/MOL
REMARK 927      BINDING AFFINITY PREDICTED BY RF-SCORE:    0.00 PKD
ROOT
HETATM    1  C   UNL     1      -9.134   9.214  71.552  1.00  0.00    -0.118 C  
HETATM    2  C   UNL     1      -8.090   8.069  72.337  1.00  0.00    -0.175 C  
HETATM    3  C   UNL     1      -8.276   9.676  70.396  1.00  0.00    -0.194 C  
HETATM    4  C   UNL     1      -8.571   7.032  73.423  1.00  0.00    -0.154 C  
HETATM    5  C   UNL     1      -8.549   8.514  69.426  1.00  0.00    -0.128 C  
HETATM    6  C   UNL     1      -6.960   7.363  71.507  1.00  0.00    -0.055 C  
HETATM    7  C   UNL     1     -10.070   8.553  69.238  1.00  0.00    -0.203 C  
HETATM    8  C   UNL     1     -11.422   8.110  71.537  1.00  0.00    -0.310 C  
HETATM    9  C   UNL     1     -10.536   9.033  70.673  1.00  0.00    -0.290 C  
HETATM   10  C   UNL     1     -10.145   9.447  67.950  1.00  0.00    -0.239 C  
HETATM   11  C   UNL     1     -11.529  10.253  70.367  1.00  0.00    -0.415 C  
HETATM   12  C   UNL     1     -10.041   8.520  66.723  1.00  0.00    -0.369 C  
HETATM   13  C   UNL     1     -11.323  11.226  69.166  1.00  0.00    -0.349 C  
HETATM   14  C   UNL     1     -11.212  10.510  67.803  1.00  0.00    -0.344 C  
HETATM   15  C   UNL     1     -10.235   9.212  65.413  1.00  0.00     0.730 C  
HETATM   16  C   UNL     1     -10.579  10.500  65.301  1.00  0.00    -0.137 C  
HETATM   17  C   UNL     1     -10.327  11.157  63.968  1.00  0.00    -0.437 C  
HETATM   18  C   UNL     1      -8.975  11.847  64.116  1.00  0.00     0.648 C  
HETATM   19  O   UNL     1      -8.594  12.454  62.871  1.00  0.00     0.561 OA 
HETATM   20  C   UNL     1      -9.042  12.896  65.240  1.00  0.00     0.812 C  
HETATM   21  C   UNL     1      -9.645  12.380  66.596  1.00  0.00    -0.230 C  
HETATM   22  H   UNL     1      -7.751  12.884  62.963  1.00  0.00     0.000 HD 
HETATM   23  C   UNL     1     -10.888  11.423  66.491  1.00  0.00    -0.334 C  
HETATM   24  C   UNL     1     -12.134  12.284  66.164  1.00  0.00    -0.189 C  
ENDROOT
BRANCH   4  25
HETATM   25  C   UNL     1      -7.423   6.084  73.990  1.00  0.00    -0.091 C  
BRANCH  25  26
HETATM   26  C   UNL     1      -7.712   4.578  73.885  1.00  0.00    -0.089 C  
HETATM   27  C   UNL     1      -6.791   3.747  72.958  1.00  0.00    -0.040 C  
HETATM   28  C   UNL     1      -7.304   2.295  72.898  1.00  0.00    -0.036 C  
HETATM   29  C   UNL     1      -5.317   3.697  73.361  1.00  0.00     0.000 C  
ENDBRANCH  25  26
ENDBRANCH   4  25
TORSDOF 2
ENDMDL
MODEL       91
REMARK 921   NORMALIZED FREE ENERGY PREDICTED BY IDOCK:   -1.43 KCAL/MOL
REMARK 922        TOTAL FREE ENERGY PREDICTED BY IDOCK:   -1.84 KCAL/MOL
REMARK 923 INTER-LIGAND FREE ENERGY PREDICTED BY IDOCK:   -1.50 KCAL/MOL
REMARK 924 INTRA-LIGAND FREE ENERGY PREDICTED BY IDOCK:   -0.34 KCAL/MOL
REMARK 927      BINDING AFFINITY PREDICTED BY RF-SCORE:    0.00 PKD
ROOT
HETATM    1  C   UNL     1      -8.625   9.062  68.885  1.00  0.00    -0.131 C  
HETATM    2  C   UNL     1      -7.227   8.644  67.943  1.00  0.00    -0.088 C  
HETATM    3  C   UNL     1      -8.278  10.457  69.355  1.00  0.00    -0.158 C  
HETATM    4  C   UNL     1      -7.163   7.426  66.945  1.00  0.00    -0.088 C  
HETATM    5  C   UNL     1      -8.691  11.236  68.095  1.00  0.00    -0.155 C  
HETATM    6  C   UNL     1      -6.350   9.787  67.317  1.00  0.00    -0.068 C  
HETATM    7  C   UNL     1     -10.176  10.892  67.932  1.00  0.00    -0.205 C  
HETATM    8  C   UNL     1     -10.603   8.257  67.510  1.00  0.00    -0.291 C  
HETATM    9  C   UNL     1     -10.199   9.402  68.464  1.00  0.00    -0.223 C  
HETATM   10  C   UNL     1     -10.805  12.107  68.705  1.00  0.00    -0.268 C  
HETATM   11  C   UNL     1     -11.400   9.390  69.524  1.00  0.00     0.026 C  
HETATM   12  C   UNL     1     -10.985  13.263  67.703  1.00  0.00    -0.281 C  
HETATM   13  C   UNL     1     -11.749  10.621  70.416  1.00  0.00    -0.446 C  
HETATM   14  C   UNL     1     -12.000  11.914  69.613  1.00  0.00    -0.365 C  
HETATM   15  C   UNL     1     -11.703  14.450  68.258  1.00  0.00    -0.376 C  
HETATM   16  C   UNL     1     -12.245  14.480  69.481  1.00  0.00    -0.306 C  
HETATM   17  C   UNL     1     -12.550  15.840  70.056  1.00  0.00    -0.084 C  
HETATM   18  C   UNL     1     -11.340  16.187  70.916  1.00  0.00    -0.359 C  
HETATM   19  O   UNL     1     -11.487  17.507  71.465  1.00  0.00     0.567 OA 
HETATM   20  C   UNL     1     -11.175  15.143  72.035  1.00  0.00    -0.232 C  
HETATM   21  C   UNL     1     -11.210  13.646  71.560  1.00  0.00     2.458 C  
HETATM   22  H   UNL     1     -10.733  17.722  72.001  1.00  0.00     0.000 HD 
HETATM   23  C   UNL     1     -12.267  13.287  70.451  1.00  0.00    -0.404 C  
HETATM   24  C   UNL     1     -13.659  13.196  71.124  1.00  0.00     0.285 C  
ENDROOT
BRANCH   4  25
HETATM   25  C   UNL     1      -5.769   7.254  66.193  1.00  0.00    -0.032 C  
BRANCH  25  26
HETATM   26  C   UNL     1      -5.847   6.544  64.833  1.00  0.00    -0.030 C  
HETATM   27  C   UNL     1      -7.177   6.668  64.048  1.00  0.00    -0.067 C  
HETATM   28  C   UNL     1      -7.101   5.803  62.775  1.00  0.00    -0.048 C  
HETATM   29  C   UNL     1      -7.563   8.084  63.619  1.00  0.00    -0.129 C  
ENDBRANCH  25  26
ENDBRANCH   4  25
TORSDOF 2
ENDMDL
MODEL       92
REMARK 921   NORMALIZED FREE ENERGY PREDICTED BY IDOCK:    0.58 KCAL/MOL
REMARK 922        TOTAL FREE ENERGY PREDICTED BY IDOCK:    0.41 KCAL/MOL
REMARK 923 INTER-LIGAND FREE ENERGY PREDICTED BY IDOCK:   -0.20 KCAL/MOL
REMARK 924 INTRA-LIGAND FREE ENERGY PREDICTED BY IDOCK:    0.61 KCAL/MOL
REMARK 927      BINDING AFFINITY PREDICTED BY RF-SCORE:    0.00 PKD
ROOT
HETATM    1  C   UNL     1      -8.068  18.644  66.956  1.00  0.00    -0.259 C  
HETATM    2  C   UNL     1      -6.692  19.253  67.824  1.00  0.00    -0.246 C  
HETATM    3  C   UNL     1      -7.701  17.189  66.772  1.00  0.00    -0.279 C  
HETATM    4  C   UNL     1      -6.658  20.642  68.569  1.00  0.00    -0.230 C  
HETATM    5  C   UNL     1      -8.133  16.664  68.152  1.00  0.00    -0.186 C  
HETATM    6  C   UNL     1      -5.819  18.262  68.675  1.00  0.00    -0.195 C  
HETATM    7  C   UNL     1      -9.624  17.016  68.219  1.00  0.00    -0.273 C  
HETATM    8  C   UNL     1     -10.080  19.678  68.114  1.00  0.00    -0.556 C  
HETATM    9  C   UNL     1      -9.648  18.375  67.407  1.00  0.00    -0.292 C  
HETATM   10  C   UNL     1     -10.228  15.668  67.685  1.00  0.00    -0.261 C  
HETATM   11  C   UNL     1     -10.828  18.168  66.344  1.00  0.00     0.016 C  
HETATM   12  C   UNL     1     -10.419  14.725  68.889  1.00  0.00    -0.249 C  
HETATM   13  C   UNL     1     -11.150  16.784  65.702  1.00  0.00     0.147 C  
HETATM   14  C   UNL     1     -11.406  15.667  66.736  1.00  0.00     0.013 C  
HETATM   15  C   UNL     1     -11.117  13.445  68.561  1.00  0.00    -0.299 C  
HETATM   16  C   UNL     1     -11.634  13.173  67.357  1.00  0.00    -0.403 C  
HETATM   17  C   UNL     1     -11.917  11.724  67.052  1.00  0.00     0.066 C  
HETATM   18  C   UNL     1     -10.688  11.231  66.297  1.00  0.00    -0.257 C  
HETATM   19  O   UNL     1     -10.814   9.828  66.012  1.00  0.00     0.130 OA 
HETATM   20  C   UNL     1     -10.509  12.040  65.000  1.00  0.00    -0.327 C  
HETATM   21  C   UNL     1     -10.565  13.600  65.176  1.00  0.00    -0.371 C  
HETATM   22  H   UNL     1     -10.048   9.521  65.541  1.00  0.00     0.000 HD 
HETATM   23  C   UNL     1     -11.646  14.155  66.174  1.00  0.00    -0.377 C  
HETATM   24  C   UNL     1     -13.026  14.098  65.473  1.00  0.00    -0.303 C  
ENDROOT
BRANCH   4  25
HETATM   25  C   UNL     1      -5.280  20.972  69.298  1.00  0.00    -0.374 C  
BRANCH  25  26
HETATM   26  C   UNL     1      -5.151  20.419  70.726  1.00  0.00    -0.285 C  
HETATM   27  C   UNL     1      -6.410  20.495  71.626  1.00  0.00     0.182 C  
HETATM   28  C   UNL     1      -6.054  20.001  73.042  1.00  0.00     3.356 C  
HETATM   29  C   UNL     1      -7.616  19.687  71.147  1.00  0.00     1.913 C  
ENDBRANCH  25  26
ENDBRANCH   4  25
TORSDOF 2
ENDMDL
MODEL       93
REMARK 921   NORMALIZED FREE ENERGY PREDICTED BY IDOCK:    1.49 KCAL/MOL
REMARK 922        TOTAL FREE ENERGY PREDICTED BY IDOCK:    1.42 KCAL/MOL
REMARK 923 INTER-LIGAND FREE ENERGY PREDICTED BY IDOCK:    1.17 KCAL/MOL
REMARK 924 INTRA-LIGAND FREE ENERGY PREDICTED BY IDOCK:    0.24 KCAL/MOL
REMARK 927      BINDING AFFINITY PREDICTED BY RF-SCORE:    0.00 PKD
ROOT
HETATM    1  C   UNL     1      -6.929  10.747  68.747  1.00  0.00    -0.075 C  
HETATM    2  C   UNL     1      -7.279   9.337  69.699  1.00  0.00    -0.063 C  
HETATM    3  C   UNL     1      -8.173  10.865  67.896  1.00  0.00    -0.114 C  
HETATM    4  C   UNL     1      -6.477   8.918  70.990  1.00  0.00    -0.062 C  
HETATM    5  C   UNL     1      -9.083  11.576  68.913  1.00  0.00     0.015 C  
HETATM    6  C   UNL     1      -8.775   8.926  69.944  1.00  0.00    -0.140 C  
HETATM    7  C   UNL     1      -8.321  12.867  69.235  1.00  0.00     0.817 C  
HETATM    8  C   UNL     1      -5.918  12.406  70.384  1.00  0.00    -0.095 C  
HETATM    9  C   UNL     1      -6.824  12.363  69.134  1.00  0.00    -0.069 C  
HETATM   10  C   UNL     1      -8.993  13.827  68.190  1.00  0.00    -0.190 C  
HETATM   11  C   UNL     1      -6.119  13.438  68.178  1.00  0.00    -0.112 C  
HETATM   12  C   UNL     1     -10.249  14.433  68.843  1.00  0.00    -0.215 C  
HETATM   13  C   UNL     1      -6.867  14.135  67.000  1.00  0.00     0.747 C  
HETATM   14  C   UNL     1      -8.170  14.843  67.428  1.00  0.00    -0.217 C  
HETATM   15  C   UNL     1     -10.926  15.479  68.019  1.00  0.00    -0.311 C  
HETATM   16  C   UNL     1     -10.436  15.940  66.862  1.00  0.00    -0.309 C  
HETATM   17  C   UNL     1     -11.402  16.654  65.951  1.00  0.00     0.603 C  
HETATM   18  C   UNL     1     -11.883  15.590  64.972  1.00  0.00     0.058 C  
HETATM   19  O   UNL     1     -12.873  16.145  64.089  1.00  0.00    -0.171 OA 
HETATM   20  C   UNL     1     -10.691  15.031  64.175  1.00  0.00     0.780 C  
HETATM   21  C   UNL     1      -9.461  14.586  65.045  1.00  0.00     0.666 C  
HETATM   22  H   UNL     1     -13.173  15.481  63.478  1.00  0.00     0.000 HD 
HETATM   23  C   UNL     1      -9.087  15.514  66.259  1.00  0.00    -0.369 C  
HETATM   24  C   UNL     1      -8.354  16.761  65.705  1.00  0.00     0.273 C  
ENDROOT
BRANCH   4  25
HETATM   25  C   UNL     1      -6.996   7.585  71.691  1.00  0.00    -0.061 C  
BRANCH  25  26
HETATM   26  C   UNL     1      -7.265   6.410  70.737  1.00  0.00    -0.074 C  
HETATM   27  C   UNL     1      -6.638   5.043  71.110  1.00  0.00    -0.038 C  
HETATM   28  C   UNL     1      -6.924   4.029  69.985  1.00  0.00    -0.041 C  
HETATM   29  C   UNL     1      -7.127   4.426  72.420  1.00  0.00    -0.062 C  
ENDBRANCH  25  26
ENDBRANCH   4  25
TORSDOF 2
ENDMDL
MODEL       94
REMARK 921   NORMALIZED FREE ENERGY PREDICTED BY IDOCK:    1.77 KCAL/MOL
REMARK 922        TOTAL FREE ENERGY PREDICTED BY IDOCK:    1.73 KCAL/MOL
REMARK 923 INTER-LIGAND FREE ENERGY PREDICTED BY IDOCK:    0.13 KCAL/MOL
REMARK 924 INTRA-LIGAND FREE ENERGY PREDICTED BY IDOCK:    1.61 KCAL/MOL
REMARK 927      BINDING AFFINITY PREDICTED BY RF-SCORE:    0.00 PKD
ROOT
HETATM    1  C   UNL     1      -7.316  13.575  68.463  1.00  0.00    -0.114 C  
HETATM    2  C   UNL     1      -7.810  11.990  67.951  1.00  0.00    -0.144 C  
HETATM    3  C   UNL     1      -6.967  14.233  67.148  1.00  0.00     0.337 C  
HETATM    4  C   UNL     1      -8.586  10.966  68.864  1.00  0.00    -0.143 C  
HETATM    5  C   UNL     1      -8.385  14.637  66.708  1.00  0.00    -0.078 C  
HETATM    6  C   UNL     1      -8.344  11.786  66.488  1.00  0.00    -0.093 C  
HETATM    7  C   UNL     1      -8.869  15.543  67.846  1.00  0.00    -0.171 C  
HETATM    8  C   UNL     1      -9.023  14.255  70.218  1.00  0.00     2.012 C  
HETATM    9  C   UNL     1      -8.163  14.864  69.090  1.00  0.00    -0.151 C  
HETATM   10  C   UNL     1      -8.452  16.938  67.257  1.00  0.00    -0.213 C  
HETATM   11  C   UNL     1      -7.448  16.086  69.841  1.00  0.00     0.322 C  
HETATM   12  C   UNL     1      -9.614  17.451  66.386  1.00  0.00    -0.291 C  
HETATM   13  C   UNL     1      -6.848  17.307  69.080  1.00  0.00    -0.234 C  
HETATM   14  C   UNL     1      -7.856  18.009  68.146  1.00  0.00    -0.274 C  
HETATM   15  C   UNL     1      -9.424  18.838  65.863  1.00  0.00     0.111 C  
HETATM   16  C   UNL     1      -8.392  19.620  66.202  1.00  0.00    -0.352 C  
HETATM   17  C   UNL     1      -8.102  20.791  65.298  1.00  0.00     0.968 C  
HETATM   18  C   UNL     1      -7.021  20.298  64.344  1.00  0.00     0.301 C  
HETATM   19  O   UNL     1      -6.711  21.318  63.381  1.00  0.00    -0.357 OA 
HETATM   20  C   UNL     1      -5.765  19.895  65.138  1.00  0.00    -0.216 C  
HETATM   21  C   UNL     1      -6.027  18.935  66.354  1.00  0.00    -0.184 C  
HETATM   22  H   UNL     1      -6.036  21.010  62.786  1.00  0.00     0.000 HD 
HETATM   23  C   UNL     1      -7.306  19.234  67.219  1.00  0.00    -0.244 C  
HETATM   24  C   UNL     1      -7.001  20.448  68.131  1.00  0.00    -0.286 C  
ENDROOT
BRANCH   4  25
HETATM   25  C   UNL     1      -8.931   9.578  68.161  1.00  0.00    -0.123 C  
BRANCH  25  26
HETATM   26  C   UNL     1      -9.383   9.686  66.696  1.00  0.00    -0.200 C  
HETATM   27  C   UNL     1      -8.783   8.665  65.697  1.00  0.00    -0.214 C  
HETATM   28  C   UNL     1      -9.265   9.002  64.273  1.00  0.00     0.267 C  
HETATM   29  C   UNL     1      -9.126   7.199  65.963  1.00  0.00    -0.108 C  
ENDBRANCH  25  26
ENDBRANCH   4  25
TORSDOF 2
ENDMDL
MODEL       95
REMARK 921   NORMALIZED FREE ENERGY PREDICTED BY IDOCK:    2.71 KCAL/MOL
REMARK 922        TOTAL FREE ENERGY PREDICTED BY IDOCK:    2.78 KCAL/MOL
REMARK 923 INTER-LIGAND FREE ENERGY PREDICTED BY IDOCK:    2.64 KCAL/MOL
REMARK 924 INTRA-LIGAND FREE ENERGY PREDICTED BY IDOCK:    0.15 KCAL/MOL
REMARK 927      BINDING AFFINITY PREDICTED BY RF-SCORE:    0.00 PKD
ROOT
HETATM    1  C   UNL     1      -7.841  10.694  68.008  1.00  0.00    -0.105 C  
HETATM    2  C   UNL     1      -8.473  11.822  69.168  1.00  0.00     0.343 C  
HETATM    3  C   UNL     1      -8.063   9.371  68.705  1.00  0.00    -0.103 C  
HETATM    4  C   UNL     1      -8.798  13.331  68.851  1.00  0.00     0.281 C  
HETATM    5  C   UNL     1      -9.544   9.165  68.343  1.00  0.00    -0.162 C  
HETATM    6  C   UNL     1      -9.549  11.337  70.205  1.00  0.00     1.867 C  
HETATM    7  C   UNL     1      -9.542   9.166  66.810  1.00  0.00    -0.253 C  
HETATM    8  C   UNL     1      -8.705  11.513  65.763  1.00  0.00    -0.007 C  
HETATM    9  C   UNL     1      -8.383  10.202  66.513  1.00  0.00    -0.124 C  
HETATM   10  C   UNL     1      -9.421   7.621  66.555  1.00  0.00    -0.250 C  
HETATM   11  C   UNL     1      -7.446   9.440  65.460  1.00  0.00    -0.095 C  
HETATM   12  C   UNL     1     -10.844   7.032  66.530  1.00  0.00     0.198 C  
HETATM   13  C   UNL     1      -7.225   7.897  65.492  1.00  0.00    -0.067 C  
HETATM   14  C   UNL     1      -8.535   7.084  65.452  1.00  0.00    -0.093 C  
HETATM   15  C   UNL     1     -10.904   5.586  66.158  1.00  0.00    -0.036 C  
HETATM   16  C   UNL     1      -9.836   4.878  65.771  1.00  0.00    -0.186 C  
HETATM   17  C   UNL     1      -9.955   3.377  65.841  1.00  0.00     0.223 C  
HETATM   18  C   UNL     1      -9.342   2.993  67.183  1.00  0.00    -0.145 C  
HETATM   19  O   UNL     1      -9.465   1.576  67.393  1.00  0.00    -0.337 OA 
HETATM   20  C   UNL     1      -7.867   3.428  67.230  1.00  0.00    -0.078 C  
HETATM   21  C   UNL     1      -7.600   4.919  66.812  1.00  0.00    -0.088 C  
HETATM   22  H   UNL     1      -9.082   1.337  68.230  1.00  0.00     0.000 HD 
HETATM   23  C   UNL     1      -8.426   5.462  65.589  1.00  0.00    -0.138 C  
HETATM   24  C   UNL     1      -7.798   4.895  64.292  1.00  0.00    -0.088 C  
ENDROOT
BRANCH   4  25
HETATM   25  C   UNL     1      -9.375  14.160  70.083  1.00  0.00     1.840 C  
BRANCH  25  26
HETATM   26  C   UNL     1     -10.810  14.680  69.902  1.00  0.00    -0.144 C  
HETATM   27  C   UNL     1     -11.151  15.349  68.547  1.00  0.00    -0.295 C  
HETATM   28  C   UNL     1     -12.589  15.900  68.598  1.00  0.00     0.999 C  
HETATM   29  C   UNL     1     -11.050  14.445  67.318  1.00  0.00    -0.318 C  
ENDBRANCH  25  26
ENDBRANCH   4  25
TORSDOF 2
ENDMDL
MODEL       96
REMARK 921   NORMALIZED FREE ENERGY PREDICTED BY IDOCK:    4.55 KCAL/MOL
REMARK 922        TOTAL FREE ENERGY PREDICTED BY IDOCK:    4.83 KCAL/MOL
REMARK 923 INTER-LIGAND FREE ENERGY PREDICTED BY IDOCK:   -0.89 KCAL/MOL
REMARK 924 INTRA-LIGAND FREE ENERGY PREDICTED BY IDOCK:    5.72 KCAL/MOL
REMARK 927      BINDING AFFINITY PREDICTED BY RF-SCORE:    0.00 PKD
ROOT
HETATM    1  C   UNL     1      -6.897   5.887  68.021  1.00  0.00    -0.067 C  
HETATM    2  C   UNL     1      -7.430   4.658  66.916  1.00  0.00    -0.086 C  
HETATM    3  C   UNL     1      -6.657   7.057  67.093  1.00  0.00    -0.055 C  
HETATM    4  C   UNL     1      -8.129   3.315  67.355  1.00  0.00    -0.081 C  
HETATM    5  C   UNL     1      -8.106   7.560  66.975  1.00  0.00    -0.117 C  
HETATM    6  C   UNL     1      -8.082   5.080  65.550  1.00  0.00    -0.115 C  
HETATM    7  C   UNL     1      -8.495   7.874  68.425  1.00  0.00    -0.128 C  
HETATM    8  C   UNL     1      -8.455   5.691  70.018  1.00  0.00    -0.122 C  
HETATM    9  C   UNL     1      -7.689   6.754  69.201  1.00  0.00    -0.106 C  
HETATM   10  C   UNL     1      -8.128   9.401  68.462  1.00  0.00    -0.105 C  
HETATM   11  C   UNL     1      -6.916   7.561  70.348  1.00  0.00    -0.052 C  
HETATM   12  C   UNL     1      -9.358  10.195  67.984  1.00  0.00    -0.149 C  
HETATM   13  C   UNL     1      -6.381   9.011  70.143  1.00  0.00    -0.043 C  
HETATM   14  C   UNL     1      -7.462  10.009  69.678  1.00  0.00    -0.134 C  
HETATM   15  C   UNL     1      -9.211  11.678  68.094  1.00  0.00    -0.184 C  
HETATM   16  C   UNL     1      -8.156  12.277  68.659  1.00  0.00    -0.029 C  
HETATM   17  C   UNL     1      -7.941  13.731  68.327  1.00  0.00    -0.146 C  
HETATM   18  C   UNL     1      -6.941  13.732  67.177  1.00  0.00     0.363 C  
HETATM   19  O   UNL     1      -6.711  15.076  66.724  1.00  0.00    -0.181 OA 
HETATM   20  C   UNL     1      -5.625  13.073  67.625  1.00  0.00    -0.105 C  
HETATM   21  C   UNL     1      -5.785  11.677  68.328  1.00  0.00    -0.045 C  
HETATM   22  H   UNL     1      -6.087  15.077  66.007  1.00  0.00     0.000 HD 
HETATM   23  C   UNL     1      -6.990  11.531  69.329  1.00  0.00    -0.098 C  
HETATM   24  C   UNL     1      -6.611  12.248  70.649  1.00  0.00     1.195 C  
ENDROOT
BRANCH   4  25
HETATM   25  C   UNL     1      -8.530   2.350  66.152  1.00  0.00    -0.101 C  
BRANCH  25  26
HETATM   26  C   UNL     1      -9.061   3.061  64.897  1.00  0.00    -0.144 C  
HETATM   27  C   UNL     1     -10.344   3.914  65.062  1.00  0.00    -0.116 C  
HETATM   28  C   UNL     1     -10.780   4.450  63.684  1.00  0.00     0.275 C  
HETATM   29  C   UNL     1     -10.227   5.112  66.004  1.00  0.00    -0.215 C  
ENDBRANCH  25  26
ENDBRANCH   4  25
TORSDOF 2
ENDMDL
MODEL       97
REMARK 921   NORMALIZED FREE ENERGY PREDICTED BY IDOCK:    4.64 KCAL/MOL
REMARK 922        TOTAL FREE ENERGY PREDICTED BY IDOCK:    4.93 KCAL/MOL
REMARK 923 INTER-LIGAND FREE ENERGY PREDICTED BY IDOCK:    5.14 KCAL/MOL
REMARK 924 INTRA-LIGAND FREE ENERGY PREDICTED BY IDOCK:   -0.21 KCAL/MOL
REMARK 927      BINDING AFFINITY PREDICTED BY RF-SCORE:    0.00 PKD
ROOT
HETATM    1  C   UNL     1      -9.771   9.734  67.203  1.00  0.00    -0.223 C  
HETATM    2  C   UNL     1      -9.102   8.518  66.159  1.00  0.00    -0.245 C  
HETATM    3  C   UNL     1      -8.526  10.383  67.763  1.00  0.00    -0.114 C  
HETATM    4  C   UNL     1      -9.926   7.738  65.065  1.00  0.00     2.635 C  
HETATM    5  C   UNL     1      -8.210  11.329  66.592  1.00  0.00    -0.164 C  
HETATM    6  C   UNL     1      -7.654   8.712  65.580  1.00  0.00    -0.086 C  
HETATM    7  C   UNL     1      -9.471  12.194  66.480  1.00  0.00    -0.235 C  
HETATM    8  C   UNL     1     -11.679  10.757  65.874  1.00  0.00     1.403 C  
HETATM    9  C   UNL     1     -10.588  11.151  66.893  1.00  0.00    -0.304 C  
HETATM   10  C   UNL     1      -9.030  13.404  67.379  1.00  0.00    -0.215 C  
HETATM   11  C   UNL     1     -11.440  11.921  68.011  1.00  0.00    -0.389 C  
HETATM   12  C   UNL     1      -8.286  14.413  66.482  1.00  0.00     0.444 C  
HETATM   13  C   UNL     1     -10.798  12.927  69.014  1.00  0.00    -0.188 C  
HETATM   14  C   UNL     1     -10.006  14.061  68.330  1.00  0.00    -0.236 C  
HETATM   15  C   UNL     1      -7.921  15.690  67.167  1.00  0.00    -0.254 C  
HETATM   16  C   UNL     1      -8.296  15.992  68.415  1.00  0.00    -0.178 C  
HETATM   17  C   UNL     1      -7.523  17.083  69.111  1.00  0.00    -0.162 C  
HETATM   18  C   UNL     1      -6.463  16.357  69.931  1.00  0.00    -0.069 C  
HETATM   19  O   UNL     1      -5.611  17.309  70.590  1.00  0.00    -0.219 OA 
HETATM   20  C   UNL     1      -7.137  15.426  70.954  1.00  0.00     1.268 C  
HETATM   21  C   UNL     1      -8.244  14.480  70.364  1.00  0.00     1.542 C  
HETATM   22  H   UNL     1      -4.950  16.855  71.102  1.00  0.00     0.000 HD 
HETATM   23  C   UNL     1      -9.203  15.110  69.288  1.00  0.00    -0.205 C  
HETATM   24  C   UNL     1     -10.235  16.001  70.023  1.00  0.00    -0.130 C  
ENDROOT
BRANCH   4  25
HETATM   25  C   UNL     1      -9.083   6.674  64.230  1.00  0.00     1.191 C  
BRANCH  25  26
HETATM   26  C   UNL     1      -9.561   5.219  64.360  1.00  0.00     0.580 C  
HETATM   27  C   UNL     1      -9.185   4.469  65.662  1.00  0.00    -0.149 C  
HETATM   28  C   UNL     1      -9.650   3.003  65.559  1.00  0.00     0.027 C  
HETATM   29  C   UNL     1      -9.769   5.046  66.952  1.00  0.00    -0.182 C  
ENDBRANCH  25  26
ENDBRANCH   4  25
TORSDOF 2
ENDMDL
MODEL       98
REMARK 921   NORMALIZED FREE ENERGY PREDICTED BY IDOCK:    5.39 KCAL/MOL
REMARK 922        TOTAL FREE ENERGY PREDICTED BY IDOCK:    5.78 KCAL/MOL
REMARK 923 INTER-LIGAND FREE ENERGY PREDICTED BY IDOCK:    6.10 KCAL/MOL
REMARK 924 INTRA-LIGAND FREE ENERGY PREDICTED BY IDOCK:   -0.32 KCAL/MOL
REMARK 927      BINDING AFFINITY PREDICTED BY RF-SCORE:    0.00 PKD
ROOT
HETATM    1  C   UNL     1      -8.978  14.670  69.636  1.00  0.00     0.324 C  
HETATM    2  C   UNL     1      -9.674  16.258  69.528  1.00  0.00    -0.131 C  
HETATM    3  C   UNL     1     -10.102  13.880  70.269  1.00  0.00     1.855 C  
HETATM    4  C   UNL     1      -9.077  17.429  68.658  1.00  0.00    -0.261 C  
HETATM    5  C   UNL     1     -10.935  13.608  69.005  1.00  0.00    -0.271 C  
HETATM    6  C   UNL     1     -11.236  16.412  69.482  1.00  0.00    -0.250 C  
HETATM    7  C   UNL     1      -9.964  12.850  68.092  1.00  0.00    -0.234 C  
HETATM    8  C   UNL     1      -7.799  14.321  67.413  1.00  0.00    -0.207 C  
HETATM    9  C   UNL     1      -8.591  13.535  68.481  1.00  0.00    -0.088 C  
HETATM   10  C   UNL     1     -10.347  11.378  68.479  1.00  0.00    -0.219 C  
HETATM   11  C   UNL     1      -7.614  12.300  68.776  1.00  0.00    -0.044 C  
HETATM   12  C   UNL     1     -11.510  10.937  67.569  1.00  0.00    -0.234 C  
HETATM   13  C   UNL     1      -8.112  10.965  69.408  1.00  0.00     0.001 C  
HETATM   14  C   UNL     1      -9.282  10.315  68.639  1.00  0.00    -0.159 C  
HETATM   15  C   UNL     1     -11.899   9.502  67.723  1.00  0.00     2.314 C  
HETATM   16  C   UNL     1     -11.236   8.635  68.496  1.00  0.00     0.463 C  
HETATM   17  C   UNL     1     -11.966   7.375  68.884  1.00  0.00     1.571 C  
HETATM   18  C   UNL     1     -12.565   7.670  70.255  1.00  0.00     0.686 C  
HETATM   19  O   UNL     1     -13.351   6.552  70.699  1.00  0.00     0.256 OA 
HETATM   20  C   UNL     1     -11.444   7.985  71.261  1.00  0.00    -0.299 C  
HETATM   21  C   UNL     1     -10.399   9.056  70.779  1.00  0.00    -0.305 C  
HETATM   22  H   UNL     1     -13.725   6.736  71.554  1.00  0.00     0.000 HD 
HETATM   23  C   UNL     1      -9.952   8.970  69.273  1.00  0.00    -0.188 C  
HETATM   24  C   UNL     1      -8.947   7.800  69.134  1.00  0.00    -0.145 C  
ENDROOT
BRANCH   4  25
HETATM   25  C   UNL     1      -9.902  18.791  68.720  1.00  0.00    -0.434 C  
BRANCH  25  26
HETATM   26  C   UNL     1      -9.603  19.784  67.586  1.00  0.00    -0.470 C  
HETATM   27  C   UNL     1     -10.404  19.613  66.271  1.00  0.00    -0.619 C  
HETATM   28  C   UNL     1      -9.889  20.621  65.225  1.00  0.00     0.809 C  
HETATM   29  C   UNL     1     -11.917  19.804  66.387  1.00  0.00     2.376 C  
ENDBRANCH  25  26
ENDBRANCH   4  25
TORSDOF 2
ENDMDL
MODEL       99
REMARK 921   NORMALIZED FREE ENERGY PREDICTED BY IDOCK:    5.71 KCAL/MOL
REMARK 922        TOTAL FREE ENERGY PREDICTED BY IDOCK:    6.14 KCAL/MOL
REMARK 923 INTER-LIGAND FREE ENERGY PREDICTED BY IDOCK:    6.35 KCAL/MOL
REMARK 924 INTRA-LIGAND FREE ENERGY PREDICTED BY IDOCK:   -0.21 KCAL/MOL
REMARK 927      BINDING AFFINITY PREDICTED BY RF-SCORE:    0.00 PKD
ROOT
HETATM    1  C   UNL     1      -9.600  13.208  68.953  1.00  0.00     0.202 C  
HETATM    2  C   UNL     1     -10.834  13.154  70.174  1.00  0.00     0.978 C  
HETATM    3  C   UNL     1      -9.301  11.741  68.746  1.00  0.00    -0.019 C  
HETATM    4  C   UNL     1     -11.754  14.375  70.559  1.00  0.00    -0.328 C  
HETATM    5  C   UNL     1     -10.460  11.401  67.793  1.00  0.00    -0.215 C  
HETATM    6  C   UNL     1     -11.714  11.861  70.323  1.00  0.00    -0.293 C  
HETATM    7  C   UNL     1     -10.236  12.343  66.605  1.00  0.00    -0.241 C  
HETATM    8  C   UNL     1     -10.404  14.953  67.290  1.00  0.00    -0.251 C  
HETATM    9  C   UNL     1      -9.639  13.613  67.338  1.00  0.00    -0.226 C  
HETATM   10  C   UNL     1      -9.396  11.392  65.680  1.00  0.00    -0.242 C  
HETATM   11  C   UNL     1      -8.317  13.955  66.500  1.00  0.00     0.421 C  
HETATM   12  C   UNL     1     -10.380  10.578  64.819  1.00  0.00    -0.300 C  
HETATM   13  C   UNL     1      -7.431  12.856  65.838  1.00  0.00     3.075 C  
HETATM   14  C   UNL     1      -8.213  11.917  64.896  1.00  0.00     1.579 C  
HETATM   15  C   UNL     1      -9.727   9.720  63.784  1.00  0.00     0.286 C  
HETATM   16  C   UNL     1      -8.412   9.730  63.540  1.00  0.00    -0.184 C  
HETATM   17  C   UNL     1      -7.850   8.545  62.797  1.00  0.00    -0.138 C  
HETATM   18  C   UNL     1      -7.332   7.606  63.881  1.00  0.00    -0.092 C  
HETATM   19  O   UNL     1      -6.832   6.397  63.288  1.00  0.00    -0.042 OA 
HETATM   20  C   UNL     1      -6.236   8.308  64.702  1.00  0.00    -0.064 C  
HETATM   21  C   UNL     1      -6.611   9.740  65.227  1.00  0.00    -0.098 C  
HETATM   22  H   UNL     1      -6.510   5.812  63.964  1.00  0.00     0.000 HD 
HETATM   23  C   UNL     1      -7.406  10.664  64.232  1.00  0.00     0.224 C  
HETATM   24  C   UNL     1      -6.409  11.215  63.183  1.00  0.00     0.673 C  
ENDROOT
BRANCH   4  25
HETATM   25  C   UNL     1     -12.815  14.072  71.708  1.00  0.00    -0.424 C  
BRANCH  25  26
HETATM   26  C   UNL     1     -13.732  15.249  72.074  1.00  0.00    -0.596 C  
HETATM   27  C   UNL     1     -13.281  16.154  73.248  1.00  0.00    -0.559 C  
HETATM   28  C   UNL     1     -14.376  17.201  73.534  1.00  0.00     3.224 C  
HETATM   29  C   UNL     1     -11.969  16.908  73.037  1.00  0.00     0.000 C  
ENDBRANCH  25  26
ENDBRANCH   4  25
TORSDOF 2
ENDMDL
MODEL      100
REMARK 921   NORMALIZED FREE ENERGY PREDICTED BY IDOCK:    6.17 KCAL/MOL
REMARK 922        TOTAL FREE ENERGY PREDICTED BY IDOCK:    6.65 KCAL/MOL
REMARK 923 INTER-LIGAND FREE ENERGY PREDICTED BY IDOCK:    2.35 KCAL/MOL
REMARK 924 INTRA-LIGAND FREE ENERGY PREDICTED BY IDOCK:    4.30 KCAL/MOL
REMARK 927      BINDING AFFINITY PREDICTED BY RF-SCORE:    0.00 PKD
ROOT
HETATM    1  C   UNL     1      -9.611  12.808  68.760  1.00  0.00     0.089 C  
HETATM    2  C   UNL     1     -10.977  12.848  69.833  1.00  0.00     0.414 C  
HETATM    3  C   UNL     1      -9.115  11.391  68.941  1.00  0.00    -0.022 C  
HETATM    4  C   UNL     1     -12.078  13.976  69.822  1.00  0.00    -0.405 C  
HETATM    5  C   UNL     1     -10.092  10.681  67.988  1.00  0.00    -0.181 C  
HETATM    6  C   UNL     1     -11.708  11.507  70.199  1.00  0.00    -0.395 C  
HETATM    7  C   UNL     1      -9.830  11.356  66.637  1.00  0.00    -0.233 C  
HETATM    8  C   UNL     1     -10.396  13.999  66.658  1.00  0.00    -0.278 C  
HETATM    9  C   UNL     1      -9.489  12.830  67.100  1.00  0.00    -0.223 C  
HETATM   10  C   UNL     1      -8.769  10.355  66.053  1.00  0.00    -0.163 C  
HETATM   11  C   UNL     1      -8.120  13.167  66.338  1.00  0.00     0.811 C  
HETATM   12  C   UNL     1      -9.530   9.234  65.320  1.00  0.00    -0.234 C  
HETATM   13  C   UNL     1      -7.031  12.089  66.047  1.00  0.00     1.204 C  
HETATM   14  C   UNL     1      -7.567  10.859  65.285  1.00  0.00     0.185 C  
HETATM   15  C   UNL     1      -8.651   8.272  64.589  1.00  0.00    -0.005 C  
HETATM   16  C   UNL     1      -7.325   8.419  64.479  1.00  0.00    -0.094 C  
HETATM   17  C   UNL     1      -6.535   7.193  64.100  1.00  0.00    -0.043 C  
HETATM   18  C   UNL     1      -6.053   6.607  65.422  1.00  0.00    -0.038 C  
HETATM   19  O   UNL     1      -5.339   5.382  65.187  1.00  0.00    -0.012 OA 
HETATM   20  C   UNL     1      -5.164   7.627  66.155  1.00  0.00    -0.025 C  
HETATM   21  C   UNL     1      -5.772   9.070  66.282  1.00  0.00    -0.053 C  
HETATM   22  H   UNL     1      -5.039   5.017  66.012  1.00  0.00     0.000 HD 
HETATM   23  C   UNL     1      -6.537   9.622  65.023  1.00  0.00    -0.091 C  
HETATM   24  C   UNL     1      -5.486  10.064  63.975  1.00  0.00    -0.105 C  
ENDROOT
BRANCH   4  25
HETATM   25  C   UNL     1     -13.235  13.785  70.901  1.00  0.00    -0.156 C  
BRANCH  25  26
HETATM   26  C   UNL     1     -12.984  12.677  71.936  1.00  0.00    -0.402 C  
HETATM   27  C   UNL     1     -13.841  11.392  71.813  1.00  0.00     0.481 C  
HETATM   28  C   UNL     1     -13.525  10.454  72.995  1.00  0.00     1.817 C  
HETATM   29  C   UNL     1     -13.650  10.589  70.526  1.00  0.00     0.507 C  
ENDBRANCH  25  26
ENDBRANCH   4  25
TORSDOF 2
ENDMDL
MODEL      101
REMARK 921   NORMALIZED FREE ENERGY PREDICTED BY IDOCK:    7.04 KCAL/MOL
REMARK 922        TOTAL FREE ENERGY PREDICTED BY IDOCK:    7.62 KCAL/MOL
REMARK 923 INTER-LIGAND FREE ENERGY PREDICTED BY IDOCK:    6.18 KCAL/MOL
REMARK 924 INTRA-LIGAND FREE ENERGY PREDICTED BY IDOCK:    1.44 KCAL/MOL
REMARK 927      BINDING AFFINITY PREDICTED BY RF-SCORE:    0.00 PKD
ROOT
HETATM    1  C   UNL     1      -9.553  13.699  64.558  1.00  0.00     0.869 C  
HETATM    2  C   UNL     1     -10.333  15.242  64.735  1.00  0.00    -0.132 C  
HETATM    3  C   UNL     1      -8.934  13.505  65.924  1.00  0.00     0.508 C  
HETATM    4  C   UNL     1     -11.406  15.812  63.731  1.00  0.00     0.914 C  
HETATM    5  C   UNL     1     -10.174  12.978  66.666  1.00  0.00    -0.257 C  
HETATM    6  C   UNL     1     -10.747  15.735  66.167  1.00  0.00    -0.293 C  
HETATM    7  C   UNL     1     -10.557  11.720  65.877  1.00  0.00    -0.314 C  
HETATM    8  C   UNL     1     -11.235  12.256  63.316  1.00  0.00    -0.399 C  
HETATM    9  C   UNL     1     -10.150  12.152  64.410  1.00  0.00    -0.300 C  
HETATM   10  C   UNL     1      -9.782  10.645  66.719  1.00  0.00    -0.222 C  
HETATM   11  C   UNL     1      -9.262  10.929  63.880  1.00  0.00    -0.222 C  
HETATM   12  C   UNL     1     -10.706  10.181  67.861  1.00  0.00    -0.317 C  
HETATM   13  C   UNL     1      -8.331  10.098  64.815  1.00  0.00    -0.167 C  
HETATM   14  C   UNL     1      -9.056   9.503  66.040  1.00  0.00    -0.220 C  
HETATM   15  C   UNL     1     -10.159   9.052  68.673  1.00  0.00    -0.207 C  
HETATM   16  C   UNL     1      -9.019   8.416  68.380  1.00  0.00    -0.136 C  
HETATM   17  C   UNL     1      -8.385   7.613  69.487  1.00  0.00    -0.130 C  
HETATM   18  C   UNL     1      -7.349   8.543  70.108  1.00  0.00    -0.051 C  
HETATM   19  O   UNL     1      -6.723   7.904  71.233  1.00  0.00    -0.041 OA 
HETATM   20  C   UNL     1      -6.303   8.942  69.053  1.00  0.00    -0.044 C  
HETATM   21  C   UNL     1      -6.894   9.464  67.694  1.00  0.00    -0.076 C  
HETATM   22  H   UNL     1      -6.077   8.484  71.619  1.00  0.00     0.000 HD 
HETATM   23  C   UNL     1      -8.156   8.705  67.141  1.00  0.00    -0.100 C  
HETATM   24  C   UNL     1      -7.682   7.368  66.520  1.00  0.00    -0.093 C  
ENDROOT
BRANCH   4  25
HETATM   25  C   UNL     1     -11.979  17.248  64.115  1.00  0.00     3.690 C  
BRANCH  25  26
HETATM   26  C   UNL     1     -11.468  17.817  65.448  1.00  0.00     1.604 C  
HETATM   27  C   UNL     1     -10.902  19.259  65.428  1.00  0.00     0.046 C  
HETATM   28  C   UNL     1     -10.341  19.606  66.821  1.00  0.00    -0.591 C  
HETATM   29  C   UNL     1     -11.897  20.355  65.047  1.00  0.00     2.858 C  
ENDBRANCH  25  26
ENDBRANCH   4  25
TORSDOF 2
ENDMDL
MODEL      102
REMARK 921   NORMALIZED FREE ENERGY PREDICTED BY IDOCK:    8.13 KCAL/MOL
REMARK 922        TOTAL FREE ENERGY PREDICTED BY IDOCK:    8.83 KCAL/MOL
REMARK 923 INTER-LIGAND FREE ENERGY PREDICTED BY IDOCK:    8.67 KCAL/MOL
REMARK 924 INTRA-LIGAND FREE ENERGY PREDICTED BY IDOCK:    0.16 KCAL/MOL
REMARK 927      BINDING AFFINITY PREDICTED BY RF-SCORE:    0.00 PKD
ROOT
HETATM    1  C   UNL     1      -5.484  12.234  67.264  1.00  0.00    -0.113 C  
HETATM    2  C   UNL     1      -5.594  13.808  67.989  1.00  0.00    -0.127 C  
HETATM    3  C   UNL     1      -5.834  11.331  68.424  1.00  0.00    -0.045 C  
HETATM    4  C   UNL     1      -5.644  15.158  67.176  1.00  0.00     0.635 C  
HETATM    5  C   UNL     1      -7.366  11.439  68.349  1.00  0.00    -0.095 C  
HETATM    6  C   UNL     1      -6.502  14.011  69.255  1.00  0.00    -0.114 C  
HETATM    7  C   UNL     1      -7.692  10.937  66.938  1.00  0.00    -0.135 C  
HETATM    8  C   UNL     1      -6.610  12.479  64.999  1.00  0.00     6.920 C  
HETATM    9  C   UNL     1      -6.428  11.451  66.137  1.00  0.00     0.107 C  
HETATM   10  C   UNL     1      -7.966   9.425  67.262  1.00  0.00    -0.106 C  
HETATM   11  C   UNL     1      -5.925  10.157  65.337  1.00  0.00    -0.101 C  
HETATM   12  C   UNL     1      -9.455   9.282  67.632  1.00  0.00    -0.156 C  
HETATM   13  C   UNL     1      -6.042   8.713  65.913  1.00  0.00    -0.048 C  
HETATM   14  C   UNL     1      -7.475   8.331  66.339  1.00  0.00    -0.080 C  
HETATM   15  C   UNL     1      -9.904   7.872  67.835  1.00  0.00    -0.201 C  
HETATM   16  C   UNL     1      -9.124   6.808  67.612  1.00  0.00    -0.117 C  
HETATM   17  C   UNL     1      -9.547   5.509  68.249  1.00  0.00    -0.148 C  
HETATM   18  C   UNL     1      -8.760   5.431  69.552  1.00  0.00    -0.102 C  
HETATM   19  O   UNL     1      -9.138   4.255  70.287  1.00  0.00    -0.085 OA 
HETATM   20  C   UNL     1      -7.250   5.428  69.253  1.00  0.00    -0.065 C  
HETATM   21  C   UNL     1      -6.762   6.562  68.281  1.00  0.00    -0.068 C  
HETATM   22  H   UNL     1      -8.647   4.207  71.099  1.00  0.00     0.000 HD 
HETATM   23  C   UNL     1      -7.693   6.882  67.055  1.00  0.00    -0.103 C  
HETATM   24  C   UNL     1      -7.496   5.770  65.995  1.00  0.00    -0.082 C  
ENDROOT
BRANCH   4  25
HETATM   25  C   UNL     1      -5.750  16.471  68.072  1.00  0.00    -0.123 C  
BRANCH  25  26
HETATM   26  C   UNL     1      -6.005  17.771  67.293  1.00  0.00    -0.157 C  
HETATM   27  C   UNL     1      -5.999  17.677  65.746  1.00  0.00    -0.112 C  
HETATM   28  C   UNL     1      -6.158  19.090  65.150  1.00  0.00    -0.314 C  
HETATM   29  C   UNL     1      -7.084  16.794  65.131  1.00  0.00     3.803 C  
ENDBRANCH  25  26
ENDBRANCH   4  25
TORSDOF 2
ENDMDL
MODEL      103
REMARK 921   NORMALIZED FREE ENERGY PREDICTED BY IDOCK:   11.21 KCAL/MOL
REMARK 922        TOTAL FREE ENERGY PREDICTED BY IDOCK:   12.28 KCAL/MOL
REMARK 923 INTER-LIGAND FREE ENERGY PREDICTED BY IDOCK:   12.45 KCAL/MOL
REMARK 924 INTRA-LIGAND FREE ENERGY PREDICTED BY IDOCK:   -0.18 KCAL/MOL
REMARK 927      BINDING AFFINITY PREDICTED BY RF-SCORE:    0.00 PKD
ROOT
HETATM    1  C   UNL     1      -9.052   9.326  67.970  1.00  0.00    -0.132 C  
HETATM    2  C   UNL     1      -8.957   8.673  69.577  1.00  0.00    -0.145 C  
HETATM    3  C   UNL     1     -10.242  10.252  68.080  1.00  0.00    -0.200 C  
HETATM    4  C   UNL     1      -7.712   7.889  70.143  1.00  0.00    -0.088 C  
HETATM    5  C   UNL     1      -9.536  11.465  68.708  1.00  0.00    -0.128 C  
HETATM    6  C   UNL     1      -9.560   9.489  70.776  1.00  0.00    -0.261 C  
HETATM    7  C   UNL     1      -8.454  11.821  67.681  1.00  0.00    -0.149 C  
HETATM    8  C   UNL     1      -6.647   9.842  67.332  1.00  0.00    -0.070 C  
HETATM    9  C   UNL     1      -8.078  10.385  67.132  1.00  0.00    -0.115 C  
HETATM   10  C   UNL     1      -9.237  12.899  66.849  1.00  0.00    -0.234 C  
HETATM   11  C   UNL     1      -8.150  10.551  65.540  1.00  0.00    -0.155 C  
HETATM   12  C   UNL     1      -9.018  14.267  67.522  1.00  0.00    -0.197 C  
HETATM   13  C   UNL     1      -9.174  11.494  64.837  1.00  0.00    -0.006 C  
HETATM   14  C   UNL     1      -9.120  12.951  65.342  1.00  0.00     0.691 C  
HETATM   15  C   UNL     1      -9.591  15.422  66.765  1.00  0.00    -0.257 C  
HETATM   16  C   UNL     1     -10.151  15.307  65.556  1.00  0.00    -0.408 C  
HETATM   17  C   UNL     1     -11.045  16.437  65.111  1.00  0.00    -0.176 C  
HETATM   18  C   UNL     1     -12.457  15.990  65.471  1.00  0.00     1.967 C  
HETATM   19  O   UNL     1     -13.398  17.030  65.155  1.00  0.00     6.405 OA 
HETATM   20  C   UNL     1     -12.803  14.691  64.723  1.00  0.00     0.146 C  
HETATM   21  C   UNL     1     -11.727  13.552  64.835  1.00  0.00    -0.381 C  
HETATM   22  H   UNL     1     -14.278  16.751  65.380  1.00  0.00     0.000 HD 
HETATM   23  C   UNL     1     -10.222  13.999  64.751  1.00  0.00    -0.332 C  
HETATM   24  C   UNL     1      -9.886  14.289  63.267  1.00  0.00     7.054 C  
ENDROOT
BRANCH   4  25
HETATM   25  C   UNL     1      -7.866   7.395  71.649  1.00  0.00    -0.087 C  
BRANCH  25  26
HETATM   26  C   UNL     1      -7.650   5.889  71.865  1.00  0.00    -0.097 C  
HETATM   27  C   UNL     1      -6.690   5.471  73.007  1.00  0.00    -0.073 C  
HETATM   28  C   UNL     1      -6.518   3.940  72.993  1.00  0.00    -0.032 C  
HETATM   29  C   UNL     1      -7.125   5.871  74.417  1.00  0.00    -0.088 C  
ENDBRANCH  25  26
ENDBRANCH   4  25
TORSDOF 2
ENDMDL
MODEL      104
REMARK 921   NORMALIZED FREE ENERGY PREDICTED BY IDOCK:   12.27 KCAL/MOL
REMARK 922        TOTAL FREE ENERGY PREDICTED BY IDOCK:   13.46 KCAL/MOL
REMARK 923 INTER-LIGAND FREE ENERGY PREDICTED BY IDOCK:   13.78 KCAL/MOL
REMARK 924 INTRA-LIGAND FREE ENERGY PREDICTED BY IDOCK:   -0.32 KCAL/MOL
REMARK 927      BINDING AFFINITY PREDICTED BY RF-SCORE:    0.00 PKD
ROOT
HETATM    1  C   UNL     1      -9.078  14.916  70.568  1.00  0.00     1.418 C  
HETATM    2  C   UNL     1     -10.272  16.065  70.045  1.00  0.00    -0.130 C  
HETATM    3  C   UNL     1      -9.939  13.760  71.026  1.00  0.00     5.020 C  
HETATM    4  C   UNL     1      -9.953  17.339  69.173  1.00  0.00    -0.211 C  
HETATM    5  C   UNL     1     -10.203  13.111  69.656  1.00  0.00     0.965 C  
HETATM    6  C   UNL     1     -11.688  15.554  69.598  1.00  0.00    -0.371 C  
HETATM    7  C   UNL     1      -8.797  12.785  69.137  1.00  0.00     0.711 C  
HETATM    8  C   UNL     1      -7.274  14.990  68.780  1.00  0.00    -0.125 C  
HETATM    9  C   UNL     1      -7.970  13.995  69.735  1.00  0.00     0.803 C  
HETATM   10  C   UNL     1      -8.674  11.305  69.646  1.00  0.00     0.833 C  
HETATM   11  C   UNL     1      -6.719  13.291  70.448  1.00  0.00     0.657 C  
HETATM   12  C   UNL     1      -9.264  10.381  68.563  1.00  0.00    -0.145 C  
HETATM   13  C   UNL     1      -6.820  11.899  71.143  1.00  0.00     3.284 C  
HETATM   14  C   UNL     1      -7.375  10.789  70.225  1.00  0.00     0.483 C  
HETATM   15  C   UNL     1      -9.094   8.923  68.841  1.00  0.00    -0.140 C  
HETATM   16  C   UNL     1      -8.397   8.445  69.879  1.00  0.00    -0.124 C  
HETATM   17  C   UNL     1      -8.660   7.014  70.273  1.00  0.00    -0.140 C  
HETATM   18  C   UNL     1      -9.691   7.093  71.393  1.00  0.00    -0.168 C  
HETATM   19  O   UNL     1     -10.075   5.771  71.804  1.00  0.00    -0.179 OA 
HETATM   20  C   UNL     1      -9.118   7.890  72.578  1.00  0.00    -0.245 C  
HETATM   21  C   UNL     1      -8.479   9.275  72.201  1.00  0.00     0.814 C  
HETATM   22  H   UNL     1     -10.718   5.821  72.503  1.00  0.00     0.000 HD 
HETATM   23  C   UNL     1      -7.623   9.317  70.882  1.00  0.00    -0.130 C  
HETATM   24  C   UNL     1      -6.249   8.665  71.176  1.00  0.00    -0.046 C  
ENDROOT
BRANCH   4  25
HETATM   25  C   UNL     1     -11.221  18.236  68.818  1.00  0.00     1.330 C  
BRANCH  25  26
HETATM   26  C   UNL     1     -10.908  19.529  68.048  1.00  0.00    -0.197 C  
HETATM   27  C   UNL     1     -10.116  19.386  66.725  1.00  0.00    -0.496 C  
HETATM   28  C   UNL     1      -9.805  20.787  66.163  1.00  0.00     0.281 C  
HETATM   29  C   UNL     1     -10.812  18.592  65.619  1.00  0.00     0.023 C  
ENDBRANCH  25  26
ENDBRANCH   4  25
TORSDOF 2
ENDMDL
MODEL      105
REMARK 921   NORMALIZED FREE ENERGY PREDICTED BY IDOCK:   14.08 KCAL/MOL
REMARK 922        TOTAL FREE ENERGY PREDICTED BY IDOCK:   15.48 KCAL/MOL
REMARK 923 INTER-LIGAND FREE ENERGY PREDICTED BY IDOCK:   15.61 KCAL/MOL
REMARK 924 INTRA-LIGAND FREE ENERGY PREDICTED BY IDOCK:   -0.12 KCAL/MOL
REMARK 927      BINDING AFFINITY PREDICTED BY RF-SCORE:    0.00 PKD
ROOT
HETATM    1  C   UNL     1      -8.801  12.080  68.277  1.00  0.00    -0.182 C  
HETATM    2  C   UNL     1      -9.532  10.685  69.008  1.00  0.00    -0.202 C  
HETATM    3  C   UNL     1      -9.854  13.140  68.506  1.00  0.00    -0.155 C  
HETATM    4  C   UNL     1      -8.757   9.356  69.352  1.00  0.00    -0.157 C  
HETATM    5  C   UNL     1      -9.498  13.510  69.957  1.00  0.00     2.577 C  
HETATM    6  C   UNL     1     -10.612  10.882  70.132  1.00  0.00     0.177 C  
HETATM    7  C   UNL     1      -8.039  13.971  69.861  1.00  0.00     1.126 C  
HETATM    8  C   UNL     1      -6.373  12.013  69.024  1.00  0.00    -0.085 C  
HETATM    9  C   UNL     1      -7.500  13.023  68.714  1.00  0.00    -0.049 C  
HETATM   10  C   UNL     1      -8.269  15.514  69.684  1.00  0.00    -0.117 C  
HETATM   11  C   UNL     1      -6.775  14.024  67.695  1.00  0.00    -0.188 C  
HETATM   12  C   UNL     1      -8.353  16.144  71.087  1.00  0.00     4.952 C  
HETATM   13  C   UNL     1      -7.284  15.475  67.435  1.00  0.00    -0.241 C  
HETATM   14  C   UNL     1      -7.426  16.319  68.719  1.00  0.00    -0.195 C  
HETATM   15  C   UNL     1      -8.434  17.637  71.086  1.00  0.00     7.992 C  
HETATM   16  C   UNL     1      -8.333  18.381  69.978  1.00  0.00     1.819 C  
HETATM   17  C   UNL     1      -8.848  19.795  70.061  1.00  0.00     1.000 C  
HETATM   18  C   UNL     1     -10.272  19.731  69.522  1.00  0.00     0.060 C  
HETATM   19  O   UNL     1     -10.895  21.023  69.619  1.00  0.00    -0.091 OA 
HETATM   20  C   UNL     1     -10.259  19.238  68.064  1.00  0.00    -0.507 C  
HETATM   21  C   UNL     1      -9.423  17.932  67.811  1.00  0.00    -0.263 C  
HETATM   22  H   UNL     1     -11.783  20.982  69.283  1.00  0.00     0.000 HD 
HETATM   23  C   UNL     1      -8.053  17.818  68.575  1.00  0.00    -0.297 C  
HETATM   24  C   UNL     1      -7.022  18.721  67.855  1.00  0.00    -0.236 C  
ENDROOT
BRANCH   4  25
HETATM   25  C   UNL     1      -9.649   8.221  70.025  1.00  0.00    -0.168 C  
BRANCH  25  26
HETATM   26  C   UNL     1      -9.383   7.984  71.520  1.00  0.00    -0.196 C  
HETATM   27  C   UNL     1     -10.236   6.900  72.225  1.00  0.00    -0.207 C  
HETATM   28  C   UNL     1      -9.905   6.890  73.730  1.00  0.00    -0.313 C  
HETATM   29  C   UNL     1     -10.057   5.474  71.705  1.00  0.00    -0.249 C  
ENDBRANCH  25  26
ENDBRANCH   4  25
TORSDOF 2
ENDMDL
MODEL      106
REMARK 921   NORMALIZED FREE ENERGY PREDICTED BY IDOCK:   15.89 KCAL/MOL
REMARK 922        TOTAL FREE ENERGY PREDICTED BY IDOCK:   17.51 KCAL/MOL
REMARK 923 INTER-LIGAND FREE ENERGY PREDICTED BY IDOCK:   17.82 KCAL/MOL
REMARK 924 INTRA-LIGAND FREE ENERGY PREDICTED BY IDOCK:   -0.31 KCAL/MOL
REMARK 927      BINDING AFFINITY PREDICTED BY RF-SCORE:    0.00 PKD
ROOT
HETATM    1  C   UNL     1     -11.708   9.319  70.387  1.00  0.00    -0.157 C  
HETATM    2  C   UNL     1     -10.790   8.542  69.134  1.00  0.00    -0.049 C  
HETATM    3  C   UNL     1     -10.764  10.413  70.832  1.00  0.00     0.341 C  
HETATM    4  C   UNL     1     -11.396   7.528  68.090  1.00  0.00     0.564 C  
HETATM    5  C   UNL     1     -11.075  11.447  69.736  1.00  0.00    -0.198 C  
HETATM    6  C   UNL     1      -9.675   9.353  68.381  1.00  0.00    -0.163 C  
HETATM    7  C   UNL     1     -12.579  11.700  69.898  1.00  0.00    -0.002 C  
HETATM    8  C   UNL     1     -14.067   9.486  69.459  1.00  0.00     4.116 C  
HETATM    9  C   UNL     1     -13.076  10.267  70.350  1.00  0.00    -0.089 C  
HETATM   10  C   UNL     1     -12.527  12.948  70.849  1.00  0.00    -0.383 C  
HETATM   11  C   UNL     1     -13.962  10.560  71.652  1.00  0.00     0.426 C  
HETATM   12  C   UNL     1     -12.432  14.210  69.970  1.00  0.00    -0.352 C  
HETATM   13  C   UNL     1     -13.628  11.705  72.657  1.00  0.00     0.869 C  
HETATM   14  C   UNL     1     -13.505  13.093  71.994  1.00  0.00    -0.598 C  
HETATM   15  C   UNL     1     -12.513  15.494  70.729  1.00  0.00    -0.491 C  
HETATM   16  C   UNL     1     -12.756  15.562  72.044  1.00  0.00    -0.490 C  
HETATM   17  C   UNL     1     -12.394  16.850  72.736  1.00  0.00     0.547 C  
HETATM   18  C   UNL     1     -11.004  16.611  73.316  1.00  0.00     2.822 C  
HETATM   19  O   UNL     1     -10.520  17.809  73.946  1.00  0.00     3.508 OA 
HETATM   20  C   UNL     1     -11.047  15.444  74.317  1.00  0.00     2.655 C  
HETATM   21  C   UNL     1     -11.750  14.141  73.792  1.00  0.00     1.401 C  
HETATM   22  H   UNL     1      -9.654  17.660  74.307  1.00  0.00     0.000 HD 
HETATM   23  C   UNL     1     -13.053  14.345  72.936  1.00  0.00    -0.612 C  
HETATM   24  C   UNL     1     -14.216  14.687  73.901  1.00  0.00     5.155 C  
ENDROOT
BRANCH   4  25
HETATM   25  C   UNL     1     -10.348   6.955  67.035  1.00  0.00    -0.348 C  
BRANCH  25  26
HETATM   26  C   UNL     1     -10.497   5.458  66.720  1.00  0.00    -0.347 C  
HETATM   27  C   UNL     1      -9.321   4.534  67.124  1.00  0.00    -0.163 C  
HETATM   28  C   UNL     1      -9.604   3.102  66.628  1.00  0.00     0.006 C  
HETATM   29  C   UNL     1      -9.028   4.451  68.622  1.00  0.00    -0.153 C  
ENDBRANCH  25  26
ENDBRANCH   4  25
TORSDOF 2
ENDMDL
MODEL      107
REMARK 921   NORMALIZED FREE ENERGY PREDICTED BY IDOCK:   16.00 KCAL/MOL
REMARK 922        TOTAL FREE ENERGY PREDICTED BY IDOCK:   17.63 KCAL/MOL
REMARK 923 INTER-LIGAND FREE ENERGY PREDICTED BY IDOCK:   12.26 KCAL/MOL
REMARK 924 INTRA-LIGAND FREE ENERGY PREDICTED BY IDOCK:    5.37 KCAL/MOL
REMARK 927      BINDING AFFINITY PREDICTED BY RF-SCORE:    0.00 PKD
ROOT
HETATM    1  C   UNL     1      -6.189  16.168  69.787  1.00  0.00    -0.184 C  
HETATM    2  C   UNL     1      -6.847  17.565  70.583  1.00  0.00     2.163 C  
HETATM    3  C   UNL     1      -7.031  15.054  70.365  1.00  0.00     0.206 C  
HETATM    4  C   UNL     1      -6.574  19.051  70.135  1.00  0.00     0.113 C  
HETATM    5  C   UNL     1      -8.262  15.197  69.454  1.00  0.00    -0.197 C  
HETATM    6  C   UNL     1      -8.322  17.520  71.122  1.00  0.00     7.869 C  
HETATM    7  C   UNL     1      -7.691  14.995  68.046  1.00  0.00    -0.129 C  
HETATM    8  C   UNL     1      -5.878  16.882  67.368  1.00  0.00    -0.181 C  
HETATM    9  C   UNL     1      -6.256  15.643  68.208  1.00  0.00    -0.120 C  
HETATM   10  C   UNL     1      -7.942  13.452  67.888  1.00  0.00    -0.155 C  
HETATM   11  C   UNL     1      -5.263  14.530  67.624  1.00  0.00     0.098 C  
HETATM   12  C   UNL     1      -9.359  13.259  67.316  1.00  0.00    -0.226 C  
HETATM   13  C   UNL     1      -5.531  13.001  67.770  1.00  0.00    -0.118 C  
HETATM   14  C   UNL     1      -6.909  12.561  67.232  1.00  0.00    -0.116 C  
HETATM   15  C   UNL     1      -9.697  11.843  66.979  1.00  0.00    -0.204 C  
HETATM   16  C   UNL     1      -8.820  10.836  67.056  1.00  0.00    -0.137 C  
HETATM   17  C   UNL     1      -9.390   9.441  67.102  1.00  0.00    -0.172 C  
HETATM   18  C   UNL     1      -9.460   9.090  68.584  1.00  0.00    -0.147 C  
HETATM   19  O   UNL     1     -10.060   7.795  68.756  1.00  0.00    -0.185 OA 
HETATM   20  C   UNL     1      -8.050   9.126  69.199  1.00  0.00    -0.105 C  
HETATM   21  C   UNL     1      -7.223  10.426  68.892  1.00  0.00    -0.082 C  
HETATM   22  H   UNL     1     -10.104   7.577  69.680  1.00  0.00     0.000 HD 
HETATM   23  C   UNL     1      -7.338  11.001  67.432  1.00  0.00    -0.105 C  
HETATM   24  C   UNL     1      -6.469  10.123  66.497  1.00  0.00    -0.076 C  
ENDROOT
BRANCH   4  25
HETATM   25  C   UNL     1      -7.297  20.157  71.025  1.00  0.00     1.025 C  
BRANCH  25  26
HETATM   26  C   UNL     1      -8.786  20.374  70.710  1.00  0.00     1.931 C  
HETATM   27  C   UNL     1      -9.362  19.625  69.483  1.00  0.00     0.134 C  
HETATM   28  C   UNL     1     -10.826  20.053  69.266  1.00  0.00     0.851 C  
HETATM   29  C   UNL     1      -9.338  18.098  69.567  1.00  0.00     0.510 C  
ENDBRANCH  25  26
ENDBRANCH   4  25
TORSDOF 2
ENDMDL
MODEL      108
REMARK 921   NORMALIZED FREE ENERGY PREDICTED BY IDOCK:   20.20 KCAL/MOL
REMARK 922        TOTAL FREE ENERGY PREDICTED BY IDOCK:   22.31 KCAL/MOL
REMARK 923 INTER-LIGAND FREE ENERGY PREDICTED BY IDOCK:   20.80 KCAL/MOL
REMARK 924 INTRA-LIGAND FREE ENERGY PREDICTED BY IDOCK:    1.51 KCAL/MOL
REMARK 927      BINDING AFFINITY PREDICTED BY RF-SCORE:    0.00 PKD
ROOT
HETATM    1  C   UNL     1      -7.384  13.481  69.945  1.00  0.00     0.783 C  
HETATM    2  C   UNL     1      -7.230  11.808  69.505  1.00  0.00     0.160 C  
HETATM    3  C   UNL     1      -7.181  14.173  68.617  1.00  0.00    -0.116 C  
HETATM    4  C   UNL     1      -7.663  10.605  70.427  1.00  0.00     0.919 C  
HETATM    5  C   UNL     1      -8.605  14.020  68.056  1.00  0.00    -0.179 C  
HETATM    6  C   UNL     1      -7.525  11.372  68.025  1.00  0.00    -0.100 C  
HETATM    7  C   UNL     1      -9.479  14.729  69.097  1.00  0.00    -0.115 C  
HETATM    8  C   UNL     1      -9.368  13.558  71.531  1.00  0.00    11.010 C  
HETATM    9  C   UNL     1      -8.688  14.397  70.427  1.00  0.00     2.047 C  
HETATM   10  C   UNL     1      -9.540  16.158  68.448  1.00  0.00    -0.209 C  
HETATM   11  C   UNL     1      -8.528  15.820  71.145  1.00  0.00     3.962 C  
HETATM   12  C   UNL     1     -10.728  16.182  67.468  1.00  0.00    -0.304 C  
HETATM   13  C   UNL     1      -8.342  17.149  70.349  1.00  0.00     3.455 C  
HETATM   14  C   UNL     1      -9.449  17.403  69.304  1.00  0.00     0.083 C  
HETATM   15  C   UNL     1     -11.003  17.524  66.870  1.00  0.00     0.130 C  
HETATM   16  C   UNL     1     -10.354  18.639  67.227  1.00  0.00    -0.440 C  
HETATM   17  C   UNL     1     -10.426  19.802  66.272  1.00  0.00    -0.614 C  
HETATM   18  C   UNL     1      -9.160  19.701  65.428  1.00  0.00     0.852 C  
HETATM   19  O   UNL     1      -9.154  20.729  64.424  1.00  0.00     0.960 OA 
HETATM   20  C   UNL     1      -7.918  19.810  66.331  1.00  0.00    -0.335 C  
HETATM   21  C   UNL     1      -7.924  18.865  67.586  1.00  0.00    -0.273 C  
HETATM   22  H   UNL     1      -8.364  20.666  63.898  1.00  0.00     0.000 HD 
HETATM   23  C   UNL     1      -9.296  18.709  68.340  1.00  0.00    -0.369 C  
HETATM   24  C   UNL     1      -9.527  19.983  69.190  1.00  0.00    -0.005 C  
ENDROOT
BRANCH   4  25
HETATM   25  C   UNL     1      -7.425   9.162  69.793  1.00  0.00    -0.069 C  
BRANCH  25  26
HETATM   26  C   UNL     1      -7.514   9.102  68.260  1.00  0.00    -0.083 C  
HETATM   27  C   UNL     1      -7.911   7.743  67.631  1.00  0.00    -0.123 C  
HETATM   28  C   UNL     1      -7.837   7.852  66.095  1.00  0.00    -0.094 C  
HETATM   29  C   UNL     1      -9.305   7.229  67.988  1.00  0.00    -0.130 C  
ENDBRANCH  25  26
ENDBRANCH   4  25
TORSDOF 2
ENDMDL
MODEL      109
REMARK 921   NORMALIZED FREE ENERGY PREDICTED BY IDOCK:   20.30 KCAL/MOL
REMARK 922        TOTAL FREE ENERGY PREDICTED BY IDOCK:   22.43 KCAL/MOL
REMARK 923 INTER-LIGAND FREE ENERGY PREDICTED BY IDOCK:   15.70 KCAL/MOL
REMARK 924 INTRA-LIGAND FREE ENERGY PREDICTED BY IDOCK:    6.73 KCAL/MOL
REMARK 927      BINDING AFFINITY PREDICTED BY RF-SCORE:    0.00 PKD
ROOT
HETATM    1  C   UNL     1     -10.856   7.850  70.913  1.00  0.00    -0.245 C  
HETATM    2  C   UNL     1     -10.999   6.633  72.143  1.00  0.00    -0.277 C  
HETATM    3  C   UNL     1      -9.700   7.327  70.090  1.00  0.00    -0.172 C  
HETATM    4  C   UNL     1     -12.242   6.482  73.101  1.00  0.00     1.093 C  
HETATM    5  C   UNL     1     -10.471   6.313  69.227  1.00  0.00    -0.298 C  
HETATM    6  C   UNL     1     -10.475   5.180  71.854  1.00  0.00    -0.272 C  
HETATM    7  C   UNL     1     -11.518   7.175  68.511  1.00  0.00     0.410 C  
HETATM    8  C   UNL     1     -13.245   8.361  70.218  1.00  0.00     1.539 C  
HETATM    9  C   UNL     1     -11.825   8.259  69.623  1.00  0.00     0.862 C  
HETATM   10  C   UNL     1     -10.734   7.479  67.185  1.00  0.00    -0.379 C  
HETATM   11  C   UNL     1     -11.689   9.655  68.847  1.00  0.00     0.485 C  
HETATM   12  C   UNL     1     -11.025   6.339  66.191  1.00  0.00     0.674 C  
HETATM   13  C   UNL     1     -10.666   9.881  67.692  1.00  0.00    -0.339 C  
HETATM   14  C   UNL     1     -10.787   8.851  66.549  1.00  0.00     0.353 C  
HETATM   15  C   UNL     1     -10.456   6.555  64.826  1.00  0.00     4.668 C  
HETATM   16  C   UNL     1      -9.841   7.683  64.452  1.00  0.00     3.866 C  
HETATM   17  C   UNL     1      -8.965   7.605  63.227  1.00  0.00     1.158 C  
HETATM   18  C   UNL     1      -7.556   7.374  63.762  1.00  0.00    -0.118 C  
HETATM   19  O   UNL     1      -6.635   7.211  62.671  1.00  0.00    -0.051 OA 
HETATM   20  C   UNL     1      -7.137   8.551  64.661  1.00  0.00    -0.080 C  
HETATM   21  C   UNL     1      -8.181   8.948  65.767  1.00  0.00    -0.116 C  
HETATM   22  H   UNL     1      -5.757   7.067  63.005  1.00  0.00     0.000 HD 
HETATM   23  C   UNL     1      -9.695   8.929  65.340  1.00  0.00     0.127 C  
HETATM   24  C   UNL     1      -9.975  10.198  64.498  1.00  0.00    -0.275 C  
ENDROOT
BRANCH   4  25
HETATM   25  C   UNL     1     -12.138   5.281  74.143  1.00  0.00     3.638 C  
BRANCH  25  26
HETATM   26  C   UNL     1     -10.721   4.724  74.353  1.00  0.00    -0.183 C  
HETATM   27  C   UNL     1     -10.345   3.444  73.565  1.00  0.00    -0.234 C  
HETATM   28  C   UNL     1      -8.938   2.979  73.990  1.00  0.00    -0.083 C  
HETATM   29  C   UNL     1     -10.343   3.580  72.042  1.00  0.00    -0.050 C  
ENDBRANCH  25  26
ENDBRANCH   4  25
TORSDOF 2
ENDMDL
MODEL      110
REMARK 921   NORMALIZED FREE ENERGY PREDICTED BY IDOCK:   22.20 KCAL/MOL
REMARK 922        TOTAL FREE ENERGY PREDICTED BY IDOCK:   24.55 KCAL/MOL
REMARK 923 INTER-LIGAND FREE ENERGY PREDICTED BY IDOCK:   24.92 KCAL/MOL
REMARK 924 INTRA-LIGAND FREE ENERGY PREDICTED BY IDOCK:   -0.37 KCAL/MOL
REMARK 927      BINDING AFFINITY PREDICTED BY RF-SCORE:    0.00 PKD
ROOT
HETATM    1  C   UNL     1     -10.261   9.651  66.069  1.00  0.00    -0.255 C  
HETATM    2  C   UNL     1      -9.927  11.009  67.099  1.00  0.00    -0.218 C  
HETATM    3  C   UNL     1      -8.916   8.963  66.014  1.00  0.00    -0.235 C  
HETATM    4  C   UNL     1     -11.035  11.906  67.771  1.00  0.00    -0.278 C  
HETATM    5  C   UNL     1      -8.999   8.187  67.340  1.00  0.00    -0.145 C  
HETATM    6  C   UNL     1      -8.734  10.926  68.119  1.00  0.00    -0.133 C  
HETATM    7  C   UNL     1     -10.248   7.315  67.167  1.00  0.00    -0.339 C  
HETATM    8  C   UNL     1     -12.507   8.767  66.863  1.00  0.00    10.130 C  
HETATM    9  C   UNL     1     -11.161   8.268  66.295  1.00  0.00     2.070 C  
HETATM   10  C   UNL     1      -9.572   6.007  66.618  1.00  0.00    -0.179 C  
HETATM   11  C   UNL     1     -11.638   7.339  65.080  1.00  0.00    10.981 C  
HETATM   12  C   UNL     1      -9.163   5.143  67.826  1.00  0.00    -0.125 C  
HETATM   13  C   UNL     1     -10.736   6.225  64.467  1.00  0.00     5.696 C  
HETATM   14  C   UNL     1     -10.217   5.209  65.506  1.00  0.00     0.071 C  
HETATM   15  C   UNL     1      -8.628   3.796  67.463  1.00  0.00    -0.113 C  
HETATM   16  C   UNL     1      -8.602   3.323  66.212  1.00  0.00    -0.121 C  
HETATM   17  C   UNL     1      -7.672   2.169  65.940  1.00  0.00    -0.072 C  
HETATM   18  C   UNL     1      -6.396   2.805  65.401  1.00  0.00    -0.024 C  
HETATM   19  O   UNL     1      -5.400   1.795  65.171  1.00  0.00    -0.005 OA 
HETATM   20  C   UNL     1      -6.702   3.578  64.106  1.00  0.00    -0.043 C  
HETATM   21  C   UNL     1      -7.919   4.568  64.194  1.00  0.00    -0.093 C  
HETATM   22  H   UNL     1      -4.605   2.192  64.835  1.00  0.00     0.000 HD 
HETATM   23  C   UNL     1      -9.177   4.063  64.992  1.00  0.00    -0.151 C  
HETATM   24  C   UNL     1      -9.946   3.059  64.098  1.00  0.00    -0.149 C  
ENDROOT
BRANCH   4  25
HETATM   25  C   UNL     1     -10.473  13.090  68.678  1.00  0.00    -0.236 C  
BRANCH  25  26
HETATM   26  C   UNL     1     -10.953  14.496  68.283  1.00  0.00    -0.258 C  
HETATM   27  C   UNL     1      -9.867  15.517  67.862  1.00  0.00    -0.216 C  
HETATM   28  C   UNL     1     -10.526  16.888  67.615  1.00  0.00    -0.332 C  
HETATM   29  C   UNL     1      -9.070  15.158  66.608  1.00  0.00    -0.310 C  
ENDBRANCH  25  26
ENDBRANCH   4  25
TORSDOF 2
ENDMDL
MODEL      111
REMARK 921   NORMALIZED FREE ENERGY PREDICTED BY IDOCK:   31.02 KCAL/MOL
REMARK 922        TOTAL FREE ENERGY PREDICTED BY IDOCK:   34.40 KCAL/MOL
REMARK 923 INTER-LIGAND FREE ENERGY PREDICTED BY IDOCK:   34.71 KCAL/MOL
REMARK 924 INTRA-LIGAND FREE ENERGY PREDICTED BY IDOCK:   -0.31 KCAL/MOL
REMARK 927      BINDING AFFINITY PREDICTED BY RF-SCORE:    0.00 PKD
ROOT
HETATM    1  C   UNL     1      -7.928  10.524  67.397  1.00  0.00    -0.110 C  
HETATM    2  C   UNL     1      -8.315   9.235  66.300  1.00  0.00    -0.124 C  
HETATM    3  C   UNL     1      -9.176  11.375  67.331  1.00  0.00    -0.164 C  
HETATM    4  C   UNL     1      -7.514   7.880  66.206  1.00  0.00    -0.079 C  
HETATM    5  C   UNL     1     -10.051  10.579  68.315  1.00  0.00    -0.180 C  
HETATM    6  C   UNL     1      -9.821   8.888  66.020  1.00  0.00    -0.277 C  
HETATM    7  C   UNL     1      -9.243  10.608  69.618  1.00  0.00     0.114 C  
HETATM    8  C   UNL     1      -6.845   9.381  69.391  1.00  0.00    -0.049 C  
HETATM    9  C   UNL     1      -7.764  10.575  69.054  1.00  0.00    -0.125 C  
HETATM   10  C   UNL     1      -9.893  11.867  70.294  1.00  0.00     3.248 C  
HETATM   11  C   UNL     1      -7.034  11.781  69.814  1.00  0.00     0.182 C  
HETATM   12  C   UNL     1     -11.122  11.394  71.093  1.00  0.00     2.147 C  
HETATM   13  C   UNL     1      -7.770  13.099  70.204  1.00  0.00     2.292 C  
HETATM   14  C   UNL     1      -9.044  12.870  71.045  1.00  0.00    10.974 C  
HETATM   15  C   UNL     1     -11.772  12.464  71.910  1.00  0.00     2.793 C  
HETATM   16  C   UNL     1     -11.278  13.702  72.033  1.00  0.00     3.442 C  
HETATM   17  C   UNL     1     -12.229  14.767  72.517  1.00  0.00    -0.351 C  
HETATM   18  C   UNL     1     -12.756  15.432  71.251  1.00  0.00    -0.436 C  
HETATM   19  O   UNL     1     -13.736  16.428  71.589  1.00  0.00     0.336 OA 
HETATM   20  C   UNL     1     -11.592  16.055  70.461  1.00  0.00    -0.383 C  
HETATM   21  C   UNL     1     -10.368  15.101  70.216  1.00  0.00    -0.095 C  
HETATM   22  H   UNL     1     -14.064  16.842  70.799  1.00  0.00     0.000 HD 
HETATM   23  C   UNL     1      -9.951  14.174  71.417  1.00  0.00     4.698 C  
HETATM   24  C   UNL     1      -9.182  15.036  72.449  1.00  0.00     6.524 C  
ENDROOT
BRANCH   4  25
HETATM   25  C   UNL     1      -8.070   6.853  65.122  1.00  0.00    -0.132 C  
BRANCH  25  26
HETATM   26  C   UNL     1      -8.447   5.468  65.673  1.00  0.00    -0.141 C  
HETATM   27  C   UNL     1      -9.825   4.896  65.254  1.00  0.00    -0.017 C  
HETATM   28  C   UNL     1     -10.068   3.564  65.990  1.00  0.00     0.322 C  
HETATM   29  C   UNL     1     -10.007   4.635  63.759  1.00  0.00     0.302 C  
ENDBRANCH  25  26
ENDBRANCH   4  25
TORSDOF 2
ENDMDL
MODEL      112
REMARK 921   NORMALIZED FREE ENERGY PREDICTED BY IDOCK:   34.24 KCAL/MOL
REMARK 922        TOTAL FREE ENERGY PREDICTED BY IDOCK:   38.00 KCAL/MOL
REMARK 923 INTER-LIGAND FREE ENERGY PREDICTED BY IDOCK:   34.12 KCAL/MOL
REMARK 924 INTRA-LIGAND FREE ENERGY PREDICTED BY IDOCK:    3.88 KCAL/MOL
REMARK 927      BINDING AFFINITY PREDICTED BY RF-SCORE:    0.00 PKD
ROOT
HETATM    1  C   UNL     1     -10.288   9.723  66.899  1.00  0.00    -0.301 C  
HETATM    2  C   UNL     1      -9.992   8.203  66.111  1.00  0.00    -0.017 C  
HETATM    3  C   UNL     1      -9.434   9.602  68.141  1.00  0.00    -0.144 C  
HETATM    4  C   UNL     1     -10.369   7.894  64.612  1.00  0.00     5.766 C  
HETATM    5  C   UNL     1      -8.079   9.996  67.529  1.00  0.00    -0.110 C  
HETATM    6  C   UNL     1      -8.659   7.429  66.410  1.00  0.00    -0.138 C  
HETATM    7  C   UNL     1      -8.331  11.405  66.978  1.00  0.00    -0.161 C  
HETATM    8  C   UNL     1     -10.213  11.450  65.037  1.00  0.00    -0.333 C  
HETATM    9  C   UNL     1      -9.844  11.284  66.527  1.00  0.00    -0.239 C  
HETATM   10  C   UNL     1      -7.851  12.251  68.210  1.00  0.00    -0.153 C  
HETATM   11  C   UNL     1     -10.546  12.563  67.187  1.00  0.00    -0.247 C  
HETATM   12  C   UNL     1      -6.336  12.488  68.060  1.00  0.00    -0.087 C  
HETATM   13  C   UNL     1     -10.109  13.146  68.566  1.00  0.00    -0.203 C  
HETATM   14  C   UNL     1      -8.606  13.488  68.645  1.00  0.00    -0.009 C  
HETATM   15  C   UNL     1      -5.752  13.400  69.090  1.00  0.00    -0.078 C  
HETATM   16  C   UNL     1      -6.485  14.048  70.003  1.00  0.00    -0.080 C  
HETATM   17  C   UNL     1      -5.753  14.576  71.211  1.00  0.00    -0.124 C  
HETATM   18  C   UNL     1      -5.928  13.503  72.279  1.00  0.00     0.791 C  
HETATM   19  O   UNL     1      -5.205  13.867  73.467  1.00  0.00    -0.296 OA 
HETATM   20  C   UNL     1      -7.423  13.306  72.587  1.00  0.00     9.273 C  
HETATM   21  C   UNL     1      -8.340  13.105  71.327  1.00  0.00    10.470 C  
HETATM   22  H   UNL     1      -5.314  13.198  74.133  1.00  0.00     0.000 HD 
HETATM   23  C   UNL     1      -8.020  14.004  70.076  1.00  0.00     1.238 C  
HETATM   24  C   UNL     1      -8.563  15.427  70.352  1.00  0.00     1.149 C  
ENDROOT
BRANCH   4  25
HETATM   25  C   UNL     1      -9.988   6.428  64.119  1.00  0.00     3.841 C  
BRANCH  25  26
HETATM   26  C   UNL     1     -10.329   5.301  65.107  1.00  0.00     0.582 C  
HETATM   27  C   UNL     1     -10.715   5.721  66.548  1.00  0.00    -0.274 C  
HETATM   28  C   UNL     1     -10.910   4.459  67.411  1.00  0.00     1.385 C  
HETATM   29  C   UNL     1     -11.983   6.564  66.675  1.00  0.00     2.621 C  
ENDBRANCH  25  26
ENDBRANCH   4  25
TORSDOF 2
ENDMDL
MODEL      113
REMARK 921   NORMALIZED FREE ENERGY PREDICTED BY IDOCK:   39.01 KCAL/MOL
REMARK 922        TOTAL FREE ENERGY PREDICTED BY IDOCK:   43.33 KCAL/MOL
REMARK 923 INTER-LIGAND FREE ENERGY PREDICTED BY IDOCK:   43.49 KCAL/MOL
REMARK 924 INTRA-LIGAND FREE ENERGY PREDICTED BY IDOCK:   -0.16 KCAL/MOL
REMARK 927      BINDING AFFINITY PREDICTED BY RF-SCORE:    0.00 PKD
ROOT
HETATM    1  C   UNL     1      -8.796  12.848  63.931  1.00  0.00     3.293 C  
HETATM    2  C   UNL     1      -9.405  11.234  63.725  1.00  0.00    -0.160 C  
HETATM    3  C   UNL     1     -10.056  13.617  64.257  1.00  0.00     0.274 C  
HETATM    4  C   UNL     1      -8.500   9.944  63.685  1.00  0.00    -0.181 C  
HETATM    5  C   UNL     1     -10.149  13.285  65.756  1.00  0.00    -0.293 C  
HETATM    6  C   UNL     1     -10.747  10.823  64.430  1.00  0.00    -0.120 C  
HETATM    7  C   UNL     1      -8.828  13.818  66.323  1.00  0.00     0.221 C  
HETATM    8  C   UNL     1      -6.664  12.574  65.285  1.00  0.00     5.760 C  
HETATM    9  C   UNL     1      -7.850  13.547  65.109  1.00  0.00     6.888 C  
HETATM   10  C   UNL     1      -9.299  15.249  66.765  1.00  0.00    -0.265 C  
HETATM   11  C   UNL     1      -7.101  14.948  64.898  1.00  0.00    13.908 C  
HETATM   12  C   UNL     1      -9.847  15.144  68.201  1.00  0.00    -0.218 C  
HETATM   13  C   UNL     1      -7.797  16.321  65.145  1.00  0.00     4.399 C  
HETATM   14  C   UNL     1      -8.413  16.457  66.554  1.00  0.00    -0.336 C  
HETATM   15  C   UNL     1     -10.210  16.457  68.817  1.00  0.00    -0.258 C  
HETATM   16  C   UNL     1      -9.982  17.637  68.229  1.00  0.00    -0.339 C  
HETATM   17  C   UNL     1     -10.762  18.817  68.749  1.00  0.00     0.392 C  
HETATM   18  C   UNL     1     -11.968  18.934  67.824  1.00  0.00     2.679 C  
HETATM   19  O   UNL     1     -12.831  19.993  68.270  1.00  0.00     3.486 OA 
HETATM   20  C   UNL     1     -11.499  19.181  66.379  1.00  0.00     0.901 C  
HETATM   21  C   UNL     1     -10.392  18.194  65.861  1.00  0.00    -0.284 C  
HETATM   22  H   UNL     1     -13.582  20.065  67.693  1.00  0.00     0.000 HD 
HETATM   23  C   UNL     1      -9.259  17.812  66.883  1.00  0.00    -0.263 C  
HETATM   24  C   UNL     1      -8.274  19.003  66.979  1.00  0.00    -0.285 C  
ENDROOT
BRANCH   4  25
HETATM   25  C   UNL     1      -9.298   8.578  63.492  1.00  0.00     1.550 C  
BRANCH  25  26
HETATM   26  C   UNL     1      -8.419   7.342  63.244  1.00  0.00     0.286 C  
HETATM   27  C   UNL     1      -9.052   5.959  63.536  1.00  0.00     0.786 C  
HETATM   28  C   UNL     1      -7.990   4.860  63.336  1.00  0.00    -0.090 C  
HETATM   29  C   UNL     1     -10.262   5.589  62.677  1.00  0.00     1.757 C  
ENDBRANCH  25  26
ENDBRANCH   4  25
TORSDOF 2
ENDMDL
MODEL      114
REMARK 921   NORMALIZED FREE ENERGY PREDICTED BY IDOCK:   52.49 KCAL/MOL
REMARK 922        TOTAL FREE ENERGY PREDICTED BY IDOCK:   58.38 KCAL/MOL
REMARK 923 INTER-LIGAND FREE ENERGY PREDICTED BY IDOCK:   58.62 KCAL/MOL
REMARK 924 INTRA-LIGAND FREE ENERGY PREDICTED BY IDOCK:   -0.24 KCAL/MOL
REMARK 927      BINDING AFFINITY PREDICTED BY RF-SCORE:    0.00 PKD
ROOT
HETATM    1  C   UNL     1      -8.467  10.816  70.949  1.00  0.00     3.612 C  
HETATM    2  C   UNL     1      -7.983   9.282  70.293  1.00  0.00    -0.155 C  
HETATM    3  C   UNL     1      -8.539  11.677  69.708  1.00  0.00     1.600 C  
HETATM    4  C   UNL     1      -8.056   7.919  71.081  1.00  0.00    -0.093 C  
HETATM    5  C   UNL     1      -9.936  11.260  69.217  1.00  0.00     0.022 C  
HETATM    6  C   UNL     1      -8.300   8.953  68.790  1.00  0.00    -0.123 C  
HETATM    7  C   UNL     1     -10.853  11.630  70.390  1.00  0.00     1.169 C  
HETATM    8  C   UNL     1     -10.273  10.259  72.647  1.00  0.00     7.162 C  
HETATM    9  C   UNL     1      -9.896  11.348  71.618  1.00  0.00    10.136 C  
HETATM   10  C   UNL     1     -11.286  13.067  69.930  1.00  0.00    -0.037 C  
HETATM   11  C   UNL     1      -9.995  12.683  72.498  1.00  0.00    18.240 C  
HETATM   12  C   UNL     1     -12.530  12.923  69.033  1.00  0.00     0.345 C  
HETATM   13  C   UNL     1     -10.179  14.096  71.865  1.00  0.00     5.158 C  
HETATM   14  C   UNL     1     -11.401  14.199  70.928  1.00  0.00     0.255 C  
HETATM   15  C   UNL     1     -13.148  14.221  68.626  1.00  0.00     2.195 C  
HETATM   16  C   UNL     1     -12.736  15.410  69.081  1.00  0.00     0.390 C  
HETATM   17  C   UNL     1     -13.147  16.622  68.284  1.00  0.00     4.295 C  
HETATM   18  C   UNL     1     -11.968  16.909  67.361  1.00  0.00     1.618 C  
HETATM   19  O   UNL     1     -12.278  18.013  66.495  1.00  0.00     3.568 OA 
HETATM   20  C   UNL     1     -10.709  17.203  68.194  1.00  0.00    -0.366 C  
HETATM   21  C   UNL     1     -10.395  16.152  69.320  1.00  0.00    -0.265 C  
HETATM   22  H   UNL     1     -11.543  18.191  65.919  1.00  0.00     0.000 HD 
HETATM   23  C   UNL     1     -11.627  15.603  70.128  1.00  0.00    -0.366 C  
HETATM   24  C   UNL     1     -12.062  16.689  71.144  1.00  0.00     0.782 C  
ENDROOT
BRANCH   4  25
HETATM   25  C   UNL     1      -7.558   6.648  70.259  1.00  0.00    -0.096 C  
BRANCH  25  26
HETATM   26  C   UNL     1      -8.554   5.479  70.204  1.00  0.00    -0.122 C  
HETATM   27  C   UNL     1      -8.003   4.068  70.529  1.00  0.00    -0.055 C  
HETATM   28  C   UNL     1      -9.115   3.024  70.312  1.00  0.00    -0.190 C  
HETATM   29  C   UNL     1      -7.464   3.878  71.947  1.00  0.00    -0.060 C  
ENDBRANCH  25  26
ENDBRANCH   4  25
TORSDOF 2
ENDMDL
MODEL      115
REMARK 921   NORMALIZED FREE ENERGY PREDICTED BY IDOCK:   63.39 KCAL/MOL
REMARK 922        TOTAL FREE ENERGY PREDICTED BY IDOCK:   70.55 KCAL/MOL
REMARK 923 INTER-LIGAND FREE ENERGY PREDICTED BY IDOCK:   70.74 KCAL/MOL
REMARK 924 INTRA-LIGAND FREE ENERGY PREDICTED BY IDOCK:   -0.19 KCAL/MOL
REMARK 927      BINDING AFFINITY PREDICTED BY RF-SCORE:    0.00 PKD
ROOT
HETATM    1  C   UNL     1      -9.344  12.804  72.263  1.00  0.00    20.546 C  
HETATM    2  C   UNL     1      -8.997  11.108  72.121  1.00  0.00    13.982 C  
HETATM    3  C   UNL     1      -8.128  13.426  71.613  1.00  0.00    10.106 C  
HETATM    4  C   UNL     1     -10.060   9.965  72.342  1.00  0.00     3.749 C  
HETATM    5  C   UNL     1      -8.559  13.293  70.142  1.00  0.00     3.558 C  
HETATM    6  C   UNL     1      -8.030  10.612  70.987  1.00  0.00     3.062 C  
HETATM    7  C   UNL     1      -9.874  14.079  70.081  1.00  0.00     1.670 C  
HETATM    8  C   UNL     1     -11.801  13.021  71.655  1.00  0.00     1.392 C  
HETATM    9  C   UNL     1     -10.466  13.784  71.520  1.00  0.00     4.999 C  
HETATM   10  C   UNL     1      -9.316  15.477  69.634  1.00  0.00    -0.224 C  
HETATM   11  C   UNL     1     -10.854  15.234  72.080  1.00  0.00     0.435 C  
HETATM   12  C   UNL     1      -9.261  15.494  68.095  1.00  0.00    -0.189 C  
HETATM   13  C   UNL     1     -10.035  16.516  71.739  1.00  0.00     4.826 C  
HETATM   14  C   UNL     1      -9.866  16.757  70.225  1.00  0.00     1.245 C  
HETATM   15  C   UNL     1      -8.878  16.815  67.509  1.00  0.00    -0.205 C  
HETATM   16  C   UNL     1      -8.702  17.923  68.238  1.00  0.00    -0.277 C  
HETATM   17  C   UNL     1      -7.922  19.042  67.596  1.00  0.00    -0.285 C  
HETATM   18  C   UNL     1      -6.490  18.859  68.087  1.00  0.00    -0.216 C  
HETATM   19  O   UNL     1      -5.632  19.838  67.477  1.00  0.00    -0.171 OA 
HETATM   20  C   UNL     1      -6.443  18.969  69.621  1.00  0.00    -0.259 C  
HETATM   21  C   UNL     1      -7.495  18.086  70.384  1.00  0.00     2.504 C  
HETATM   22  H   UNL     1      -4.739  19.724  67.783  1.00  0.00     0.000 HD 
HETATM   23  C   UNL     1      -8.935  18.011  69.755  1.00  0.00     1.232 C  
HETATM   24  C   UNL     1      -9.675  19.331  70.086  1.00  0.00     0.821 C  
ENDROOT
BRANCH   4  25
HETATM   25  C   UNL     1      -9.496   8.487  72.149  1.00  0.00    -0.375 C  
BRANCH  25  26
HETATM   26  C   UNL     1     -10.038   7.740  70.920  1.00  0.00    -0.195 C  
HETATM   27  C   UNL     1     -10.726   6.375  71.172  1.00  0.00    -0.293 C  
HETATM   28  C   UNL     1     -11.098   5.734  69.820  1.00  0.00    -0.318 C  
HETATM   29  C   UNL     1     -11.995   6.420  72.023  1.00  0.00    -0.375 C  
ENDBRANCH  25  26
ENDBRANCH   4  25
TORSDOF 2
ENDMDL
MODEL      116
REMARK 921   NORMALIZED FREE ENERGY PREDICTED BY IDOCK:   82.94 KCAL/MOL
REMARK 922        TOTAL FREE ENERGY PREDICTED BY IDOCK:   92.39 KCAL/MOL
REMARK 923 INTER-LIGAND FREE ENERGY PREDICTED BY IDOCK:   89.81 KCAL/MOL
REMARK 924 INTRA-LIGAND FREE ENERGY PREDICTED BY IDOCK:    2.58 KCAL/MOL
REMARK 927      BINDING AFFINITY PREDICTED BY RF-SCORE:    0.00 PKD
ROOT
HETATM    1  C   UNL     1      -9.238  11.551  71.463  1.00  0.00    11.855 C  
HETATM    2  C   UNL     1      -8.750  10.020  70.802  1.00  0.00     0.795 C  
HETATM    3  C   UNL     1      -9.302  12.418  70.226  1.00  0.00     4.685 C  
HETATM    4  C   UNL     1      -8.828   8.653  71.582  1.00  0.00    -0.292 C  
HETATM    5  C   UNL     1     -10.696  12.004  69.725  1.00  0.00     0.442 C  
HETATM    6  C   UNL     1      -9.058   9.699  69.296  1.00  0.00    -0.174 C  
HETATM    7  C   UNL     1     -11.620  12.368  70.893  1.00  0.00     0.911 C  
HETATM    8  C   UNL     1     -11.055  10.985  73.146  1.00  0.00    11.753 C  
HETATM    9  C   UNL     1     -10.671  12.079  72.126  1.00  0.00    10.420 C  
HETATM   10  C   UNL     1     -12.050  13.808  70.439  1.00  0.00    -0.421 C  
HETATM   11  C   UNL     1     -10.775  13.410  73.013  1.00  0.00     9.199 C  
HETATM   12  C   UNL     1     -13.288  13.669  69.533  1.00  0.00     2.097 C  
HETATM   13  C   UNL     1     -10.955  14.827  72.387  1.00  0.00     1.074 C  
HETATM   14  C   UNL     1     -12.171  14.935  71.442  1.00  0.00    -0.391 C  
HETATM   15  C   UNL     1     -13.903  14.970  69.129  1.00  0.00     4.352 C  
HETATM   16  C   UNL     1     -13.493  16.156  69.593  1.00  0.00     2.788 C  
HETATM   17  C   UNL     1     -13.900  17.372  68.801  1.00  0.00    10.015 C  
HETATM   18  C   UNL     1     -12.715  17.664  67.886  1.00  0.00     5.310 C  
HETATM   19  O   UNL     1     -13.019  18.773  67.024  1.00  0.00     5.745 OA 
HETATM   20  C   UNL     1     -11.460  17.953  68.729  1.00  0.00     1.639 C  
HETATM   21  C   UNL     1     -11.154  16.896  69.851  1.00  0.00     0.174 C  
HETATM   22  H   UNL     1     -12.280  18.954  66.454  1.00  0.00     0.000 HD 
HETATM   23  C   UNL     1     -12.391  16.343  70.649  1.00  0.00     0.760 C  
HETATM   24  C   UNL     1     -12.832  17.423  71.667  1.00  0.00     7.440 C  
ENDROOT
BRANCH   4  25
HETATM   25  C   UNL     1      -8.326   7.386  70.756  1.00  0.00    -0.119 C  
BRANCH  25  26
HETATM   26  C   UNL     1      -7.787   7.698  69.351  1.00  0.00    -0.123 C  
HETATM   27  C   UNL     1      -6.512   8.574  69.265  1.00  0.00    -0.042 C  
HETATM   28  C   UNL     1      -6.195   8.868  67.786  1.00  0.00    -0.055 C  
HETATM   29  C   UNL     1      -5.254   7.976  69.895  1.00  0.00    -0.023 C  
ENDBRANCH  25  26
ENDBRANCH   4  25
TORSDOF 2
ENDMDL
MODEL      117
REMARK 921   NORMALIZED FREE ENERGY PREDICTED BY IDOCK:   88.39 KCAL/MOL
REMARK 922        TOTAL FREE ENERGY PREDICTED BY IDOCK:   98.48 KCAL/MOL
REMARK 923 INTER-LIGAND FREE ENERGY PREDICTED BY IDOCK:   98.80 KCAL/MOL
REMARK 924 INTRA-LIGAND FREE ENERGY PREDICTED BY IDOCK:   -0.32 KCAL/MOL
REMARK 927      BINDING AFFINITY PREDICTED BY RF-SCORE:    0.00 PKD
ROOT
HETATM    1  C   UNL     1     -11.144  10.562  67.459  1.00  0.00    -0.358 C  
HETATM    2  C   UNL     1     -11.602   9.865  65.935  1.00  0.00     2.959 C  
HETATM    3  C   UNL     1     -10.084  11.556  67.042  1.00  0.00    -0.237 C  
HETATM    4  C   UNL     1     -12.896   8.993  65.713  1.00  0.00    17.652 C  
HETATM    5  C   UNL     1     -11.006  12.708  66.606  1.00  0.00    -0.292 C  
HETATM    6  C   UNL     1     -11.380  10.688  64.615  1.00  0.00     1.072 C  
HETATM    7  C   UNL     1     -11.812  13.022  67.872  1.00  0.00    -0.389 C  
HETATM    8  C   UNL     1     -13.336  10.943  68.687  1.00  0.00     4.736 C  
HETATM    9  C   UNL     1     -11.940  11.579  68.511  1.00  0.00    -0.293 C  
HETATM   10  C   UNL     1     -10.915  14.165  68.467  1.00  0.00    -0.271 C  
HETATM   11  C   UNL     1     -11.476  11.788  70.030  1.00  0.00    -0.234 C  
HETATM   12  C   UNL     1     -11.389  15.501  67.863  1.00  0.00    -0.309 C  
HETATM   13  C   UNL     1     -10.371  12.809  70.440  1.00  0.00     3.199 C  
HETATM   14  C   UNL     1     -10.648  14.247  69.955  1.00  0.00     0.211 C  
HETATM   15  C   UNL     1     -10.720  16.707  68.439  1.00  0.00    -0.353 C  
HETATM   16  C   UNL     1      -9.863  16.657  69.466  1.00  0.00    -0.038 C  
HETATM   17  C   UNL     1      -8.962  17.850  69.658  1.00  0.00     0.931 C  
HETATM   18  C   UNL     1      -7.662  17.483  68.952  1.00  0.00    -0.207 C  
HETATM   19  O   UNL     1      -6.742  18.585  69.009  1.00  0.00    -0.259 OA 
HETATM   20  C   UNL     1      -7.052  16.226  69.597  1.00  0.00    -0.040 C  
HETATM   21  C   UNL     1      -8.043  15.020  69.773  1.00  0.00     0.053 C  
HETATM   22  H   UNL     1      -5.932  18.356  68.569  1.00  0.00     0.000 HD 
HETATM   23  C   UNL     1      -9.504  15.375  70.236  1.00  0.00     0.452 C  
HETATM   24  C   UNL     1      -9.469  15.680  71.754  1.00  0.00     4.431 C  
ENDROOT
BRANCH   4  25
HETATM   25  C   UNL     1     -13.098   8.472  64.220  1.00  0.00    22.875 C  
BRANCH  25  26
HETATM   26  C   UNL     1     -12.349   7.175  63.877  1.00  0.00    20.185 C  
HETATM   27  C   UNL     1     -12.840   5.876  64.563  1.00  0.00     8.507 C  
HETATM   28  C   UNL     1     -11.902   4.713  64.183  1.00  0.00     2.319 C  
HETATM   29  C   UNL     1     -14.267   5.445  64.222  1.00  0.00    12.501 C  
ENDBRANCH  25  26
ENDBRANCH   4  25
TORSDOF 2
ENDMDL
