MODEL        1
REMARK 921   NORMALIZED FREE ENERGY PREDICTED BY IDOCK:   -7.75 KCAL/MOL
REMARK 922        TOTAL FREE ENERGY PREDICTED BY IDOCK:   -9.92 KCAL/MOL
REMARK 923 INTER-LIGAND FREE ENERGY PREDICTED BY IDOCK:   -9.11 KCAL/MOL
REMARK 924 INTRA-LIGAND FREE ENERGY PREDICTED BY IDOCK:   -0.81 KCAL/MOL
REMARK 927      BINDING AFFINITY PREDICTED BY RF-SCORE:    0.00 PKD
ROOT
HETATM    1  C   UNL     1     -10.982   6.561  69.871  1.00  0.00    -0.393 C  
HETATM    2  C   UNL     1     -11.713   7.438  70.887  1.00  0.00    -0.325 C  
HETATM    3  C   UNL     1     -12.376   6.554  71.947  1.00  0.00    -0.339 C  
HETATM    4  C   UNL     1     -10.778   8.443  71.585  1.00  0.00    -0.333 C  
ENDROOT
BRANCH   4   5
HETATM    5  C   UNL     1     -10.146   9.477  70.653  1.00  0.00    -0.353 C  
BRANCH   5   6
HETATM    6  C   UNL     1     -11.224  10.412  70.057  1.00  0.00    -0.385 C  
HETATM    7  C   UNL     1     -10.807  11.104  68.726  1.00  0.00    -0.256 C  
HETATM    8  C   UNL     1     -11.907  12.194  68.203  1.00  0.00    -0.362 C  
HETATM    9  C   UNL     1     -10.411   9.999  67.730  1.00  0.00    -0.282 C  
HETATM   10  C   UNL     1     -11.970  13.346  69.210  1.00  0.00    -0.367 C  
HETATM   11  C   UNL     1     -10.854  14.292  68.788  1.00  0.00    -0.265 C  
HETATM   12  C   UNL     1     -10.347  13.825  67.392  1.00  0.00    -0.252 C  
HETATM   13  C   UNL     1      -9.847  15.026  66.590  1.00  0.00    -0.266 C  
HETATM   14  C   UNL     1     -10.174  14.930  65.123  1.00  0.00    -0.409 C  
HETATM   15  C   UNL     1      -9.170  16.057  67.143  1.00  0.00    -0.221 C  
HETATM   16  C   UNL     1     -11.450  11.867  65.755  1.00  0.00    -0.326 C  
HETATM   17  C   UNL     1     -11.646  14.548  64.872  1.00  0.00    -0.401 C  
HETATM   18  C   UNL     1     -11.549  12.952  66.847  1.00  0.00    -0.425 C  
HETATM   19  C   UNL     1     -12.431  14.023  66.136  1.00  0.00    -0.467 C  
BRANCH  15  20
HETATM   20  C   UNL     1      -8.331  16.966  66.382  1.00  0.00    -0.333 C  
HETATM   21  C   UNL     1      -7.415  17.879  66.750  1.00  0.00    -0.239 C  
HETATM   22  C   UNL     1      -6.574  18.511  65.649  1.00  0.00    -0.310 C  
HETATM   23  C   UNL     1      -6.592  20.039  65.695  1.00  0.00    -0.256 C  
HETATM   24  C   UNL     1      -6.183  20.546  67.075  1.00  0.00    -0.260 C  
HETATM   25  O   UNL     1      -7.881  20.542  65.340  1.00  0.00    -0.477 OA 
HETATM   26  C   UNL     1      -7.022  19.911  68.188  1.00  0.00    -0.331 C  
HETATM   27  H   UNL     1      -7.893  21.491  65.369  1.00  0.00     0.000 HD 
HETATM   28  C   UNL     1      -7.089  18.398  68.077  1.00  0.00    -0.237 C  
HETATM   29  C   UNL     1      -6.783  17.607  69.130  1.00  0.00    -0.243 C  
ENDBRANCH  15  20
ENDBRANCH   5   6
ENDBRANCH   4   5
TORSDOF 3
ENDMDL
MODEL        2
REMARK 921   NORMALIZED FREE ENERGY PREDICTED BY IDOCK:   -7.57 KCAL/MOL
REMARK 922        TOTAL FREE ENERGY PREDICTED BY IDOCK:   -9.71 KCAL/MOL
REMARK 923 INTER-LIGAND FREE ENERGY PREDICTED BY IDOCK:   -8.71 KCAL/MOL
REMARK 924 INTRA-LIGAND FREE ENERGY PREDICTED BY IDOCK:   -0.99 KCAL/MOL
REMARK 927      BINDING AFFINITY PREDICTED BY RF-SCORE:    0.00 PKD
ROOT
HETATM    1  C   UNL     1     -12.054   6.767  70.928  1.00  0.00    -0.421 C  
HETATM    2  C   UNL     1     -13.147   7.797  71.205  1.00  0.00    -0.247 C  
HETATM    3  C   UNL     1     -14.301   7.132  71.962  1.00  0.00    -0.398 C  
HETATM    4  C   UNL     1     -12.637   8.998  72.023  1.00  0.00    -0.464 C  
ENDROOT
BRANCH   4   5
HETATM    5  C   UNL     1     -11.567   9.835  71.323  1.00  0.00    -0.465 C  
BRANCH   5   6
HETATM    6  C   UNL     1     -12.213  10.873  70.375  1.00  0.00    -0.453 C  
HETATM    7  C   UNL     1     -11.212  11.566  69.405  1.00  0.00    -0.324 C  
HETATM    8  C   UNL     1     -11.900  12.757  68.523  1.00  0.00    -0.345 C  
HETATM    9  C   UNL     1     -10.487  10.461  68.615  1.00  0.00    -0.216 C  
HETATM   10  C   UNL     1     -12.328  13.882  69.470  1.00  0.00    -0.275 C  
HETATM   11  C   UNL     1     -11.085  14.744  69.636  1.00  0.00    -0.299 C  
HETATM   12  C   UNL     1     -10.046  14.276  68.576  1.00  0.00    -0.246 C  
HETATM   13  C   UNL     1      -9.171  15.454  68.149  1.00  0.00    -0.186 C  
HETATM   14  C   UNL     1      -8.824  15.427  66.684  1.00  0.00    -0.330 C  
HETATM   15  C   UNL     1      -8.744  16.410  69.004  1.00  0.00    -0.233 C  
HETATM   16  C   UNL     1     -10.434  12.463  66.504  1.00  0.00    -0.254 C  
HETATM   17  C   UNL     1     -10.057  15.176  65.792  1.00  0.00    -0.373 C  
HETATM   18  C   UNL     1     -10.937  13.521  67.508  1.00  0.00    -0.283 C  
HETATM   19  C   UNL     1     -11.348  14.682  66.551  1.00  0.00    -0.353 C  
BRANCH  15  20
HETATM   20  C   UNL     1      -7.602  17.268  68.743  1.00  0.00    -0.256 C  
HETATM   21  C   UNL     1      -7.491  18.490  68.193  1.00  0.00    -0.284 C  
HETATM   22  C   UNL     1      -6.132  19.173  68.271  1.00  0.00    -0.239 C  
HETATM   23  C   UNL     1      -5.635  19.656  66.909  1.00  0.00    -0.173 C  
HETATM   24  C   UNL     1      -6.674  20.548  66.235  1.00  0.00    -0.288 C  
HETATM   25  O   UNL     1      -5.306  18.550  66.067  1.00  0.00    -0.139 OA 
HETATM   26  C   UNL     1      -8.045  19.869  66.157  1.00  0.00    -0.347 C  
HETATM   27  H   UNL     1      -4.997  18.850  65.220  1.00  0.00     0.000 HD 
HETATM   28  C   UNL     1      -8.489  19.296  67.492  1.00  0.00    -0.324 C  
HETATM   29  C   UNL     1      -9.701  19.594  68.010  1.00  0.00    -0.501 C  
ENDBRANCH  15  20
ENDBRANCH   5   6
ENDBRANCH   4   5
TORSDOF 3
ENDMDL
MODEL        3
REMARK 921   NORMALIZED FREE ENERGY PREDICTED BY IDOCK:   -7.53 KCAL/MOL
REMARK 922        TOTAL FREE ENERGY PREDICTED BY IDOCK:   -9.67 KCAL/MOL
REMARK 923 INTER-LIGAND FREE ENERGY PREDICTED BY IDOCK:   -8.81 KCAL/MOL
REMARK 924 INTRA-LIGAND FREE ENERGY PREDICTED BY IDOCK:   -0.85 KCAL/MOL
REMARK 927      BINDING AFFINITY PREDICTED BY RF-SCORE:    0.00 PKD
ROOT
HETATM    1  C   UNL     1      -9.589  18.411  68.253  1.00  0.00    -0.355 C  
HETATM    2  C   UNL     1     -10.340  19.385  67.347  1.00  0.00    -0.559 C  
HETATM    3  C   UNL     1      -9.743  20.788  67.492  1.00  0.00    -0.444 C  
HETATM    4  C   UNL     1     -10.294  18.971  65.864  1.00  0.00    -0.435 C  
ENDROOT
BRANCH   4   5
HETATM    5  C   UNL     1     -10.978  17.640  65.554  1.00  0.00     0.214 C  
BRANCH   5   6
HETATM    6  C   UNL     1      -9.982  16.464  65.688  1.00  0.00    -0.270 C  
HETATM    7  C   UNL     1     -10.652  15.077  65.907  1.00  0.00    -0.338 C  
HETATM    8  C   UNL     1      -9.571  13.884  66.190  1.00  0.00    -0.249 C  
HETATM    9  C   UNL     1     -11.637  14.847  64.747  1.00  0.00    -0.410 C  
HETATM   10  C   UNL     1      -8.871  14.166  67.523  1.00  0.00    -0.202 C  
HETATM   11  C   UNL     1      -9.788  13.565  68.579  1.00  0.00    -0.189 C  
HETATM   12  C   UNL     1     -10.854  12.705  67.838  1.00  0.00    -0.244 C  
HETATM   13  C   UNL     1     -11.286  11.536  68.721  1.00  0.00    -0.309 C  
HETATM   14  C   UNL     1     -11.532  10.271  67.942  1.00  0.00    -0.030 C  
HETATM   15  C   UNL     1     -11.443  11.636  70.060  1.00  0.00    -0.266 C  
HETATM   16  C   UNL     1     -10.927  12.051  65.136  1.00  0.00    -0.359 C  
HETATM   17  C   UNL     1     -10.388   9.954  66.958  1.00  0.00    -0.303 C  
HETATM   18  C   UNL     1     -10.181  12.432  66.432  1.00  0.00    -0.253 C  
HETATM   19  C   UNL     1      -9.367  11.131  66.711  1.00  0.00    -0.193 C  
BRANCH  15  20
HETATM   20  C   UNL     1     -12.239  10.710  70.846  1.00  0.00    -0.497 C  
HETATM   21  C   UNL     1     -11.977   9.493  71.355  1.00  0.00    -0.464 C  
HETATM   22  C   UNL     1     -13.001   8.900  72.315  1.00  0.00    -0.479 C  
HETATM   23  C   UNL     1     -13.438   7.491  71.914  1.00  0.00    -0.242 C  
HETATM   24  C   UNL     1     -12.230   6.574  71.746  1.00  0.00    -0.374 C  
HETATM   25  O   UNL     1     -14.213   7.522  70.714  1.00  0.00    -0.574 OA 
HETATM   26  C   UNL     1     -11.193   7.167  70.786  1.00  0.00    -0.309 C  
HETATM   27  H   UNL     1     -14.484   6.646  70.465  1.00  0.00     0.000 HD 
HETATM   28  C   UNL     1     -10.840   8.605  71.124  1.00  0.00    -0.320 C  
HETATM   29  C   UNL     1      -9.553   8.990  71.274  1.00  0.00    -0.361 C  
ENDBRANCH  15  20
ENDBRANCH   5   6
ENDBRANCH   4   5
TORSDOF 3
ENDMDL
MODEL        4
REMARK 921   NORMALIZED FREE ENERGY PREDICTED BY IDOCK:   -7.44 KCAL/MOL
REMARK 922        TOTAL FREE ENERGY PREDICTED BY IDOCK:   -9.56 KCAL/MOL
REMARK 923 INTER-LIGAND FREE ENERGY PREDICTED BY IDOCK:   -8.90 KCAL/MOL
REMARK 924 INTRA-LIGAND FREE ENERGY PREDICTED BY IDOCK:   -0.66 KCAL/MOL
REMARK 927      BINDING AFFINITY PREDICTED BY RF-SCORE:    0.00 PKD
ROOT
HETATM    1  C   UNL     1     -11.273   7.963  72.770  1.00  0.00    -0.466 C  
HETATM    2  C   UNL     1     -10.264   7.387  71.777  1.00  0.00    -0.212 C  
HETATM    3  C   UNL     1     -10.517   5.887  71.599  1.00  0.00    -0.285 C  
HETATM    4  C   UNL     1     -10.329   8.074  70.401  1.00  0.00    -0.206 C  
ENDROOT
BRANCH   4   5
HETATM    5  C   UNL     1      -9.966   9.559  70.414  1.00  0.00    -0.325 C  
BRANCH   5   6
HETATM    6  C   UNL     1     -11.097  10.408  69.789  1.00  0.00    -0.352 C  
HETATM    7  C   UNL     1     -10.655  11.267  68.568  1.00  0.00    -0.227 C  
HETATM    8  C   UNL     1     -11.835  12.259  68.026  1.00  0.00    -0.368 C  
HETATM    9  C   UNL     1     -10.030  10.315  67.531  1.00  0.00    -0.226 C  
HETATM   10  C   UNL     1     -12.138  13.296  69.111  1.00  0.00    -0.283 C  
HETATM   11  C   UNL     1     -11.121  14.406  68.882  1.00  0.00    -0.277 C  
HETATM   12  C   UNL     1     -10.433  14.135  67.512  1.00  0.00    -0.249 C  
HETATM   13  C   UNL     1     -10.022  15.458  66.866  1.00  0.00    -0.247 C  
HETATM   14  C   UNL     1     -10.199  15.460  65.370  1.00  0.00    -0.408 C  
HETATM   15  C   UNL     1      -9.538  16.507  67.566  1.00  0.00    -0.231 C  
HETATM   16  C   UNL     1     -11.119  12.219  65.618  1.00  0.00    -0.357 C  
HETATM   17  C   UNL     1     -11.581  14.927  64.940  1.00  0.00    -0.395 C  
HETATM   18  C   UNL     1     -11.457  13.177  66.779  1.00  0.00    -0.386 C  
HETATM   19  C   UNL     1     -12.402  14.196  66.071  1.00  0.00    -0.470 C  
BRANCH  15  20
HETATM   20  C   UNL     1      -8.758  17.579  66.970  1.00  0.00    -0.254 C  
HETATM   21  C   UNL     1      -7.691  18.273  67.402  1.00  0.00    -0.222 C  
HETATM   22  C   UNL     1      -7.006  19.197  66.404  1.00  0.00    -0.233 C  
HETATM   23  C   UNL     1      -6.840  20.620  66.935  1.00  0.00    -0.293 C  
HETATM   24  C   UNL     1      -6.122  20.618  68.282  1.00  0.00    -0.368 C  
HETATM   25  O   UNL     1      -8.106  21.272  67.044  1.00  0.00    -0.657 OA 
HETATM   26  C   UNL     1      -6.803  19.687  69.290  1.00  0.00    -0.390 C  
HETATM   27  H   UNL     1      -8.003  22.157  67.375  1.00  0.00     0.000 HD 
HETATM   28  C   UNL     1      -7.064  18.303  68.722  1.00  0.00    -0.291 C  
HETATM   29  C   UNL     1      -6.658  17.193  69.378  1.00  0.00    -0.220 C  
ENDBRANCH  15  20
ENDBRANCH   5   6
ENDBRANCH   4   5
TORSDOF 3
ENDMDL
MODEL        5
REMARK 921   NORMALIZED FREE ENERGY PREDICTED BY IDOCK:   -7.33 KCAL/MOL
REMARK 922        TOTAL FREE ENERGY PREDICTED BY IDOCK:   -9.43 KCAL/MOL
REMARK 923 INTER-LIGAND FREE ENERGY PREDICTED BY IDOCK:   -8.32 KCAL/MOL
REMARK 924 INTRA-LIGAND FREE ENERGY PREDICTED BY IDOCK:   -1.11 KCAL/MOL
REMARK 927      BINDING AFFINITY PREDICTED BY RF-SCORE:    0.00 PKD
ROOT
HETATM    1  C   UNL     1     -12.606  14.295  70.355  1.00  0.00    -0.405 C  
HETATM    2  C   UNL     1     -12.219  15.711  70.778  1.00  0.00    -0.463 C  
HETATM    3  C   UNL     1     -11.877  15.727  72.271  1.00  0.00    -0.598 C  
HETATM    4  C   UNL     1     -11.020  16.261  69.983  1.00  0.00    -0.356 C  
ENDROOT
BRANCH   4   5
HETATM    5  C   UNL     1     -11.272  16.423  68.484  1.00  0.00    -0.334 C  
BRANCH   5   6
HETATM    6  C   UNL     1     -10.231  15.628  67.662  1.00  0.00    -0.261 C  
HETATM    7  C   UNL     1     -10.649  14.164  67.341  1.00  0.00    -0.279 C  
HETATM    8  C   UNL     1      -9.467  13.312  66.600  1.00  0.00    -0.262 C  
HETATM    9  C   UNL     1     -12.009  14.214  66.623  1.00  0.00    -0.470 C  
HETATM   10  C   UNL     1      -8.296  13.152  67.575  1.00  0.00    -0.185 C  
HETATM   11  C   UNL     1      -8.643  11.923  68.402  1.00  0.00    -0.152 C  
HETATM   12  C   UNL     1      -9.858  11.227  67.720  1.00  0.00    -0.186 C  
HETATM   13  C   UNL     1      -9.798   9.719  67.961  1.00  0.00    -0.173 C  
HETATM   14  C   UNL     1     -10.257   8.916  66.773  1.00  0.00    -0.348 C  
HETATM   15  C   UNL     1      -9.388   9.170  69.126  1.00  0.00    -0.152 C  
HETATM   16  C   UNL     1     -11.007  11.844  65.264  1.00  0.00    -0.354 C  
HETATM   17  C   UNL     1      -9.610   9.390  65.456  1.00  0.00    -0.328 C  
HETATM   18  C   UNL     1      -9.816  11.798  66.244  1.00  0.00    -0.245 C  
HETATM   19  C   UNL     1      -8.872  10.782  65.532  1.00  0.00    -0.203 C  
BRANCH  15  20
HETATM   20  C   UNL     1      -9.716   7.815  69.533  1.00  0.00    -0.165 C  
HETATM   21  C   UNL     1     -10.416   7.323  70.570  1.00  0.00    -0.229 C  
HETATM   22  C   UNL     1     -10.729   5.832  70.561  1.00  0.00    -0.361 C  
HETATM   23  C   UNL     1     -10.314   5.134  71.855  1.00  0.00    -0.212 C  
HETATM   24  C   UNL     1     -10.926   5.828  73.068  1.00  0.00    -0.314 C  
HETATM   25  O   UNL     1      -8.891   5.086  71.972  1.00  0.00    -0.127 OA 
HETATM   26  C   UNL     1     -10.620   7.329  73.083  1.00  0.00    -0.400 C  
HETATM   27  H   UNL     1      -8.633   4.652  72.777  1.00  0.00     0.000 HD 
HETATM   28  C   UNL     1     -10.934   8.001  71.757  1.00  0.00    -0.305 C  
HETATM   29  C   UNL     1     -11.711   9.105  71.703  1.00  0.00    -0.448 C  
ENDBRANCH  15  20
ENDBRANCH   5   6
ENDBRANCH   4   5
TORSDOF 3
ENDMDL
MODEL        6
REMARK 921   NORMALIZED FREE ENERGY PREDICTED BY IDOCK:   -7.32 KCAL/MOL
REMARK 922        TOTAL FREE ENERGY PREDICTED BY IDOCK:   -9.42 KCAL/MOL
REMARK 923 INTER-LIGAND FREE ENERGY PREDICTED BY IDOCK:   -8.39 KCAL/MOL
REMARK 924 INTRA-LIGAND FREE ENERGY PREDICTED BY IDOCK:   -1.03 KCAL/MOL
REMARK 927      BINDING AFFINITY PREDICTED BY RF-SCORE:    0.00 PKD
ROOT
HETATM    1  C   UNL     1     -11.630   6.654  70.363  1.00  0.00    -0.457 C  
HETATM    2  C   UNL     1     -11.363   8.111  70.737  1.00  0.00    -0.283 C  
HETATM    3  C   UNL     1     -11.136   8.220  72.248  1.00  0.00    -0.429 C  
HETATM    4  C   UNL     1     -10.144   8.699  70.003  1.00  0.00    -0.195 C  
ENDROOT
BRANCH   4   5
HETATM    5  C   UNL     1     -10.293   8.772  68.483  1.00  0.00    -0.231 C  
BRANCH   5   6
HETATM    6  C   UNL     1     -11.201   9.956  68.075  1.00  0.00    -0.129 C  
HETATM    7  C   UNL     1     -10.447  11.141  67.404  1.00  0.00    -0.255 C  
HETATM    8  C   UNL     1     -11.410  12.430  67.120  1.00  0.00    -0.390 C  
HETATM    9  C   UNL     1      -9.680  10.579  66.193  1.00  0.00    -0.259 C  
HETATM   10  C   UNL     1     -11.868  13.003  68.465  1.00  0.00    -0.360 C  
HETATM   11  C   UNL     1     -10.751  13.949  68.884  1.00  0.00    -0.256 C  
HETATM   12  C   UNL     1      -9.804  14.126  67.662  1.00  0.00    -0.229 C  
HETATM   13  C   UNL     1      -9.172  15.518  67.690  1.00  0.00    -0.190 C  
HETATM   14  C   UNL     1      -9.021  16.121  66.318  1.00  0.00    -0.379 C  
HETATM   15  C   UNL     1      -8.779  16.131  68.828  1.00  0.00    -0.240 C  
HETATM   16  C   UNL     1     -10.196  13.212  65.065  1.00  0.00    -0.296 C  
HETATM   17  C   UNL     1     -10.311  16.009  65.480  1.00  0.00    -0.415 C  
HETATM   18  C   UNL     1     -10.709  13.690  66.440  1.00  0.00    -0.281 C  
HETATM   19  C   UNL     1     -11.406  15.031  66.058  1.00  0.00    -0.270 C  
BRANCH  15  20
HETATM   20  C   UNL     1      -7.817  17.219  68.862  1.00  0.00    -0.206 C  
HETATM   21  C   UNL     1      -7.914  18.526  68.561  1.00  0.00    -0.346 C  
HETATM   22  C   UNL     1      -6.731  19.417  68.919  1.00  0.00    -0.348 C  
HETATM   23  C   UNL     1      -6.239  20.248  67.735  1.00  0.00    -0.234 C  
HETATM   24  C   UNL     1      -7.382  21.053  67.123  1.00  0.00    -0.304 C  
HETATM   25  O   UNL     1      -5.629  19.415  66.748  1.00  0.00    -0.167 OA 
HETATM   26  C   UNL     1      -8.577  20.164  66.764  1.00  0.00    -0.378 C  
HETATM   27  H   UNL     1      -5.323  19.932  66.012  1.00  0.00     0.000 HD 
HETATM   28  C   UNL     1      -8.997  19.261  67.911  1.00  0.00    -0.357 C  
HETATM   29  C   UNL     1     -10.280  19.221  68.333  1.00  0.00    -0.503 C  
ENDBRANCH  15  20
ENDBRANCH   5   6
ENDBRANCH   4   5
TORSDOF 3
ENDMDL
MODEL        7
REMARK 921   NORMALIZED FREE ENERGY PREDICTED BY IDOCK:   -7.28 KCAL/MOL
REMARK 922        TOTAL FREE ENERGY PREDICTED BY IDOCK:   -9.37 KCAL/MOL
REMARK 923 INTER-LIGAND FREE ENERGY PREDICTED BY IDOCK:   -8.44 KCAL/MOL
REMARK 924 INTRA-LIGAND FREE ENERGY PREDICTED BY IDOCK:   -0.92 KCAL/MOL
REMARK 927      BINDING AFFINITY PREDICTED BY RF-SCORE:    0.00 PKD
ROOT
HETATM    1  C   UNL     1     -10.843   5.865  68.911  1.00  0.00    -0.373 C  
HETATM    2  C   UNL     1     -10.174   6.117  67.560  1.00  0.00    -0.218 C  
HETATM    3  C   UNL     1     -10.573   5.014  66.575  1.00  0.00    -0.289 C  
HETATM    4  C   UNL     1     -10.547   7.485  66.959  1.00  0.00    -0.409 C  
ENDROOT
BRANCH   4   5
HETATM    5  C   UNL     1     -10.087   8.687  67.784  1.00  0.00    -0.266 C  
BRANCH   5   6
HETATM    6  C   UNL     1     -11.030   9.894  67.572  1.00  0.00    -0.239 C  
HETATM    7  C   UNL     1     -10.343  11.144  66.948  1.00  0.00    -0.272 C  
HETATM    8  C   UNL     1     -11.332  12.444  66.874  1.00  0.00    -0.392 C  
HETATM    9  C   UNL     1      -9.690  10.704  65.625  1.00  0.00    -0.283 C  
HETATM   10  C   UNL     1     -11.665  12.885  68.302  1.00  0.00    -0.390 C  
HETATM   11  C   UNL     1     -10.517  13.800  68.704  1.00  0.00    -0.245 C  
HETATM   12  C   UNL     1      -9.686  14.099  67.423  1.00  0.00    -0.232 C  
HETATM   13  C   UNL     1      -9.057  15.489  67.522  1.00  0.00    -0.198 C  
HETATM   14  C   UNL     1      -9.033  16.218  66.204  1.00  0.00    -0.374 C  
HETATM   15  C   UNL     1      -8.563  15.999  68.672  1.00  0.00    -0.206 C  
HETATM   16  C   UNL     1     -10.312  13.425  64.799  1.00  0.00    -0.397 C  
HETATM   17  C   UNL     1     -10.394  16.170  65.480  1.00  0.00    -0.391 C  
HETATM   18  C   UNL     1     -10.698  13.768  66.252  1.00  0.00    -0.285 C  
HETATM   19  C   UNL     1     -11.429  15.132  66.062  1.00  0.00    -0.157 C  
BRANCH  15  20
HETATM   20  C   UNL     1      -7.603  17.089  68.719  1.00  0.00    -0.243 C  
HETATM   21  C   UNL     1      -7.731  18.417  68.557  1.00  0.00    -0.321 C  
HETATM   22  C   UNL     1      -6.521  19.283  68.885  1.00  0.00    -0.308 C  
HETATM   23  C   UNL     1      -6.146  20.229  67.745  1.00  0.00    -0.228 C  
HETATM   24  C   UNL     1      -7.343  21.076  67.325  1.00  0.00    -0.320 C  
HETATM   25  O   UNL     1      -5.632  19.501  66.629  1.00  0.00    -0.167 OA 
HETATM   26  C   UNL     1      -8.566  20.213  66.997  1.00  0.00    -0.408 C  
HETATM   27  H   UNL     1      -5.399  20.089  65.920  1.00  0.00     0.000 HD 
HETATM   28  C   UNL     1      -8.873  19.199  68.086  1.00  0.00    -0.360 C  
HETATM   29  C   UNL     1     -10.110  19.105  68.622  1.00  0.00    -0.471 C  
ENDBRANCH  15  20
ENDBRANCH   5   6
ENDBRANCH   4   5
TORSDOF 3
ENDMDL
MODEL        8
REMARK 921   NORMALIZED FREE ENERGY PREDICTED BY IDOCK:   -7.00 KCAL/MOL
REMARK 922        TOTAL FREE ENERGY PREDICTED BY IDOCK:   -9.04 KCAL/MOL
REMARK 923 INTER-LIGAND FREE ENERGY PREDICTED BY IDOCK:   -7.84 KCAL/MOL
REMARK 924 INTRA-LIGAND FREE ENERGY PREDICTED BY IDOCK:   -1.20 KCAL/MOL
REMARK 927      BINDING AFFINITY PREDICTED BY RF-SCORE:    0.00 PKD
ROOT
HETATM    1  C   UNL     1      -9.963   4.616  69.323  1.00  0.00    -0.231 C  
HETATM    2  C   UNL     1      -9.518   3.524  70.295  1.00  0.00    -0.254 C  
HETATM    3  C   UNL     1      -8.226   2.879  69.785  1.00  0.00    -0.067 C  
HETATM    4  C   UNL     1      -9.284   4.058  71.720  1.00  0.00    -0.184 C  
ENDROOT
BRANCH   4   5
HETATM    5  C   UNL     1     -10.534   4.615  72.403  1.00  0.00    -0.250 C  
BRANCH   5   6
HETATM    6  C   UNL     1     -10.378   6.128  72.686  1.00  0.00    -0.219 C  
HETATM    7  C   UNL     1     -11.178   7.047  71.718  1.00  0.00    -0.278 C  
HETATM    8  C   UNL     1     -10.876   8.636  71.953  1.00  0.00    -0.419 C  
HETATM    9  C   UNL     1     -12.655   6.615  71.780  1.00  0.00    -0.323 C  
HETATM   10  C   UNL     1      -9.413   8.913  71.593  1.00  0.00    -0.351 C  
HETATM   11  C   UNL     1      -9.421   9.152  70.089  1.00  0.00    -0.235 C  
HETATM   12  C   UNL     1     -10.907   9.288  69.645  1.00  0.00    -0.228 C  
HETATM   13  C   UNL     1     -11.008  10.226  68.443  1.00  0.00    -0.308 C  
HETATM   14  C   UNL     1     -12.235  11.097  68.479  1.00  0.00     0.064 C  
HETATM   15  C   UNL     1     -10.094  10.255  67.447  1.00  0.00    -0.246 C  
HETATM   16  C   UNL     1     -13.157   9.436  71.272  1.00  0.00    -0.363 C  
HETATM   17  C   UNL     1     -12.437  11.774  69.849  1.00  0.00    -0.086 C  
HETATM   18  C   UNL     1     -11.654   9.644  70.994  1.00  0.00    -0.436 C  
HETATM   19  C   UNL     1     -11.550  11.200  71.020  1.00  0.00     0.258 C  
BRANCH  15  20
HETATM   20  C   UNL     1     -10.365  10.795  66.125  1.00  0.00    -0.300 C  
HETATM   21  C   UNL     1     -10.536  12.050  65.675  1.00  0.00    -0.303 C  
HETATM   22  C   UNL     1     -10.601  12.251  64.167  1.00  0.00    -0.408 C  
HETATM   23  C   UNL     1     -11.836  13.037  63.729  1.00  0.00    -0.502 C  
HETATM   24  C   UNL     1     -11.930  14.364  64.475  1.00  0.00    -0.487 C  
HETATM   25  O   UNL     1     -13.024  12.267  63.925  1.00  0.00    -0.753 OA 
HETATM   26  C   UNL     1     -11.862  14.170  65.994  1.00  0.00    -0.409 C  
HETATM   27  H   UNL     1     -13.792  12.756  63.653  1.00  0.00     0.000 HD 
HETATM   28  C   UNL     1     -10.692  13.300  66.418  1.00  0.00    -0.291 C  
HETATM   29  C   UNL     1      -9.822  13.714  67.366  1.00  0.00    -0.234 C  
ENDBRANCH  15  20
ENDBRANCH   5   6
ENDBRANCH   4   5
TORSDOF 3
ENDMDL
MODEL        9
REMARK 921   NORMALIZED FREE ENERGY PREDICTED BY IDOCK:   -6.96 KCAL/MOL
REMARK 922        TOTAL FREE ENERGY PREDICTED BY IDOCK:   -8.99 KCAL/MOL
REMARK 923 INTER-LIGAND FREE ENERGY PREDICTED BY IDOCK:   -8.09 KCAL/MOL
REMARK 924 INTRA-LIGAND FREE ENERGY PREDICTED BY IDOCK:   -0.90 KCAL/MOL
REMARK 927      BINDING AFFINITY PREDICTED BY RF-SCORE:    0.00 PKD
ROOT
HETATM    1  C   UNL     1      -8.240   6.238  68.647  1.00  0.00    -0.112 C  
HETATM    2  C   UNL     1      -9.588   6.431  69.340  1.00  0.00    -0.152 C  
HETATM    3  C   UNL     1     -10.061   5.097  69.926  1.00  0.00    -0.342 C  
HETATM    4  C   UNL     1      -9.531   7.480  70.466  1.00  0.00    -0.164 C  
ENDROOT
BRANCH   4   5
HETATM    5  C   UNL     1      -9.197   8.897  69.998  1.00  0.00    -0.183 C  
BRANCH   5   6
HETATM    6  C   UNL     1     -10.427   9.563  69.338  1.00  0.00    -0.231 C  
HETATM    7  C   UNL     1     -10.085  10.493  68.136  1.00  0.00    -0.180 C  
HETATM    8  C   UNL     1     -11.388  11.292  67.559  1.00  0.00    -0.360 C  
HETATM    9  C   UNL     1      -9.284   9.662  67.118  1.00  0.00    -0.156 C  
HETATM   10  C   UNL     1     -11.887  12.258  68.637  1.00  0.00    -0.354 C  
HETATM   11  C   UNL     1     -11.051  13.516  68.449  1.00  0.00    -0.298 C  
HETATM   12  C   UNL     1     -10.283  13.370  67.102  1.00  0.00    -0.247 C  
HETATM   13  C   UNL     1     -10.065  14.747  66.476  1.00  0.00    -0.281 C  
HETATM   14  C   UNL     1     -10.190  14.736  64.975  1.00  0.00    -0.379 C  
HETATM   15  C   UNL     1      -9.776  15.853  67.197  1.00  0.00    -0.227 C  
HETATM   16  C   UNL     1     -10.596  11.389  65.177  1.00  0.00    -0.352 C  
HETATM   17  C   UNL     1     -11.455  13.997  64.495  1.00  0.00    -0.380 C  
HETATM   18  C   UNL     1     -11.118  12.270  66.329  1.00  0.00    -0.342 C  
HETATM   19  C   UNL     1     -12.188  13.134  65.594  1.00  0.00    -0.521 C  
BRANCH  15  20
HETATM   20  C   UNL     1      -9.155  17.040  66.633  1.00  0.00    -0.278 C  
HETATM   21  C   UNL     1      -8.189  17.859  67.082  1.00  0.00    -0.228 C  
HETATM   22  C   UNL     1      -7.645  18.899  66.112  1.00  0.00    -0.286 C  
HETATM   23  C   UNL     1      -7.669  20.314  66.690  1.00  0.00    -0.266 C  
HETATM   24  C   UNL     1      -6.944  20.366  68.031  1.00  0.00    -0.317 C  
HETATM   25  O   UNL     1      -9.011  20.783  66.828  1.00  0.00    -0.579 OA 
HETATM   26  C   UNL     1      -7.482  19.319  69.012  1.00  0.00    -0.372 C  
HETATM   27  H   UNL     1      -9.026  21.663  67.187  1.00  0.00     0.000 HD 
HETATM   28  C   UNL     1      -7.557  17.931  68.399  1.00  0.00    -0.282 C  
HETATM   29  C   UNL     1      -6.998  16.866  69.015  1.00  0.00    -0.224 C  
ENDBRANCH  15  20
ENDBRANCH   5   6
ENDBRANCH   4   5
TORSDOF 3
ENDMDL
MODEL       10
REMARK 921   NORMALIZED FREE ENERGY PREDICTED BY IDOCK:   -6.95 KCAL/MOL
REMARK 922        TOTAL FREE ENERGY PREDICTED BY IDOCK:   -8.98 KCAL/MOL
REMARK 923 INTER-LIGAND FREE ENERGY PREDICTED BY IDOCK:   -7.82 KCAL/MOL
REMARK 924 INTRA-LIGAND FREE ENERGY PREDICTED BY IDOCK:   -1.16 KCAL/MOL
REMARK 927      BINDING AFFINITY PREDICTED BY RF-SCORE:    0.00 PKD
ROOT
HETATM    1  C   UNL     1      -8.575  18.557  68.098  1.00  0.00    -0.324 C  
HETATM    2  C   UNL     1      -9.982  18.278  67.572  1.00  0.00    -0.345 C  
HETATM    3  C   UNL     1     -10.639  19.592  67.138  1.00  0.00    -0.605 C  
HETATM    4  C   UNL     1      -9.987  17.298  66.383  1.00  0.00    -0.319 C  
ENDROOT
BRANCH   4   5
HETATM    5  C   UNL     1      -9.476  15.896  66.714  1.00  0.00    -0.254 C  
BRANCH   5   6
HETATM    6  C   UNL     1     -10.649  14.895  66.828  1.00  0.00    -0.305 C  
HETATM    7  C   UNL     1     -10.649  14.054  68.138  1.00  0.00    -0.252 C  
HETATM    8  C   UNL     1     -11.814  12.908  68.159  1.00  0.00    -0.380 C  
HETATM    9  C   UNL     1     -10.634  15.037  69.322  1.00  0.00    -0.249 C  
HETATM   10  C   UNL     1     -11.508  11.880  67.066  1.00  0.00    -0.384 C  
HETATM   11  C   UNL     1     -10.548  10.894  67.717  1.00  0.00    -0.255 C  
HETATM   12  C   UNL     1     -10.529  11.198  69.243  1.00  0.00    -0.183 C  
HETATM   13  C   UNL     1     -10.262   9.913  70.027  1.00  0.00    -0.319 C  
HETATM   14  C   UNL     1     -11.040   9.838  71.314  1.00  0.00    -0.375 C  
HETATM   15  C   UNL     1      -9.404   8.955  69.610  1.00  0.00    -0.163 C  
HETATM   16  C   UNL     1     -12.171  12.950  70.645  1.00  0.00    -0.386 C  
HETATM   17  C   UNL     1     -12.530  10.183  71.121  1.00  0.00    -0.490 C  
HETATM   18  C   UNL     1     -11.875  11.999  69.467  1.00  0.00    -0.390 C  
HETATM   19  C   UNL     1     -12.893  10.849  69.738  1.00  0.00     0.125 C  
BRANCH  15  20
HETATM   20  C   UNL     1      -8.814   7.966  70.496  1.00  0.00    -0.141 C  
HETATM   21  C   UNL     1      -9.282   6.817  71.012  1.00  0.00    -0.156 C  
HETATM   22  C   UNL     1      -8.292   5.924  71.749  1.00  0.00    -0.119 C  
HETATM   23  C   UNL     1      -8.774   5.535  73.146  1.00  0.00    -0.120 C  
HETATM   24  C   UNL     1     -10.161   4.903  73.086  1.00  0.00    -0.210 C  
HETATM   25  O   UNL     1      -8.778   6.668  74.016  1.00  0.00    -0.136 OA 
HETATM   26  C   UNL     1     -11.163   5.793  72.342  1.00  0.00    -0.343 C  
HETATM   27  H   UNL     1      -9.078   6.427  74.884  1.00  0.00     0.000 HD 
HETATM   28  C   UNL     1     -10.636   6.265  70.999  1.00  0.00    -0.289 C  
HETATM   29  C   UNL     1     -11.360   6.101  69.869  1.00  0.00    -0.454 C  
ENDBRANCH  15  20
ENDBRANCH   5   6
ENDBRANCH   4   5
TORSDOF 3
ENDMDL
MODEL       11
REMARK 921   NORMALIZED FREE ENERGY PREDICTED BY IDOCK:   -6.89 KCAL/MOL
REMARK 922        TOTAL FREE ENERGY PREDICTED BY IDOCK:   -8.91 KCAL/MOL
REMARK 923 INTER-LIGAND FREE ENERGY PREDICTED BY IDOCK:   -8.03 KCAL/MOL
REMARK 924 INTRA-LIGAND FREE ENERGY PREDICTED BY IDOCK:   -0.89 KCAL/MOL
REMARK 927      BINDING AFFINITY PREDICTED BY RF-SCORE:    0.00 PKD
ROOT
HETATM    1  C   UNL     1     -10.269   5.715  68.933  1.00  0.00    -0.279 C  
HETATM    2  C   UNL     1      -9.370   5.373  67.746  1.00  0.00    -0.124 C  
HETATM    3  C   UNL     1      -9.748   3.993  67.196  1.00  0.00    -0.207 C  
HETATM    4  C   UNL     1      -9.466   6.408  66.610  1.00  0.00    -0.191 C  
ENDROOT
BRANCH   4   5
HETATM    5  C   UNL     1      -8.991   7.811  66.988  1.00  0.00    -0.145 C  
BRANCH   5   6
HETATM    6  C   UNL     1     -10.179   8.800  67.040  1.00  0.00    -0.351 C  
HETATM    7  C   UNL     1      -9.921  10.151  66.311  1.00  0.00    -0.304 C  
HETATM    8  C   UNL     1     -11.138  11.225  66.511  1.00  0.00    -0.280 C  
HETATM    9  C   UNL     1      -9.524   9.828  64.859  1.00  0.00    -0.331 C  
HETATM   10  C   UNL     1     -11.206  11.615  67.990  1.00  0.00    -0.327 C  
HETATM   11  C   UNL     1     -10.201  12.749  68.139  1.00  0.00    -0.241 C  
HETATM   12  C   UNL     1      -9.773  13.186  66.708  1.00  0.00    -0.246 C  
HETATM   13  C   UNL     1      -9.428  14.675  66.700  1.00  0.00    -0.297 C  
HETATM   14  C   UNL     1      -9.861  15.371  65.436  1.00  0.00    -0.314 C  
HETATM   15  C   UNL     1      -8.788  15.294  67.717  1.00  0.00    -0.174 C  
HETATM   16  C   UNL     1     -10.852  12.354  64.285  1.00  0.00    -0.395 C  
HETATM   17  C   UNL     1     -11.316  15.038  65.050  1.00  0.00    -0.395 C  
HETATM   18  C   UNL     1     -10.945  12.638  65.798  1.00  0.00    -0.313 C  
HETATM   19  C   UNL     1     -11.958  13.823  65.826  1.00  0.00    -0.423 C  
BRANCH  15  20
HETATM   20  C   UNL     1      -8.082  16.555  67.571  1.00  0.00    -0.171 C  
HETATM   21  C   UNL     1      -8.434  17.827  67.825  1.00  0.00    -0.236 C  
HETATM   22  C   UNL     1      -7.343  18.887  67.741  1.00  0.00    -0.254 C  
HETATM   23  C   UNL     1      -7.727  20.058  66.837  1.00  0.00    -0.293 C  
HETATM   24  C   UNL     1      -9.062  20.661  67.262  1.00  0.00    -0.408 C  
HETATM   25  O   UNL     1      -7.776  19.648  65.469  1.00  0.00    -0.411 OA 
HETATM   26  C   UNL     1     -10.163  19.600  67.353  1.00  0.00    -0.561 C  
HETATM   27  H   UNL     1      -8.014  20.375  64.907  1.00  0.00     0.000 HD 
HETATM   28  C   UNL     1      -9.741  18.388  68.166  1.00  0.00    -0.352 C  
HETATM   29  C   UNL     1     -10.503  17.931  69.184  1.00  0.00    -0.002 C  
ENDBRANCH  15  20
ENDBRANCH   5   6
ENDBRANCH   4   5
TORSDOF 3
ENDMDL
MODEL       12
REMARK 921   NORMALIZED FREE ENERGY PREDICTED BY IDOCK:   -6.89 KCAL/MOL
REMARK 922        TOTAL FREE ENERGY PREDICTED BY IDOCK:   -8.91 KCAL/MOL
REMARK 923 INTER-LIGAND FREE ENERGY PREDICTED BY IDOCK:   -7.58 KCAL/MOL
REMARK 924 INTRA-LIGAND FREE ENERGY PREDICTED BY IDOCK:   -1.32 KCAL/MOL
REMARK 927      BINDING AFFINITY PREDICTED BY RF-SCORE:    0.00 PKD
ROOT
HETATM    1  C   UNL     1      -7.067   7.374  68.455  1.00  0.00    -0.084 C  
HETATM    2  C   UNL     1      -6.953   8.725  67.751  1.00  0.00    -0.075 C  
HETATM    3  C   UNL     1      -5.699   9.456  68.240  1.00  0.00    -0.037 C  
HETATM    4  C   UNL     1      -6.889   8.592  66.218  1.00  0.00    -0.073 C  
ENDROOT
BRANCH   4   5
HETATM    5  C   UNL     1      -8.143   7.993  65.580  1.00  0.00    -0.121 C  
BRANCH   5   6
HETATM    6  C   UNL     1      -9.402   8.798  65.980  1.00  0.00    -0.296 C  
HETATM    7  C   UNL     1      -9.419  10.264  65.457  1.00  0.00    -0.277 C  
HETATM    8  C   UNL     1     -10.689  11.126  66.019  1.00  0.00    -0.272 C  
HETATM    9  C   UNL     1      -9.247  10.215  63.928  1.00  0.00    -0.322 C  
HETATM   10  C   UNL     1     -10.541  11.280  67.536  1.00  0.00    -0.257 C  
HETATM   11  C   UNL     1      -9.651  12.502  67.717  1.00  0.00    -0.203 C  
HETATM   12  C   UNL     1      -9.525  13.199  66.331  1.00  0.00    -0.226 C  
HETATM   13  C   UNL     1      -9.347  14.705  66.519  1.00  0.00    -0.313 C  
HETATM   14  C   UNL     1     -10.063  15.517  65.472  1.00  0.00    -0.406 C  
HETATM   15  C   UNL     1      -8.609  15.246  67.515  1.00  0.00    -0.190 C  
HETATM   16  C   UNL     1     -10.914  12.600  63.998  1.00  0.00    -0.448 C  
HETATM   17  C   UNL     1     -11.520  15.056  65.265  1.00  0.00    -0.308 C  
HETATM   18  C   UNL     1     -10.773  12.642  65.533  1.00  0.00    -0.303 C  
HETATM   19  C   UNL     1     -11.885  13.666  65.915  1.00  0.00    -0.406 C  
BRANCH  15  20
HETATM   20  C   UNL     1      -8.076  16.597  67.476  1.00  0.00    -0.184 C  
HETATM   21  C   UNL     1      -8.607  17.791  67.791  1.00  0.00    -0.237 C  
HETATM   22  C   UNL     1      -7.667  18.990  67.818  1.00  0.00    -0.273 C  
HETATM   23  C   UNL     1      -8.175  20.156  66.971  1.00  0.00    -0.327 C  
HETATM   24  C   UNL     1      -9.593  20.546  67.376  1.00  0.00    -0.578 C  
HETATM   25  O   UNL     1      -8.123  19.834  65.580  1.00  0.00    -0.384 OA 
HETATM   26  C   UNL     1     -10.543  19.344  67.356  1.00  0.00    -0.603 C  
HETATM   27  H   UNL     1      -8.439  20.559  65.054  1.00  0.00     0.000 HD 
HETATM   28  C   UNL     1      -9.988  18.149  68.110  1.00  0.00    -0.368 C  
HETATM   29  C   UNL     1     -10.715  17.528  69.065  1.00  0.00    -0.012 C  
ENDBRANCH  15  20
ENDBRANCH   5   6
ENDBRANCH   4   5
TORSDOF 3
ENDMDL
MODEL       13
REMARK 921   NORMALIZED FREE ENERGY PREDICTED BY IDOCK:   -6.79 KCAL/MOL
REMARK 922        TOTAL FREE ENERGY PREDICTED BY IDOCK:   -8.79 KCAL/MOL
REMARK 923 INTER-LIGAND FREE ENERGY PREDICTED BY IDOCK:   -7.99 KCAL/MOL
REMARK 924 INTRA-LIGAND FREE ENERGY PREDICTED BY IDOCK:   -0.80 KCAL/MOL
REMARK 927      BINDING AFFINITY PREDICTED BY RF-SCORE:    0.00 PKD
ROOT
HETATM    1  C   UNL     1     -10.648  18.988  66.209  1.00  0.00    -0.493 C  
HETATM    2  C   UNL     1      -9.628  18.773  67.327  1.00  0.00    -0.333 C  
HETATM    3  C   UNL     1      -8.982  20.111  67.698  1.00  0.00    -0.412 C  
HETATM    4  C   UNL     1     -10.255  18.151  68.589  1.00  0.00    -0.382 C  
ENDROOT
BRANCH   4   5
HETATM    5  C   UNL     1     -10.826  16.747  68.389  1.00  0.00    -0.355 C  
BRANCH   5   6
HETATM    6  C   UNL     1      -9.867  15.878  67.542  1.00  0.00    -0.230 C  
HETATM    7  C   UNL     1     -10.397  14.446  67.239  1.00  0.00    -0.260 C  
HETATM    8  C   UNL     1      -9.300  13.510  66.470  1.00  0.00    -0.227 C  
HETATM    9  C   UNL     1     -11.770  14.593  66.559  1.00  0.00    -0.335 C  
HETATM   10  C   UNL     1      -8.117  13.270  67.413  1.00  0.00    -0.179 C  
HETATM   11  C   UNL     1      -8.529  12.070  68.254  1.00  0.00    -0.167 C  
HETATM   12  C   UNL     1      -9.808  11.462  67.609  1.00  0.00    -0.189 C  
HETATM   13  C   UNL     1      -9.849   9.954  67.855  1.00  0.00    -0.170 C  
HETATM   14  C   UNL     1     -10.398   9.183  66.683  1.00  0.00    -0.289 C  
HETATM   15  C   UNL     1      -9.448   9.379  69.010  1.00  0.00    -0.160 C  
HETATM   16  C   UNL     1     -10.977  12.153  65.183  1.00  0.00    -0.355 C  
HETATM   17  C   UNL     1      -9.755   9.607  65.347  1.00  0.00    -0.365 C  
HETATM   18  C   UNL     1      -9.767  12.024  66.131  1.00  0.00    -0.254 C  
HETATM   19  C   UNL     1      -8.917  10.942  65.397  1.00  0.00    -0.209 C  
BRANCH  15  20
HETATM   20  C   UNL     1      -9.860   8.052  69.432  1.00  0.00    -0.181 C  
HETATM   21  C   UNL     1     -10.654   7.622  70.429  1.00  0.00    -0.233 C  
HETATM   22  C   UNL     1     -11.027   6.145  70.440  1.00  0.00    -0.404 C  
HETATM   23  C   UNL     1     -10.737   5.474  71.782  1.00  0.00    -0.226 C  
HETATM   24  C   UNL     1     -11.406   6.230  72.925  1.00  0.00    -0.187 C  
HETATM   25  O   UNL     1      -9.329   5.374  72.005  1.00  0.00    -0.143 OA 
HETATM   26  C   UNL     1     -11.040   7.718  72.918  1.00  0.00    -0.457 C  
HETATM   27  H   UNL     1      -9.149   4.956  72.839  1.00  0.00     0.000 HD 
HETATM   28  C   UNL     1     -11.229   8.358  71.554  1.00  0.00    -0.328 C  
HETATM   29  C   UNL     1     -11.954   9.489  71.409  1.00  0.00    -0.464 C  
ENDBRANCH  15  20
ENDBRANCH   5   6
ENDBRANCH   4   5
TORSDOF 3
ENDMDL
MODEL       14
REMARK 921   NORMALIZED FREE ENERGY PREDICTED BY IDOCK:   -6.78 KCAL/MOL
REMARK 922        TOTAL FREE ENERGY PREDICTED BY IDOCK:   -8.79 KCAL/MOL
REMARK 923 INTER-LIGAND FREE ENERGY PREDICTED BY IDOCK:   -7.57 KCAL/MOL
REMARK 924 INTRA-LIGAND FREE ENERGY PREDICTED BY IDOCK:   -1.22 KCAL/MOL
REMARK 927      BINDING AFFINITY PREDICTED BY RF-SCORE:    0.00 PKD
ROOT
HETATM    1  C   UNL     1     -11.751   9.065  71.633  1.00  0.00    -0.431 C  
HETATM    2  C   UNL     1     -12.744   8.100  72.278  1.00  0.00    -0.292 C  
HETATM    3  C   UNL     1     -14.171   8.617  72.073  1.00  0.00    -0.524 C  
HETATM    4  C   UNL     1     -12.641   6.673  71.707  1.00  0.00    -0.323 C  
ENDROOT
BRANCH   4   5
HETATM    5  C   UNL     1     -11.301   5.983  71.960  1.00  0.00    -0.345 C  
BRANCH   5   6
HETATM    6  C   UNL     1     -10.629   5.578  70.627  1.00  0.00    -0.329 C  
HETATM    7  C   UNL     1      -9.819   6.718  69.944  1.00  0.00    -0.174 C  
HETATM    8  C   UNL     1      -9.248   6.299  68.471  1.00  0.00    -0.123 C  
HETATM    9  C   UNL     1      -8.782   7.226  70.962  1.00  0.00    -0.140 C  
HETATM   10  C   UNL     1     -10.437   6.082  67.530  1.00  0.00    -0.302 C  
HETATM   11  C   UNL     1     -10.765   7.468  66.993  1.00  0.00    -0.367 C  
HETATM   12  C   UNL     1      -9.602   8.417  67.403  1.00  0.00    -0.202 C  
HETATM   13  C   UNL     1      -9.433   9.518  66.356  1.00  0.00    -0.251 C  
HETATM   14  C   UNL     1      -7.993   9.885  66.117  1.00  0.00    -0.109 C  
HETATM   15  C   UNL     1     -10.474  10.106  65.725  1.00  0.00    -0.128 C  
HETATM   16  C   UNL     1      -7.182   7.723  68.583  1.00  0.00    -0.085 C  
HETATM   17  C   UNL     1      -7.096   8.648  65.910  1.00  0.00    -0.076 C  
HETATM   18  C   UNL     1      -8.412   7.418  67.703  1.00  0.00    -0.120 C  
HETATM   19  C   UNL     1      -7.754   7.268  66.297  1.00  0.00    -0.097 C  
BRANCH  15  20
HETATM   20  C   UNL     1     -10.388  11.402  65.074  1.00  0.00    -0.342 C  
HETATM   21  C   UNL     1     -10.556  12.657  65.525  1.00  0.00    -0.301 C  
HETATM   22  C   UNL     1     -10.179  13.796  64.586  1.00  0.00    -0.313 C  
HETATM   23  C   UNL     1     -11.303  14.818  64.417  1.00  0.00    -0.213 C  
HETATM   24  C   UNL     1     -11.772  15.340  65.771  1.00  0.00     0.083 C  
HETATM   25  O   UNL     1     -12.397  14.253  63.692  1.00  0.00    -1.035 OA 
HETATM   26  C   UNL     1     -12.149  14.200  66.723  1.00  0.00    -0.474 C  
HETATM   27  H   UNL     1     -13.096  14.888  63.586  1.00  0.00     0.000 HD 
HETATM   28  C   UNL     1     -11.073  13.131  66.808  1.00  0.00    -0.314 C  
HETATM   29  C   UNL     1     -10.588  12.724  68.001  1.00  0.00    -0.238 C  
ENDBRANCH  15  20
ENDBRANCH   5   6
ENDBRANCH   4   5
TORSDOF 3
ENDMDL
MODEL       15
REMARK 921   NORMALIZED FREE ENERGY PREDICTED BY IDOCK:   -6.76 KCAL/MOL
REMARK 922        TOTAL FREE ENERGY PREDICTED BY IDOCK:   -8.76 KCAL/MOL
REMARK 923 INTER-LIGAND FREE ENERGY PREDICTED BY IDOCK:   -7.84 KCAL/MOL
REMARK 924 INTRA-LIGAND FREE ENERGY PREDICTED BY IDOCK:   -0.92 KCAL/MOL
REMARK 927      BINDING AFFINITY PREDICTED BY RF-SCORE:    0.00 PKD
ROOT
HETATM    1  C   UNL     1      -5.205  17.864  67.498  1.00  0.00    -0.138 C  
HETATM    2  C   UNL     1      -6.479  18.593  67.075  1.00  0.00    -0.199 C  
HETATM    3  C   UNL     1      -6.124  19.986  66.548  1.00  0.00    -0.187 C  
HETATM    4  C   UNL     1      -7.266  17.832  65.992  1.00  0.00    -0.322 C  
ENDROOT
BRANCH   4   5
HETATM    5  C   UNL     1      -7.798  16.468  66.433  1.00  0.00    -0.324 C  
BRANCH   5   6
HETATM    6  C   UNL     1      -9.320  16.531  66.701  1.00  0.00    -0.279 C  
HETATM    7  C   UNL     1      -9.753  15.957  68.081  1.00  0.00    -0.212 C  
HETATM    8  C   UNL     1     -11.376  15.904  68.269  1.00  0.00    -0.342 C  
HETATM    9  C   UNL     1      -8.962  16.708  69.167  1.00  0.00    -0.145 C  
HETATM   10  C   UNL     1     -11.952  14.906  67.261  1.00  0.00    -0.149 C  
HETATM   11  C   UNL     1     -11.844  13.552  67.950  1.00  0.00    -0.397 C  
HETATM   12  C   UNL     1     -11.472  13.813  69.439  1.00  0.00    -0.341 C  
HETATM   13  C   UNL     1     -12.060  12.714  70.323  1.00  0.00    -0.372 C  
HETATM   14  C   UNL     1     -12.552  13.229  71.650  1.00  0.00    -0.254 C  
HETATM   15  C   UNL     1     -12.116  11.415  69.953  1.00  0.00    -0.404 C  
HETATM   16  C   UNL     1     -11.359  16.259  70.756  1.00  0.00    -0.327 C  
HETATM   17  C   UNL     1     -13.433  14.486  71.504  1.00  0.00    -0.449 C  
HETATM   18  C   UNL     1     -11.899  15.321  69.657  1.00  0.00    -0.363 C  
HETATM   19  C   UNL     1     -13.392  15.175  70.085  1.00  0.00     0.192 C  
BRANCH  15  20
HETATM   20  C   UNL     1     -12.259  10.318  70.895  1.00  0.00    -0.465 C  
HETATM   21  C   UNL     1     -11.467   9.276  71.201  1.00  0.00    -0.403 C  
HETATM   22  C   UNL     1     -11.857   8.428  72.405  1.00  0.00    -0.452 C  
HETATM   23  C   UNL     1     -11.932   6.937  72.077  1.00  0.00    -0.306 C  
HETATM   24  C   UNL     1     -10.629   6.452  71.449  1.00  0.00    -0.274 C  
HETATM   25  O   UNL     1     -13.036   6.662  71.214  1.00  0.00    -0.183 OA 
HETATM   26  C   UNL     1     -10.227   7.303  70.240  1.00  0.00    -0.205 C  
HETATM   27  H   UNL     1     -13.082   5.735  71.010  1.00  0.00     0.000 HD 
HETATM   28  C   UNL     1     -10.256   8.792  70.539  1.00  0.00    -0.240 C  
HETATM   29  C   UNL     1      -9.189   9.577  70.274  1.00  0.00    -0.303 C  
ENDBRANCH  15  20
ENDBRANCH   5   6
ENDBRANCH   4   5
TORSDOF 3
ENDMDL
MODEL       16
REMARK 921   NORMALIZED FREE ENERGY PREDICTED BY IDOCK:   -6.69 KCAL/MOL
REMARK 922        TOTAL FREE ENERGY PREDICTED BY IDOCK:   -8.67 KCAL/MOL
REMARK 923 INTER-LIGAND FREE ENERGY PREDICTED BY IDOCK:   -7.49 KCAL/MOL
REMARK 924 INTRA-LIGAND FREE ENERGY PREDICTED BY IDOCK:   -1.18 KCAL/MOL
REMARK 927      BINDING AFFINITY PREDICTED BY RF-SCORE:    0.00 PKD
ROOT
HETATM    1  C   UNL     1     -12.287   9.815  71.628  1.00  0.00    -0.495 C  
HETATM    2  C   UNL     1     -12.863   8.513  72.182  1.00  0.00    -0.413 C  
HETATM    3  C   UNL     1     -14.384   8.637  72.310  1.00  0.00    -0.486 C  
HETATM    4  C   UNL     1     -12.531   7.295  71.300  1.00  0.00    -0.402 C  
ENDROOT
BRANCH   4   5
HETATM    5  C   UNL     1     -11.040   6.976  71.193  1.00  0.00    -0.288 C  
BRANCH   5   6
HETATM    6  C   UNL     1     -10.487   7.389  69.809  1.00  0.00    -0.235 C  
HETATM    7  C   UNL     1      -9.751   8.760  69.796  1.00  0.00    -0.179 C  
HETATM    8  C   UNL     1      -9.310   9.232  68.294  1.00  0.00    -0.141 C  
HETATM    9  C   UNL     1      -8.632   8.698  70.851  1.00  0.00    -0.204 C  
HETATM   10  C   UNL     1     -10.575   9.489  67.471  1.00  0.00    -0.338 C  
HETATM   11  C   UNL     1     -10.963  10.925  67.792  1.00  0.00    -0.339 C  
HETATM   12  C   UNL     1      -9.776  11.568  68.568  1.00  0.00    -0.191 C  
HETATM   13  C   UNL     1      -9.711  13.066  68.273  1.00  0.00    -0.221 C  
HETATM   14  C   UNL     1      -8.301  13.584  68.170  1.00  0.00    -0.167 C  
HETATM   15  C   UNL     1     -10.809  13.843  68.135  1.00  0.00    -0.262 C  
HETATM   16  C   UNL     1      -7.254  10.485  69.012  1.00  0.00    -0.090 C  
HETATM   17  C   UNL     1      -7.416  12.705  67.264  1.00  0.00    -0.111 C  
HETATM   18  C   UNL     1      -8.555  10.633  68.196  1.00  0.00    -0.123 C  
HETATM   19  C   UNL     1      -8.024  11.298  66.890  1.00  0.00    -0.155 C  
BRANCH  15  20
HETATM   20  C   UNL     1     -10.793  15.288  68.284  1.00  0.00    -0.262 C  
HETATM   21  C   UNL     1     -10.445  16.282  67.449  1.00  0.00    -0.304 C  
HETATM   22  C   UNL     1     -10.758  17.707  67.887  1.00  0.00    -0.341 C  
HETATM   23  C   UNL     1      -9.539  18.627  67.818  1.00  0.00    -0.304 C  
HETATM   24  C   UNL     1      -8.909  18.593  66.429  1.00  0.00    -0.283 C  
HETATM   25  O   UNL     1      -8.578  18.270  68.813  1.00  0.00    -0.301 OA 
HETATM   26  C   UNL     1      -8.596  17.162  65.980  1.00  0.00    -0.140 C  
HETATM   27  H   UNL     1      -7.820  18.841  68.770  1.00  0.00     0.000 HD 
HETATM   28  C   UNL     1      -9.779  16.225  66.149  1.00  0.00    -0.357 C  
HETATM   29  C   UNL     1     -10.215  15.461  65.123  1.00  0.00    -0.360 C  
ENDBRANCH  15  20
ENDBRANCH   5   6
ENDBRANCH   4   5
TORSDOF 3
ENDMDL
MODEL       17
REMARK 921   NORMALIZED FREE ENERGY PREDICTED BY IDOCK:   -6.65 KCAL/MOL
REMARK 922        TOTAL FREE ENERGY PREDICTED BY IDOCK:   -8.63 KCAL/MOL
REMARK 923 INTER-LIGAND FREE ENERGY PREDICTED BY IDOCK:   -7.69 KCAL/MOL
REMARK 924 INTRA-LIGAND FREE ENERGY PREDICTED BY IDOCK:   -0.94 KCAL/MOL
REMARK 927      BINDING AFFINITY PREDICTED BY RF-SCORE:    0.00 PKD
ROOT
HETATM    1  C   UNL     1      -6.575   5.241  66.708  1.00  0.00    -0.052 C  
HETATM    2  C   UNL     1      -7.434   5.275  65.445  1.00  0.00    -0.077 C  
HETATM    3  C   UNL     1      -7.939   3.864  65.129  1.00  0.00    -0.093 C  
HETATM    4  C   UNL     1      -8.642   6.222  65.574  1.00  0.00    -0.124 C  
ENDROOT
BRANCH   4   5
HETATM    5  C   UNL     1      -8.276   7.695  65.762  1.00  0.00    -0.133 C  
BRANCH   5   6
HETATM    6  C   UNL     1      -9.521   8.526  66.153  1.00  0.00    -0.286 C  
HETATM    7  C   UNL     1      -9.511   9.987  65.616  1.00  0.00    -0.278 C  
HETATM    8  C   UNL     1     -10.766  10.877  66.168  1.00  0.00    -0.225 C  
HETATM    9  C   UNL     1      -9.339   9.920  64.088  1.00  0.00    -0.295 C  
HETATM   10  C   UNL     1     -10.617  11.043  67.683  1.00  0.00    -0.255 C  
HETATM   11  C   UNL     1      -9.705  12.250  67.854  1.00  0.00    -0.202 C  
HETATM   12  C   UNL     1      -9.566  12.932  66.461  1.00  0.00    -0.259 C  
HETATM   13  C   UNL     1      -9.361  14.436  66.635  1.00  0.00    -0.297 C  
HETATM   14  C   UNL     1     -10.062  15.251  65.580  1.00  0.00    -0.401 C  
HETATM   15  C   UNL     1      -8.615  14.973  67.627  1.00  0.00    -0.179 C  
HETATM   16  C   UNL     1     -10.963  12.335  64.133  1.00  0.00    -0.415 C  
HETATM   17  C   UNL     1     -11.526  14.814  65.376  1.00  0.00    -0.341 C  
HETATM   18  C   UNL     1     -10.823  12.389  65.668  1.00  0.00    -0.312 C  
HETATM   19  C   UNL     1     -11.916  13.437  66.039  1.00  0.00    -0.460 C  
BRANCH  15  20
HETATM   20  C   UNL     1      -8.058  16.314  67.575  1.00  0.00    -0.165 C  
HETATM   21  C   UNL     1      -8.577  17.523  67.850  1.00  0.00    -0.239 C  
HETATM   22  C   UNL     1      -7.618  18.707  67.879  1.00  0.00    -0.264 C  
HETATM   23  C   UNL     1      -8.080  19.863  66.993  1.00  0.00    -0.309 C  
HETATM   24  C   UNL     1      -9.503  20.285  67.347  1.00  0.00    -0.547 C  
HETATM   25  O   UNL     1      -7.993  19.510  65.612  1.00  0.00    -0.422 OA 
HETATM   26  C   UNL     1     -10.473  19.099  67.324  1.00  0.00    -0.549 C  
HETATM   27  H   UNL     1      -8.280  20.228  65.061  1.00  0.00     0.000 HD 
HETATM   28  C   UNL     1      -9.960  17.911  68.120  1.00  0.00    -0.350 C  
HETATM   29  C   UNL     1     -10.726  17.323  69.065  1.00  0.00    -0.158 C  
ENDBRANCH  15  20
ENDBRANCH   5   6
ENDBRANCH   4   5
TORSDOF 3
ENDMDL
MODEL       18
REMARK 921   NORMALIZED FREE ENERGY PREDICTED BY IDOCK:   -6.62 KCAL/MOL
REMARK 922        TOTAL FREE ENERGY PREDICTED BY IDOCK:   -8.59 KCAL/MOL
REMARK 923 INTER-LIGAND FREE ENERGY PREDICTED BY IDOCK:   -7.46 KCAL/MOL
REMARK 924 INTRA-LIGAND FREE ENERGY PREDICTED BY IDOCK:   -1.13 KCAL/MOL
REMARK 927      BINDING AFFINITY PREDICTED BY RF-SCORE:    0.00 PKD
ROOT
HETATM    1  C   UNL     1     -11.826   9.373  71.715  1.00  0.00    -0.452 C  
HETATM    2  C   UNL     1     -12.610   8.257  72.404  1.00  0.00    -0.323 C  
HETATM    3  C   UNL     1     -14.044   8.227  71.866  1.00  0.00    -0.499 C  
HETATM    4  C   UNL     1     -11.969   6.871  72.202  1.00  0.00    -0.302 C  
ENDROOT
BRANCH   4   5
HETATM    5  C   UNL     1     -10.576   6.719  72.812  1.00  0.00    -0.264 C  
BRANCH   5   6
HETATM    6  C   UNL     1      -9.542   6.324  71.732  1.00  0.00    -0.165 C  
HETATM    7  C   UNL     1      -9.045   7.510  70.855  1.00  0.00    -0.153 C  
HETATM    8  C   UNL     1      -8.068   7.034  69.634  1.00  0.00    -0.130 C  
HETATM    9  C   UNL     1      -8.483   8.586  71.801  1.00  0.00    -0.236 C  
HETATM   10  C   UNL     1      -8.884   6.177  68.662  1.00  0.00    -0.114 C  
HETATM   11  C   UNL     1      -9.545   7.177  67.723  1.00  0.00    -0.146 C  
HETATM   12  C   UNL     1      -8.890   8.565  67.982  1.00  0.00    -0.142 C  
HETATM   13  C   UNL     1      -8.891   9.390  66.695  1.00  0.00    -0.151 C  
HETATM   14  C   UNL     1      -7.646  10.222  66.530  1.00  0.00    -0.113 C  
HETATM   15  C   UNL     1      -9.912   9.381  65.809  1.00  0.00    -0.278 C  
HETATM   16  C   UNL     1      -6.685   9.130  69.578  1.00  0.00    -0.047 C  
HETATM   17  C   UNL     1      -6.359   9.411  66.782  1.00  0.00    -0.066 C  
HETATM   18  C   UNL     1      -7.522   8.192  68.684  1.00  0.00    -0.098 C  
HETATM   19  C   UNL     1      -6.572   8.004  67.462  1.00  0.00    -0.058 C  
BRANCH  15  20
HETATM   20  C   UNL     1     -10.138  10.435  64.835  1.00  0.00    -0.382 C  
HETATM   21  C   UNL     1     -10.556  11.707  64.956  1.00  0.00    -0.342 C  
HETATM   22  C   UNL     1     -10.477  12.591  63.718  1.00  0.00    -0.451 C  
HETATM   23  C   UNL     1     -11.802  13.282  63.401  1.00  0.00    -0.355 C  
HETATM   24  C   UNL     1     -12.315  14.058  64.611  1.00  0.00    -0.425 C  
HETATM   25  O   UNL     1     -12.778  12.334  62.964  1.00  0.00    -0.729 OA 
HETATM   26  C   UNL     1     -12.393  13.176  65.862  1.00  0.00    -0.462 C  
HETATM   27  H   UNL     1     -13.602  12.764  62.767  1.00  0.00     0.000 HD 
HETATM   28  C   UNL     1     -11.108  12.407  66.114  1.00  0.00    -0.340 C  
HETATM   29  C   UNL     1     -10.494  12.452  67.318  1.00  0.00    -0.237 C  
ENDBRANCH  15  20
ENDBRANCH   5   6
ENDBRANCH   4   5
TORSDOF 3
ENDMDL
MODEL       19
REMARK 921   NORMALIZED FREE ENERGY PREDICTED BY IDOCK:   -6.55 KCAL/MOL
REMARK 922        TOTAL FREE ENERGY PREDICTED BY IDOCK:   -8.51 KCAL/MOL
REMARK 923 INTER-LIGAND FREE ENERGY PREDICTED BY IDOCK:   -7.26 KCAL/MOL
REMARK 924 INTRA-LIGAND FREE ENERGY PREDICTED BY IDOCK:   -1.25 KCAL/MOL
REMARK 927      BINDING AFFINITY PREDICTED BY RF-SCORE:    0.00 PKD
ROOT
HETATM    1  C   UNL     1      -6.417  19.933  64.782  1.00  0.00    -0.273 C  
HETATM    2  C   UNL     1      -6.657  18.784  65.761  1.00  0.00    -0.296 C  
HETATM    3  C   UNL     1      -5.362  17.988  65.946  1.00  0.00    -0.232 C  
HETATM    4  C   UNL     1      -7.148  19.271  67.137  1.00  0.00    -0.218 C  
ENDROOT
BRANCH   4   5
HETATM    5  C   UNL     1      -8.506  19.973  67.114  1.00  0.00    -0.390 C  
BRANCH   5   6
HETATM    6  C   UNL     1      -9.606  19.028  66.579  1.00  0.00    -0.386 C  
HETATM    7  C   UNL     1      -9.815  17.740  67.428  1.00  0.00    -0.311 C  
HETATM    8  C   UNL     1     -10.879  16.698  66.754  1.00  0.00    -0.037 C  
HETATM    9  C   UNL     1     -10.108  18.178  68.874  1.00  0.00    -0.354 C  
HETATM   10  C   UNL     1     -10.287  16.178  65.441  1.00  0.00    -0.356 C  
HETATM   11  C   UNL     1      -9.414  14.999  65.848  1.00  0.00    -0.313 C  
HETATM   12  C   UNL     1      -9.726  14.678  67.338  1.00  0.00    -0.218 C  
HETATM   13  C   UNL     1      -9.536  13.185  67.601  1.00  0.00    -0.207 C  
HETATM   14  C   UNL     1     -10.552  12.622  68.559  1.00  0.00    -0.262 C  
HETATM   15  C   UNL     1      -8.547  12.453  67.039  1.00  0.00    -0.191 C  
HETATM   16  C   UNL     1     -11.735  15.765  68.923  1.00  0.00    -0.404 C  
HETATM   17  C   UNL     1     -11.993  13.042  68.202  1.00  0.00    -0.322 C  
HETATM   18  C   UNL     1     -11.141  15.349  67.562  1.00  0.00    -0.315 C  
HETATM   19  C   UNL     1     -12.112  14.203  67.142  1.00  0.00    -0.432 C  
BRANCH  15  20
HETATM   20  C   UNL     1      -8.083  11.185  67.576  1.00  0.00    -0.119 C  
HETATM   21  C   UNL     1      -8.423   9.911  67.316  1.00  0.00    -0.121 C  
HETATM   22  C   UNL     1      -7.565   8.816  67.937  1.00  0.00    -0.097 C  
HETATM   23  C   UNL     1      -8.390   7.785  68.705  1.00  0.00    -0.128 C  
HETATM   24  C   UNL     1      -9.490   7.202  67.824  1.00  0.00    -0.136 C  
HETATM   25  O   UNL     1      -8.948   8.360  69.888  1.00  0.00    -0.139 OA 
HETATM   26  C   UNL     1     -10.355   8.297  67.192  1.00  0.00    -0.387 C  
HETATM   27  H   UNL     1      -9.461   7.719  70.366  1.00  0.00     0.000 HD 
HETATM   28  C   UNL     1      -9.527   9.378  66.520  1.00  0.00    -0.246 C  
HETATM   29  C   UNL     1      -9.767   9.746  65.241  1.00  0.00    -0.371 C  
ENDBRANCH  15  20
ENDBRANCH   5   6
ENDBRANCH   4   5
TORSDOF 3
ENDMDL
MODEL       20
REMARK 921   NORMALIZED FREE ENERGY PREDICTED BY IDOCK:   -6.51 KCAL/MOL
REMARK 922        TOTAL FREE ENERGY PREDICTED BY IDOCK:   -8.46 KCAL/MOL
REMARK 923 INTER-LIGAND FREE ENERGY PREDICTED BY IDOCK:   -7.56 KCAL/MOL
REMARK 924 INTRA-LIGAND FREE ENERGY PREDICTED BY IDOCK:   -0.90 KCAL/MOL
REMARK 927      BINDING AFFINITY PREDICTED BY RF-SCORE:    0.00 PKD
ROOT
HETATM    1  C   UNL     1      -5.513   9.119  69.823  1.00  0.00    -0.033 C  
HETATM    2  C   UNL     1      -5.764   7.742  69.212  1.00  0.00    -0.030 C  
HETATM    3  C   UNL     1      -5.771   6.682  70.318  1.00  0.00    -0.023 C  
HETATM    4  C   UNL     1      -7.095   7.669  68.439  1.00  0.00    -0.081 C  
ENDROOT
BRANCH   4   5
HETATM    5  C   UNL     1      -7.172   8.589  67.220  1.00  0.00    -0.084 C  
BRANCH   5   6
HETATM    6  C   UNL     1      -8.643   8.852  66.822  1.00  0.00    -0.122 C  
HETATM    7  C   UNL     1      -8.881  10.217  66.112  1.00  0.00    -0.162 C  
HETATM    8  C   UNL     1     -10.463  10.525  65.838  1.00  0.00    -0.224 C  
HETATM    9  C   UNL     1      -7.950  10.274  64.888  1.00  0.00    -0.146 C  
HETATM   10  C   UNL     1     -11.170  10.686  67.187  1.00  0.00    -0.177 C  
HETATM   11  C   UNL     1     -10.966  12.148  67.561  1.00  0.00    -0.304 C  
HETATM   12  C   UNL     1     -10.394  12.875  66.309  1.00  0.00    -0.278 C  
HETATM   13  C   UNL     1     -10.852  14.333  66.298  1.00  0.00    -0.310 C  
HETATM   14  C   UNL     1     -11.159  14.842  64.914  1.00  0.00    -0.416 C  
HETATM   15  C   UNL     1     -10.956  15.086  67.416  1.00  0.00    -0.315 C  
HETATM   16  C   UNL     1     -10.106  11.856  63.738  1.00  0.00    -0.423 C  
HETATM   17  C   UNL     1     -12.054  13.873  64.116  1.00  0.00    -0.464 C  
HETATM   18  C   UNL     1     -10.790  11.910  65.119  1.00  0.00    -0.350 C  
HETATM   19  C   UNL     1     -12.209  12.432  64.739  1.00  0.00    -0.493 C  
BRANCH  15  20
HETATM   20  C   UNL     1     -10.966  16.539  67.406  1.00  0.00    -0.121 C  
HETATM   21  C   UNL     1      -9.985  17.452  67.304  1.00  0.00    -0.302 C  
HETATM   22  C   UNL     1     -10.398  18.907  67.122  1.00  0.00    -0.479 C  
HETATM   23  C   UNL     1      -9.738  19.839  68.138  1.00  0.00    -0.398 C  
HETATM   24  C   UNL     1      -8.221  19.681  68.116  1.00  0.00    -0.348 C  
HETATM   25  O   UNL     1     -10.247  19.601  69.451  1.00  0.00    -0.636 OA 
HETATM   26  C   UNL     1      -7.797  18.219  68.294  1.00  0.00    -0.310 C  
HETATM   27  H   UNL     1      -9.837  20.180  70.082  1.00  0.00     0.000 HD 
HETATM   28  C   UNL     1      -8.534  17.280  67.354  1.00  0.00    -0.210 C  
HETATM   29  C   UNL     1      -7.861  16.410  66.570  1.00  0.00    -0.323 C  
ENDBRANCH  15  20
ENDBRANCH   5   6
ENDBRANCH   4   5
TORSDOF 3
ENDMDL
MODEL       21
REMARK 921   NORMALIZED FREE ENERGY PREDICTED BY IDOCK:   -6.47 KCAL/MOL
REMARK 922        TOTAL FREE ENERGY PREDICTED BY IDOCK:   -8.42 KCAL/MOL
REMARK 923 INTER-LIGAND FREE ENERGY PREDICTED BY IDOCK:   -7.55 KCAL/MOL
REMARK 924 INTRA-LIGAND FREE ENERGY PREDICTED BY IDOCK:   -0.87 KCAL/MOL
REMARK 927      BINDING AFFINITY PREDICTED BY RF-SCORE:    0.00 PKD
ROOT
HETATM    1  C   UNL     1      -9.067  20.618  67.548  1.00  0.00    -0.353 C  
HETATM    2  C   UNL     1      -7.632  20.132  67.354  1.00  0.00    -0.334 C  
HETATM    3  C   UNL     1      -6.740  21.309  66.948  1.00  0.00    -0.295 C  
HETATM    4  C   UNL     1      -7.051  19.476  68.620  1.00  0.00    -0.373 C  
ENDROOT
BRANCH   4   5
HETATM    5  C   UNL     1      -7.772  18.203  69.064  1.00  0.00    -0.130 C  
BRANCH   5   6
HETATM    6  C   UNL     1      -7.744  17.135  67.945  1.00  0.00    -0.188 C  
HETATM    7  C   UNL     1      -8.978  16.186  67.933  1.00  0.00    -0.183 C  
HETATM    8  C   UNL     1      -8.845  14.983  66.835  1.00  0.00    -0.285 C  
HETATM    9  C   UNL     1     -10.239  17.063  67.839  1.00  0.00    -0.317 C  
HETATM   10  C   UNL     1      -7.687  14.070  67.248  1.00  0.00    -0.120 C  
HETATM   11  C   UNL     1      -8.301  13.084  68.232  1.00  0.00    -0.158 C  
HETATM   12  C   UNL     1      -9.846  13.256  68.164  1.00  0.00    -0.231 C  
HETATM   13  C   UNL     1     -10.533  11.925  68.468  1.00  0.00    -0.240 C  
HETATM   14  C   UNL     1     -11.768  11.698  67.637  1.00  0.00    -0.300 C  
HETATM   15  C   UNL     1     -10.081  11.053  69.397  1.00  0.00    -0.060 C  
HETATM   16  C   UNL     1     -11.305  14.792  66.364  1.00  0.00    -0.339 C  
HETATM   17  C   UNL     1     -11.530  11.980  66.140  1.00  0.00    -0.401 C  
HETATM   18  C   UNL     1     -10.069  13.963  66.766  1.00  0.00    -0.265 C  
HETATM   19  C   UNL     1     -10.191  12.743  65.803  1.00  0.00    -0.302 C  
BRANCH  15  20
HETATM   20  C   UNL     1     -10.910  10.023  70.001  1.00  0.00    -0.352 C  
HETATM   21  C   UNL     1     -10.614   8.919  70.707  1.00  0.00    -0.281 C  
HETATM   22  C   UNL     1     -11.770   8.176  71.364  1.00  0.00    -0.321 C  
HETATM   23  C   UNL     1     -11.787   6.687  71.018  1.00  0.00    -0.372 C  
HETATM   24  C   UNL     1     -10.446   6.037  71.345  1.00  0.00    -0.282 C  
HETATM   25  O   UNL     1     -12.117   6.489  69.643  1.00  0.00    -0.545 OA 
HETATM   26  C   UNL     1      -9.277   6.782  70.692  1.00  0.00    -0.155 C  
HETATM   27  H   UNL     1     -12.128   5.564  69.428  1.00  0.00     0.000 HD 
HETATM   28  C   UNL     1      -9.322   8.278  70.949  1.00  0.00    -0.187 C  
HETATM   29  C   UNL     1      -8.249   8.933  71.445  1.00  0.00    -0.175 C  
ENDBRANCH  15  20
ENDBRANCH   5   6
ENDBRANCH   4   5
TORSDOF 3
ENDMDL
MODEL       22
REMARK 921   NORMALIZED FREE ENERGY PREDICTED BY IDOCK:   -6.47 KCAL/MOL
REMARK 922        TOTAL FREE ENERGY PREDICTED BY IDOCK:   -8.42 KCAL/MOL
REMARK 923 INTER-LIGAND FREE ENERGY PREDICTED BY IDOCK:   -7.19 KCAL/MOL
REMARK 924 INTRA-LIGAND FREE ENERGY PREDICTED BY IDOCK:   -1.23 KCAL/MOL
REMARK 927      BINDING AFFINITY PREDICTED BY RF-SCORE:    0.00 PKD
ROOT
HETATM    1  C   UNL     1      -9.502   3.678  67.191  1.00  0.00    -0.229 C  
HETATM    2  C   UNL     1      -8.477   2.645  67.657  1.00  0.00    -0.104 C  
HETATM    3  C   UNL     1      -7.551   2.278  66.493  1.00  0.00    -0.070 C  
HETATM    4  C   UNL     1      -7.625   3.145  68.837  1.00  0.00    -0.048 C  
ENDROOT
BRANCH   4   5
HETATM    5  C   UNL     1      -8.414   3.425  70.117  1.00  0.00    -0.094 C  
BRANCH   5   6
HETATM    6  C   UNL     1      -8.200   4.882  70.588  1.00  0.00    -0.096 C  
HETATM    7  C   UNL     1      -9.260   5.891  70.057  1.00  0.00    -0.164 C  
HETATM    8  C   UNL     1      -8.920   7.440  70.453  1.00  0.00    -0.150 C  
HETATM    9  C   UNL     1     -10.648   5.368  70.469  1.00  0.00    -0.312 C  
HETATM   10  C   UNL     1      -7.631   7.855  69.738  1.00  0.00    -0.090 C  
HETATM   11  C   UNL     1      -8.084   8.322  68.362  1.00  0.00    -0.127 C  
HETATM   12  C   UNL     1      -9.636   8.437  68.393  1.00  0.00    -0.157 C  
HETATM   13  C   UNL     1     -10.096   9.541  67.442  1.00  0.00    -0.262 C  
HETATM   14  C   UNL     1     -11.269  10.322  67.974  1.00  0.00    -0.303 C  
HETATM   15  C   UNL     1      -9.516   9.778  66.244  1.00  0.00    -0.250 C  
HETATM   16  C   UNL     1     -11.310   8.199  70.600  1.00  0.00    -0.256 C  
HETATM   17  C   UNL     1     -11.067  10.766  69.436  1.00  0.00    -0.324 C  
HETATM   18  C   UNL     1      -9.958   8.536  69.939  1.00  0.00    -0.189 C  
HETATM   19  C   UNL     1      -9.868  10.072  70.191  1.00  0.00    -0.205 C  
BRANCH  15  20
HETATM   20  C   UNL     1     -10.170  10.498  65.165  1.00  0.00    -0.358 C  
HETATM   21  C   UNL     1     -10.472  11.796  64.993  1.00  0.00    -0.332 C  
HETATM   22  C   UNL     1     -10.982  12.221  63.622  1.00  0.00    -0.532 C  
HETATM   23  C   UNL     1     -12.295  13.000  63.697  1.00  0.00    -0.417 C  
HETATM   24  C   UNL     1     -12.168  14.191  64.642  1.00  0.00    -0.465 C  
HETATM   25  O   UNL     1     -13.368  12.149  64.106  1.00  0.00    -0.750 OA 
HETATM   26  C   UNL     1     -11.651  13.772  66.022  1.00  0.00    -0.361 C  
HETATM   27  H   UNL     1     -14.184  12.633  64.153  1.00  0.00     0.000 HD 
HETATM   28  C   UNL     1     -10.404  12.909  65.939  1.00  0.00    -0.297 C  
HETATM   29  C   UNL     1      -9.294  13.218  66.645  1.00  0.00    -0.247 C  
ENDBRANCH  15  20
ENDBRANCH   5   6
ENDBRANCH   4   5
TORSDOF 3
ENDMDL
MODEL       23
REMARK 921   NORMALIZED FREE ENERGY PREDICTED BY IDOCK:   -6.44 KCAL/MOL
REMARK 922        TOTAL FREE ENERGY PREDICTED BY IDOCK:   -8.38 KCAL/MOL
REMARK 923 INTER-LIGAND FREE ENERGY PREDICTED BY IDOCK:   -7.18 KCAL/MOL
REMARK 924 INTRA-LIGAND FREE ENERGY PREDICTED BY IDOCK:   -1.21 KCAL/MOL
REMARK 927      BINDING AFFINITY PREDICTED BY RF-SCORE:    0.00 PKD
ROOT
HETATM    1  C   UNL     1      -8.221  19.400  68.686  1.00  0.00    -0.399 C  
HETATM    2  C   UNL     1      -8.801  19.296  67.276  1.00  0.00    -0.329 C  
HETATM    3  C   UNL     1      -9.063  20.700  66.723  1.00  0.00    -0.221 C  
HETATM    4  C   UNL     1      -7.872  18.541  66.307  1.00  0.00    -0.282 C  
ENDROOT
BRANCH   4   5
HETATM    5  C   UNL     1      -7.630  17.076  66.671  1.00  0.00    -0.298 C  
BRANCH   5   6
HETATM    6  C   UNL     1      -8.882  16.219  66.373  1.00  0.00    -0.346 C  
HETATM    7  C   UNL     1      -9.226  15.179  67.479  1.00  0.00    -0.188 C  
HETATM    8  C   UNL     1     -10.464  14.195  67.066  1.00  0.00    -0.271 C  
HETATM    9  C   UNL     1      -9.373  15.943  68.808  1.00  0.00    -0.220 C  
HETATM   10  C   UNL     1     -10.027  13.334  65.877  1.00  0.00    -0.280 C  
HETATM   11  C   UNL     1      -9.310  12.145  66.502  1.00  0.00    -0.229 C  
HETATM   12  C   UNL     1      -9.583  12.187  68.034  1.00  0.00    -0.204 C  
HETATM   13  C   UNL     1      -9.594  10.767  68.600  1.00  0.00    -0.187 C  
HETATM   14  C   UNL     1     -10.627  10.574  69.680  1.00  0.00    -0.281 C  
HETATM   15  C   UNL     1      -8.754   9.795  68.182  1.00  0.00    -0.119 C  
HETATM   16  C   UNL     1     -11.324  13.868  69.403  1.00  0.00    -0.311 C  
HETATM   17  C   UNL     1     -12.009  11.125  69.277  1.00  0.00    -0.421 C  
HETATM   18  C   UNL     1     -10.872  13.096  68.146  1.00  0.00    -0.271 C  
HETATM   19  C   UNL     1     -12.019  12.050  68.000  1.00  0.00    -0.214 C  
BRANCH  15  20
HETATM   20  C   UNL     1      -8.448   8.608  68.962  1.00  0.00    -0.124 C  
HETATM   21  C   UNL     1      -9.042   7.406  69.056  1.00  0.00    -0.133 C  
HETATM   22  C   UNL     1      -8.309   6.321  69.836  1.00  0.00    -0.129 C  
HETATM   23  C   UNL     1      -9.181   5.677  70.912  1.00  0.00    -0.155 C  
HETATM   24  C   UNL     1     -10.485   5.154  70.315  1.00  0.00    -0.296 C  
HETATM   25  O   UNL     1      -9.450   6.600  71.969  1.00  0.00    -0.150 OA 
HETATM   26  C   UNL     1     -11.225   6.238  69.526  1.00  0.00    -0.500 C  
HETATM   27  H   UNL     1      -9.992   6.199  72.638  1.00  0.00     0.000 HD 
HETATM   28  C   UNL     1     -10.327   6.951  68.530  1.00  0.00    -0.204 C  
HETATM   29  C   UNL     1     -10.683   7.070  67.231  1.00  0.00    -0.412 C  
ENDBRANCH  15  20
ENDBRANCH   5   6
ENDBRANCH   4   5
TORSDOF 3
ENDMDL
MODEL       24
REMARK 921   NORMALIZED FREE ENERGY PREDICTED BY IDOCK:   -6.44 KCAL/MOL
REMARK 922        TOTAL FREE ENERGY PREDICTED BY IDOCK:   -8.38 KCAL/MOL
REMARK 923 INTER-LIGAND FREE ENERGY PREDICTED BY IDOCK:   -7.39 KCAL/MOL
REMARK 924 INTRA-LIGAND FREE ENERGY PREDICTED BY IDOCK:   -0.98 KCAL/MOL
REMARK 927      BINDING AFFINITY PREDICTED BY RF-SCORE:    0.00 PKD
ROOT
HETATM    1  C   UNL     1     -10.024  19.512  68.325  1.00  0.00    -0.533 C  
HETATM    2  C   UNL     1     -10.391  18.737  67.060  1.00  0.00    -0.454 C  
HETATM    3  C   UNL     1     -10.632  19.718  65.908  1.00  0.00    -0.557 C  
HETATM    4  C   UNL     1      -9.302  17.732  66.642  1.00  0.00    -0.296 C  
ENDROOT
BRANCH   4   5
HETATM    5  C   UNL     1      -9.051  16.612  67.652  1.00  0.00    -0.207 C  
BRANCH   5   6
HETATM    6  C   UNL     1      -8.705  15.288  66.931  1.00  0.00    -0.288 C  
HETATM    7  C   UNL     1      -9.563  14.069  67.380  1.00  0.00    -0.227 C  
HETATM    8  C   UNL     1      -9.073  12.663  66.707  1.00  0.00    -0.214 C  
HETATM    9  C   UNL     1     -11.043  14.444  67.183  1.00  0.00    -0.318 C  
HETATM   10  C   UNL     1      -7.671  12.334  67.229  1.00  0.00    -0.161 C  
HETATM   11  C   UNL     1      -7.907  11.605  68.544  1.00  0.00    -0.140 C  
HETATM   12  C   UNL     1      -9.425  11.275  68.630  1.00  0.00    -0.179 C  
HETATM   13  C   UNL     1      -9.634   9.985  69.424  1.00  0.00    -0.237 C  
HETATM   14  C   UNL     1     -10.748   9.133  68.876  1.00  0.00    -0.167 C  
HETATM   15  C   UNL     1      -8.901   9.657  70.511  1.00  0.00    -0.169 C  
HETATM   16  C   UNL     1     -11.348  11.599  66.648  1.00  0.00    -0.338 C  
HETATM   17  C   UNL     1     -10.652   8.948  67.349  1.00  0.00    -0.305 C  
HETATM   18  C   UNL     1      -9.899  11.365  67.123  1.00  0.00    -0.212 C  
HETATM   19  C   UNL     1      -9.641   9.913  66.616  1.00  0.00    -0.235 C  
BRANCH  15  20
HETATM   20  C   UNL     1      -9.335   8.696  71.511  1.00  0.00    -0.319 C  
HETATM   21  C   UNL     1      -9.364   7.352  71.526  1.00  0.00    -0.154 C  
HETATM   22  C   UNL     1      -9.700   6.673  72.847  1.00  0.00    -0.168 C  
HETATM   23  C   UNL     1     -10.835   5.658  72.717  1.00  0.00    -0.261 C  
HETATM   24  C   UNL     1     -10.530   4.638  71.624  1.00  0.00    -0.123 C  
HETATM   25  O   UNL     1     -12.076   6.315  72.456  1.00  0.00    -0.516 OA 
HETATM   26  C   UNL     1     -10.187   5.314  70.293  1.00  0.00    -0.345 C  
HETATM   27  H   UNL     1     -12.782   5.684  72.375  1.00  0.00     0.000 HD 
HETATM   28  C   UNL     1      -9.133   6.397  70.443  1.00  0.00    -0.155 C  
HETATM   29  C   UNL     1      -8.026   6.406  69.668  1.00  0.00    -0.116 C  
ENDBRANCH  15  20
ENDBRANCH   5   6
ENDBRANCH   4   5
TORSDOF 3
ENDMDL
MODEL       25
REMARK 921   NORMALIZED FREE ENERGY PREDICTED BY IDOCK:   -6.40 KCAL/MOL
REMARK 922        TOTAL FREE ENERGY PREDICTED BY IDOCK:   -8.34 KCAL/MOL
REMARK 923 INTER-LIGAND FREE ENERGY PREDICTED BY IDOCK:   -7.37 KCAL/MOL
REMARK 924 INTRA-LIGAND FREE ENERGY PREDICTED BY IDOCK:   -0.96 KCAL/MOL
REMARK 927      BINDING AFFINITY PREDICTED BY RF-SCORE:    0.00 PKD
ROOT
HETATM    1  C   UNL     1     -10.316   5.292  70.126  1.00  0.00    -0.354 C  
HETATM    2  C   UNL     1     -10.795   6.457  70.992  1.00  0.00    -0.314 C  
HETATM    3  C   UNL     1     -11.297   5.925  72.338  1.00  0.00    -0.358 C  
HETATM    4  C   UNL     1      -9.691   7.500  71.246  1.00  0.00    -0.173 C  
ENDROOT
BRANCH   4   5
HETATM    5  C   UNL     1      -9.187   8.211  69.990  1.00  0.00    -0.155 C  
BRANCH   5   6
HETATM    6  C   UNL     1     -10.361   8.845  69.207  1.00  0.00    -0.221 C  
HETATM    7  C   UNL     1      -9.937   9.961  68.208  1.00  0.00    -0.172 C  
HETATM    8  C   UNL     1     -11.212  10.707  67.509  1.00  0.00    -0.326 C  
HETATM    9  C   UNL     1      -8.888   9.359  67.255  1.00  0.00    -0.136 C  
HETATM   10  C   UNL     1     -11.990  11.462  68.591  1.00  0.00    -0.317 C  
HETATM   11  C   UNL     1     -11.286  12.807  68.709  1.00  0.00    -0.332 C  
HETATM   12  C   UNL     1     -10.297  12.924  67.513  1.00  0.00    -0.223 C  
HETATM   13  C   UNL     1     -10.140  14.389  67.108  1.00  0.00    -0.253 C  
HETATM   14  C   UNL     1     -10.015  14.576  65.619  1.00  0.00    -0.376 C  
HETATM   15  C   UNL     1     -10.104  15.405  67.998  1.00  0.00    -0.226 C  
HETATM   16  C   UNL     1     -10.055  11.210  65.336  1.00  0.00    -0.317 C  
HETATM   17  C   UNL     1     -11.089  13.796  64.835  1.00  0.00    -0.364 C  
HETATM   18  C   UNL     1     -10.859  11.869  66.476  1.00  0.00    -0.317 C  
HETATM   19  C   UNL     1     -11.887  12.724  65.672  1.00  0.00    -0.472 C  
BRANCH  15  20
HETATM   20  C   UNL     1      -9.542  16.712  67.703  1.00  0.00    -0.239 C  
HETATM   21  C   UNL     1      -8.276  17.150  67.588  1.00  0.00    -0.194 C  
HETATM   22  C   UNL     1      -8.069  18.564  67.058  1.00  0.00    -0.254 C  
HETATM   23  C   UNL     1      -7.178  19.409  67.966  1.00  0.00    -0.273 C  
HETATM   24  C   UNL     1      -5.848  18.709  68.229  1.00  0.00    -0.201 C  
HETATM   25  O   UNL     1      -7.840  19.703  69.198  1.00  0.00    -0.328 OA 
HETATM   26  C   UNL     1      -6.048  17.285  68.758  1.00  0.00    -0.168 C  
HETATM   27  H   UNL     1      -7.286  20.228  69.762  1.00  0.00     0.000 HD 
HETATM   28  C   UNL     1      -7.018  16.480  67.912  1.00  0.00    -0.155 C  
HETATM   29  C   UNL     1      -6.682  15.260  67.436  1.00  0.00    -0.157 C  
ENDBRANCH  15  20
ENDBRANCH   5   6
ENDBRANCH   4   5
TORSDOF 3
ENDMDL
MODEL       26
REMARK 921   NORMALIZED FREE ENERGY PREDICTED BY IDOCK:   -6.38 KCAL/MOL
REMARK 922        TOTAL FREE ENERGY PREDICTED BY IDOCK:   -8.32 KCAL/MOL
REMARK 923 INTER-LIGAND FREE ENERGY PREDICTED BY IDOCK:   -7.13 KCAL/MOL
REMARK 924 INTRA-LIGAND FREE ENERGY PREDICTED BY IDOCK:   -1.18 KCAL/MOL
REMARK 927      BINDING AFFINITY PREDICTED BY RF-SCORE:    0.00 PKD
ROOT
HETATM    1  C   UNL     1     -10.408   7.004  73.786  1.00  0.00    -0.408 C  
HETATM    2  C   UNL     1     -10.858   6.071  72.663  1.00  0.00    -0.280 C  
HETATM    3  C   UNL     1     -11.119   4.672  73.230  1.00  0.00    -0.403 C  
HETATM    4  C   UNL     1     -12.129   6.569  71.951  1.00  0.00    -0.388 C  
ENDROOT
BRANCH   4   5
HETATM    5  C   UNL     1     -11.969   7.905  71.225  1.00  0.00    -0.321 C  
BRANCH   5   6
HETATM    6  C   UNL     1     -11.143   7.731  69.929  1.00  0.00    -0.142 C  
HETATM    7  C   UNL     1     -10.119   8.873  69.663  1.00  0.00    -0.202 C  
HETATM    8  C   UNL     1      -9.370   8.733  68.217  1.00  0.00    -0.143 C  
HETATM    9  C   UNL     1      -9.207   8.978  70.899  1.00  0.00    -0.320 C  
HETATM   10  C   UNL     1     -10.412   8.912  67.108  1.00  0.00    -0.344 C  
HETATM   11  C   UNL     1     -10.503  10.417  66.899  1.00  0.00    -0.300 C  
HETATM   12  C   UNL     1      -9.325  11.070  67.679  1.00  0.00    -0.162 C  
HETATM   13  C   UNL     1      -8.878  12.349  66.973  1.00  0.00    -0.210 C  
HETATM   14  C   UNL     1      -7.387  12.555  67.019  1.00  0.00     0.013 C  
HETATM   15  C   UNL     1      -9.738  13.210  66.383  1.00  0.00    -0.269 C  
HETATM   16  C   UNL     1      -7.208   9.785  68.944  1.00  0.00    -0.072 C  
HETATM   17  C   UNL     1      -6.605  11.286  66.622  1.00  0.00    -0.135 C  
HETATM   18  C   UNL     1      -8.310   9.871  67.867  1.00  0.00    -0.114 C  
HETATM   19  C   UNL     1      -7.458   9.961  66.564  1.00  0.00    -0.100 C  
BRANCH  15  20
HETATM   20  C   UNL     1      -9.413  14.596  66.095  1.00  0.00    -0.308 C  
HETATM   21  C   UNL     1      -9.373  15.698  66.865  1.00  0.00    -0.252 C  
HETATM   22  C   UNL     1      -8.782  16.961  66.251  1.00  0.00    -0.321 C  
HETATM   23  C   UNL     1      -9.709  18.169  66.382  1.00  0.00    -0.327 C  
HETATM   24  C   UNL     1     -10.113  18.389  67.837  1.00  0.00    -0.384 C  
HETATM   25  O   UNL     1     -10.866  18.014  65.559  1.00  0.00    -0.483 OA 
HETATM   26  C   UNL     1     -10.705  17.122  68.462  1.00  0.00    -0.326 C  
HETATM   27  H   UNL     1     -11.441  18.765  65.640  1.00  0.00     0.000 HD 
HETATM   28  C   UNL     1      -9.832  15.899  68.238  1.00  0.00    -0.217 C  
HETATM   29  C   UNL     1      -9.454  15.114  69.271  1.00  0.00    -0.212 C  
ENDBRANCH  15  20
ENDBRANCH   5   6
ENDBRANCH   4   5
TORSDOF 3
ENDMDL
MODEL       27
REMARK 921   NORMALIZED FREE ENERGY PREDICTED BY IDOCK:   -6.33 KCAL/MOL
REMARK 922        TOTAL FREE ENERGY PREDICTED BY IDOCK:   -8.25 KCAL/MOL
REMARK 923 INTER-LIGAND FREE ENERGY PREDICTED BY IDOCK:   -7.12 KCAL/MOL
REMARK 924 INTRA-LIGAND FREE ENERGY PREDICTED BY IDOCK:   -1.13 KCAL/MOL
REMARK 927      BINDING AFFINITY PREDICTED BY RF-SCORE:    0.00 PKD
ROOT
HETATM    1  C   UNL     1     -10.105   7.054  73.793  1.00  0.00    -0.390 C  
HETATM    2  C   UNL     1     -10.447   6.551  72.391  1.00  0.00    -0.229 C  
HETATM    3  C   UNL     1     -10.499   5.020  72.393  1.00  0.00    -0.275 C  
HETATM    4  C   UNL     1     -11.792   7.098  71.877  1.00  0.00    -0.336 C  
ENDROOT
BRANCH   4   5
HETATM    5  C   UNL     1     -11.835   8.616  71.701  1.00  0.00    -0.389 C  
BRANCH   5   6
HETATM    6  C   UNL     1     -11.625   9.004  70.218  1.00  0.00    -0.082 C  
HETATM    7  C   UNL     1     -10.634  10.184  69.998  1.00  0.00    -0.338 C  
HETATM    8  C   UNL     1     -10.549  10.662  68.437  1.00  0.00    -0.231 C  
HETATM    9  C   UNL     1      -9.302   9.804  70.671  1.00  0.00    -0.029 C  
HETATM   10  C   UNL     1     -11.906  11.245  68.031  1.00  0.00    -0.244 C  
HETATM   11  C   UNL     1     -11.848  12.703  68.465  1.00  0.00    -0.342 C  
HETATM   12  C   UNL     1     -10.375  13.016  68.857  1.00  0.00    -0.067 C  
HETATM   13  C   UNL     1     -10.060  14.484  68.569  1.00  0.00    -0.242 C  
HETATM   14  C   UNL     1      -8.660  14.694  68.055  1.00  0.00    -0.162 C  
HETATM   15  C   UNL     1     -10.945  15.486  68.771  1.00  0.00    -0.270 C  
HETATM   16  C   UNL     1      -8.146  11.388  68.520  1.00  0.00    -0.149 C  
HETATM   17  C   UNL     1      -8.297  13.716  66.919  1.00  0.00    -0.017 C  
HETATM   18  C   UNL     1      -9.558  11.872  68.131  1.00  0.00    -0.195 C  
HETATM   19  C   UNL     1      -9.290  12.505  66.731  1.00  0.00    -0.230 C  
BRANCH  15  20
HETATM   20  C   UNL     1     -10.559  16.878  68.920  1.00  0.00    -0.353 C  
HETATM   21  C   UNL     1     -10.167  17.811  68.035  1.00  0.00    -0.377 C  
HETATM   22  C   UNL     1     -10.039  19.244  68.537  1.00  0.00    -0.513 C  
HETATM   23  C   UNL     1      -8.679  19.862  68.217  1.00  0.00    -0.212 C  
HETATM   24  C   UNL     1      -8.373  19.761  66.725  1.00  0.00    -0.354 C  
HETATM   25  O   UNL     1      -7.645  19.241  68.982  1.00  0.00    -0.352 OA 
HETATM   26  C   UNL     1      -8.504  18.324  66.212  1.00  0.00    -0.216 C  
HETATM   27  H   UNL     1      -6.800  19.625  68.783  1.00  0.00     0.000 HD 
HETATM   28  C   UNL     1      -9.813  17.674  66.623  1.00  0.00    -0.309 C  
HETATM   29  C   UNL     1     -10.618  17.087  65.709  1.00  0.00    -0.218 C  
ENDBRANCH  15  20
ENDBRANCH   5   6
ENDBRANCH   4   5
TORSDOF 3
ENDMDL
MODEL       28
REMARK 921   NORMALIZED FREE ENERGY PREDICTED BY IDOCK:   -6.33 KCAL/MOL
REMARK 922        TOTAL FREE ENERGY PREDICTED BY IDOCK:   -8.25 KCAL/MOL
REMARK 923 INTER-LIGAND FREE ENERGY PREDICTED BY IDOCK:   -7.62 KCAL/MOL
REMARK 924 INTRA-LIGAND FREE ENERGY PREDICTED BY IDOCK:   -0.63 KCAL/MOL
REMARK 927      BINDING AFFINITY PREDICTED BY RF-SCORE:    0.00 PKD
ROOT
HETATM    1  C   UNL     1      -7.549   5.356  64.984  1.00  0.00    -0.080 C  
HETATM    2  C   UNL     1      -7.547   6.322  66.167  1.00  0.00    -0.090 C  
HETATM    3  C   UNL     1      -6.760   5.709  67.330  1.00  0.00    -0.059 C  
HETATM    4  C   UNL     1      -6.936   7.691  65.815  1.00  0.00    -0.060 C  
ENDROOT
BRANCH   4   5
HETATM    5  C   UNL     1      -7.706   8.475  64.752  1.00  0.00    -0.107 C  
BRANCH   5   6
HETATM    6  C   UNL     1      -9.011   9.063  65.339  1.00  0.00    -0.249 C  
HETATM    7  C   UNL     1      -9.400  10.457  64.766  1.00  0.00    -0.301 C  
HETATM    8  C   UNL     1     -10.699  11.113  65.512  1.00  0.00    -0.251 C  
HETATM    9  C   UNL     1      -9.485  10.324  63.235  1.00  0.00    -0.342 C  
HETATM   10  C   UNL     1     -10.328  11.407  66.968  1.00  0.00    -0.258 C  
HETATM   11  C   UNL     1      -9.674  12.781  66.933  1.00  0.00    -0.234 C  
HETATM   12  C   UNL     1      -9.923  13.382  65.518  1.00  0.00    -0.226 C  
HETATM   13  C   UNL     1     -10.011  14.905  65.607  1.00  0.00    -0.389 C  
HETATM   14  C   UNL     1     -11.038  15.490  64.674  1.00  0.00    -0.373 C  
HETATM   15  C   UNL     1      -9.234  15.646  66.429  1.00  0.00    -0.346 C  
HETATM   16  C   UNL     1     -11.546  12.362  63.504  1.00  0.00    -0.577 C  
HETATM   17  C   UNL     1     -12.392  14.755  64.755  1.00  0.00    -0.303 C  
HETATM   18  C   UNL     1     -11.157  12.546  64.985  1.00  0.00    -0.335 C  
HETATM   19  C   UNL     1     -12.364  13.375  65.519  1.00  0.00    -0.528 C  
BRANCH  15  20
HETATM   20  C   UNL     1      -8.987  17.064  66.236  1.00  0.00    -0.282 C  
HETATM   21  C   UNL     1      -8.077  17.906  66.756  1.00  0.00    -0.262 C  
HETATM   22  C   UNL     1      -7.991  19.304  66.156  1.00  0.00    -0.306 C  
HETATM   23  C   UNL     1      -8.080  20.405  67.212  1.00  0.00    -0.338 C  
HETATM   24  C   UNL     1      -7.034  20.199  68.303  1.00  0.00    -0.321 C  
HETATM   25  O   UNL     1      -9.390  20.461  67.778  1.00  0.00    -0.330 OA 
HETATM   26  C   UNL     1      -7.111  18.793  68.908  1.00  0.00    -0.333 C  
HETATM   27  H   UNL     1      -9.445  21.145  68.435  1.00  0.00     0.000 HD 
HETATM   28  C   UNL     1      -7.130  17.703  67.851  1.00  0.00    -0.190 C  
HETATM   29  C   UNL     1      -6.262  16.668  67.901  1.00  0.00    -0.148 C  
ENDBRANCH  15  20
ENDBRANCH   5   6
ENDBRANCH   4   5
TORSDOF 3
ENDMDL
MODEL       29
REMARK 921   NORMALIZED FREE ENERGY PREDICTED BY IDOCK:   -6.32 KCAL/MOL
REMARK 922        TOTAL FREE ENERGY PREDICTED BY IDOCK:   -8.24 KCAL/MOL
REMARK 923 INTER-LIGAND FREE ENERGY PREDICTED BY IDOCK:   -7.26 KCAL/MOL
REMARK 924 INTRA-LIGAND FREE ENERGY PREDICTED BY IDOCK:   -0.98 KCAL/MOL
REMARK 927      BINDING AFFINITY PREDICTED BY RF-SCORE:    0.00 PKD
ROOT
HETATM    1  C   UNL     1      -5.917  21.086  66.135  1.00  0.00    -0.302 C  
HETATM    2  C   UNL     1      -6.432  20.295  64.934  1.00  0.00    -0.335 C  
HETATM    3  C   UNL     1      -6.084  21.039  63.641  1.00  0.00    -0.351 C  
HETATM    4  C   UNL     1      -5.848  18.872  64.865  1.00  0.00    -0.316 C  
ENDROOT
BRANCH   4   5
HETATM    5  C   UNL     1      -6.231  17.971  66.040  1.00  0.00    -0.277 C  
BRANCH   5   6
HETATM    6  C   UNL     1      -7.768  17.850  66.163  1.00  0.00    -0.272 C  
HETATM    7  C   UNL     1      -8.249  16.684  67.075  1.00  0.00    -0.222 C  
HETATM    8  C   UNL     1      -9.872  16.495  67.065  1.00  0.00    -0.259 C  
HETATM    9  C   UNL     1      -7.589  16.869  68.454  1.00  0.00    -0.209 C  
HETATM   10  C   UNL     1     -10.304  16.062  65.661  1.00  0.00    -0.414 C  
HETATM   11  C   UNL     1     -10.143  14.548  65.654  1.00  0.00    -0.384 C  
HETATM   12  C   UNL     1      -9.892  14.097  67.122  1.00  0.00    -0.253 C  
HETATM   13  C   UNL     1     -10.455  12.693  67.340  1.00  0.00    -0.233 C  
HETATM   14  C   UNL     1     -11.072  12.513  68.702  1.00  0.00    -0.305 C  
HETATM   15  C   UNL     1     -10.390  11.716  66.409  1.00  0.00    -0.266 C  
HETATM   16  C   UNL     1     -10.047  15.650  69.424  1.00  0.00    -0.269 C  
HETATM   17  C   UNL     1     -12.031  13.662  69.071  1.00  0.00    -0.392 C  
HETATM   18  C   UNL     1     -10.443  15.314  67.971  1.00  0.00    -0.248 C  
HETATM   19  C   UNL     1     -11.945  14.934  68.142  1.00  0.00    -0.234 C  
BRANCH  15  20
HETATM   20  C   UNL     1     -10.515  10.302  66.720  1.00  0.00    -0.279 C  
HETATM   21  C   UNL     1      -9.670   9.418  67.279  1.00  0.00    -0.215 C  
HETATM   22  C   UNL     1     -10.227   8.047  67.640  1.00  0.00    -0.291 C  
HETATM   23  C   UNL     1      -9.395   6.902  67.065  1.00  0.00    -0.145 C  
HETATM   24  C   UNL     1      -7.931   7.036  67.472  1.00  0.00    -0.113 C  
HETATM   25  O   UNL     1      -9.516   6.850  65.643  1.00  0.00    -0.373 OA 
HETATM   26  C   UNL     1      -7.364   8.414  67.116  1.00  0.00    -0.085 C  
HETATM   27  H   UNL     1      -8.999   6.138  65.286  1.00  0.00     0.000 HD 
HETATM   28  C   UNL     1      -8.249   9.551  67.596  1.00  0.00    -0.121 C  
HETATM   29  C   UNL     1      -7.744  10.563  68.336  1.00  0.00    -0.104 C  
ENDBRANCH  15  20
ENDBRANCH   5   6
ENDBRANCH   4   5
TORSDOF 3
ENDMDL
MODEL       30
REMARK 921   NORMALIZED FREE ENERGY PREDICTED BY IDOCK:   -6.29 KCAL/MOL
REMARK 922        TOTAL FREE ENERGY PREDICTED BY IDOCK:   -8.21 KCAL/MOL
REMARK 923 INTER-LIGAND FREE ENERGY PREDICTED BY IDOCK:   -7.32 KCAL/MOL
REMARK 924 INTRA-LIGAND FREE ENERGY PREDICTED BY IDOCK:   -0.89 KCAL/MOL
REMARK 927      BINDING AFFINITY PREDICTED BY RF-SCORE:    0.00 PKD
ROOT
HETATM    1  C   UNL     1     -14.344  15.411  71.749  1.00  0.00    -0.639 C  
HETATM    2  C   UNL     1     -13.151  14.458  71.822  1.00  0.00    -0.428 C  
HETATM    3  C   UNL     1     -13.582  13.143  72.478  1.00  0.00    -0.595 C  
HETATM    4  C   UNL     1     -12.549  14.154  70.437  1.00  0.00    -0.397 C  
ENDROOT
BRANCH   4   5
HETATM    5  C   UNL     1     -11.958  15.368  69.721  1.00  0.00    -0.381 C  
BRANCH   5   6
HETATM    6  C   UNL     1     -10.713  14.968  68.895  1.00  0.00    -0.240 C  
HETATM    7  C   UNL     1     -10.933  13.748  67.954  1.00  0.00    -0.270 C  
HETATM    8  C   UNL     1      -9.561  13.262  67.209  1.00  0.00    -0.234 C  
HETATM    9  C   UNL     1     -12.129  14.073  67.042  1.00  0.00    -0.455 C  
HETATM   10  C   UNL     1      -8.590  12.735  68.269  1.00  0.00    -0.166 C  
HETATM   11  C   UNL     1      -8.982  11.277  68.465  1.00  0.00    -0.166 C  
HETATM   12  C   UNL     1      -9.978  10.904  67.328  1.00  0.00    -0.216 C  
HETATM   13  C   UNL     1      -9.835   9.424  66.975  1.00  0.00    -0.258 C  
HETATM   14  C   UNL     1      -9.986   9.154  65.501  1.00  0.00     0.095 C  
HETATM   15  C   UNL     1      -9.610   8.460  67.896  1.00  0.00    -0.180 C  
HETATM   16  C   UNL     1     -10.682  12.437  65.118  1.00  0.00    -0.327 C  
HETATM   17  C   UNL     1      -9.142  10.113  64.638  1.00  0.00    -0.268 C  
HETATM   18  C   UNL     1      -9.703  12.011  66.231  1.00  0.00    -0.251 C  
HETATM   19  C   UNL     1      -8.555  11.364  65.399  1.00  0.00     0.155 C  
BRANCH  15  20
HETATM   20  C   UNL     1      -9.891   7.053  67.670  1.00  0.00    -0.180 C  
HETATM   21  C   UNL     1      -9.286   6.116  66.920  1.00  0.00    -0.143 C  
HETATM   22  C   UNL     1      -9.748   4.675  67.092  1.00  0.00    -0.219 C  
HETATM   23  C   UNL     1     -10.116   4.011  65.765  1.00  0.00    -0.099 C  
HETATM   24  C   UNL     1      -8.966   4.115  64.767  1.00  0.00    -0.140 C  
HETATM   25  O   UNL     1     -11.304   4.587  65.221  1.00  0.00    -1.003 OA 
HETATM   26  C   UNL     1      -8.493   5.562  64.592  1.00  0.00    -0.108 C  
HETATM   27  H   UNL     1     -11.533   4.174  64.396  1.00  0.00     0.000 HD 
HETATM   28  C   UNL     1      -8.230   6.254  65.918  1.00  0.00    -0.129 C  
HETATM   29  C   UNL     1      -7.056   6.879  66.158  1.00  0.00    -0.073 C  
ENDBRANCH  15  20
ENDBRANCH   5   6
ENDBRANCH   4   5
TORSDOF 3
ENDMDL
MODEL       31
REMARK 921   NORMALIZED FREE ENERGY PREDICTED BY IDOCK:   -6.27 KCAL/MOL
REMARK 922        TOTAL FREE ENERGY PREDICTED BY IDOCK:   -8.19 KCAL/MOL
REMARK 923 INTER-LIGAND FREE ENERGY PREDICTED BY IDOCK:   -7.07 KCAL/MOL
REMARK 924 INTRA-LIGAND FREE ENERGY PREDICTED BY IDOCK:   -1.12 KCAL/MOL
REMARK 927      BINDING AFFINITY PREDICTED BY RF-SCORE:    0.00 PKD
ROOT
HETATM    1  C   UNL     1      -8.014  19.209  68.480  1.00  0.00    -0.386 C  
HETATM    2  C   UNL     1      -9.486  19.052  68.101  1.00  0.00    -0.387 C  
HETATM    3  C   UNL     1     -10.123  20.434  67.928  1.00  0.00    -0.408 C  
HETATM    4  C   UNL     1      -9.682  18.244  66.805  1.00  0.00    -0.322 C  
ENDROOT
BRANCH   4   5
HETATM    5  C   UNL     1      -9.207  16.793  66.883  1.00  0.00    -0.249 C  
BRANCH   5   6
HETATM    6  C   UNL     1     -10.408  15.819  66.901  1.00  0.00    -0.295 C  
HETATM    7  C   UNL     1     -10.376  14.781  68.061  1.00  0.00    -0.237 C  
HETATM    8  C   UNL     1     -11.580  13.680  67.963  1.00  0.00    -0.368 C  
HETATM    9  C   UNL     1     -10.268  15.563  69.382  1.00  0.00    -0.262 C  
HETATM   10  C   UNL     1     -11.364  12.831  66.707  1.00  0.00    -0.362 C  
HETATM   11  C   UNL     1     -10.410  11.728  67.143  1.00  0.00    -0.242 C  
HETATM   12  C   UNL     1     -10.306  11.784  68.695  1.00  0.00    -0.228 C  
HETATM   13  C   UNL     1     -10.048  10.384  69.251  1.00  0.00    -0.248 C  
HETATM   14  C   UNL     1     -10.767  10.127  70.550  1.00  0.00    -0.295 C  
HETATM   15  C   UNL     1      -9.247   9.481  68.644  1.00  0.00    -0.135 C  
HETATM   16  C   UNL     1     -11.815  13.336  70.440  1.00  0.00    -0.270 C  
HETATM   17  C   UNL     1     -12.251  10.541  70.493  1.00  0.00    -0.435 C  
HETATM   18  C   UNL     1     -11.610  12.576  69.113  1.00  0.00    -0.375 C  
HETATM   19  C   UNL     1     -12.656  11.428  69.253  1.00  0.00     0.246 C  
BRANCH  15  20
HETATM   20  C   UNL     1      -8.651   8.347  69.330  1.00  0.00    -0.129 C  
HETATM   21  C   UNL     1      -9.083   7.094  69.557  1.00  0.00    -0.146 C  
HETATM   22  C   UNL     1      -8.086   6.104  70.144  1.00  0.00    -0.116 C  
HETATM   23  C   UNL     1      -8.618   5.400  71.391  1.00  0.00    -0.130 C  
HETATM   24  C   UNL     1      -9.964   4.739  71.110  1.00  0.00    -0.273 C  
HETATM   25  O   UNL     1      -8.729   6.314  72.483  1.00  0.00    -0.122 OA 
HETATM   26  C   UNL     1     -10.972   5.728  70.514  1.00  0.00    -0.320 C  
HETATM   27  H   UNL     1      -9.060   5.877  73.258  1.00  0.00     0.000 HD 
HETATM   28  C   UNL     1     -10.403   6.504  69.340  1.00  0.00    -0.241 C  
HETATM   29  C   UNL     1     -11.058   6.560  68.159  1.00  0.00    -0.332 C  
ENDBRANCH  15  20
ENDBRANCH   5   6
ENDBRANCH   4   5
TORSDOF 3
ENDMDL
MODEL       32
REMARK 921   NORMALIZED FREE ENERGY PREDICTED BY IDOCK:   -6.22 KCAL/MOL
REMARK 922        TOTAL FREE ENERGY PREDICTED BY IDOCK:   -8.13 KCAL/MOL
REMARK 923 INTER-LIGAND FREE ENERGY PREDICTED BY IDOCK:   -7.01 KCAL/MOL
REMARK 924 INTRA-LIGAND FREE ENERGY PREDICTED BY IDOCK:   -1.12 KCAL/MOL
REMARK 927      BINDING AFFINITY PREDICTED BY RF-SCORE:    0.00 PKD
ROOT
HETATM    1  C   UNL     1     -14.063   8.112  71.651  1.00  0.00    -0.504 C  
HETATM    2  C   UNL     1     -12.868   9.003  71.316  1.00  0.00    -0.296 C  
HETATM    3  C   UNL     1     -13.248  10.472  71.525  1.00  0.00    -0.470 C  
HETATM    4  C   UNL     1     -11.628   8.679  72.169  1.00  0.00    -0.440 C  
ENDROOT
BRANCH   4   5
HETATM    5  C   UNL     1     -11.061   7.275  71.957  1.00  0.00    -0.277 C  
BRANCH   5   6
HETATM    6  C   UNL     1     -10.607   7.079  70.491  1.00  0.00    -0.245 C  
HETATM    7  C   UNL     1      -9.585   8.141  69.989  1.00  0.00    -0.171 C  
HETATM    8  C   UNL     1      -9.242   7.992  68.398  1.00  0.00    -0.135 C  
HETATM    9  C   UNL     1      -8.386   8.126  70.953  1.00  0.00    -0.124 C  
HETATM   10  C   UNL     1     -10.509   8.295  67.594  1.00  0.00    -0.303 C  
HETATM   11  C   UNL     1     -10.515   9.809  67.435  1.00  0.00    -0.319 C  
HETATM   12  C   UNL     1      -9.125  10.334  67.898  1.00  0.00    -0.133 C  
HETATM   13  C   UNL     1      -8.758  11.596  67.119  1.00  0.00    -0.164 C  
HETATM   14  C   UNL     1      -7.291  11.676  66.787  1.00  0.00    -0.083 C  
HETATM   15  C   UNL     1      -9.658  12.546  66.779  1.00  0.00    -0.231 C  
HETATM   16  C   UNL     1      -6.881   8.834  68.565  1.00  0.00    -0.064 C  
HETATM   17  C   UNL     1      -6.752  10.362  66.187  1.00  0.00    -0.117 C  
HETATM   18  C   UNL     1      -8.206   9.049  67.806  1.00  0.00    -0.109 C  
HETATM   19  C   UNL     1      -7.707   9.114  66.330  1.00  0.00    -0.096 C  
BRANCH  15  20
HETATM   20  C   UNL     1      -9.294  13.910  66.436  1.00  0.00    -0.226 C  
HETATM   21  C   UNL     1      -9.452  15.080  67.080  1.00  0.00    -0.240 C  
HETATM   22  C   UNL     1      -8.751  16.300  66.497  1.00  0.00    -0.327 C  
HETATM   23  C   UNL     1      -9.699  17.480  66.286  1.00  0.00    -0.258 C  
HETATM   24  C   UNL     1     -10.439  17.822  67.576  1.00  0.00    -0.376 C  
HETATM   25  O   UNL     1     -10.627  17.205  65.236  1.00  0.00    -0.662 OA 
HETATM   26  C   UNL     1     -11.143  16.598  68.171  1.00  0.00    -0.285 C  
HETATM   27  H   UNL     1     -11.216  17.939  65.105  1.00  0.00     0.000 HD 
HETATM   28  C   UNL     1     -10.225  15.393  68.281  1.00  0.00    -0.229 C  
HETATM   29  C   UNL     1     -10.090  14.723  69.447  1.00  0.00    -0.120 C  
ENDBRANCH  15  20
ENDBRANCH   5   6
ENDBRANCH   4   5
TORSDOF 3
ENDMDL
MODEL       33
REMARK 921   NORMALIZED FREE ENERGY PREDICTED BY IDOCK:   -6.22 KCAL/MOL
REMARK 922        TOTAL FREE ENERGY PREDICTED BY IDOCK:   -8.13 KCAL/MOL
REMARK 923 INTER-LIGAND FREE ENERGY PREDICTED BY IDOCK:   -6.88 KCAL/MOL
REMARK 924 INTRA-LIGAND FREE ENERGY PREDICTED BY IDOCK:   -1.25 KCAL/MOL
REMARK 927      BINDING AFFINITY PREDICTED BY RF-SCORE:    0.00 PKD
ROOT
HETATM    1  C   UNL     1      -8.750   5.499  72.924  1.00  0.00    -0.118 C  
HETATM    2  C   UNL     1      -9.929   4.599  72.556  1.00  0.00    -0.220 C  
HETATM    3  C   UNL     1     -11.207   5.133  73.211  1.00  0.00    -0.389 C  
HETATM    4  C   UNL     1     -10.149   4.501  71.035  1.00  0.00    -0.222 C  
ENDROOT
BRANCH   4   5
HETATM    5  C   UNL     1      -8.993   3.859  70.267  1.00  0.00    -0.163 C  
BRANCH   5   6
HETATM    6  C   UNL     1      -8.999   4.309  68.787  1.00  0.00    -0.158 C  
HETATM    7  C   UNL     1      -8.593   5.795  68.567  1.00  0.00    -0.109 C  
HETATM    8  C   UNL     1      -8.752   6.276  67.012  1.00  0.00    -0.108 C  
HETATM    9  C   UNL     1      -7.209   6.000  69.209  1.00  0.00    -0.074 C  
HETATM   10  C   UNL     1     -10.237   6.244  66.641  1.00  0.00    -0.226 C  
HETATM   11  C   UNL     1     -10.780   7.591  67.096  1.00  0.00    -0.379 C  
HETATM   12  C   UNL     1      -9.562   8.486  67.466  1.00  0.00    -0.194 C  
HETATM   13  C   UNL     1      -9.892   9.954  67.195  1.00  0.00    -0.235 C  
HETATM   14  C   UNL     1      -8.719  10.731  66.659  1.00  0.00    -0.149 C  
HETATM   15  C   UNL     1     -11.109  10.495  67.429  1.00  0.00    -0.322 C  
HETATM   16  C   UNL     1      -6.867   7.935  67.063  1.00  0.00    -0.073 C  
HETATM   17  C   UNL     1      -8.009  10.000  65.501  1.00  0.00    -0.139 C  
HETATM   18  C   UNL     1      -8.360   7.790  66.707  1.00  0.00    -0.125 C  
HETATM   19  C   UNL     1      -8.413   8.487  65.313  1.00  0.00    -0.192 C  
BRANCH  15  20
HETATM   20  C   UNL     1     -11.334  11.921  67.593  1.00  0.00    -0.372 C  
HETATM   21  C   UNL     1     -11.486  12.923  66.710  1.00  0.00    -0.391 C  
HETATM   22  C   UNL     1     -11.916  14.279  67.255  1.00  0.00    -0.439 C  
HETATM   23  C   UNL     1     -10.997  15.414  66.805  1.00  0.00    -0.282 C  
HETATM   24  C   UNL     1     -10.864  15.438  65.286  1.00  0.00    -0.423 C  
HETATM   25  O   UNL     1      -9.711  15.299  67.418  1.00  0.00    -0.208 OA 
HETATM   26  C   UNL     1     -10.436  14.076  64.729  1.00  0.00    -0.445 C  
HETATM   27  H   UNL     1      -9.140  16.005  67.138  1.00  0.00     0.000 HD 
HETATM   28  C   UNL     1     -11.286  12.935  65.261  1.00  0.00    -0.333 C  
HETATM   29  C   UNL     1     -11.873  12.053  64.423  1.00  0.00    -0.395 C  
ENDBRANCH  15  20
ENDBRANCH   5   6
ENDBRANCH   4   5
TORSDOF 3
ENDMDL
MODEL       34
REMARK 921   NORMALIZED FREE ENERGY PREDICTED BY IDOCK:   -6.19 KCAL/MOL
REMARK 922        TOTAL FREE ENERGY PREDICTED BY IDOCK:   -8.08 KCAL/MOL
REMARK 923 INTER-LIGAND FREE ENERGY PREDICTED BY IDOCK:   -6.78 KCAL/MOL
REMARK 924 INTRA-LIGAND FREE ENERGY PREDICTED BY IDOCK:   -1.30 KCAL/MOL
REMARK 927      BINDING AFFINITY PREDICTED BY RF-SCORE:    0.00 PKD
ROOT
HETATM    1  C   UNL     1      -7.866  19.921  66.374  1.00  0.00    -0.335 C  
HETATM    2  C   UNL     1      -7.766  18.581  67.102  1.00  0.00    -0.232 C  
HETATM    3  C   UNL     1      -6.307  18.113  67.118  1.00  0.00    -0.187 C  
HETATM    4  C   UNL     1      -8.286  18.652  68.549  1.00  0.00    -0.369 C  
ENDROOT
BRANCH   4   5
HETATM    5  C   UNL     1      -9.773  18.983  68.674  1.00  0.00    -0.468 C  
BRANCH   5   6
HETATM    6  C   UNL     1     -10.632  17.974  67.876  1.00  0.00    -0.387 C  
HETATM    7  C   UNL     1     -10.565  16.513  68.408  1.00  0.00    -0.323 C  
HETATM    8  C   UNL     1     -11.364  15.451  67.457  1.00  0.00    -0.269 C  
HETATM    9  C   UNL     1     -10.969  16.540  69.894  1.00  0.00    -0.273 C  
HETATM   10  C   UNL     1     -10.653  15.379  66.102  1.00  0.00    -0.321 C  
HETATM   11  C   UNL     1      -9.549  14.350  66.298  1.00  0.00    -0.321 C  
HETATM   12  C   UNL     1      -9.805  13.640  67.659  1.00  0.00    -0.228 C  
HETATM   13  C   UNL     1      -9.296  12.201  67.601  1.00  0.00    -0.187 C  
HETATM   14  C   UNL     1     -10.179  11.235  68.347  1.00  0.00    -0.205 C  
HETATM   15  C   UNL     1      -8.163  11.840  66.958  1.00  0.00    -0.172 C  
HETATM   16  C   UNL     1     -12.027  13.892  69.311  1.00  0.00    -0.402 C  
HETATM   17  C   UNL     1     -11.671  11.412  67.998  1.00  0.00    -0.324 C  
HETATM   18  C   UNL     1     -11.337  13.930  67.933  1.00  0.00    -0.320 C  
HETATM   19  C   UNL     1     -12.026  12.732  67.211  1.00  0.00    -0.345 C  
BRANCH  15  20
HETATM   20  C   UNL     1      -7.441  10.610  67.234  1.00  0.00    -0.099 C  
HETATM   21  C   UNL     1      -7.548   9.364  66.741  1.00  0.00    -0.097 C  
HETATM   22  C   UNL     1      -6.467   8.362  67.126  1.00  0.00    -0.058 C  
HETATM   23  C   UNL     1      -7.040   7.066  67.698  1.00  0.00    -0.085 C  
HETATM   24  C   UNL     1      -8.058   6.453  66.742  1.00  0.00    -0.109 C  
HETATM   25  O   UNL     1      -7.631   7.294  68.979  1.00  0.00    -0.095 OA 
HETATM   26  C   UNL     1      -9.147   7.456  66.347  1.00  0.00    -0.196 C  
HETATM   27  H   UNL     1      -7.987   6.489  69.334  1.00  0.00     0.000 HD 
HETATM   28  C   UNL     1      -8.575   8.783  65.878  1.00  0.00    -0.174 C  
HETATM   29  C   UNL     1      -8.950   9.325  64.699  1.00  0.00    -0.202 C  
ENDBRANCH  15  20
ENDBRANCH   5   6
ENDBRANCH   4   5
TORSDOF 3
ENDMDL
MODEL       35
REMARK 921   NORMALIZED FREE ENERGY PREDICTED BY IDOCK:   -6.13 KCAL/MOL
REMARK 922        TOTAL FREE ENERGY PREDICTED BY IDOCK:   -8.02 KCAL/MOL
REMARK 923 INTER-LIGAND FREE ENERGY PREDICTED BY IDOCK:   -6.85 KCAL/MOL
REMARK 924 INTRA-LIGAND FREE ENERGY PREDICTED BY IDOCK:   -1.17 KCAL/MOL
REMARK 927      BINDING AFFINITY PREDICTED BY RF-SCORE:    0.00 PKD
ROOT
HETATM    1  C   UNL     1      -8.652   4.319  66.921  1.00  0.00    -0.108 C  
HETATM    2  C   UNL     1      -7.207   4.598  67.332  1.00  0.00    -0.073 C  
HETATM    3  C   UNL     1      -6.539   5.497  66.287  1.00  0.00    -0.055 C  
HETATM    4  C   UNL     1      -7.102   5.271  68.713  1.00  0.00    -0.061 C  
ENDROOT
BRANCH   4   5
HETATM    5  C   UNL     1      -7.616   4.420  69.875  1.00  0.00    -0.050 C  
BRANCH   5   6
HETATM    6  C   UNL     1      -8.199   5.313  70.995  1.00  0.00    -0.116 C  
HETATM    7  C   UNL     1      -9.466   6.117  70.580  1.00  0.00    -0.182 C  
HETATM    8  C   UNL     1      -9.968   7.157  71.737  1.00  0.00    -0.186 C  
HETATM    9  C   UNL     1     -10.510   5.109  70.066  1.00  0.00    -0.305 C  
HETATM   10  C   UNL     1      -8.895   8.234  71.923  1.00  0.00    -0.238 C  
HETATM   11  C   UNL     1      -9.211   9.283  70.865  1.00  0.00    -0.300 C  
HETATM   12  C   UNL     1     -10.609   8.943  70.272  1.00  0.00    -0.246 C  
HETATM   13  C   UNL     1     -11.314  10.226  69.831  1.00  0.00    -0.354 C  
HETATM   14  C   UNL     1     -12.797  10.201  70.093  1.00  0.00     0.037 C  
HETATM   15  C   UNL     1     -10.670  11.265  69.254  1.00  0.00    -0.221 C  
HETATM   16  C   UNL     1     -12.409   7.021  71.163  1.00  0.00    -0.423 C  
HETATM   17  C   UNL     1     -13.134   9.733  71.523  1.00  0.00    -0.506 C  
HETATM   18  C   UNL     1     -11.258   8.024  71.384  1.00  0.00    -0.287 C  
HETATM   19  C   UNL     1     -11.939   9.073  72.314  1.00  0.00    -0.332 C  
BRANCH  15  20
HETATM   20  C   UNL     1     -11.337  12.279  68.455  1.00  0.00    -0.332 C  
HETATM   21  C   UNL     1     -11.426  12.476  67.129  1.00  0.00    -0.414 C  
HETATM   22  C   UNL     1     -12.397  13.544  66.642  1.00  0.00    -0.351 C  
HETATM   23  C   UNL     1     -11.741  14.551  65.697  1.00  0.00    -0.335 C  
HETATM   24  C   UNL     1     -11.061  13.840  64.532  1.00  0.00    -0.388 C  
HETATM   25  O   UNL     1     -10.805  15.371  66.399  1.00  0.00    -0.314 OA 
HETATM   26  C   UNL     1     -10.085  12.761  65.013  1.00  0.00    -0.239 C  
HETATM   27  H   UNL     1     -10.398  15.997  65.811  1.00  0.00     0.000 HD 
HETATM   28  C   UNL     1     -10.709  11.825  66.034  1.00  0.00    -0.324 C  
HETATM   29  C   UNL     1     -10.659  10.484  65.872  1.00  0.00    -0.149 C  
ENDBRANCH  15  20
ENDBRANCH   5   6
ENDBRANCH   4   5
TORSDOF 3
ENDMDL
MODEL       36
REMARK 921   NORMALIZED FREE ENERGY PREDICTED BY IDOCK:   -6.12 KCAL/MOL
REMARK 922        TOTAL FREE ENERGY PREDICTED BY IDOCK:   -8.01 KCAL/MOL
REMARK 923 INTER-LIGAND FREE ENERGY PREDICTED BY IDOCK:   -7.42 KCAL/MOL
REMARK 924 INTRA-LIGAND FREE ENERGY PREDICTED BY IDOCK:   -0.60 KCAL/MOL
REMARK 927      BINDING AFFINITY PREDICTED BY RF-SCORE:    0.00 PKD
ROOT
HETATM    1  C   UNL     1     -14.280  15.312  71.408  1.00  0.00    -0.589 C  
HETATM    2  C   UNL     1     -13.050  14.420  71.573  1.00  0.00    -0.411 C  
HETATM    3  C   UNL     1     -13.442  13.136  72.310  1.00  0.00    -0.665 C  
HETATM    4  C   UNL     1     -12.402  14.048  70.227  1.00  0.00    -0.425 C  
ENDROOT
BRANCH   4   5
HETATM    5  C   UNL     1     -11.844  15.235  69.442  1.00  0.00    -0.367 C  
BRANCH   5   6
HETATM    6  C   UNL     1     -10.660  14.797  68.548  1.00  0.00    -0.248 C  
HETATM    7  C   UNL     1     -10.836  13.396  67.893  1.00  0.00    -0.263 C  
HETATM    8  C   UNL     1      -9.508  12.903  67.077  1.00  0.00    -0.235 C  
HETATM    9  C   UNL     1     -12.157  13.413  67.103  1.00  0.00    -0.367 C  
HETATM   10  C   UNL     1      -8.368  12.697  68.078  1.00  0.00    -0.175 C  
HETATM   11  C   UNL     1      -8.557  11.279  68.597  1.00  0.00    -0.139 C  
HETATM   12  C   UNL     1      -9.622  10.589  67.695  1.00  0.00    -0.175 C  
HETATM   13  C   UNL     1      -9.342   9.089  67.612  1.00  0.00    -0.154 C  
HETATM   14  C   UNL     1      -9.624   8.512  66.250  1.00  0.00    -0.306 C  
HETATM   15  C   UNL     1      -8.902   8.358  68.661  1.00  0.00    -0.136 C  
HETATM   16  C   UNL     1     -10.749  11.567  65.349  1.00  0.00    -0.335 C  
HETATM   17  C   UNL     1      -9.003   9.353  65.116  1.00  0.00    -0.258 C  
HETATM   18  C   UNL     1      -9.607  11.472  66.382  1.00  0.00    -0.230 C  
HETATM   19  C   UNL     1      -8.490  10.782  65.541  1.00  0.00    -0.153 C  
BRANCH  15  20
HETATM   20  C   UNL     1      -9.036   6.913  68.745  1.00  0.00    -0.130 C  
HETATM   21  C   UNL     1      -9.716   6.112  69.583  1.00  0.00    -0.181 C  
HETATM   22  C   UNL     1      -9.786   4.631  69.234  1.00  0.00    -0.266 C  
HETATM   23  C   UNL     1      -9.352   3.732  70.391  1.00  0.00    -0.165 C  
HETATM   24  C   UNL     1     -10.147   4.048  71.654  1.00  0.00    -0.183 C  
HETATM   25  O   UNL     1      -7.951   3.861  70.637  1.00  0.00    -0.054 OA 
HETATM   26  C   UNL     1     -10.086   5.538  72.009  1.00  0.00    -0.233 C  
HETATM   27  H   UNL     1      -7.681   3.302  71.356  1.00  0.00     0.000 HD 
HETATM   28  C   UNL     1     -10.414   6.433  70.827  1.00  0.00    -0.270 C  
HETATM   29  C   UNL     1     -11.353   7.400  70.925  1.00  0.00    -0.300 C  
ENDBRANCH  15  20
ENDBRANCH   5   6
ENDBRANCH   4   5
TORSDOF 3
ENDMDL
MODEL       37
REMARK 921   NORMALIZED FREE ENERGY PREDICTED BY IDOCK:   -6.00 KCAL/MOL
REMARK 922        TOTAL FREE ENERGY PREDICTED BY IDOCK:   -7.86 KCAL/MOL
REMARK 923 INTER-LIGAND FREE ENERGY PREDICTED BY IDOCK:   -7.22 KCAL/MOL
REMARK 924 INTRA-LIGAND FREE ENERGY PREDICTED BY IDOCK:   -0.64 KCAL/MOL
REMARK 927      BINDING AFFINITY PREDICTED BY RF-SCORE:    0.00 PKD
ROOT
HETATM    1  C   UNL     1     -12.245  14.982  73.661  1.00  0.00    -0.593 C  
HETATM    2  C   UNL     1     -12.910  15.086  72.289  1.00  0.00    -0.414 C  
HETATM    3  C   UNL     1     -14.306  15.698  72.439  1.00  0.00    -0.420 C  
HETATM    4  C   UNL     1     -12.094  15.937  71.297  1.00  0.00    -0.487 C  
ENDROOT
BRANCH   4   5
HETATM    5  C   UNL     1     -10.718  15.366  70.953  1.00  0.00    -0.156 C  
BRANCH   5   6
HETATM    6  C   UNL     1     -10.400  15.563  69.452  1.00  0.00    -0.258 C  
HETATM    7  C   UNL     1     -10.787  14.354  68.551  1.00  0.00    -0.260 C  
HETATM    8  C   UNL     1     -10.304  14.536  67.000  1.00  0.00    -0.263 C  
HETATM    9  C   UNL     1     -12.283  14.067  68.774  1.00  0.00    -0.237 C  
HETATM   10  C   UNL     1      -8.773  14.544  66.963  1.00  0.00    -0.256 C  
HETATM   11  C   UNL     1      -8.378  13.075  66.897  1.00  0.00    -0.033 C  
HETATM   12  C   UNL     1      -9.671  12.255  66.617  1.00  0.00    -0.229 C  
HETATM   13  C   UNL     1      -9.328  10.999  65.817  1.00  0.00    -0.236 C  
HETATM   14  C   UNL     1     -10.375  10.651  64.792  1.00  0.00    -0.353 C  
HETATM   15  C   UNL     1      -8.207  10.272  66.023  1.00  0.00    -0.141 C  
HETATM   16  C   UNL     1     -12.197  13.232  65.987  1.00  0.00    -0.483 C  
HETATM   17  C   UNL     1     -10.795  11.868  63.943  1.00  0.00    -0.456 C  
HETATM   18  C   UNL     1     -10.658  13.335  66.014  1.00  0.00    -0.292 C  
HETATM   19  C   UNL     1     -10.320  13.268  64.493  1.00  0.00    -0.394 C  
BRANCH  15  20
HETATM   20  C   UNL     1      -8.061   8.888  65.606  1.00  0.00    -0.113 C  
HETATM   21  C   UNL     1      -8.608   7.743  66.050  1.00  0.00    -0.166 C  
HETATM   22  C   UNL     1      -8.372   6.486  65.223  1.00  0.00    -0.121 C  
HETATM   23  C   UNL     1      -7.823   5.327  66.054  1.00  0.00    -0.103 C  
HETATM   24  C   UNL     1      -8.719   5.047  67.257  1.00  0.00    -0.103 C  
HETATM   25  O   UNL     1      -6.485   5.596  66.478  1.00  0.00    -0.047 OA 
HETATM   26  C   UNL     1      -8.964   6.308  68.092  1.00  0.00    -0.115 C  
HETATM   27  H   UNL     1      -6.144   4.876  66.995  1.00  0.00     0.000 HD 
HETATM   28  C   UNL     1      -9.408   7.490  67.247  1.00  0.00    -0.168 C  
HETATM   29  C   UNL     1     -10.521   8.191  67.560  1.00  0.00    -0.326 C  
ENDBRANCH  15  20
ENDBRANCH   5   6
ENDBRANCH   4   5
TORSDOF 3
ENDMDL
MODEL       38
REMARK 921   NORMALIZED FREE ENERGY PREDICTED BY IDOCK:   -5.96 KCAL/MOL
REMARK 922        TOTAL FREE ENERGY PREDICTED BY IDOCK:   -7.81 KCAL/MOL
REMARK 923 INTER-LIGAND FREE ENERGY PREDICTED BY IDOCK:   -6.69 KCAL/MOL
REMARK 924 INTRA-LIGAND FREE ENERGY PREDICTED BY IDOCK:   -1.12 KCAL/MOL
REMARK 927      BINDING AFFINITY PREDICTED BY RF-SCORE:    0.00 PKD
ROOT
HETATM    1  C   UNL     1     -12.911  14.064  65.212  1.00  0.00    -0.418 C  
HETATM    2  C   UNL     1     -11.820  13.042  64.895  1.00  0.00    -0.404 C  
HETATM    3  C   UNL     1     -12.236  12.205  63.681  1.00  0.00    -0.663 C  
HETATM    4  C   UNL     1     -10.457  13.699  64.607  1.00  0.00    -0.442 C  
ENDROOT
BRANCH   4   5
HETATM    5  C   UNL     1      -9.859  14.463  65.789  1.00  0.00    -0.330 C  
BRANCH   5   6
HETATM    6  C   UNL     1     -10.234  13.788  67.128  1.00  0.00    -0.244 C  
HETATM    7  C   UNL     1      -9.495  12.445  67.399  1.00  0.00    -0.186 C  
HETATM    8  C   UNL     1     -10.022  11.688  68.749  1.00  0.00    -0.147 C  
HETATM    9  C   UNL     1      -7.983  12.720  67.315  1.00  0.00    -0.156 C  
HETATM   10  C   UNL     1     -11.479  11.267  68.535  1.00  0.00    -0.372 C  
HETATM   11  C   UNL     1     -11.394   9.920  67.830  1.00  0.00     0.053 C  
HETATM   12  C   UNL     1      -9.912   9.450  67.896  1.00  0.00    -0.220 C  
HETATM   13  C   UNL     1      -9.850   7.923  67.937  1.00  0.00    -0.201 C  
HETATM   14  C   UNL     1      -8.755   7.403  68.830  1.00  0.00    -0.132 C  
HETATM   15  C   UNL     1     -10.685   7.128  67.231  1.00  0.00    -0.399 C  
HETATM   16  C   UNL     1      -7.824  10.614  69.317  1.00  0.00    -0.140 C  
HETATM   17  C   UNL     1      -8.745   8.091  70.210  1.00  0.00    -0.134 C  
HETATM   18  C   UNL     1      -9.317  10.300  69.091  1.00  0.00    -0.214 C  
HETATM   19  C   UNL     1      -9.629   9.392  70.320  1.00  0.00    -0.294 C  
BRANCH  15  20
HETATM   20  C   UNL     1     -10.394   5.741  66.912  1.00  0.00    -0.306 C  
HETATM   21  C   UNL     1      -9.498   5.168  66.090  1.00  0.00    -0.168 C  
HETATM   22  C   UNL     1      -9.343   3.654  66.169  1.00  0.00    -0.181 C  
HETATM   23  C   UNL     1      -9.471   2.977  64.805  1.00  0.00    -0.143 C  
HETATM   24  C   UNL     1      -8.500   3.588  63.800  1.00  0.00    -0.090 C  
HETATM   25  O   UNL     1     -10.812   3.061  64.320  1.00  0.00    -0.455 OA 
HETATM   26  C   UNL     1      -8.647   5.111  63.718  1.00  0.00    -0.084 C  
HETATM   27  H   UNL     1     -10.892   2.640  63.473  1.00  0.00     0.000 HD 
HETATM   28  C   UNL     1      -8.626   5.773  65.085  1.00  0.00    -0.110 C  
HETATM   29  C   UNL     1      -7.787   6.799  65.349  1.00  0.00    -0.115 C  
ENDBRANCH  15  20
ENDBRANCH   5   6
ENDBRANCH   4   5
TORSDOF 3
ENDMDL
MODEL       39
REMARK 921   NORMALIZED FREE ENERGY PREDICTED BY IDOCK:   -5.95 KCAL/MOL
REMARK 922        TOTAL FREE ENERGY PREDICTED BY IDOCK:   -7.80 KCAL/MOL
REMARK 923 INTER-LIGAND FREE ENERGY PREDICTED BY IDOCK:   -6.74 KCAL/MOL
REMARK 924 INTRA-LIGAND FREE ENERGY PREDICTED BY IDOCK:   -1.06 KCAL/MOL
REMARK 927      BINDING AFFINITY PREDICTED BY RF-SCORE:    0.00 PKD
ROOT
HETATM    1  C   UNL     1     -12.422  14.004  70.609  1.00  0.00    -0.435 C  
HETATM    2  C   UNL     1     -12.318  15.492  70.941  1.00  0.00    -0.474 C  
HETATM    3  C   UNL     1     -11.970  15.666  72.422  1.00  0.00    -0.569 C  
HETATM    4  C   UNL     1     -11.260  16.217  70.089  1.00  0.00    -0.374 C  
ENDROOT
BRANCH   4   5
HETATM    5  C   UNL     1     -11.555  16.234  68.589  1.00  0.00    -0.216 C  
BRANCH   5   6
HETATM    6  C   UNL     1     -10.427  15.532  67.798  1.00  0.00    -0.273 C  
HETATM    7  C   UNL     1     -10.772  14.086  67.335  1.00  0.00    -0.285 C  
HETATM    8  C   UNL     1      -9.508  13.323  66.633  1.00  0.00    -0.262 C  
HETATM    9  C   UNL     1     -12.071  14.158  66.513  1.00  0.00    -0.481 C  
HETATM   10  C   UNL     1      -8.415  13.119  67.685  1.00  0.00    -0.194 C  
HETATM   11  C   UNL     1      -8.789  11.820  68.387  1.00  0.00    -0.161 C  
HETATM   12  C   UNL     1      -9.922  11.150  67.557  1.00  0.00    -0.204 C  
HETATM   13  C   UNL     1      -9.835   9.630  67.688  1.00  0.00    -0.202 C  
HETATM   14  C   UNL     1     -10.172   8.909  66.410  1.00  0.00    -0.273 C  
HETATM   15  C   UNL     1      -9.503   9.002  68.839  1.00  0.00    -0.151 C  
HETATM   16  C   UNL     1     -10.889  11.925  65.068  1.00  0.00    -0.351 C  
HETATM   17  C   UNL     1      -9.437   9.500  65.190  1.00  0.00    -0.305 C  
HETATM   18  C   UNL     1      -9.781  11.833  66.137  1.00  0.00    -0.250 C  
HETATM   19  C   UNL     1      -8.750  10.899  65.430  1.00  0.00    -0.162 C  
BRANCH  15  20
HETATM   20  C   UNL     1      -9.820   7.612  69.115  1.00  0.00    -0.171 C  
HETATM   21  C   UNL     1      -9.051   6.532  69.333  1.00  0.00    -0.141 C  
HETATM   22  C   UNL     1      -9.745   5.259  69.799  1.00  0.00    -0.257 C  
HETATM   23  C   UNL     1      -9.393   4.045  68.940  1.00  0.00    -0.164 C  
HETATM   24  C   UNL     1      -7.881   3.860  68.854  1.00  0.00    -0.056 C  
HETATM   25  O   UNL     1      -9.956   4.168  67.633  1.00  0.00    -0.118 OA 
HETATM   26  C   UNL     1      -7.174   5.138  68.390  1.00  0.00    -0.063 C  
HETATM   27  H   UNL     1      -9.737   3.414  67.098  1.00  0.00     0.000 HD 
HETATM   28  C   UNL     1      -7.607   6.362  69.178  1.00  0.00    -0.100 C  
HETATM   29  C   UNL     1      -6.696   7.177  69.754  1.00  0.00    -0.048 C  
ENDBRANCH  15  20
ENDBRANCH   5   6
ENDBRANCH   4   5
TORSDOF 3
ENDMDL
MODEL       40
REMARK 921   NORMALIZED FREE ENERGY PREDICTED BY IDOCK:   -5.93 KCAL/MOL
REMARK 922        TOTAL FREE ENERGY PREDICTED BY IDOCK:   -7.79 KCAL/MOL
REMARK 923 INTER-LIGAND FREE ENERGY PREDICTED BY IDOCK:   -6.58 KCAL/MOL
REMARK 924 INTRA-LIGAND FREE ENERGY PREDICTED BY IDOCK:   -1.21 KCAL/MOL
REMARK 927      BINDING AFFINITY PREDICTED BY RF-SCORE:    0.00 PKD
ROOT
HETATM    1  C   UNL     1      -9.585  17.064  68.511  1.00  0.00    -0.273 C  
HETATM    2  C   UNL     1     -10.211  15.697  68.785  1.00  0.00    -0.215 C  
HETATM    3  C   UNL     1     -10.818  15.682  70.191  1.00  0.00    -0.356 C  
HETATM    4  C   UNL     1     -11.304  15.330  67.764  1.00  0.00    -0.331 C  
ENDROOT
BRANCH   4   5
HETATM    5  C   UNL     1     -10.806  15.181  66.326  1.00  0.00    -0.333 C  
BRANCH   5   6
HETATM    6  C   UNL     1      -9.767  14.040  66.218  1.00  0.00    -0.311 C  
HETATM    7  C   UNL     1     -10.285  12.654  66.700  1.00  0.00    -0.246 C  
HETATM    8  C   UNL     1      -9.121  11.507  66.710  1.00  0.00    -0.184 C  
HETATM    9  C   UNL     1     -11.559  12.329  65.900  1.00  0.00    -0.450 C  
HETATM   10  C   UNL     1      -8.069  11.888  67.756  1.00  0.00    -0.146 C  
HETATM   11  C   UNL     1      -8.607  11.332  69.068  1.00  0.00     0.015 C  
HETATM   12  C   UNL     1      -9.808  10.403  68.725  1.00  0.00    -0.190 C  
HETATM   13  C   UNL     1      -9.911   9.281  69.757  1.00  0.00    -0.202 C  
HETATM   14  C   UNL     1     -10.325   7.965  69.155  1.00  0.00    -0.225 C  
HETATM   15  C   UNL     1      -9.668   9.461  71.075  1.00  0.00    -0.293 C  
HETATM   16  C   UNL     1     -10.652   9.581  66.207  1.00  0.00    -0.018 C  
HETATM   17  C   UNL     1      -9.513   7.614  67.892  1.00  0.00    -0.156 C  
HETATM   18  C   UNL     1      -9.572  10.058  67.199  1.00  0.00    -0.202 C  
HETATM   19  C   UNL     1      -8.660   8.797  67.290  1.00  0.00    -0.122 C  
BRANCH  15  20
HETATM   20  C   UNL     1     -10.157   8.568  72.110  1.00  0.00    -0.393 C  
HETATM   21  C   UNL     1      -9.803   7.324  72.477  1.00  0.00    -0.195 C  
HETATM   22  C   UNL     1     -10.410   6.772  73.761  1.00  0.00    -0.397 C  
HETATM   23  C   UNL     1     -11.065   5.406  73.564  1.00  0.00    -0.216 C  
HETATM   24  C   UNL     1     -10.086   4.418  72.937  1.00  0.00    -0.214 C  
HETATM   25  O   UNL     1     -12.243   5.518  72.763  1.00  0.00    -0.497 OA 
HETATM   26  C   UNL     1      -9.468   4.968  71.647  1.00  0.00    -0.198 C  
HETATM   27  H   UNL     1     -12.651   4.669  72.641  1.00  0.00     0.000 HD 
HETATM   28  C   UNL     1      -8.911   6.370  71.819  1.00  0.00    -0.139 C  
HETATM   29  C   UNL     1      -7.645   6.667  71.454  1.00  0.00    -0.093 C  
ENDBRANCH  15  20
ENDBRANCH   5   6
ENDBRANCH   4   5
TORSDOF 3
ENDMDL
MODEL       41
REMARK 921   NORMALIZED FREE ENERGY PREDICTED BY IDOCK:   -5.90 KCAL/MOL
REMARK 922        TOTAL FREE ENERGY PREDICTED BY IDOCK:   -7.75 KCAL/MOL
REMARK 923 INTER-LIGAND FREE ENERGY PREDICTED BY IDOCK:   -7.07 KCAL/MOL
REMARK 924 INTRA-LIGAND FREE ENERGY PREDICTED BY IDOCK:   -0.68 KCAL/MOL
REMARK 927      BINDING AFFINITY PREDICTED BY RF-SCORE:    0.00 PKD
ROOT
HETATM    1  C   UNL     1      -6.757   7.030  68.908  1.00  0.00    -0.060 C  
HETATM    2  C   UNL     1      -7.447   6.107  67.905  1.00  0.00    -0.085 C  
HETATM    3  C   UNL     1      -7.705   4.744  68.554  1.00  0.00    -0.077 C  
HETATM    4  C   UNL     1      -8.782   6.679  67.393  1.00  0.00    -0.118 C  
ENDROOT
BRANCH   4   5
HETATM    5  C   UNL     1      -8.654   7.983  66.606  1.00  0.00    -0.141 C  
BRANCH   5   6
HETATM    6  C   UNL     1      -9.974   8.787  66.652  1.00  0.00    -0.355 C  
HETATM    7  C   UNL     1      -9.913  10.165  65.931  1.00  0.00    -0.334 C  
HETATM    8  C   UNL     1     -11.275  11.047  66.126  1.00  0.00     0.024 C  
HETATM    9  C   UNL     1      -9.462   9.912  64.481  1.00  0.00    -0.328 C  
HETATM   10  C   UNL     1     -11.411  11.415  67.606  1.00  0.00    -0.348 C  
HETATM   11  C   UNL     1     -10.585  12.683  67.768  1.00  0.00    -0.233 C  
HETATM   12  C   UNL     1     -10.214  13.187  66.342  1.00  0.00    -0.286 C  
HETATM   13  C   UNL     1     -10.092  14.710  66.343  1.00  0.00    -0.288 C  
HETATM   14  C   UNL     1     -10.613  15.341  65.079  1.00  0.00    -0.444 C  
HETATM   15  C   UNL     1      -9.558  15.411  67.368  1.00  0.00    -0.210 C  
HETATM   16  C   UNL     1     -11.142  12.218  63.907  1.00  0.00    -0.475 C  
HETATM   17  C   UNL     1     -12.001  14.801  64.680  1.00  0.00    -0.448 C  
HETATM   18  C   UNL     1     -11.287  12.477  65.421  1.00  0.00    -0.363 C  
HETATM   19  C   UNL     1     -12.463  13.501  65.446  1.00  0.00    -0.540 C  
BRANCH  15  20
HETATM   20  C   UNL     1      -9.043  16.763  67.233  1.00  0.00    -0.228 C  
HETATM   21  C   UNL     1      -7.829  17.298  67.451  1.00  0.00    -0.198 C  
HETATM   22  C   UNL     1      -7.605  18.735  66.999  1.00  0.00    -0.239 C  
HETATM   23  C   UNL     1      -7.047  19.623  68.111  1.00  0.00    -0.292 C  
HETATM   24  C   UNL     1      -5.778  19.018  68.705  1.00  0.00    -0.216 C  
HETATM   25  O   UNL     1      -8.024  19.835  69.131  1.00  0.00    -0.254 OA 
HETATM   26  C   UNL     1      -5.994  17.570  69.158  1.00  0.00    -0.210 C  
HETATM   27  H   UNL     1      -7.677  20.387  69.822  1.00  0.00     0.000 HD 
HETATM   28  C   UNL     1      -6.648  16.715  68.086  1.00  0.00    -0.148 C  
HETATM   29  C   UNL     1      -6.106  15.537  67.708  1.00  0.00    -0.175 C  
ENDBRANCH  15  20
ENDBRANCH   5   6
ENDBRANCH   4   5
TORSDOF 3
ENDMDL
MODEL       42
REMARK 921   NORMALIZED FREE ENERGY PREDICTED BY IDOCK:   -5.89 KCAL/MOL
REMARK 922        TOTAL FREE ENERGY PREDICTED BY IDOCK:   -7.73 KCAL/MOL
REMARK 923 INTER-LIGAND FREE ENERGY PREDICTED BY IDOCK:   -7.04 KCAL/MOL
REMARK 924 INTRA-LIGAND FREE ENERGY PREDICTED BY IDOCK:   -0.69 KCAL/MOL
REMARK 927      BINDING AFFINITY PREDICTED BY RF-SCORE:    0.00 PKD
ROOT
HETATM    1  C   UNL     1      -6.387   8.412  64.978  1.00  0.00    -0.052 C  
HETATM    2  C   UNL     1      -7.603   7.495  64.850  1.00  0.00    -0.100 C  
HETATM    3  C   UNL     1      -7.244   6.093  65.351  1.00  0.00    -0.070 C  
HETATM    4  C   UNL     1      -8.821   8.012  65.636  1.00  0.00    -0.133 C  
ENDROOT
BRANCH   4   5
HETATM    5  C   UNL     1      -9.369   9.354  65.149  1.00  0.00    -0.288 C  
BRANCH   5   6
HETATM    6  C   UNL     1      -9.856  10.215  66.339  1.00  0.00    -0.279 C  
HETATM    7  C   UNL     1     -10.010  11.729  66.014  1.00  0.00    -0.258 C  
HETATM    8  C   UNL     1     -10.384  12.627  67.328  1.00  0.00    -0.230 C  
HETATM    9  C   UNL     1     -10.959  11.853  64.808  1.00  0.00    -0.366 C  
HETATM   10  C   UNL     1      -9.203  12.581  68.302  1.00  0.00    -0.186 C  
HETATM   11  C   UNL     1      -8.267  13.686  67.832  1.00  0.00    -0.171 C  
HETATM   12  C   UNL     1      -9.037  14.533  66.777  1.00  0.00    -0.283 C  
HETATM   13  C   UNL     1      -8.554  15.983  66.819  1.00  0.00    -0.292 C  
HETATM   14  C   UNL     1      -9.663  16.978  66.601  1.00  0.00    -0.287 C  
HETATM   15  C   UNL     1      -7.262  16.328  67.018  1.00  0.00    -0.262 C  
HETATM   16  C   UNL     1     -11.724  14.352  66.087  1.00  0.00    -0.384 C  
HETATM   17  C   UNL     1     -10.901  16.679  67.470  1.00  0.00    -0.221 C  
HETATM   18  C   UNL     1     -10.552  14.193  67.078  1.00  0.00    -0.276 C  
HETATM   19  C   UNL     1     -10.915  15.259  68.156  1.00  0.00    -0.292 C  
BRANCH  15  20
HETATM   20  C   UNL     1      -6.711  17.620  66.646  1.00  0.00    -0.244 C  
HETATM   21  C   UNL     1      -6.085  18.577  67.353  1.00  0.00    -0.177 C  
HETATM   22  C   UNL     1      -5.456  19.725  66.574  1.00  0.00    -0.167 C  
HETATM   23  C   UNL     1      -5.898  21.096  67.083  1.00  0.00    -0.303 C  
HETATM   24  C   UNL     1      -5.643  21.229  68.581  1.00  0.00    -0.236 C  
HETATM   25  O   UNL     1      -7.277  21.326  66.789  1.00  0.00    -0.698 OA 
HETATM   26  C   UNL     1      -6.269  20.075  69.371  1.00  0.00    -0.365 C  
HETATM   27  H   UNL     1      -7.553  22.178  67.105  1.00  0.00     0.000 HD 
HETATM   28  C   UNL     1      -5.913  18.715  68.798  1.00  0.00    -0.219 C  
HETATM   29  C   UNL     1      -5.397  17.742  69.581  1.00  0.00    -0.199 C  
ENDBRANCH  15  20
ENDBRANCH   5   6
ENDBRANCH   4   5
TORSDOF 3
ENDMDL
MODEL       43
REMARK 921   NORMALIZED FREE ENERGY PREDICTED BY IDOCK:   -5.84 KCAL/MOL
REMARK 922        TOTAL FREE ENERGY PREDICTED BY IDOCK:   -7.68 KCAL/MOL
REMARK 923 INTER-LIGAND FREE ENERGY PREDICTED BY IDOCK:   -6.54 KCAL/MOL
REMARK 924 INTRA-LIGAND FREE ENERGY PREDICTED BY IDOCK:   -1.15 KCAL/MOL
REMARK 927      BINDING AFFINITY PREDICTED BY RF-SCORE:    0.00 PKD
ROOT
HETATM    1  C   UNL     1      -9.082  16.031  66.389  1.00  0.00    -0.354 C  
HETATM    2  C   UNL     1      -9.026  14.887  67.401  1.00  0.00    -0.198 C  
HETATM    3  C   UNL     1      -7.579  14.406  67.554  1.00  0.00    -0.212 C  
HETATM    4  C   UNL     1      -9.569  15.291  68.784  1.00  0.00    -0.214 C  
ENDROOT
BRANCH   4   5
HETATM    5  C   UNL     1     -11.050  15.671  68.799  1.00  0.00    -0.307 C  
BRANCH   5   6
HETATM    6  C   UNL     1     -11.941  14.416  68.648  1.00  0.00    -0.332 C  
HETATM    7  C   UNL     1     -11.812  13.394  69.815  1.00  0.00    -0.393 C  
HETATM    8  C   UNL     1     -12.654  12.018  69.552  1.00  0.00     0.317 C  
HETATM    9  C   UNL     1     -12.115  14.142  71.126  1.00  0.00    -0.392 C  
HETATM   10  C   UNL     1     -12.036  11.288  68.356  1.00  0.00    -0.255 C  
HETATM   11  C   UNL     1     -10.902  10.463  68.949  1.00  0.00    -0.273 C  
HETATM   12  C   UNL     1     -11.053  10.505  70.498  1.00  0.00    -0.267 C  
HETATM   13  C   UNL     1     -10.522   9.208  71.108  1.00  0.00    -0.385 C  
HETATM   14  C   UNL     1     -11.335   8.738  72.286  1.00  0.00    -0.356 C  
HETATM   15  C   UNL     1      -9.429   8.562  70.644  1.00  0.00    -0.203 C  
HETATM   16  C   UNL     1     -13.162  11.561  71.970  1.00  0.00    -0.443 C  
HETATM   17  C   UNL     1     -12.849   8.749  71.998  1.00  0.00    -0.442 C  
HETATM   18  C   UNL     1     -12.567  10.916  70.701  1.00  0.00    -0.435 C  
HETATM   19  C   UNL     1     -13.282   9.530  70.698  1.00  0.00     0.099 C  
BRANCH  15  20
HETATM   20  C   UNL     1      -8.667   7.607  71.430  1.00  0.00    -0.132 C  
HETATM   21  C   UNL     1      -8.710   6.267  71.521  1.00  0.00    -0.134 C  
HETATM   22  C   UNL     1      -7.602   5.582  72.310  1.00  0.00    -0.101 C  
HETATM   23  C   UNL     1      -8.141   4.630  73.378  1.00  0.00    -0.099 C  
HETATM   24  C   UNL     1      -9.103   3.616  72.768  1.00  0.00    -0.119 C  
HETATM   25  O   UNL     1      -8.779   5.357  74.430  1.00  0.00    -0.117 OA 
HETATM   26  C   UNL     1     -10.218   4.298  71.968  1.00  0.00    -0.220 C  
HETATM   27  H   UNL     1      -9.114   4.766  75.094  1.00  0.00     0.000 HD 
HETATM   28  C   UNL     1      -9.686   5.322  70.981  1.00  0.00    -0.242 C  
HETATM   29  C   UNL     1     -10.045   5.286  69.679  1.00  0.00    -0.327 C  
ENDBRANCH  15  20
ENDBRANCH   5   6
ENDBRANCH   4   5
TORSDOF 3
ENDMDL
MODEL       44
REMARK 921   NORMALIZED FREE ENERGY PREDICTED BY IDOCK:   -5.83 KCAL/MOL
REMARK 922        TOTAL FREE ENERGY PREDICTED BY IDOCK:   -7.67 KCAL/MOL
REMARK 923 INTER-LIGAND FREE ENERGY PREDICTED BY IDOCK:   -6.64 KCAL/MOL
REMARK 924 INTRA-LIGAND FREE ENERGY PREDICTED BY IDOCK:   -1.03 KCAL/MOL
REMARK 927      BINDING AFFINITY PREDICTED BY RF-SCORE:    0.00 PKD
ROOT
HETATM    1  C   UNL     1     -10.557   5.639  73.706  1.00  0.00    -0.303 C  
HETATM    2  C   UNL     1      -9.734   5.248  72.479  1.00  0.00    -0.176 C  
HETATM    3  C   UNL     1      -9.025   3.916  72.738  1.00  0.00    -0.118 C  
HETATM    4  C   UNL     1     -10.592   5.120  71.206  1.00  0.00    -0.203 C  
ENDROOT
BRANCH   4   5
HETATM    5  C   UNL     1     -11.258   6.421  70.756  1.00  0.00    -0.386 C  
BRANCH   5   6
HETATM    6  C   UNL     1     -10.662   6.908  69.415  1.00  0.00    -0.275 C  
HETATM    7  C   UNL     1      -9.882   8.252  69.510  1.00  0.00    -0.181 C  
HETATM    8  C   UNL     1      -9.393   8.810  68.054  1.00  0.00    -0.153 C  
HETATM    9  C   UNL     1      -8.788   8.080  70.580  1.00  0.00    -0.143 C  
HETATM   10  C   UNL     1     -10.632   9.165  67.226  1.00  0.00    -0.303 C  
HETATM   11  C   UNL     1     -10.979  10.589  67.638  1.00  0.00    -0.375 C  
HETATM   12  C   UNL     1      -9.789  11.136  68.479  1.00  0.00    -0.199 C  
HETATM   13  C   UNL     1      -9.669  12.648  68.290  1.00  0.00    -0.216 C  
HETATM   14  C   UNL     1      -8.241  13.124  68.251  1.00  0.00    -0.154 C  
HETATM   15  C   UNL     1     -10.738  13.469  68.185  1.00  0.00    -0.265 C  
HETATM   16  C   UNL     1      -7.314   9.940  68.896  1.00  0.00    -0.078 C  
HETATM   17  C   UNL     1      -7.366  12.279  67.303  1.00  0.00    -0.140 C  
HETATM   18  C   UNL     1      -8.591  10.188  68.068  1.00  0.00    -0.118 C  
HETATM   19  C   UNL     1      -8.011  10.923  66.821  1.00  0.00    -0.143 C  
BRANCH  15  20
HETATM   20  C   UNL     1     -10.678  14.900  68.433  1.00  0.00    -0.245 C  
HETATM   21  C   UNL     1     -10.361  15.944  67.649  1.00  0.00    -0.281 C  
HETATM   22  C   UNL     1     -10.612  17.340  68.206  1.00  0.00    -0.383 C  
HETATM   23  C   UNL     1      -9.378  18.238  68.122  1.00  0.00    -0.296 C  
HETATM   24  C   UNL     1      -8.839  18.292  66.696  1.00  0.00    -0.294 C  
HETATM   25  O   UNL     1      -8.364  17.793  69.024  1.00  0.00    -0.173 OA 
HETATM   26  C   UNL     1      -8.589  16.892  66.127  1.00  0.00    -0.277 C  
HETATM   27  H   UNL     1      -7.597  18.351  68.972  1.00  0.00     0.000 HD 
HETATM   28  C   UNL     1      -9.781  15.968  66.307  1.00  0.00    -0.332 C  
HETATM   29  C   UNL     1     -10.300  15.287  65.261  1.00  0.00    -0.430 C  
ENDBRANCH  15  20
ENDBRANCH   5   6
ENDBRANCH   4   5
TORSDOF 3
ENDMDL
MODEL       45
REMARK 921   NORMALIZED FREE ENERGY PREDICTED BY IDOCK:   -5.77 KCAL/MOL
REMARK 922        TOTAL FREE ENERGY PREDICTED BY IDOCK:   -7.59 KCAL/MOL
REMARK 923 INTER-LIGAND FREE ENERGY PREDICTED BY IDOCK:   -6.95 KCAL/MOL
REMARK 924 INTRA-LIGAND FREE ENERGY PREDICTED BY IDOCK:   -0.64 KCAL/MOL
REMARK 927      BINDING AFFINITY PREDICTED BY RF-SCORE:    0.00 PKD
ROOT
HETATM    1  C   UNL     1      -7.948   3.812  63.812  1.00  0.00    -0.088 C  
HETATM    2  C   UNL     1      -7.023   4.891  64.373  1.00  0.00    -0.049 C  
HETATM    3  C   UNL     1      -5.741   4.955  63.538  1.00  0.00    -0.017 C  
HETATM    4  C   UNL     1      -7.680   6.283  64.393  1.00  0.00    -0.107 C  
ENDROOT
BRANCH   4   5
HETATM    5  C   UNL     1      -8.905   6.396  65.300  1.00  0.00     0.086 C  
BRANCH   5   6
HETATM    6  C   UNL     1      -8.483   6.506  66.784  1.00  0.00    -0.113 C  
HETATM    7  C   UNL     1      -9.649   6.837  67.760  1.00  0.00    -0.133 C  
HETATM    8  C   UNL     1      -9.144   7.090  69.294  1.00  0.00    -0.137 C  
HETATM    9  C   UNL     1     -10.738   5.766  67.565  1.00  0.00    -0.320 C  
HETATM   10  C   UNL     1      -8.276   8.351  69.321  1.00  0.00    -0.116 C  
HETATM   11  C   UNL     1      -9.264   9.500  69.472  1.00  0.00    -0.198 C  
HETATM   12  C   UNL     1     -10.652   8.881  69.811  1.00  0.00    -0.230 C  
HETATM   13  C   UNL     1     -11.454   9.846  70.684  1.00  0.00    -0.411 C  
HETATM   14  C   UNL     1     -12.273   9.145  71.735  1.00  0.00    -0.442 C  
HETATM   15  C   UNL     1     -11.436  11.188  70.515  1.00  0.00    -0.162 C  
HETATM   16  C   UNL     1     -11.229   6.225  70.397  1.00  0.00    -0.439 C  
HETATM   17  C   UNL     1     -11.458   8.092  72.511  1.00  0.00    -0.470 C  
HETATM   18  C   UNL     1     -10.282   7.442  70.354  1.00  0.00    -0.201 C  
HETATM   19  C   UNL     1     -10.065   7.716  71.874  1.00  0.00    -0.218 C  
BRANCH  15  20
HETATM   20  C   UNL     1     -12.475  12.073  71.015  1.00  0.00    -0.376 C  
HETATM   21  C   UNL     1     -12.633  13.406  70.961  1.00  0.00    -0.425 C  
HETATM   22  C   UNL     1     -13.970  13.972  71.423  1.00  0.00    -0.220 C  
HETATM   23  C   UNL     1     -13.814  15.079  72.465  1.00  0.00    -0.469 C  
HETATM   24  C   UNL     1     -12.885  16.178  71.958  1.00  0.00    -0.196 C  
HETATM   25  O   UNL     1     -13.332  14.548  73.701  1.00  0.00    -0.369 OA 
HETATM   26  C   UNL     1     -11.540  15.616  71.487  1.00  0.00    -0.507 C  
HETATM   27  H   UNL     1     -13.234  15.235  74.349  1.00  0.00     0.000 HD 
HETATM   28  C   UNL     1     -11.699  14.445  70.532  1.00  0.00    -0.328 C  
HETATM   29  C   UNL     1     -11.069  14.431  69.337  1.00  0.00    -0.294 C  
ENDBRANCH  15  20
ENDBRANCH   5   6
ENDBRANCH   4   5
TORSDOF 3
ENDMDL
MODEL       46
REMARK 921   NORMALIZED FREE ENERGY PREDICTED BY IDOCK:   -5.72 KCAL/MOL
REMARK 922        TOTAL FREE ENERGY PREDICTED BY IDOCK:   -7.53 KCAL/MOL
REMARK 923 INTER-LIGAND FREE ENERGY PREDICTED BY IDOCK:   -6.34 KCAL/MOL
REMARK 924 INTRA-LIGAND FREE ENERGY PREDICTED BY IDOCK:   -1.19 KCAL/MOL
REMARK 927      BINDING AFFINITY PREDICTED BY RF-SCORE:    0.00 PKD
ROOT
HETATM    1  C   UNL     1     -10.493  17.551  67.654  1.00  0.00    -0.370 C  
HETATM    2  C   UNL     1      -9.451  17.481  66.538  1.00  0.00    -0.285 C  
HETATM    3  C   UNL     1      -8.069  17.824  67.103  1.00  0.00    -0.229 C  
HETATM    4  C   UNL     1      -9.390  16.095  65.870  1.00  0.00    -0.316 C  
ENDROOT
BRANCH   4   5
HETATM    5  C   UNL     1     -10.673  15.681  65.148  1.00  0.00    -0.463 C  
BRANCH   5   6
HETATM    6  C   UNL     1     -10.775  14.141  65.047  1.00  0.00    -0.429 C  
HETATM    7  C   UNL     1     -10.756  13.405  66.418  1.00  0.00    -0.289 C  
HETATM    8  C   UNL     1     -10.717  11.778  66.268  1.00  0.00    -0.312 C  
HETATM    9  C   UNL     1     -11.895  13.987  67.275  1.00  0.00    -0.445 C  
HETATM   10  C   UNL     1      -9.388  11.379  65.621  1.00  0.00    -0.242 C  
HETATM   11  C   UNL     1      -8.405  11.280  66.779  1.00  0.00    -0.156 C  
HETATM   12  C   UNL     1      -9.230  11.346  68.098  1.00  0.00    -0.178 C  
HETATM   13  C   UNL     1      -8.530  10.538  69.191  1.00  0.00    -0.152 C  
HETATM   14  C   UNL     1      -9.494   9.804  70.087  1.00  0.00    -0.277 C  
HETATM   15  C   UNL     1      -7.187  10.501  69.341  1.00  0.00    -0.117 C  
HETATM   16  C   UNL     1     -11.996  11.294  68.375  1.00  0.00    -0.255 C  
HETATM   17  C   UNL     1     -10.565   9.031  69.291  1.00  0.00    -0.226 C  
HETATM   18  C   UNL     1     -10.689  10.952  67.631  1.00  0.00    -0.288 C  
HETATM   19  C   UNL     1     -10.661   9.398  67.760  1.00  0.00    -0.317 C  
BRANCH  15  20
HETATM   20  C   UNL     1      -6.529  10.116  70.578  1.00  0.00    -0.116 C  
HETATM   21  C   UNL     1      -6.348   8.926  71.177  1.00  0.00    -0.060 C  
HETATM   22  C   UNL     1      -5.416   8.883  72.382  1.00  0.00    -0.062 C  
HETATM   23  C   UNL     1      -6.060   8.227  73.602  1.00  0.00    -0.106 C  
HETATM   24  C   UNL     1      -6.594   6.840  73.257  1.00  0.00    -0.064 C  
HETATM   25  O   UNL     1      -7.104   9.048  74.128  1.00  0.00    -0.392 OA 
HETATM   26  C   UNL     1      -7.529   6.875  72.043  1.00  0.00    -0.092 C  
HETATM   27  H   UNL     1      -7.505   8.640  74.887  1.00  0.00     0.000 HD 
HETATM   28  C   UNL     1      -6.927   7.621  70.865  1.00  0.00    -0.053 C  
HETATM   29  C   UNL     1      -6.871   7.057  69.638  1.00  0.00    -0.050 C  
ENDBRANCH  15  20
ENDBRANCH   5   6
ENDBRANCH   4   5
TORSDOF 3
ENDMDL
MODEL       47
REMARK 921   NORMALIZED FREE ENERGY PREDICTED BY IDOCK:   -5.71 KCAL/MOL
REMARK 922        TOTAL FREE ENERGY PREDICTED BY IDOCK:   -7.53 KCAL/MOL
REMARK 923 INTER-LIGAND FREE ENERGY PREDICTED BY IDOCK:   -6.81 KCAL/MOL
REMARK 924 INTRA-LIGAND FREE ENERGY PREDICTED BY IDOCK:   -0.72 KCAL/MOL
REMARK 927      BINDING AFFINITY PREDICTED BY RF-SCORE:    0.00 PKD
ROOT
HETATM    1  C   UNL     1     -12.806  10.477  71.280  1.00  0.00    -0.532 C  
HETATM    2  C   UNL     1     -12.818   9.139  72.017  1.00  0.00    -0.483 C  
HETATM    3  C   UNL     1     -14.236   8.562  72.013  1.00  0.00    -0.535 C  
HETATM    4  C   UNL     1     -11.856   8.110  71.394  1.00  0.00    -0.329 C  
ENDROOT
BRANCH   4   5
HETATM    5  C   UNL     1     -10.380   8.504  71.451  1.00  0.00    -0.307 C  
BRANCH   5   6
HETATM    6  C   UNL     1      -9.790   8.636  70.027  1.00  0.00    -0.185 C  
HETATM    7  C   UNL     1      -8.707   9.744  69.883  1.00  0.00    -0.238 C  
HETATM    8  C   UNL     1      -8.213   9.955  68.339  1.00  0.00    -0.106 C  
HETATM    9  C   UNL     1      -7.606   9.459  70.921  1.00  0.00    -0.097 C  
HETATM   10  C   UNL     1      -9.391  10.486  67.517  1.00  0.00    -0.162 C  
HETATM   11  C   UNL     1      -9.356  11.995  67.718  1.00  0.00    -0.190 C  
HETATM   12  C   UNL     1      -8.008  12.343  68.415  1.00  0.00    -0.149 C  
HETATM   13  C   UNL     1      -7.546  13.736  67.990  1.00  0.00    -0.145 C  
HETATM   14  C   UNL     1      -6.053  13.833  67.820  1.00  0.00    -0.140 C  
HETATM   15  C   UNL     1      -8.392  14.773  67.803  1.00  0.00    -0.166 C  
HETATM   16  C   UNL     1      -5.865  10.641  68.911  1.00  0.00    -0.040 C  
HETATM   17  C   UNL     1      -5.480  12.673  66.980  1.00  0.00     0.213 C  
HETATM   18  C   UNL     1      -7.107  11.079  68.107  1.00  0.00    -0.074 C  
HETATM   19  C   UNL     1      -6.466  11.466  66.739  1.00  0.00    -0.140 C  
BRANCH  15  20
HETATM   20  C   UNL     1      -7.974  16.164  67.825  1.00  0.00    -0.155 C  
HETATM   21  C   UNL     1      -8.609  17.297  68.172  1.00  0.00    -0.242 C  
HETATM   22  C   UNL     1      -7.774  18.568  68.262  1.00  0.00    -0.313 C  
HETATM   23  C   UNL     1      -8.363  19.720  67.447  1.00  0.00    -0.309 C  
HETATM   24  C   UNL     1      -9.816  19.974  67.836  1.00  0.00    -0.538 C  
HETATM   25  O   UNL     1      -8.258  19.456  66.047  1.00  0.00    -0.373 OA 
HETATM   26  C   UNL     1     -10.661  18.699  67.752  1.00  0.00    -0.433 C  
HETATM   27  H   UNL     1      -8.624  20.171  65.541  1.00  0.00     0.000 HD 
HETATM   28  C   UNL     1     -10.020  17.526  68.474  1.00  0.00    -0.344 C  
HETATM   29  C   UNL     1     -10.710  16.811  69.390  1.00  0.00    -0.300 C  
ENDBRANCH  15  20
ENDBRANCH   5   6
ENDBRANCH   4   5
TORSDOF 3
ENDMDL
MODEL       48
REMARK 921   NORMALIZED FREE ENERGY PREDICTED BY IDOCK:   -5.71 KCAL/MOL
REMARK 922        TOTAL FREE ENERGY PREDICTED BY IDOCK:   -7.53 KCAL/MOL
REMARK 923 INTER-LIGAND FREE ENERGY PREDICTED BY IDOCK:   -6.45 KCAL/MOL
REMARK 924 INTRA-LIGAND FREE ENERGY PREDICTED BY IDOCK:   -1.08 KCAL/MOL
REMARK 927      BINDING AFFINITY PREDICTED BY RF-SCORE:    0.00 PKD
ROOT
HETATM    1  C   UNL     1      -6.930  20.119  66.613  1.00  0.00    -0.267 C  
HETATM    2  C   UNL     1      -6.820  18.623  66.904  1.00  0.00    -0.211 C  
HETATM    3  C   UNL     1      -5.353  18.190  66.825  1.00  0.00    -0.163 C  
HETATM    4  C   UNL     1      -7.380  18.245  68.288  1.00  0.00    -0.277 C  
ENDROOT
BRANCH   4   5
HETATM    5  C   UNL     1      -8.877  18.504  68.460  1.00  0.00    -0.351 C  
BRANCH   5   6
HETATM    6  C   UNL     1      -9.708  17.521  67.602  1.00  0.00    -0.275 C  
HETATM    7  C   UNL     1     -10.044  16.177  68.312  1.00  0.00    -0.232 C  
HETATM    8  C   UNL     1     -10.794  15.108  67.329  1.00  0.00    -0.316 C  
HETATM    9  C   UNL     1     -10.762  16.514  69.632  1.00  0.00    -0.323 C  
HETATM   10  C   UNL     1      -9.821  14.701  66.218  1.00  0.00    -0.320 C  
HETATM   11  C   UNL     1      -9.007  13.561  66.812  1.00  0.00    -0.188 C  
HETATM   12  C   UNL     1      -9.696  13.137  68.142  1.00  0.00    -0.228 C  
HETATM   13  C   UNL     1      -9.471  11.647  68.394  1.00  0.00    -0.193 C  
HETATM   14  C   UNL     1     -10.668  10.967  69.007  1.00  0.00    -0.258 C  
HETATM   15  C   UNL     1      -8.312  11.013  68.109  1.00  0.00    -0.130 C  
HETATM   16  C   UNL     1     -12.145  14.002  69.135  1.00  0.00    -0.375 C  
HETATM   17  C   UNL     1     -11.979  11.312  68.273  1.00  0.00    -0.215 C  
HETATM   18  C   UNL     1     -11.166  13.702  67.982  1.00  0.00    -0.295 C  
HETATM   19  C   UNL     1     -11.889  12.521  67.264  1.00  0.00    -0.381 C  
BRANCH  15  20
HETATM   20  C   UNL     1      -7.919   9.750  68.709  1.00  0.00    -0.087 C  
HETATM   21  C   UNL     1      -8.343   8.487  68.527  1.00  0.00    -0.123 C  
HETATM   22  C   UNL     1      -7.544   7.376  69.195  1.00  0.00    -0.105 C  
HETATM   23  C   UNL     1      -8.418   6.444  70.034  1.00  0.00    -0.135 C  
HETATM   24  C   UNL     1      -9.570   5.885  69.205  1.00  0.00    -0.166 C  
HETATM   25  O   UNL     1      -8.915   7.119  71.191  1.00  0.00    -0.144 OA 
HETATM   26  C   UNL     1     -10.376   6.997  68.526  1.00  0.00    -0.204 C  
HETATM   27  H   UNL     1      -9.458   6.540  71.712  1.00  0.00     0.000 HD 
HETATM   28  C   UNL     1      -9.495   7.984  67.780  1.00  0.00    -0.166 C  
HETATM   29  C   UNL     1      -9.736   8.295  66.487  1.00  0.00    -0.323 C  
ENDBRANCH  15  20
ENDBRANCH   5   6
ENDBRANCH   4   5
TORSDOF 3
ENDMDL
MODEL       49
REMARK 921   NORMALIZED FREE ENERGY PREDICTED BY IDOCK:   -5.67 KCAL/MOL
REMARK 922        TOTAL FREE ENERGY PREDICTED BY IDOCK:   -7.48 KCAL/MOL
REMARK 923 INTER-LIGAND FREE ENERGY PREDICTED BY IDOCK:   -6.83 KCAL/MOL
REMARK 924 INTRA-LIGAND FREE ENERGY PREDICTED BY IDOCK:   -0.66 KCAL/MOL
REMARK 927      BINDING AFFINITY PREDICTED BY RF-SCORE:    0.00 PKD
ROOT
HETATM    1  C   UNL     1     -10.232  19.616  68.171  1.00  0.00    -0.580 C  
HETATM    2  C   UNL     1     -10.477  18.783  66.914  1.00  0.00    -0.472 C  
HETATM    3  C   UNL     1     -10.658  19.711  65.709  1.00  0.00    -0.537 C  
HETATM    4  C   UNL     1      -9.328  17.800  66.621  1.00  0.00    -0.296 C  
ENDROOT
BRANCH   4   5
HETATM    5  C   UNL     1      -9.121  16.728  67.692  1.00  0.00    -0.218 C  
BRANCH   5   6
HETATM    6  C   UNL     1      -8.610  15.411  67.061  1.00  0.00    -0.262 C  
HETATM    7  C   UNL     1      -9.510  14.173  67.344  1.00  0.00    -0.220 C  
HETATM    8  C   UNL     1      -8.866  12.777  66.788  1.00  0.00    -0.161 C  
HETATM    9  C   UNL     1     -10.932  14.511  66.862  1.00  0.00    -0.316 C  
HETATM   10  C   UNL     1      -7.584  12.484  67.573  1.00  0.00    -0.156 C  
HETATM   11  C   UNL     1      -8.053  11.753  68.823  1.00  0.00    -0.047 C  
HETATM   12  C   UNL     1      -9.552  11.386  68.617  1.00  0.00    -0.179 C  
HETATM   13  C   UNL     1      -9.879  10.094  69.364  1.00  0.00    -0.247 C  
HETATM   14  C   UNL     1     -10.847   9.213  68.618  1.00  0.00    -0.092 C  
HETATM   15  C   UNL     1      -9.363   9.786  70.575  1.00  0.00    -0.117 C  
HETATM   16  C   UNL     1     -11.062  11.659  66.298  1.00  0.00    -0.345 C  
HETATM   17  C   UNL     1     -10.452   9.027  67.139  1.00  0.00    -0.333 C  
HETATM   18  C   UNL     1      -9.727  11.461  67.046  1.00  0.00    -0.210 C  
HETATM   19  C   UNL     1      -9.342  10.014  66.609  1.00  0.00    -0.202 C  
BRANCH  15  20
HETATM   20  C   UNL     1      -9.960   8.817  71.479  1.00  0.00    -0.370 C  
HETATM   21  C   UNL     1      -9.428   7.898  72.303  1.00  0.00    -0.248 C  
HETATM   22  C   UNL     1     -10.373   7.189  73.265  1.00  0.00    -0.369 C  
HETATM   23  C   UNL     1     -10.262   5.667  73.187  1.00  0.00    -0.191 C  
HETATM   24  C   UNL     1      -8.818   5.215  73.385  1.00  0.00    -0.113 C  
HETATM   25  O   UNL     1     -10.771   5.184  71.943  1.00  0.00    -0.213 OA 
HETATM   26  C   UNL     1      -7.861   5.927  72.424  1.00  0.00    -0.102 C  
HETATM   27  H   UNL     1     -10.702   4.238  71.894  1.00  0.00     0.000 HD 
HETATM   28  C   UNL     1      -8.047   7.435  72.425  1.00  0.00    -0.115 C  
HETATM   29  C   UNL     1      -6.998   8.266  72.610  1.00  0.00    -0.115 C  
ENDBRANCH  15  20
ENDBRANCH   5   6
ENDBRANCH   4   5
TORSDOF 3
ENDMDL
MODEL       50
REMARK 921   NORMALIZED FREE ENERGY PREDICTED BY IDOCK:   -5.65 KCAL/MOL
REMARK 922        TOTAL FREE ENERGY PREDICTED BY IDOCK:   -7.46 KCAL/MOL
REMARK 923 INTER-LIGAND FREE ENERGY PREDICTED BY IDOCK:   -7.09 KCAL/MOL
REMARK 924 INTRA-LIGAND FREE ENERGY PREDICTED BY IDOCK:   -0.37 KCAL/MOL
REMARK 927      BINDING AFFINITY PREDICTED BY RF-SCORE:    0.00 PKD
ROOT
HETATM    1  C   UNL     1     -12.281  16.055  73.357  1.00  0.00    -0.630 C  
HETATM    2  C   UNL     1     -12.888  15.259  72.202  1.00  0.00    -0.442 C  
HETATM    3  C   UNL     1     -14.409  15.437  72.199  1.00  0.00    -0.642 C  
HETATM    4  C   UNL     1     -12.331  15.685  70.831  1.00  0.00    -0.479 C  
ENDROOT
BRANCH   4   5
HETATM    5  C   UNL     1     -10.833  15.437  70.649  1.00  0.00    -0.318 C  
BRANCH   5   6
HETATM    6  C   UNL     1     -10.444  15.495  69.153  1.00  0.00    -0.232 C  
HETATM    7  C   UNL     1     -10.756  14.193  68.358  1.00  0.00    -0.264 C  
HETATM    8  C   UNL     1     -10.199  14.237  66.822  1.00  0.00    -0.272 C  
HETATM    9  C   UNL     1     -12.254  13.888  68.535  1.00  0.00    -0.201 C  
HETATM   10  C   UNL     1      -8.668  14.284  66.858  1.00  0.00    -0.202 C  
HETATM   11  C   UNL     1      -8.237  12.828  66.958  1.00  0.00    -0.099 C  
HETATM   12  C   UNL     1      -9.494  11.948  66.697  1.00  0.00    -0.217 C  
HETATM   13  C   UNL     1      -9.081  10.630  66.044  1.00  0.00    -0.201 C  
HETATM   14  C   UNL     1     -10.066  10.154  65.008  1.00  0.00    -0.305 C  
HETATM   15  C   UNL     1      -7.956   9.958  66.375  1.00  0.00    -0.111 C  
HETATM   16  C   UNL     1     -12.007  12.787  65.852  1.00  0.00    -0.506 C  
HETATM   17  C   UNL     1     -10.470  11.270  64.024  1.00  0.00    -0.440 C  
HETATM   18  C   UNL     1     -10.474  12.935  65.943  1.00  0.00    -0.294 C  
HETATM   19  C   UNL     1     -10.057  12.730  64.455  1.00  0.00    -0.275 C  
BRANCH  15  20
HETATM   20  C   UNL     1      -7.756   8.545  66.104  1.00  0.00    -0.093 C  
HETATM   21  C   UNL     1      -7.255   7.885  65.045  1.00  0.00    -0.062 C  
HETATM   22  C   UNL     1      -7.008   6.390  65.203  1.00  0.00    -0.052 C  
HETATM   23  C   UNL     1      -7.657   5.565  64.093  1.00  0.00    -0.075 C  
HETATM   24  C   UNL     1      -7.221   6.063  62.719  1.00  0.00    -0.053 C  
HETATM   25  O   UNL     1      -9.080   5.592  64.207  1.00  0.00    -0.354 OA 
HETATM   26  C   UNL     1      -7.462   7.567  62.554  1.00  0.00    -0.100 C  
HETATM   27  H   UNL     1      -9.484   5.078  63.517  1.00  0.00     0.000 HD 
HETATM   28  C   UNL     1      -6.908   8.377  63.713  1.00  0.00    -0.079 C  
HETATM   29  C   UNL     1      -6.086   9.428  63.499  1.00  0.00    -0.092 C  
ENDBRANCH  15  20
ENDBRANCH   5   6
ENDBRANCH   4   5
TORSDOF 3
ENDMDL
MODEL       51
REMARK 921   NORMALIZED FREE ENERGY PREDICTED BY IDOCK:   -5.59 KCAL/MOL
REMARK 922        TOTAL FREE ENERGY PREDICTED BY IDOCK:   -7.38 KCAL/MOL
REMARK 923 INTER-LIGAND FREE ENERGY PREDICTED BY IDOCK:   -6.17 KCAL/MOL
REMARK 924 INTRA-LIGAND FREE ENERGY PREDICTED BY IDOCK:   -1.22 KCAL/MOL
REMARK 927      BINDING AFFINITY PREDICTED BY RF-SCORE:    0.00 PKD
ROOT
HETATM    1  C   UNL     1     -11.157   5.201  72.994  1.00  0.00    -0.379 C  
HETATM    2  C   UNL     1     -10.710   6.342  72.081  1.00  0.00    -0.259 C  
HETATM    3  C   UNL     1     -11.580   7.577  72.337  1.00  0.00    -0.356 C  
HETATM    4  C   UNL     1      -9.231   6.720  72.285  1.00  0.00    -0.138 C  
ENDROOT
BRANCH   4   5
HETATM    5  C   UNL     1      -8.238   5.611  71.935  1.00  0.00    -0.119 C  
BRANCH   5   6
HETATM    6  C   UNL     1      -8.457   5.112  70.488  1.00  0.00    -0.113 C  
HETATM    7  C   UNL     1      -8.009   6.118  69.388  1.00  0.00    -0.104 C  
HETATM    8  C   UNL     1      -8.388   5.622  67.878  1.00  0.00    -0.100 C  
HETATM    9  C   UNL     1      -6.530   6.462  69.646  1.00  0.00    -0.043 C  
HETATM   10  C   UNL     1      -9.913   5.589  67.743  1.00  0.00    -0.188 C  
HETATM   11  C   UNL     1     -10.300   7.009  67.357  1.00  0.00    -0.313 C  
HETATM   12  C   UNL     1      -8.990   7.771  67.001  1.00  0.00    -0.145 C  
HETATM   13  C   UNL     1      -9.277   8.836  65.944  1.00  0.00    -0.282 C  
HETATM   14  C   UNL     1      -8.163   8.982  64.940  1.00  0.00    -0.154 C  
HETATM   15  C   UNL     1     -10.408   9.577  65.925  1.00  0.00    -0.051 C  
HETATM   16  C   UNL     1      -6.429   6.717  66.748  1.00  0.00    -0.043 C  
HETATM   17  C   UNL     1      -7.691   7.624  64.383  1.00  0.00    -0.127 C  
HETATM   18  C   UNL     1      -7.967   6.603  66.694  1.00  0.00    -0.105 C  
HETATM   19  C   UNL     1      -8.203   6.358  65.173  1.00  0.00    -0.134 C  
BRANCH  15  20
HETATM   20  C   UNL     1     -10.524  10.846  65.228  1.00  0.00    -0.299 C  
HETATM   21  C   UNL     1     -10.322  12.117  65.618  1.00  0.00    -0.289 C  
HETATM   22  C   UNL     1     -10.343  13.193  64.540  1.00  0.00    -0.389 C  
HETATM   23  C   UNL     1     -11.297  14.340  64.870  1.00  0.00    -0.372 C  
HETATM   24  C   UNL     1     -10.987  14.929  66.242  1.00  0.00    -0.338 C  
HETATM   25  O   UNL     1     -12.656  13.904  64.808  1.00  0.00    -0.603 OA 
HETATM   26  C   UNL     1     -10.959  13.852  67.332  1.00  0.00    -0.299 C  
HETATM   27  H   UNL     1     -13.249  14.617  65.014  1.00  0.00     0.000 HD 
HETATM   28  C   UNL     1     -10.093  12.663  66.955  1.00  0.00    -0.234 C  
HETATM   29  C   UNL     1      -9.128  12.212  67.786  1.00  0.00    -0.189 C  
ENDBRANCH  15  20
ENDBRANCH   5   6
ENDBRANCH   4   5
TORSDOF 3
ENDMDL
MODEL       52
REMARK 921   NORMALIZED FREE ENERGY PREDICTED BY IDOCK:   -5.58 KCAL/MOL
REMARK 922        TOTAL FREE ENERGY PREDICTED BY IDOCK:   -7.37 KCAL/MOL
REMARK 923 INTER-LIGAND FREE ENERGY PREDICTED BY IDOCK:   -6.31 KCAL/MOL
REMARK 924 INTRA-LIGAND FREE ENERGY PREDICTED BY IDOCK:   -1.07 KCAL/MOL
REMARK 927      BINDING AFFINITY PREDICTED BY RF-SCORE:    0.00 PKD
ROOT
HETATM    1  C   UNL     1     -13.033  13.920  65.116  1.00  0.00    -0.282 C  
HETATM    2  C   UNL     1     -11.730  13.160  64.874  1.00  0.00    -0.377 C  
HETATM    3  C   UNL     1     -11.901  12.211  63.683  1.00  0.00    -0.608 C  
HETATM    4  C   UNL     1     -10.538  14.096  64.602  1.00  0.00    -0.391 C  
ENDROOT
BRANCH   4   5
HETATM    5  C   UNL     1     -10.172  15.014  65.769  1.00  0.00    -0.361 C  
BRANCH   5   6
HETATM    6  C   UNL     1     -10.360  14.287  67.121  1.00  0.00    -0.262 C  
HETATM    7  C   UNL     1      -9.522  12.983  67.270  1.00  0.00    -0.224 C  
HETATM    8  C   UNL     1      -9.855  12.166  68.646  1.00  0.00    -0.110 C  
HETATM    9  C   UNL     1      -8.046  13.349  67.030  1.00  0.00    -0.018 C  
HETATM   10  C   UNL     1     -11.300  11.665  68.579  1.00  0.00    -0.332 C  
HETATM   11  C   UNL     1     -11.219  10.342  67.830  1.00  0.00    -0.332 C  
HETATM   12  C   UNL     1      -9.715   9.958  67.721  1.00  0.00    -0.175 C  
HETATM   13  C   UNL     1      -9.564   8.437  67.709  1.00  0.00    -0.185 C  
HETATM   14  C   UNL     1      -8.350   7.962  68.463  1.00  0.00    -0.128 C  
HETATM   15  C   UNL     1     -10.427   7.612  67.075  1.00  0.00    -0.419 C  
HETATM   16  C   UNL     1      -7.551  11.209  68.940  1.00  0.00    -0.133 C  
HETATM   17  C   UNL     1      -8.226   8.617  69.853  1.00  0.00    -0.121 C  
HETATM   18  C   UNL     1      -9.040  10.814  68.868  1.00  0.00    -0.170 C  
HETATM   19  C   UNL     1      -9.164   9.861  70.097  1.00  0.00    -0.184 C  
BRANCH  15  20
HETATM   20  C   UNL     1     -10.096   6.252  66.686  1.00  0.00    -0.214 C  
HETATM   21  C   UNL     1      -9.926   5.121  67.393  1.00  0.00    -0.215 C  
HETATM   22  C   UNL     1      -9.784   3.821  66.613  1.00  0.00    -0.149 C  
HETATM   23  C   UNL     1      -8.543   3.024  67.014  1.00  0.00    -0.112 C  
HETATM   24  C   UNL     1      -8.516   2.780  68.519  1.00  0.00    -0.093 C  
HETATM   25  O   UNL     1      -7.353   3.694  66.594  1.00  0.00    -0.067 OA 
HETATM   26  C   UNL     1      -8.662   4.083  69.311  1.00  0.00    -0.124 C  
HETATM   27  H   UNL     1      -6.581   3.199  66.843  1.00  0.00     0.000 HD 
HETATM   28  C   UNL     1      -9.835   4.924  68.839  1.00  0.00    -0.241 C  
HETATM   29  C   UNL     1     -10.763   5.378  69.711  1.00  0.00    -0.280 C  
ENDBRANCH  15  20
ENDBRANCH   5   6
ENDBRANCH   4   5
TORSDOF 3
ENDMDL
MODEL       53
REMARK 921   NORMALIZED FREE ENERGY PREDICTED BY IDOCK:   -5.57 KCAL/MOL
REMARK 922        TOTAL FREE ENERGY PREDICTED BY IDOCK:   -7.36 KCAL/MOL
REMARK 923 INTER-LIGAND FREE ENERGY PREDICTED BY IDOCK:   -6.39 KCAL/MOL
REMARK 924 INTRA-LIGAND FREE ENERGY PREDICTED BY IDOCK:   -0.97 KCAL/MOL
REMARK 927      BINDING AFFINITY PREDICTED BY RF-SCORE:    0.00 PKD
ROOT
HETATM    1  C   UNL     1     -10.455   8.173  72.460  1.00  0.00    -0.409 C  
HETATM    2  C   UNL     1     -11.857   7.726  72.051  1.00  0.00    -0.351 C  
HETATM    3  C   UNL     1     -12.877   8.795  72.455  1.00  0.00    -0.434 C  
HETATM    4  C   UNL     1     -11.979   7.463  70.539  1.00  0.00    -0.140 C  
ENDROOT
BRANCH   4   5
HETATM    5  C   UNL     1     -11.105   6.320  70.020  1.00  0.00    -0.455 C  
BRANCH   5   6
HETATM    6  C   UNL     1     -10.546   6.648  68.616  1.00  0.00    -0.274 C  
HETATM    7  C   UNL     1      -9.393   7.694  68.612  1.00  0.00    -0.147 C  
HETATM    8  C   UNL     1      -8.929   8.124  67.105  1.00  0.00    -0.154 C  
HETATM    9  C   UNL     1      -8.288   7.172  69.547  1.00  0.00    -0.133 C  
HETATM   10  C   UNL     1     -10.089   8.858  66.427  1.00  0.00    -0.333 C  
HETATM   11  C   UNL     1      -9.945  10.307  66.869  1.00  0.00    -0.259 C  
HETATM   12  C   UNL     1      -8.558  10.449  67.562  1.00  0.00    -0.125 C  
HETATM   13  C   UNL     1      -8.013  11.861  67.352  1.00  0.00    -0.162 C  
HETATM   14  C   UNL     1      -6.522  11.890  67.142  1.00  0.00    -0.146 C  
HETATM   15  C   UNL     1      -8.791  12.967  67.368  1.00  0.00    -0.199 C  
HETATM   16  C   UNL     1      -6.525   8.557  67.691  1.00  0.00    -0.057 C  
HETATM   17  C   UNL     1      -6.053  10.851  66.103  1.00  0.00    -0.135 C  
HETATM   18  C   UNL     1      -7.755   9.199  67.017  1.00  0.00    -0.098 C  
HETATM   19  C   UNL     1      -7.126   9.765  65.707  1.00  0.00    -0.104 C  
BRANCH  15  20
HETATM   20  C   UNL     1      -8.277  14.306  67.600  1.00  0.00    -0.193 C  
HETATM   21  C   UNL     1      -8.856  15.436  68.039  1.00  0.00    -0.165 C  
HETATM   22  C   UNL     1      -7.944  16.614  68.356  1.00  0.00    -0.205 C  
HETATM   23  C   UNL     1      -8.375  17.900  67.652  1.00  0.00    -0.234 C  
HETATM   24  C   UNL     1      -9.835  18.225  67.957  1.00  0.00    -0.343 C  
HETATM   25  O   UNL     1      -8.169  17.802  66.242  1.00  0.00    -0.348 OA 
HETATM   26  C   UNL     1     -10.759  17.043  67.646  1.00  0.00    -0.295 C  
HETATM   27  H   UNL     1      -8.437  18.601  65.805  1.00  0.00     0.000 HD 
HETATM   28  C   UNL     1     -10.269  15.742  68.259  1.00  0.00    -0.225 C  
HETATM   29  C   UNL     1     -11.085  14.980  69.020  1.00  0.00    -0.270 C  
ENDBRANCH  15  20
ENDBRANCH   5   6
ENDBRANCH   4   5
TORSDOF 3
ENDMDL
MODEL       54
REMARK 921   NORMALIZED FREE ENERGY PREDICTED BY IDOCK:   -5.48 KCAL/MOL
REMARK 922        TOTAL FREE ENERGY PREDICTED BY IDOCK:   -7.26 KCAL/MOL
REMARK 923 INTER-LIGAND FREE ENERGY PREDICTED BY IDOCK:   -5.99 KCAL/MOL
REMARK 924 INTRA-LIGAND FREE ENERGY PREDICTED BY IDOCK:   -1.27 KCAL/MOL
REMARK 927      BINDING AFFINITY PREDICTED BY RF-SCORE:    0.00 PKD
ROOT
HETATM    1  C   UNL     1      -7.883   4.058  68.242  1.00  0.00    -0.069 C  
HETATM    2  C   UNL     1      -6.589   3.691  68.967  1.00  0.00    -0.040 C  
HETATM    3  C   UNL     1      -5.390   3.997  68.065  1.00  0.00    -0.012 C  
HETATM    4  C   UNL     1      -6.420   4.447  70.299  1.00  0.00    -0.031 C  
ENDROOT
BRANCH   4   5
HETATM    5  C   UNL     1      -7.486   4.131  71.348  1.00  0.00    -0.059 C  
BRANCH   5   6
HETATM    6  C   UNL     1      -8.025   5.429  71.993  1.00  0.00    -0.113 C  
HETATM    7  C   UNL     1      -9.125   6.150  71.161  1.00  0.00    -0.151 C  
HETATM    8  C   UNL     1      -9.566   7.589  71.798  1.00  0.00    -0.178 C  
HETATM    9  C   UNL     1     -10.257   5.137  70.909  1.00  0.00    -0.299 C  
HETATM   10  C   UNL     1      -8.370   8.542  71.726  1.00  0.00    -0.221 C  
HETATM   11  C   UNL     1      -8.444   9.153  70.333  1.00  0.00    -0.222 C  
HETATM   12  C   UNL     1      -9.823   8.765  69.725  1.00  0.00    -0.189 C  
HETATM   13  C   UNL     1     -10.298   9.861  68.771  1.00  0.00    -0.222 C  
HETATM   14  C   UNL     1     -11.786  10.088  68.832  1.00  0.00     0.135 C  
HETATM   15  C   UNL     1      -9.467  10.541  67.950  1.00  0.00    -0.157 C  
HETATM   16  C   UNL     1     -11.947   7.505  71.002  1.00  0.00    -0.317 C  
HETATM   17  C   UNL     1     -12.303  10.217  70.279  1.00  0.00    -0.211 C  
HETATM   18  C   UNL     1     -10.686   8.393  70.998  1.00  0.00    -0.267 C  
HETATM   19  C   UNL     1     -11.284   9.776  71.399  1.00  0.00    -0.368 C  
BRANCH  15  20
HETATM   20  C   UNL     1      -9.915  11.252  66.765  1.00  0.00    -0.238 C  
HETATM   21  C   UNL     1     -10.281  12.529  66.557  1.00  0.00    -0.255 C  
HETATM   22  C   UNL     1     -10.498  12.970  65.115  1.00  0.00    -0.335 C  
HETATM   23  C   UNL     1     -11.856  13.638  64.900  1.00  0.00    -0.375 C  
HETATM   24  C   UNL     1     -12.054  14.794  65.876  1.00  0.00    -0.106 C  
HETATM   25  O   UNL     1     -12.915  12.688  65.028  1.00  0.00    -0.812 OA 
HETATM   26  C   UNL     1     -11.834  14.359  67.329  1.00  0.00    -0.434 C  
HETATM   27  H   UNL     1     -13.759  13.103  64.895  1.00  0.00     0.000 HD 
HETATM   28  C   UNL     1     -10.531  13.601  67.519  1.00  0.00    -0.241 C  
HETATM   29  C   UNL     1      -9.644  13.968  68.471  1.00  0.00    -0.201 C  
ENDBRANCH  15  20
ENDBRANCH   5   6
ENDBRANCH   4   5
TORSDOF 3
ENDMDL
MODEL       55
REMARK 921   NORMALIZED FREE ENERGY PREDICTED BY IDOCK:   -5.43 KCAL/MOL
REMARK 922        TOTAL FREE ENERGY PREDICTED BY IDOCK:   -7.19 KCAL/MOL
REMARK 923 INTER-LIGAND FREE ENERGY PREDICTED BY IDOCK:   -6.01 KCAL/MOL
REMARK 924 INTRA-LIGAND FREE ENERGY PREDICTED BY IDOCK:   -1.19 KCAL/MOL
REMARK 927      BINDING AFFINITY PREDICTED BY RF-SCORE:    0.00 PKD
ROOT
HETATM    1  C   UNL     1      -8.152  17.694  66.370  1.00  0.00    -0.302 C  
HETATM    2  C   UNL     1      -9.604  17.807  66.832  1.00  0.00    -0.288 C  
HETATM    3  C   UNL     1      -9.973  19.282  67.015  1.00  0.00    -0.447 C  
HETATM    4  C   UNL     1     -10.593  17.162  65.842  1.00  0.00    -0.219 C  
ENDROOT
BRANCH   4   5
HETATM    5  C   UNL     1     -10.421  15.653  65.664  1.00  0.00    -0.402 C  
BRANCH   5   6
HETATM    6  C   UNL     1     -10.592  14.917  67.013  1.00  0.00    -0.289 C  
HETATM    7  C   UNL     1      -9.775  13.598  67.132  1.00  0.00    -0.245 C  
HETATM    8  C   UNL     1     -10.092  12.773  68.507  1.00  0.00    -0.189 C  
HETATM    9  C   UNL     1      -8.298  13.940  66.865  1.00  0.00    -0.029 C  
HETATM   10  C   UNL     1     -11.548  12.298  68.467  1.00  0.00    -0.359 C  
HETATM   11  C   UNL     1     -11.505  10.981  67.704  1.00  0.00    -0.303 C  
HETATM   12  C   UNL     1     -10.010  10.572  67.559  1.00  0.00    -0.204 C  
HETATM   13  C   UNL     1      -9.887   9.049  67.531  1.00  0.00    -0.230 C  
HETATM   14  C   UNL     1      -8.666   8.545  68.253  1.00  0.00    -0.143 C  
HETATM   15  C   UNL     1     -10.777   8.244  66.907  1.00  0.00    -0.179 C  
HETATM   16  C   UNL     1      -7.800  11.773  68.743  1.00  0.00    -0.076 C  
HETATM   17  C   UNL     1      -8.501   9.185  69.647  1.00  0.00    -0.133 C  
HETATM   18  C   UNL     1      -9.297  11.405  68.700  1.00  0.00    -0.155 C  
HETATM   19  C   UNL     1      -9.412  10.443  69.922  1.00  0.00     0.052 C  
BRANCH  15  20
HETATM   20  C   UNL     1     -10.478   6.883  66.499  1.00  0.00    -0.088 C  
HETATM   21  C   UNL     1     -10.361   5.734  67.186  1.00  0.00    -0.293 C  
HETATM   22  C   UNL     1     -10.239   4.445  66.383  1.00  0.00    -0.184 C  
HETATM   23  C   UNL     1      -9.034   3.603  66.798  1.00  0.00    -0.142 C  
HETATM   24  C   UNL     1      -9.053   3.328  68.299  1.00  0.00    -0.211 C  
HETATM   25  O   UNL     1      -7.813   4.243  66.423  1.00  0.00    -0.093 OA 
HETATM   26  C   UNL     1      -9.180   4.619  69.114  1.00  0.00    -0.184 C  
HETATM   27  H   UNL     1      -7.064   3.719  66.681  1.00  0.00     0.000 HD 
HETATM   28  C   UNL     1     -10.314   5.505  68.630  1.00  0.00    -0.255 C  
HETATM   29  C   UNL     1     -11.249   5.971  69.487  1.00  0.00    -0.416 C  
ENDBRANCH  15  20
ENDBRANCH   5   6
ENDBRANCH   4   5
TORSDOF 3
ENDMDL
MODEL       56
REMARK 921   NORMALIZED FREE ENERGY PREDICTED BY IDOCK:   -5.42 KCAL/MOL
REMARK 922        TOTAL FREE ENERGY PREDICTED BY IDOCK:   -7.19 KCAL/MOL
REMARK 923 INTER-LIGAND FREE ENERGY PREDICTED BY IDOCK:   -6.00 KCAL/MOL
REMARK 924 INTRA-LIGAND FREE ENERGY PREDICTED BY IDOCK:   -1.19 KCAL/MOL
REMARK 927      BINDING AFFINITY PREDICTED BY RF-SCORE:    0.00 PKD
ROOT
HETATM    1  C   UNL     1      -9.492   3.067  68.275  1.00  0.00    -0.216 C  
HETATM    2  C   UNL     1      -9.179   4.410  68.933  1.00  0.00    -0.199 C  
HETATM    3  C   UNL     1     -10.060   4.593  70.172  1.00  0.00    -0.283 C  
HETATM    4  C   UNL     1      -7.701   4.538  69.345  1.00  0.00    -0.055 C  
ENDROOT
BRANCH   4   5
HETATM    5  C   UNL     1      -6.711   4.504  68.180  1.00  0.00    -0.047 C  
BRANCH   5   6
HETATM    6  C   UNL     1      -7.114   5.519  67.085  1.00  0.00    -0.074 C  
HETATM    7  C   UNL     1      -7.162   6.998  67.568  1.00  0.00    -0.090 C  
HETATM    8  C   UNL     1      -7.732   8.022  66.428  1.00  0.00    -0.092 C  
HETATM    9  C   UNL     1      -5.785   7.337  68.167  1.00  0.00    -0.023 C  
HETATM   10  C   UNL     1      -9.199   7.680  66.153  1.00  0.00    -0.168 C  
HETATM   11  C   UNL     1      -9.981   8.446  67.211  1.00  0.00    -0.291 C  
HETATM   12  C   UNL     1      -8.994   9.432  67.900  1.00  0.00    -0.126 C  
HETATM   13  C   UNL     1      -9.744  10.681  68.364  1.00  0.00    -0.172 C  
HETATM   14  C   UNL     1      -8.939  11.943  68.200  1.00  0.00    -0.185 C  
HETATM   15  C   UNL     1     -10.993  10.647  68.879  1.00  0.00    -0.296 C  
HETATM   16  C   UNL     1      -6.375  10.004  67.163  1.00  0.00    -0.067 C  
HETATM   17  C   UNL     1      -8.294  12.053  66.804  1.00  0.00    -0.135 C  
HETATM   18  C   UNL     1      -7.818   9.557  66.850  1.00  0.00    -0.101 C  
HETATM   19  C   UNL     1      -8.313  10.728  65.948  1.00  0.00    -0.162 C  
BRANCH  15  20
HETATM   20  C   UNL     1     -11.550  11.708  69.702  1.00  0.00    -0.401 C  
HETATM   21  C   UNL     1     -11.954  12.958  69.419  1.00  0.00    -0.327 C  
HETATM   22  C   UNL     1     -12.686  13.723  70.514  1.00  0.00    -0.293 C  
HETATM   23  C   UNL     1     -12.074  15.097  70.784  1.00  0.00    -0.336 C  
HETATM   24  C   UNL     1     -11.980  15.913  69.498  1.00  0.00    -0.274 C  
HETATM   25  O   UNL     1     -10.787  14.970  71.391  1.00  0.00    -0.557 OA 
HETATM   26  C   UNL     1     -11.249  15.148  68.390  1.00  0.00    -0.307 C  
HETATM   27  H   UNL     1     -10.407  15.824  71.558  1.00  0.00     0.000 HD 
HETATM   28  C   UNL     1     -11.790  13.742  68.196  1.00  0.00    -0.411 C  
HETATM   29  C   UNL     1     -12.164  13.302  66.974  1.00  0.00    -0.310 C  
ENDBRANCH  15  20
ENDBRANCH   5   6
ENDBRANCH   4   5
TORSDOF 3
ENDMDL
MODEL       57
REMARK 921   NORMALIZED FREE ENERGY PREDICTED BY IDOCK:   -5.36 KCAL/MOL
REMARK 922        TOTAL FREE ENERGY PREDICTED BY IDOCK:   -7.12 KCAL/MOL
REMARK 923 INTER-LIGAND FREE ENERGY PREDICTED BY IDOCK:   -6.22 KCAL/MOL
REMARK 924 INTRA-LIGAND FREE ENERGY PREDICTED BY IDOCK:   -0.90 KCAL/MOL
REMARK 927      BINDING AFFINITY PREDICTED BY RF-SCORE:    0.00 PKD
ROOT
HETATM    1  C   UNL     1     -12.226   6.456  72.003  1.00  0.00    -0.320 C  
HETATM    2  C   UNL     1     -10.972   7.189  71.528  1.00  0.00    -0.261 C  
HETATM    3  C   UNL     1     -10.810   8.494  72.313  1.00  0.00    -0.418 C  
HETATM    4  C   UNL     1      -9.694   6.345  71.690  1.00  0.00    -0.174 C  
ENDROOT
BRANCH   4   5
HETATM    5  C   UNL     1      -9.666   5.067  70.850  1.00  0.00    -0.256 C  
BRANCH   5   6
HETATM    6  C   UNL     1      -9.919   5.383  69.358  1.00  0.00    -0.280 C  
HETATM    7  C   UNL     1      -8.993   6.488  68.771  1.00  0.00    -0.124 C  
HETATM    8  C   UNL     1      -9.384   6.899  67.238  1.00  0.00    -0.152 C  
HETATM    9  C   UNL     1      -7.536   6.052  69.013  1.00  0.00    -0.091 C  
HETATM   10  C   UNL     1     -10.770   7.550  67.245  1.00  0.00    -0.365 C  
HETATM   11  C   UNL     1     -10.509   9.017  67.555  1.00  0.00    -0.338 C  
HETATM   12  C   UNL     1      -8.974   9.252  67.447  1.00  0.00    -0.135 C  
HETATM   13  C   UNL     1      -8.697  10.684  66.992  1.00  0.00    -0.128 C  
HETATM   14  C   UNL     1      -7.523  10.786  66.053  1.00  0.00    -0.125 C  
HETATM   15  C   UNL     1      -9.424  11.747  67.404  1.00  0.00    -0.174 C  
HETATM   16  C   UNL     1      -7.046   7.475  66.521  1.00  0.00    -0.075 C  
HETATM   17  C   UNL     1      -7.586   9.744  64.919  1.00  0.00    -0.128 C  
HETATM   18  C   UNL     1      -8.484   8.031  66.567  1.00  0.00    -0.137 C  
HETATM   19  C   UNL     1      -8.643   8.591  65.121  1.00  0.00    -0.179 C  
BRANCH  15  20
HETATM   20  C   UNL     1      -8.946  13.118  67.345  1.00  0.00    -0.201 C  
HETATM   21  C   UNL     1      -9.447  14.275  67.810  1.00  0.00    -0.216 C  
HETATM   22  C   UNL     1      -8.553  15.506  67.738  1.00  0.00    -0.158 C  
HETATM   23  C   UNL     1      -9.236  16.691  67.055  1.00  0.00    -0.220 C  
HETATM   24  C   UNL     1     -10.572  17.007  67.719  1.00  0.00    -0.350 C  
HETATM   25  O   UNL     1      -9.418  16.437  65.661  1.00  0.00    -0.486 OA 
HETATM   26  C   UNL     1     -11.475  15.772  67.800  1.00  0.00    -0.175 C  
HETATM   27  H   UNL     1      -9.842  17.173  65.236  1.00  0.00     0.000 HD 
HETATM   28  C   UNL     1     -10.761  14.564  68.383  1.00  0.00    -0.246 C  
HETATM   29  C   UNL     1     -11.292  13.872  69.415  1.00  0.00    -0.311 C  
ENDBRANCH  15  20
ENDBRANCH   5   6
ENDBRANCH   4   5
TORSDOF 3
ENDMDL
MODEL       58
REMARK 921   NORMALIZED FREE ENERGY PREDICTED BY IDOCK:   -5.36 KCAL/MOL
REMARK 922        TOTAL FREE ENERGY PREDICTED BY IDOCK:   -7.11 KCAL/MOL
REMARK 923 INTER-LIGAND FREE ENERGY PREDICTED BY IDOCK:   -6.32 KCAL/MOL
REMARK 924 INTRA-LIGAND FREE ENERGY PREDICTED BY IDOCK:   -0.79 KCAL/MOL
REMARK 927      BINDING AFFINITY PREDICTED BY RF-SCORE:    0.00 PKD
ROOT
HETATM    1  C   UNL     1     -11.583  15.780  70.245  1.00  0.00    -0.377 C  
HETATM    2  C   UNL     1     -11.562  14.253  70.201  1.00  0.00    -0.312 C  
HETATM    3  C   UNL     1     -12.519  13.695  71.258  1.00  0.00    -0.412 C  
HETATM    4  C   UNL     1     -11.959  13.695  68.821  1.00  0.00    -0.394 C  
ENDROOT
BRANCH   4   5
HETATM    5  C   UNL     1     -11.005  14.070  67.686  1.00  0.00    -0.281 C  
BRANCH   5   6
HETATM    6  C   UNL     1      -9.800  13.102  67.638  1.00  0.00    -0.219 C  
HETATM    7  C   UNL     1     -10.189  11.595  67.586  1.00  0.00    -0.206 C  
HETATM    8  C   UNL     1      -8.896  10.600  67.684  1.00  0.00    -0.131 C  
HETATM    9  C   UNL     1     -11.118  11.395  66.376  1.00  0.00    -0.301 C  
HETATM   10  C   UNL     1      -8.255  10.765  69.065  1.00  0.00    -0.139 C  
HETATM   11  C   UNL     1      -9.032   9.819  69.969  1.00  0.00    -0.255 C  
HETATM   12  C   UNL     1      -9.917   8.920  69.057  1.00  0.00    -0.195 C  
HETATM   13  C   UNL     1     -10.110   7.550  69.705  1.00  0.00    -0.189 C  
HETATM   14  C   UNL     1     -10.112   6.423  68.706  1.00  0.00    -0.182 C  
HETATM   15  C   UNL     1     -10.275   7.375  71.035  1.00  0.00    -0.194 C  
HETATM   16  C   UNL     1      -9.879   8.763  66.281  1.00  0.00    -0.342 C  
HETATM   17  C   UNL     1      -8.935   6.513  67.714  1.00  0.00    -0.114 C  
HETATM   18  C   UNL     1      -9.213   9.038  67.645  1.00  0.00    -0.150 C  
HETATM   19  C   UNL     1      -8.162   7.888  67.711  1.00  0.00    -0.129 C  
BRANCH  15  20
HETATM   20  C   UNL     1     -10.873   6.187  71.620  1.00  0.00    -0.308 C  
HETATM   21  C   UNL     1     -10.640   5.524  72.766  1.00  0.00    -0.266 C  
HETATM   22  C   UNL     1     -11.618   4.421  73.149  1.00  0.00    -0.177 C  
HETATM   23  C   UNL     1     -10.922   3.097  73.459  1.00  0.00    -0.226 C  
HETATM   24  C   UNL     1      -9.844   3.284  74.522  1.00  0.00    -0.167 C  
HETATM   25  O   UNL     1     -10.362   2.528  72.274  1.00  0.00    -0.155 OA 
HETATM   26  C   UNL     1      -8.859   4.395  74.146  1.00  0.00    -0.102 C  
HETATM   27  H   UNL     1      -9.929   1.705  72.466  1.00  0.00     0.000 HD 
HETATM   28  C   UNL     1      -9.557   5.680  73.736  1.00  0.00    -0.143 C  
HETATM   29  C   UNL     1      -9.234   6.862  74.306  1.00  0.00    -0.255 C  
ENDBRANCH  15  20
ENDBRANCH   5   6
ENDBRANCH   4   5
TORSDOF 3
ENDMDL
MODEL       59
REMARK 921   NORMALIZED FREE ENERGY PREDICTED BY IDOCK:   -5.34 KCAL/MOL
REMARK 922        TOTAL FREE ENERGY PREDICTED BY IDOCK:   -7.09 KCAL/MOL
REMARK 923 INTER-LIGAND FREE ENERGY PREDICTED BY IDOCK:   -5.87 KCAL/MOL
REMARK 924 INTRA-LIGAND FREE ENERGY PREDICTED BY IDOCK:   -1.23 KCAL/MOL
REMARK 927      BINDING AFFINITY PREDICTED BY RF-SCORE:    0.00 PKD
ROOT
HETATM    1  C   UNL     1     -10.555  12.734  63.836  1.00  0.00    -0.427 C  
HETATM    2  C   UNL     1     -12.058  12.948  64.013  1.00  0.00    -0.526 C  
HETATM    3  C   UNL     1     -12.826  11.897  63.206  1.00  0.00    -0.303 C  
HETATM    4  C   UNL     1     -12.499  12.870  65.486  1.00  0.00    -0.462 C  
ENDROOT
BRANCH   4   5
HETATM    5  C   UNL     1     -11.905  13.953  66.386  1.00  0.00    -0.436 C  
BRANCH   5   6
HETATM    6  C   UNL     1     -11.568  13.385  67.785  1.00  0.00    -0.375 C  
HETATM    7  C   UNL     1     -10.516  12.238  67.775  1.00  0.00    -0.225 C  
HETATM    8  C   UNL     1     -10.295  11.563  69.247  1.00  0.00    -0.010 C  
HETATM    9  C   UNL     1      -9.256  12.768  67.068  1.00  0.00    -0.221 C  
HETATM   10  C   UNL     1     -11.592  10.865  69.664  1.00  0.00    -0.394 C  
HETATM   11  C   UNL     1     -11.508   9.481  69.035  1.00  0.00     0.234 C  
HETATM   12  C   UNL     1     -10.057   9.296  68.502  1.00  0.00    -0.211 C  
HETATM   13  C   UNL     1      -9.662   7.822  68.567  1.00  0.00    -0.165 C  
HETATM   14  C   UNL     1      -8.220   7.616  68.950  1.00  0.00    -0.128 C  
HETATM   15  C   UNL     1     -10.518   6.812  68.294  1.00  0.00    -0.243 C  
HETATM   16  C   UNL     1      -7.877  10.976  68.900  1.00  0.00    -0.138 C  
HETATM   17  C   UNL     1      -7.813   8.453  70.179  1.00  0.00    -0.102 C  
HETATM   18  C   UNL     1      -9.235  10.375  69.318  1.00  0.00    -0.198 C  
HETATM   19  C   UNL     1      -8.836   9.577  70.597  1.00  0.00    -0.208 C  
BRANCH  15  20
HETATM   20  C   UNL     1     -10.090   5.472  67.932  1.00  0.00    -0.218 C  
HETATM   21  C   UNL     1      -9.662   4.428  68.663  1.00  0.00    -0.190 C  
HETATM   22  C   UNL     1      -9.491   3.094  67.947  1.00  0.00    -0.215 C  
HETATM   23  C   UNL     1      -8.110   2.478  68.167  1.00  0.00    -0.058 C  
HETATM   24  C   UNL     1      -7.798   2.359  69.656  1.00  0.00    -0.050 C  
HETATM   25  O   UNL     1      -7.102   3.244  67.505  1.00  0.00    -0.053 OA 
HETATM   26  C   UNL     1      -7.972   3.696  70.384  1.00  0.00    -0.053 C  
HETATM   27  H   UNL     1      -6.243   2.861  67.641  1.00  0.00     0.000 HD 
HETATM   28  C   UNL     1      -9.304   4.357  70.079  1.00  0.00    -0.227 C  
HETATM   29  C   UNL     1     -10.121   4.770  71.073  1.00  0.00    -0.269 C  
ENDBRANCH  15  20
ENDBRANCH   5   6
ENDBRANCH   4   5
TORSDOF 3
ENDMDL
MODEL       60
REMARK 921   NORMALIZED FREE ENERGY PREDICTED BY IDOCK:   -5.34 KCAL/MOL
REMARK 922        TOTAL FREE ENERGY PREDICTED BY IDOCK:   -7.09 KCAL/MOL
REMARK 923 INTER-LIGAND FREE ENERGY PREDICTED BY IDOCK:   -6.18 KCAL/MOL
REMARK 924 INTRA-LIGAND FREE ENERGY PREDICTED BY IDOCK:   -0.90 KCAL/MOL
REMARK 927      BINDING AFFINITY PREDICTED BY RF-SCORE:    0.00 PKD
ROOT
HETATM    1  C   UNL     1     -11.956  13.579  63.995  1.00  0.00    -0.501 C  
HETATM    2  C   UNL     1     -11.296  14.513  65.009  1.00  0.00    -0.377 C  
HETATM    3  C   UNL     1     -11.397  15.960  64.517  1.00  0.00    -0.316 C  
HETATM    4  C   UNL     1     -11.931  14.414  66.408  1.00  0.00    -0.402 C  
ENDROOT
BRANCH   4   5
HETATM    5  C   UNL     1     -11.785  13.046  67.077  1.00  0.00    -0.441 C  
BRANCH   5   6
HETATM    6  C   UNL     1     -10.293  12.672  67.244  1.00  0.00    -0.230 C  
HETATM    7  C   UNL     1      -9.987  11.158  67.053  1.00  0.00    -0.223 C  
HETATM    8  C   UNL     1      -8.432  10.776  67.380  1.00  0.00    -0.119 C  
HETATM    9  C   UNL     1     -10.517  10.746  65.668  1.00  0.00    -0.255 C  
HETATM   10  C   UNL     1      -8.173  11.017  68.870  1.00  0.00    -0.127 C  
HETATM   11  C   UNL     1      -8.616   9.731  69.554  1.00  0.00    -0.186 C  
HETATM   12  C   UNL     1      -8.860   8.669  68.442  1.00  0.00    -0.142 C  
HETATM   13  C   UNL     1      -8.559   7.272  68.981  1.00  0.00    -0.129 C  
HETATM   14  C   UNL     1      -7.907   6.376  67.961  1.00  0.00    -0.105 C  
HETATM   15  C   UNL     1      -8.861   6.881  70.240  1.00  0.00    -0.148 C  
HETATM   16  C   UNL     1      -8.278   8.887  65.732  1.00  0.00    -0.116 C  
HETATM   17  C   UNL     1      -6.729   7.063  67.242  1.00  0.00    -0.067 C  
HETATM   18  C   UNL     1      -8.040   9.240  67.215  1.00  0.00    -0.113 C  
HETATM   19  C   UNL     1      -6.628   8.623  67.454  1.00  0.00    -0.058 C  
BRANCH  15  20
HETATM   20  C   UNL     1      -8.987   5.490  70.640  1.00  0.00    -0.160 C  
HETATM   21  C   UNL     1      -9.872   4.846  71.420  1.00  0.00    -0.252 C  
HETATM   22  C   UNL     1      -9.806   3.325  71.448  1.00  0.00    -0.194 C  
HETATM   23  C   UNL     1      -9.723   2.764  72.867  1.00  0.00    -0.113 C  
HETATM   24  C   UNL     1     -10.866   3.291  73.729  1.00  0.00    -0.310 C  
HETATM   25  O   UNL     1      -8.462   3.075  73.462  1.00  0.00    -0.072 OA 
HETATM   26  C   UNL     1     -10.941   4.821  73.703  1.00  0.00    -0.391 C  
HETATM   27  H   UNL     1      -8.410   2.726  74.344  1.00  0.00     0.000 HD 
HETATM   28  C   UNL     1     -10.917   5.382  72.291  1.00  0.00    -0.277 C  
HETATM   29  C   UNL     1     -11.860   6.255  71.872  1.00  0.00    -0.359 C  
ENDBRANCH  15  20
ENDBRANCH   5   6
ENDBRANCH   4   5
TORSDOF 3
ENDMDL
MODEL       61
REMARK 921   NORMALIZED FREE ENERGY PREDICTED BY IDOCK:   -5.33 KCAL/MOL
REMARK 922        TOTAL FREE ENERGY PREDICTED BY IDOCK:   -7.08 KCAL/MOL
REMARK 923 INTER-LIGAND FREE ENERGY PREDICTED BY IDOCK:   -6.12 KCAL/MOL
REMARK 924 INTRA-LIGAND FREE ENERGY PREDICTED BY IDOCK:   -0.97 KCAL/MOL
REMARK 927      BINDING AFFINITY PREDICTED BY RF-SCORE:    0.00 PKD
ROOT
HETATM    1  C   UNL     1     -11.917  15.826  69.817  1.00  0.00    -0.337 C  
HETATM    2  C   UNL     1     -11.719  14.323  69.628  1.00  0.00    -0.362 C  
HETATM    3  C   UNL     1     -12.401  13.566  70.771  1.00  0.00    -0.440 C  
HETATM    4  C   UNL     1     -12.278  13.815  68.286  1.00  0.00    -0.177 C  
ENDROOT
BRANCH   4   5
HETATM    5  C   UNL     1     -11.590  14.396  67.050  1.00  0.00    -0.402 C  
BRANCH   5   6
HETATM    6  C   UNL     1     -10.155  13.838  66.905  1.00  0.00    -0.260 C  
HETATM    7  C   UNL     1     -10.078  12.288  66.790  1.00  0.00    -0.224 C  
HETATM    8  C   UNL     1      -8.543  11.725  66.787  1.00  0.00    -0.185 C  
HETATM    9  C   UNL     1     -10.966  11.864  65.606  1.00  0.00    -0.353 C  
HETATM   10  C   UNL     1      -7.911  12.021  68.149  1.00  0.00    -0.152 C  
HETATM   11  C   UNL     1      -8.323  10.851  69.032  1.00  0.00    -0.118 C  
HETATM   12  C   UNL     1      -8.944   9.763  68.107  1.00  0.00    -0.119 C  
HETATM   13  C   UNL     1      -8.685   8.374  68.689  1.00  0.00    -0.133 C  
HETATM   14  C   UNL     1      -8.402   7.338  67.633  1.00  0.00    -0.117 C  
HETATM   15  C   UNL     1      -8.722   8.106  70.014  1.00  0.00    -0.131 C  
HETATM   16  C   UNL     1      -9.004   9.732  65.327  1.00  0.00    -0.233 C  
HETATM   17  C   UNL     1      -7.358   7.817  66.604  1.00  0.00    -0.088 C  
HETATM   18  C   UNL     1      -8.381  10.142  66.678  1.00  0.00    -0.123 C  
HETATM   19  C   UNL     1      -7.033   9.360  66.644  1.00  0.00    -0.081 C  
BRANCH  15  20
HETATM   20  C   UNL     1      -8.907   6.772  70.558  1.00  0.00    -0.151 C  
HETATM   21  C   UNL     1      -9.737   6.281  71.494  1.00  0.00    -0.179 C  
HETATM   22  C   UNL     1      -9.789   4.768  71.660  1.00  0.00    -0.248 C  
HETATM   23  C   UNL     1      -9.575   4.325  73.107  1.00  0.00    -0.123 C  
HETATM   24  C   UNL     1     -10.557   5.026  74.041  1.00  0.00    -0.348 C  
HETATM   25  O   UNL     1      -8.230   4.572  73.520  1.00  0.00    -0.100 OA 
HETATM   26  C   UNL     1     -10.514   6.548  73.877  1.00  0.00    -0.329 C  
HETATM   27  H   UNL     1      -8.097   4.297  74.420  1.00  0.00     0.000 HD 
HETATM   28  C   UNL     1     -10.620   6.981  72.425  1.00  0.00    -0.252 C  
HETATM   29  C   UNL     1     -11.535   7.896  72.035  1.00  0.00    -0.351 C  
ENDBRANCH  15  20
ENDBRANCH   5   6
ENDBRANCH   4   5
TORSDOF 3
ENDMDL
MODEL       62
REMARK 921   NORMALIZED FREE ENERGY PREDICTED BY IDOCK:   -5.33 KCAL/MOL
REMARK 922        TOTAL FREE ENERGY PREDICTED BY IDOCK:   -7.08 KCAL/MOL
REMARK 923 INTER-LIGAND FREE ENERGY PREDICTED BY IDOCK:   -6.14 KCAL/MOL
REMARK 924 INTRA-LIGAND FREE ENERGY PREDICTED BY IDOCK:   -0.93 KCAL/MOL
REMARK 927      BINDING AFFINITY PREDICTED BY RF-SCORE:    0.00 PKD
ROOT
HETATM    1  C   UNL     1     -12.264  13.970  66.355  1.00  0.00    -0.492 C  
HETATM    2  C   UNL     1     -12.260  13.852  64.832  1.00  0.00    -0.445 C  
HETATM    3  C   UNL     1     -12.377  15.246  64.207  1.00  0.00    -0.139 C  
HETATM    4  C   UNL     1     -10.992  13.166  64.293  1.00  0.00    -0.428 C  
ENDROOT
BRANCH   4   5
HETATM    5  C   UNL     1     -10.818  11.712  64.736  1.00  0.00    -0.367 C  
BRANCH   5   6
HETATM    6  C   UNL     1      -9.707  11.591  65.804  1.00  0.00    -0.263 C  
HETATM    7  C   UNL     1      -9.500  10.150  66.355  1.00  0.00    -0.223 C  
HETATM    8  C   UNL     1      -8.424  10.085  67.583  1.00  0.00    -0.114 C  
HETATM    9  C   UNL     1      -9.225   9.228  65.153  1.00  0.00    -0.264 C  
HETATM   10  C   UNL     1      -8.998  10.853  68.777  1.00  0.00    -0.166 C  
HETATM   11  C   UNL     1      -9.870   9.840  69.507  1.00  0.00    -0.230 C  
HETATM   12  C   UNL     1      -9.571   8.440  68.896  1.00  0.00    -0.153 C  
HETATM   13  C   UNL     1      -9.756   7.358  69.960  1.00  0.00    -0.175 C  
HETATM   14  C   UNL     1      -8.746   6.246  69.848  1.00  0.00    -0.141 C  
HETATM   15  C   UNL     1     -10.734   7.393  70.892  1.00  0.00    -0.248 C  
HETATM   16  C   UNL     1      -7.585   7.774  67.068  1.00  0.00    -0.100 C  
HETATM   17  C   UNL     1      -7.304   6.773  69.700  1.00  0.00    -0.087 C  
HETATM   18  C   UNL     1      -8.162   8.641  68.206  1.00  0.00    -0.122 C  
HETATM   19  C   UNL     1      -7.180   8.311  69.371  1.00  0.00    -0.059 C  
BRANCH  15  20
HETATM   20  C   UNL     1     -11.196   6.221  71.615  1.00  0.00    -0.337 C  
HETATM   21  C   UNL     1     -10.784   5.635  72.752  1.00  0.00    -0.283 C  
HETATM   22  C   UNL     1     -11.653   4.521  73.322  1.00  0.00    -0.254 C  
HETATM   23  C   UNL     1     -10.865   3.243  73.604  1.00  0.00    -0.231 C  
HETATM   24  C   UNL     1      -9.664   3.531  74.500  1.00  0.00    -0.157 C  
HETATM   25  O   UNL     1     -10.443   2.627  72.386  1.00  0.00    -0.139 OA 
HETATM   26  C   UNL     1      -8.787   4.653  73.936  1.00  0.00    -0.104 C  
HETATM   27  H   UNL     1      -9.953   1.833  72.561  1.00  0.00     0.000 HD 
HETATM   28  C   UNL     1      -9.590   5.886  73.557  1.00  0.00    -0.141 C  
HETATM   29  C   UNL     1      -9.245   7.110  74.014  1.00  0.00    -0.281 C  
ENDBRANCH  15  20
ENDBRANCH   5   6
ENDBRANCH   4   5
TORSDOF 3
ENDMDL
MODEL       63
REMARK 921   NORMALIZED FREE ENERGY PREDICTED BY IDOCK:   -5.32 KCAL/MOL
REMARK 922        TOTAL FREE ENERGY PREDICTED BY IDOCK:   -7.07 KCAL/MOL
REMARK 923 INTER-LIGAND FREE ENERGY PREDICTED BY IDOCK:   -6.38 KCAL/MOL
REMARK 924 INTRA-LIGAND FREE ENERGY PREDICTED BY IDOCK:   -0.69 KCAL/MOL
REMARK 927      BINDING AFFINITY PREDICTED BY RF-SCORE:    0.00 PKD
ROOT
HETATM    1  C   UNL     1      -5.593  19.697  66.927  1.00  0.00    -0.173 C  
HETATM    2  C   UNL     1      -6.210  19.107  65.660  1.00  0.00    -0.258 C  
HETATM    3  C   UNL     1      -5.141  18.334  64.881  1.00  0.00    -0.135 C  
HETATM    4  C   UNL     1      -7.391  18.166  65.958  1.00  0.00    -0.290 C  
ENDROOT
BRANCH   4   5
HETATM    5  C   UNL     1      -8.591  18.843  66.622  1.00  0.00    -0.312 C  
BRANCH   5   6
HETATM    6  C   UNL     1      -9.864  17.978  66.474  1.00  0.00    -0.353 C  
HETATM    7  C   UNL     1      -9.759  16.565  67.119  1.00  0.00    -0.246 C  
HETATM    8  C   UNL     1     -11.063  15.628  66.817  1.00  0.00    -0.169 C  
HETATM    9  C   UNL     1      -9.381  16.757  68.599  1.00  0.00    -0.252 C  
HETATM   10  C   UNL     1     -11.119  15.339  65.314  1.00  0.00    -0.382 C  
HETATM   11  C   UNL     1     -10.220  14.126  65.118  1.00  0.00    -0.411 C  
HETATM   12  C   UNL     1      -9.882  13.561  66.528  1.00  0.00    -0.292 C  
HETATM   13  C   UNL     1      -9.679  12.048  66.449  1.00  0.00    -0.239 C  
HETATM   14  C   UNL     1     -10.217  11.319  67.652  1.00  0.00    -0.206 C  
HETATM   15  C   UNL     1      -9.066  11.436  65.411  1.00  0.00    -0.115 C  
HETATM   16  C   UNL     1     -10.958  14.339  68.971  1.00  0.00    -0.282 C  
HETATM   17  C   UNL     1     -11.647  11.765  68.019  1.00  0.00    -0.386 C  
HETATM   18  C   UNL     1     -11.027  14.161  67.440  1.00  0.00    -0.306 C  
HETATM   19  C   UNL     1     -12.145  13.082  67.307  1.00  0.00    -0.304 C  
BRANCH  15  20
HETATM   20  C   UNL     1      -8.487  10.106  65.493  1.00  0.00    -0.159 C  
HETATM   21  C   UNL     1      -7.983   9.277  64.562  1.00  0.00    -0.128 C  
HETATM   22  C   UNL     1      -7.265   8.026  65.053  1.00  0.00    -0.069 C  
HETATM   23  C   UNL     1      -7.796   6.749  64.404  1.00  0.00    -0.113 C  
HETATM   24  C   UNL     1      -7.761   6.855  62.883  1.00  0.00    -0.107 C  
HETATM   25  O   UNL     1      -9.122   6.464  64.855  1.00  0.00    -0.281 OA 
HETATM   26  C   UNL     1      -8.477   8.113  62.382  1.00  0.00    -0.099 C  
HETATM   27  H   UNL     1      -9.452   5.670  64.452  1.00  0.00     0.000 HD 
HETATM   28  C   UNL     1      -8.022   9.370  63.104  1.00  0.00    -0.143 C  
HETATM   29  C   UNL     1      -7.609  10.458  62.416  1.00  0.00    -0.166 C  
ENDBRANCH  15  20
ENDBRANCH   5   6
ENDBRANCH   4   5
TORSDOF 3
ENDMDL
MODEL       64
REMARK 921   NORMALIZED FREE ENERGY PREDICTED BY IDOCK:   -5.27 KCAL/MOL
REMARK 922        TOTAL FREE ENERGY PREDICTED BY IDOCK:   -7.01 KCAL/MOL
REMARK 923 INTER-LIGAND FREE ENERGY PREDICTED BY IDOCK:   -5.74 KCAL/MOL
REMARK 924 INTRA-LIGAND FREE ENERGY PREDICTED BY IDOCK:   -1.27 KCAL/MOL
REMARK 927      BINDING AFFINITY PREDICTED BY RF-SCORE:    0.00 PKD
ROOT
HETATM    1  C   UNL     1     -10.069   4.369  70.854  1.00  0.00    -0.199 C  
HETATM    2  C   UNL     1      -9.719   5.806  70.470  1.00  0.00    -0.225 C  
HETATM    3  C   UNL     1     -10.864   6.740  70.873  1.00  0.00    -0.289 C  
HETATM    4  C   UNL     1      -8.416   6.296  71.129  1.00  0.00    -0.124 C  
ENDROOT
BRANCH   4   5
HETATM    5  C   UNL     1      -7.163   5.528  70.708  1.00  0.00    -0.074 C  
BRANCH   5   6
HETATM    6  C   UNL     1      -7.167   5.262  69.184  1.00  0.00    -0.058 C  
HETATM    7  C   UNL     1      -6.945   6.531  68.310  1.00  0.00    -0.080 C  
HETATM    8  C   UNL     1      -7.101   6.237  66.710  1.00  0.00    -0.073 C  
HETATM    9  C   UNL     1      -5.626   7.182  68.762  1.00  0.00    -0.018 C  
HETATM   10  C   UNL     1      -8.554   5.846  66.425  1.00  0.00    -0.127 C  
HETATM   11  C   UNL     1      -9.283   7.170  66.238  1.00  0.00    -0.169 C  
HETATM   12  C   UNL     1      -8.205   8.288  66.139  1.00  0.00    -0.119 C  
HETATM   13  C   UNL     1      -8.709   9.420  65.245  1.00  0.00    -0.204 C  
HETATM   14  C   UNL     1      -7.624  10.022  64.390  1.00  0.00    -0.145 C  
HETATM   15  C   UNL     1      -9.993   9.843  65.236  1.00  0.00    -0.320 C  
HETATM   16  C   UNL     1      -5.447   7.976  65.967  1.00  0.00    -0.029 C  
HETATM   17  C   UNL     1      -6.781   8.950  63.670  1.00  0.00    -0.089 C  
HETATM   18  C   UNL     1      -6.895   7.491  65.747  1.00  0.00    -0.056 C  
HETATM   19  C   UNL     1      -6.980   7.475  64.190  1.00  0.00    -0.061 C  
BRANCH  15  20
HETATM   20  C   UNL     1     -10.405  11.148  64.747  1.00  0.00    -0.387 C  
HETATM   21  C   UNL     1     -10.374  12.374  65.296  1.00  0.00    -0.308 C  
HETATM   22  C   UNL     1     -10.707  13.555  64.392  1.00  0.00    -0.402 C  
HETATM   23  C   UNL     1     -11.793  14.457  64.977  1.00  0.00    -0.400 C  
HETATM   24  C   UNL     1     -11.421  14.915  66.384  1.00  0.00    -0.280 C  
HETATM   25  O   UNL     1     -13.057  13.791  64.986  1.00  0.00    -0.751 OA 
HETATM   26  C   UNL     1     -11.080  13.733  67.297  1.00  0.00    -0.319 C  
HETATM   27  H   UNL     1     -13.732  14.351  65.350  1.00  0.00     0.000 HD 
HETATM   28  C   UNL     1     -10.079  12.780  66.669  1.00  0.00    -0.248 C  
HETATM   29  C   UNL     1      -8.957  12.413  67.327  1.00  0.00    -0.190 C  
ENDBRANCH  15  20
ENDBRANCH   5   6
ENDBRANCH   4   5
TORSDOF 3
ENDMDL
MODEL       65
REMARK 921   NORMALIZED FREE ENERGY PREDICTED BY IDOCK:   -5.27 KCAL/MOL
REMARK 922        TOTAL FREE ENERGY PREDICTED BY IDOCK:   -7.01 KCAL/MOL
REMARK 923 INTER-LIGAND FREE ENERGY PREDICTED BY IDOCK:   -6.10 KCAL/MOL
REMARK 924 INTRA-LIGAND FREE ENERGY PREDICTED BY IDOCK:   -0.91 KCAL/MOL
REMARK 927      BINDING AFFINITY PREDICTED BY RF-SCORE:    0.00 PKD
ROOT
HETATM    1  C   UNL     1      -8.036   4.545  73.795  1.00  0.00    -0.101 C  
HETATM    2  C   UNL     1      -8.566   4.981  72.430  1.00  0.00    -0.124 C  
HETATM    3  C   UNL     1      -7.804   4.244  71.324  1.00  0.00    -0.072 C  
HETATM    4  C   UNL     1     -10.073   4.712  72.265  1.00  0.00    -0.250 C  
ENDROOT
BRANCH   4   5
HETATM    5  C   UNL     1     -10.967   5.493  73.228  1.00  0.00    -0.339 C  
BRANCH   5   6
HETATM    6  C   UNL     1     -10.696   7.012  73.122  1.00  0.00    -0.359 C  
HETATM    7  C   UNL     1     -11.290   7.683  71.850  1.00  0.00    -0.308 C  
HETATM    8  C   UNL     1     -10.861   9.253  71.697  1.00  0.00    -0.418 C  
HETATM    9  C   UNL     1     -12.800   7.380  71.826  1.00  0.00    -0.365 C  
HETATM   10  C   UNL     1      -9.347   9.325  71.475  1.00  0.00    -0.052 C  
HETATM   11  C   UNL     1      -9.166   9.145  69.974  1.00  0.00    -0.209 C  
HETATM   12  C   UNL     1     -10.573   9.251  69.317  1.00  0.00    -0.234 C  
HETATM   13  C   UNL     1     -10.448   9.830  67.908  1.00  0.00    -0.288 C  
HETATM   14  C   UNL     1     -11.581  10.756  67.550  1.00  0.00    -0.011 C  
HETATM   15  C   UNL     1      -9.432   9.527  67.069  1.00  0.00    -0.197 C  
HETATM   16  C   UNL     1     -12.964   9.983  70.534  1.00  0.00    -0.156 C  
HETATM   17  C   UNL     1     -11.865  11.792  68.656  1.00  0.00    -0.369 C  
HETATM   18  C   UNL     1     -11.426  10.009  70.413  1.00  0.00    -0.389 C  
HETATM   19  C   UNL     1     -11.173  11.503  70.044  1.00  0.00    -0.108 C  
BRANCH  15  20
HETATM   20  C   UNL     1      -9.501   9.703  65.629  1.00  0.00    -0.318 C  
HETATM   21  C   UNL     1      -8.624   9.452  64.641  1.00  0.00    -0.209 C  
HETATM   22  C   UNL     1      -9.129   9.573  63.209  1.00  0.00    -0.147 C  
HETATM   23  C   UNL     1      -8.248  10.479  62.348  1.00  0.00    -0.194 C  
HETATM   24  C   UNL     1      -6.792  10.025  62.393  1.00  0.00    -0.124 C  
HETATM   25  O   UNL     1      -8.361  11.841  62.765  1.00  0.00    -0.486 OA 
HETATM   26  C   UNL     1      -6.279   9.896  63.831  1.00  0.00    -0.125 C  
HETATM   27  H   UNL     1      -7.813  12.404  62.230  1.00  0.00     0.000 HD 
HETATM   28  C   UNL     1      -7.212   9.083  64.712  1.00  0.00    -0.096 C  
HETATM   29  C   UNL     1      -6.751   8.042  65.441  1.00  0.00    -0.055 C  
ENDBRANCH  15  20
ENDBRANCH   5   6
ENDBRANCH   4   5
TORSDOF 3
ENDMDL
MODEL       66
REMARK 921   NORMALIZED FREE ENERGY PREDICTED BY IDOCK:   -5.25 KCAL/MOL
REMARK 922        TOTAL FREE ENERGY PREDICTED BY IDOCK:   -6.99 KCAL/MOL
REMARK 923 INTER-LIGAND FREE ENERGY PREDICTED BY IDOCK:   -6.21 KCAL/MOL
REMARK 924 INTRA-LIGAND FREE ENERGY PREDICTED BY IDOCK:   -0.78 KCAL/MOL
REMARK 927      BINDING AFFINITY PREDICTED BY RF-SCORE:    0.00 PKD
ROOT
HETATM    1  C   UNL     1     -10.938   3.851  73.894  1.00  0.00    -0.285 C  
HETATM    2  C   UNL     1      -9.425   4.035  73.787  1.00  0.00    -0.123 C  
HETATM    3  C   UNL     1      -8.715   2.896  74.525  1.00  0.00    -0.080 C  
HETATM    4  C   UNL     1      -8.933   4.070  72.328  1.00  0.00    -0.137 C  
ENDROOT
BRANCH   4   5
HETATM    5  C   UNL     1      -9.466   5.244  71.506  1.00  0.00    -0.191 C  
BRANCH   5   6
HETATM    6  C   UNL     1      -9.470   4.904  69.998  1.00  0.00    -0.234 C  
HETATM    7  C   UNL     1      -8.791   5.976  69.096  1.00  0.00    -0.119 C  
HETATM    8  C   UNL     1      -8.942   5.655  67.501  1.00  0.00    -0.107 C  
HETATM    9  C   UNL     1      -7.359   6.186  69.620  1.00  0.00    -0.079 C  
HETATM   10  C   UNL     1     -10.424   5.745  67.123  1.00  0.00    -0.337 C  
HETATM   11  C   UNL     1     -10.662   7.221  66.834  1.00  0.00    -0.346 C  
HETATM   12  C   UNL     1      -9.271   7.917  66.774  1.00  0.00    -0.206 C  
HETATM   13  C   UNL     1      -9.320   9.096  65.803  1.00  0.00    -0.309 C  
HETATM   14  C   UNL     1      -8.050   9.258  65.010  1.00  0.00    -0.127 C  
HETATM   15  C   UNL     1     -10.389   9.915  65.684  1.00  0.00    -0.115 C  
HETATM   16  C   UNL     1      -6.767   6.710  66.819  1.00  0.00    -0.056 C  
HETATM   17  C   UNL     1      -7.568   7.929  64.394  1.00  0.00    -0.116 C  
HETATM   18  C   UNL     1      -8.278   6.713  66.510  1.00  0.00    -0.114 C  
HETATM   19  C   UNL     1      -8.273   6.633  64.953  1.00  0.00    -0.085 C  
BRANCH  15  20
HETATM   20  C   UNL     1     -10.318  11.251  65.117  1.00  0.00    -0.353 C  
HETATM   21  C   UNL     1     -10.416  12.475  65.664  1.00  0.00    -0.299 C  
HETATM   22  C   UNL     1     -10.081  13.667  64.777  1.00  0.00    -0.268 C  
HETATM   23  C   UNL     1     -11.186  14.723  64.766  1.00  0.00    -0.385 C  
HETATM   24  C   UNL     1     -11.535  15.161  66.185  1.00  0.00    -0.157 C  
HETATM   25  O   UNL     1     -12.348  14.235  64.093  1.00  0.00    -0.630 OA 
HETATM   26  C   UNL     1     -11.869  13.966  67.084  1.00  0.00    -0.445 C  
HETATM   27  H   UNL     1     -13.035  14.891  64.086  1.00  0.00     0.000 HD 
HETATM   28  C   UNL     1     -10.819  12.870  67.012  1.00  0.00    -0.282 C  
HETATM   29  C   UNL     1     -10.255  12.370  68.133  1.00  0.00    -0.225 C  
ENDBRANCH  15  20
ENDBRANCH   5   6
ENDBRANCH   4   5
TORSDOF 3
ENDMDL
MODEL       67
REMARK 921   NORMALIZED FREE ENERGY PREDICTED BY IDOCK:   -5.23 KCAL/MOL
REMARK 922        TOTAL FREE ENERGY PREDICTED BY IDOCK:   -6.96 KCAL/MOL
REMARK 923 INTER-LIGAND FREE ENERGY PREDICTED BY IDOCK:   -6.39 KCAL/MOL
REMARK 924 INTRA-LIGAND FREE ENERGY PREDICTED BY IDOCK:   -0.56 KCAL/MOL
REMARK 927      BINDING AFFINITY PREDICTED BY RF-SCORE:    0.00 PKD
ROOT
HETATM    1  C   UNL     1      -7.305   6.947  65.321  1.00  0.00    -0.084 C  
HETATM    2  C   UNL     1      -7.098   7.213  63.831  1.00  0.00    -0.061 C  
HETATM    3  C   UNL     1      -7.195   5.896  63.055  1.00  0.00    -0.053 C  
HETATM    4  C   UNL     1      -8.124   8.209  63.258  1.00  0.00    -0.121 C  
ENDROOT
BRANCH   4   5
HETATM    5  C   UNL     1      -8.048   9.614  63.856  1.00  0.00    -0.152 C  
BRANCH   5   6
HETATM    6  C   UNL     1      -8.881   9.705  65.156  1.00  0.00    -0.215 C  
HETATM    7  C   UNL     1      -9.512  11.104  65.417  1.00  0.00    -0.253 C  
HETATM    8  C   UNL     1     -10.260  11.204  66.867  1.00  0.00    -0.260 C  
HETATM    9  C   UNL     1     -10.356  11.472  64.183  1.00  0.00    -0.386 C  
HETATM   10  C   UNL     1      -9.208  11.066  67.970  1.00  0.00    -0.159 C  
HETATM   11  C   UNL     1      -8.666  12.475  68.169  1.00  0.00    -0.190 C  
HETATM   12  C   UNL     1      -9.596  13.449  67.388  1.00  0.00    -0.223 C  
HETATM   13  C   UNL     1      -9.633  14.807  68.087  1.00  0.00    -0.209 C  
HETATM   14  C   UNL     1     -10.993  15.453  68.044  1.00  0.00    -0.307 C  
HETATM   15  C   UNL     1      -8.551  15.372  68.668  1.00  0.00    -0.179 C  
HETATM   16  C   UNL     1     -12.008  12.855  66.139  1.00  0.00    -0.491 C  
HETATM   17  C   UNL     1     -12.119  14.481  68.452  1.00  0.00    -0.249 C  
HETATM   18  C   UNL     1     -10.927  12.611  67.211  1.00  0.00    -0.291 C  
HETATM   19  C   UNL     1     -11.705  12.961  68.517  1.00  0.00    -0.374 C  
BRANCH  15  20
HETATM   20  C   UNL     1      -8.441  16.793  68.948  1.00  0.00    -0.217 C  
HETATM   21  C   UNL     1      -7.845  17.804  68.291  1.00  0.00    -0.279 C  
HETATM   22  C   UNL     1      -8.117  19.219  68.787  1.00  0.00    -0.391 C  
HETATM   23  C   UNL     1      -6.834  20.010  69.043  1.00  0.00    -0.267 C  
HETATM   24  C   UNL     1      -5.940  20.011  67.807  1.00  0.00    -0.228 C  
HETATM   25  O   UNL     1      -6.130  19.485  70.169  1.00  0.00    -0.262 OA 
HETATM   26  C   UNL     1      -5.666  18.591  67.299  1.00  0.00    -0.146 C  
HETATM   27  H   UNL     1      -5.333  19.977  70.328  1.00  0.00     0.000 HD 
HETATM   28  C   UNL     1      -6.936  17.772  67.147  1.00  0.00    -0.196 C  
HETATM   29  C   UNL     1      -7.218  17.132  65.990  1.00  0.00    -0.149 C  
ENDBRANCH  15  20
ENDBRANCH   5   6
ENDBRANCH   4   5
TORSDOF 3
ENDMDL
MODEL       68
REMARK 921   NORMALIZED FREE ENERGY PREDICTED BY IDOCK:   -5.20 KCAL/MOL
REMARK 922        TOTAL FREE ENERGY PREDICTED BY IDOCK:   -6.92 KCAL/MOL
REMARK 923 INTER-LIGAND FREE ENERGY PREDICTED BY IDOCK:   -5.98 KCAL/MOL
REMARK 924 INTRA-LIGAND FREE ENERGY PREDICTED BY IDOCK:   -0.95 KCAL/MOL
REMARK 927      BINDING AFFINITY PREDICTED BY RF-SCORE:    0.00 PKD
ROOT
HETATM    1  C   UNL     1      -8.354   3.611  63.374  1.00  0.00    -0.090 C  
HETATM    2  C   UNL     1      -7.600   4.728  64.095  1.00  0.00    -0.072 C  
HETATM    3  C   UNL     1      -7.373   5.899  63.135  1.00  0.00    -0.062 C  
HETATM    4  C   UNL     1      -8.346   5.239  65.341  1.00  0.00    -0.136 C  
ENDROOT
BRANCH   4   5
HETATM    5  C   UNL     1      -8.526   4.197  66.446  1.00  0.00    -0.108 C  
BRANCH   5   6
HETATM    6  C   UNL     1      -8.334   4.835  67.842  1.00  0.00    -0.103 C  
HETATM    7  C   UNL     1      -9.362   5.954  68.182  1.00  0.00    -0.117 C  
HETATM    8  C   UNL     1      -9.040   6.705  69.598  1.00  0.00    -0.142 C  
HETATM    9  C   UNL     1     -10.771   5.355  68.029  1.00  0.00    -0.084 C  
HETATM   10  C   UNL     1      -7.713   7.456  69.462  1.00  0.00    -0.108 C  
HETATM   11  C   UNL     1      -8.088   8.800  68.852  1.00  0.00    -0.114 C  
HETATM   12  C   UNL     1      -9.639   8.920  68.902  1.00  0.00    -0.160 C  
HETATM   13  C   UNL     1     -10.044  10.386  69.048  1.00  0.00    -0.227 C  
HETATM   14  C   UNL     1     -11.242  10.579  69.939  1.00  0.00    -0.374 C  
HETATM   15  C   UNL     1      -9.398  11.399  68.428  1.00  0.00    -0.194 C  
HETATM   16  C   UNL     1     -11.433   7.214  70.167  1.00  0.00    -0.245 C  
HETATM   17  C   UNL     1     -11.120   9.803  71.266  1.00  0.00    -0.375 C  
HETATM   18  C   UNL     1     -10.045   7.870  70.014  1.00  0.00    -0.199 C  
HETATM   19  C   UNL     1      -9.966   8.728  71.313  1.00  0.00    -0.333 C  
BRANCH  15  20
HETATM   20  C   UNL     1      -9.989  12.706  68.198  1.00  0.00    -0.225 C  
HETATM   21  C   UNL     1     -10.634  13.238  67.145  1.00  0.00    -0.259 C  
HETATM   22  C   UNL     1     -11.304  14.592  67.345  1.00  0.00    -0.370 C  
HETATM   23  C   UNL     1     -10.894  15.614  66.286  1.00  0.00    -0.262 C  
HETATM   24  C   UNL     1     -11.137  15.071  64.881  1.00  0.00    -0.425 C  
HETATM   25  O   UNL     1      -9.526  15.992  66.447  1.00  0.00    -0.248 OA 
HETATM   26  C   UNL     1     -10.469  13.707  64.674  1.00  0.00    -0.442 C  
HETATM   27  H   UNL     1      -9.271  16.627  65.789  1.00  0.00     0.000 HD 
HETATM   28  C   UNL     1     -10.794  12.724  65.786  1.00  0.00    -0.299 C  
HETATM   29  C   UNL     1     -11.273  11.492  65.509  1.00  0.00    -0.204 C  
ENDBRANCH  15  20
ENDBRANCH   5   6
ENDBRANCH   4   5
TORSDOF 3
ENDMDL
MODEL       69
REMARK 921   NORMALIZED FREE ENERGY PREDICTED BY IDOCK:   -5.20 KCAL/MOL
REMARK 922        TOTAL FREE ENERGY PREDICTED BY IDOCK:   -6.92 KCAL/MOL
REMARK 923 INTER-LIGAND FREE ENERGY PREDICTED BY IDOCK:   -5.75 KCAL/MOL
REMARK 924 INTRA-LIGAND FREE ENERGY PREDICTED BY IDOCK:   -1.17 KCAL/MOL
REMARK 927      BINDING AFFINITY PREDICTED BY RF-SCORE:    0.00 PKD
ROOT
HETATM    1  C   UNL     1      -7.124   9.071  71.739  1.00  0.00     0.034 C  
HETATM    2  C   UNL     1      -6.910   7.875  72.666  1.00  0.00    -0.083 C  
HETATM    3  C   UNL     1      -7.469   8.195  74.055  1.00  0.00    -0.228 C  
HETATM    4  C   UNL     1      -7.579   6.591  72.141  1.00  0.00    -0.097 C  
ENDROOT
BRANCH   4   5
HETATM    5  C   UNL     1      -7.019   6.081  70.812  1.00  0.00    -0.067 C  
BRANCH   5   6
HETATM    6  C   UNL     1      -8.056   6.250  69.677  1.00  0.00    -0.120 C  
HETATM    7  C   UNL     1      -7.846   7.519  68.800  1.00  0.00    -0.121 C  
HETATM    8  C   UNL     1      -9.040   7.743  67.707  1.00  0.00    -0.136 C  
HETATM    9  C   UNL     1      -6.410   7.469  68.246  1.00  0.00    -0.044 C  
HETATM   10  C   UNL     1     -10.343   8.031  68.460  1.00  0.00    -0.229 C  
HETATM   11  C   UNL     1     -10.319   9.531  68.719  1.00  0.00    -0.228 C  
HETATM   12  C   UNL     1      -9.154  10.132  67.879  1.00  0.00    -0.133 C  
HETATM   13  C   UNL     1      -9.495  11.564  67.467  1.00  0.00    -0.173 C  
HETATM   14  C   UNL     1      -9.017  11.906  66.080  1.00  0.00    -0.116 C  
HETATM   15  C   UNL     1     -10.144  12.433  68.274  1.00  0.00    -0.227 C  
HETATM   16  C   UNL     1      -7.597   8.843  65.971  1.00  0.00    -0.094 C  
HETATM   17  C   UNL     1      -9.392  10.826  65.046  1.00  0.00    -0.261 C  
HETATM   18  C   UNL     1      -8.900   9.028  66.774  1.00  0.00    -0.144 C  
HETATM   19  C   UNL     1      -9.894   9.459  65.652  1.00  0.00    -0.294 C  
BRANCH  15  20
HETATM   20  C   UNL     1     -10.103  13.875  68.098  1.00  0.00    -0.250 C  
HETATM   21  C   UNL     1     -10.669  14.696  67.197  1.00  0.00    -0.292 C  
HETATM   22  C   UNL     1     -10.566  16.194  67.452  1.00  0.00    -0.311 C  
HETATM   23  C   UNL     1     -10.010  16.960  66.252  1.00  0.00    -0.309 C  
HETATM   24  C   UNL     1     -10.816  16.660  64.993  1.00  0.00    -0.190 C  
HETATM   25  O   UNL     1      -8.630  16.651  66.048  1.00  0.00    -0.429 OA 
HETATM   26  C   UNL     1     -10.927  15.154  64.732  1.00  0.00    -0.394 C  
HETATM   27  H   UNL     1      -8.284  17.127  65.303  1.00  0.00     0.000 HD 
HETATM   28  C   UNL     1     -11.380  14.382  65.959  1.00  0.00    -0.335 C  
HETATM   29  C   UNL     1     -12.425  13.528  65.898  1.00  0.00    -0.484 C  
ENDBRANCH  15  20
ENDBRANCH   5   6
ENDBRANCH   4   5
TORSDOF 3
ENDMDL
MODEL       70
REMARK 921   NORMALIZED FREE ENERGY PREDICTED BY IDOCK:   -5.16 KCAL/MOL
REMARK 922        TOTAL FREE ENERGY PREDICTED BY IDOCK:   -6.88 KCAL/MOL
REMARK 923 INTER-LIGAND FREE ENERGY PREDICTED BY IDOCK:   -5.67 KCAL/MOL
REMARK 924 INTRA-LIGAND FREE ENERGY PREDICTED BY IDOCK:   -1.20 KCAL/MOL
REMARK 927      BINDING AFFINITY PREDICTED BY RF-SCORE:    0.00 PKD
ROOT
HETATM    1  C   UNL     1      -8.125  18.903  66.431  1.00  0.00    -0.306 C  
HETATM    2  C   UNL     1      -9.538  18.827  67.007  1.00  0.00    -0.329 C  
HETATM    3  C   UNL     1      -9.960  20.208  67.519  1.00  0.00    -0.571 C  
HETATM    4  C   UNL     1     -10.573  18.337  65.978  1.00  0.00    -0.318 C  
ENDROOT
BRANCH   4   5
HETATM    5  C   UNL     1     -10.345  16.910  65.478  1.00  0.00    -0.196 C  
BRANCH   5   6
HETATM    6  C   UNL     1     -10.815  15.877  66.528  1.00  0.00    -0.198 C  
HETATM    7  C   UNL     1      -9.803  14.723  66.789  1.00  0.00    -0.263 C  
HETATM    8  C   UNL     1     -10.393  13.574  67.792  1.00  0.00    -0.241 C  
HETATM    9  C   UNL     1      -8.462  15.361  67.192  1.00  0.00    -0.241 C  
HETATM   10  C   UNL     1     -11.570  12.880  67.101  1.00  0.00    -0.421 C  
HETATM   11  C   UNL     1     -10.932  11.789  66.251  1.00  0.00    -0.346 C  
HETATM   12  C   UNL     1      -9.437  11.682  66.670  1.00  0.00    -0.213 C  
HETATM   13  C   UNL     1      -8.946  10.246  66.489  1.00  0.00    -0.161 C  
HETATM   14  C   UNL     1      -7.992   9.811  67.570  1.00  0.00    -0.106 C  
HETATM   15  C   UNL     1      -9.322   9.459  65.456  1.00  0.00    -0.315 C  
HETATM   16  C   UNL     1      -8.178  12.952  68.800  1.00  0.00     0.116 C  
HETATM   17  C   UNL     1      -8.510  10.147  68.982  1.00  0.00    -0.151 C  
HETATM   18  C   UNL     1      -9.417  12.353  68.104  1.00  0.00    -0.214 C  
HETATM   19  C   UNL     1      -9.734  11.140  69.032  1.00  0.00    -0.113 C  
BRANCH  15  20
HETATM   20  C   UNL     1      -8.573   8.292  65.024  1.00  0.00    -0.102 C  
HETATM   21  C   UNL     1      -8.535   7.023  65.466  1.00  0.00    -0.120 C  
HETATM   22  C   UNL     1      -7.772   6.009  64.623  1.00  0.00    -0.099 C  
HETATM   23  C   UNL     1      -6.742   5.224  65.434  1.00  0.00    -0.045 C  
HETATM   24  C   UNL     1      -7.391   4.567  66.649  1.00  0.00    -0.081 C  
HETATM   25  O   UNL     1      -5.663   6.068  65.839  1.00  0.00    -0.018 OA 
HETATM   26  C   UNL     1      -8.165   5.580  67.499  1.00  0.00    -0.101 C  
HETATM   27  H   UNL     1      -5.023   5.580  66.343  1.00  0.00     0.000 HD 
HETATM   28  C   UNL     1      -9.111   6.433  66.673  1.00  0.00    -0.155 C  
HETATM   29  C   UNL     1     -10.414   6.555  67.011  1.00  0.00    -0.364 C  
ENDBRANCH  15  20
ENDBRANCH   5   6
ENDBRANCH   4   5
TORSDOF 3
ENDMDL
MODEL       71
REMARK 921   NORMALIZED FREE ENERGY PREDICTED BY IDOCK:   -5.13 KCAL/MOL
REMARK 922        TOTAL FREE ENERGY PREDICTED BY IDOCK:   -6.84 KCAL/MOL
REMARK 923 INTER-LIGAND FREE ENERGY PREDICTED BY IDOCK:   -6.28 KCAL/MOL
REMARK 924 INTRA-LIGAND FREE ENERGY PREDICTED BY IDOCK:   -0.56 KCAL/MOL
REMARK 927      BINDING AFFINITY PREDICTED BY RF-SCORE:    0.00 PKD
ROOT
HETATM    1  C   UNL     1     -10.300   4.119  71.890  1.00  0.00    -0.112 C  
HETATM    2  C   UNL     1     -10.427   4.733  73.284  1.00  0.00    -0.258 C  
HETATM    3  C   UNL     1     -10.621   3.622  74.320  1.00  0.00    -0.259 C  
HETATM    4  C   UNL     1      -9.198   5.574  73.676  1.00  0.00    -0.133 C  
ENDROOT
BRANCH   4   5
HETATM    5  C   UNL     1      -8.962   6.802  72.796  1.00  0.00    -0.139 C  
BRANCH   5   6
HETATM    6  C   UNL     1      -8.021   6.462  71.616  1.00  0.00    -0.102 C  
HETATM    7  C   UNL     1      -7.760   7.647  70.641  1.00  0.00    -0.088 C  
HETATM    8  C   UNL     1      -6.883   7.213  69.332  1.00  0.00    -0.050 C  
HETATM    9  C   UNL     1      -7.215   8.822  71.472  1.00  0.00    -0.107 C  
HETATM   10  C   UNL     1      -7.706   6.227  68.497  1.00  0.00    -0.101 C  
HETATM   11  C   UNL     1      -8.575   7.104  67.606  1.00  0.00    -0.122 C  
HETATM   12  C   UNL     1      -8.051   8.564  67.732  1.00  0.00    -0.115 C  
HETATM   13  C   UNL     1      -8.289   9.318  66.423  1.00  0.00    -0.120 C  
HETATM   14  C   UNL     1      -7.169  10.265  66.079  1.00  0.00    -0.128 C  
HETATM   15  C   UNL     1      -9.397   9.157  65.666  1.00  0.00    -0.300 C  
HETATM   16  C   UNL     1      -5.753   9.436  69.031  1.00  0.00    -0.036 C  
HETATM   17  C   UNL     1      -5.781   9.606  66.207  1.00  0.00    -0.053 C  
HETATM   18  C   UNL     1      -6.579   8.372  68.280  1.00  0.00    -0.060 C  
HETATM   19  C   UNL     1      -5.760   8.221  66.962  1.00  0.00    -0.042 C  
BRANCH  15  20
HETATM   20  C   UNL     1      -9.847  10.131  64.686  1.00  0.00    -0.361 C  
HETATM   21  C   UNL     1     -10.287  11.396  64.800  1.00  0.00    -0.349 C  
HETATM   22  C   UNL     1     -10.480  12.189  63.514  1.00  0.00    -0.490 C  
HETATM   23  C   UNL     1     -11.870  12.817  63.412  1.00  0.00    -0.518 C  
HETATM   24  C   UNL     1     -12.177  13.663  64.643  1.00  0.00    -0.448 C  
HETATM   25  O   UNL     1     -12.869  11.813  63.233  1.00  0.00    -0.778 OA 
HETATM   26  C   UNL     1     -11.981  12.873  65.941  1.00  0.00    -0.504 C  
HETATM   27  H   UNL     1     -13.733  12.203  63.169  1.00  0.00     0.000 HD 
HETATM   28  C   UNL     1     -10.640  12.162  65.994  1.00  0.00    -0.292 C  
HETATM   29  C   UNL     1      -9.813  12.312  67.053  1.00  0.00    -0.211 C  
ENDBRANCH  15  20
ENDBRANCH   5   6
ENDBRANCH   4   5
TORSDOF 3
ENDMDL
MODEL       72
REMARK 921   NORMALIZED FREE ENERGY PREDICTED BY IDOCK:   -5.10 KCAL/MOL
REMARK 922        TOTAL FREE ENERGY PREDICTED BY IDOCK:   -6.81 KCAL/MOL
REMARK 923 INTER-LIGAND FREE ENERGY PREDICTED BY IDOCK:   -5.84 KCAL/MOL
REMARK 924 INTRA-LIGAND FREE ENERGY PREDICTED BY IDOCK:   -0.97 KCAL/MOL
REMARK 927      BINDING AFFINITY PREDICTED BY RF-SCORE:    0.00 PKD
ROOT
HETATM    1  C   UNL     1      -6.384  19.500  64.972  1.00  0.00    -0.313 C  
HETATM    2  C   UNL     1      -6.552  18.408  66.027  1.00  0.00    -0.287 C  
HETATM    3  C   UNL     1      -5.258  17.596  66.139  1.00  0.00    -0.228 C  
HETATM    4  C   UNL     1      -6.910  18.973  67.414  1.00  0.00    -0.214 C  
ENDROOT
BRANCH   4   5
HETATM    5  C   UNL     1      -8.254  19.700  67.476  1.00  0.00    -0.332 C  
BRANCH   5   6
HETATM    6  C   UNL     1      -9.371  18.850  66.826  1.00  0.00    -0.343 C  
HETATM    7  C   UNL     1      -9.693  17.528  67.582  1.00  0.00    -0.275 C  
HETATM    8  C   UNL     1     -10.771  16.588  66.790  1.00  0.00    -0.155 C  
HETATM    9  C   UNL     1     -10.044  17.897  69.035  1.00  0.00    -0.292 C  
HETATM   10  C   UNL     1     -10.134  16.114  65.480  1.00  0.00    -0.308 C  
HETATM   11  C   UNL     1      -9.348  14.867  65.859  1.00  0.00    -0.216 C  
HETATM   12  C   UNL     1      -9.759  14.477  67.309  1.00  0.00    -0.232 C  
HETATM   13  C   UNL     1      -9.663  12.962  67.488  1.00  0.00    -0.205 C  
HETATM   14  C   UNL     1     -10.759  12.402  68.355  1.00  0.00    -0.254 C  
HETATM   15  C   UNL     1      -8.684  12.211  66.936  1.00  0.00    -0.194 C  
HETATM   16  C   UNL     1     -11.794  15.579  68.850  1.00  0.00    -0.357 C  
HETATM   17  C   UNL     1     -12.153  12.921  67.949  1.00  0.00    -0.209 C  
HETATM   18  C   UNL     1     -11.148  15.211  67.498  1.00  0.00    -0.319 C  
HETATM   19  C   UNL     1     -12.152  14.148  66.958  1.00  0.00    -0.449 C  
BRANCH  15  20
HETATM   20  C   UNL     1      -8.318  10.890  67.417  1.00  0.00    -0.117 C  
HETATM   21  C   UNL     1      -7.300  10.065  67.117  1.00  0.00    -0.091 C  
HETATM   22  C   UNL     1      -7.122   8.826  67.986  1.00  0.00    -0.079 C  
HETATM   23  C   UNL     1      -7.038   7.538  67.167  1.00  0.00    -0.085 C  
HETATM   24  C   UNL     1      -5.947   7.639  66.105  1.00  0.00    -0.038 C  
HETATM   25  O   UNL     1      -8.297   7.237  66.564  1.00  0.00    -0.112 OA 
HETATM   26  C   UNL     1      -6.117   8.885  65.229  1.00  0.00    -0.059 C  
HETATM   27  H   UNL     1      -8.245   6.436  66.055  1.00  0.00     0.000 HD 
HETATM   28  C   UNL     1      -6.307  10.151  66.047  1.00  0.00    -0.094 C  
HETATM   29  C   UNL     1      -5.539  11.242  65.831  1.00  0.00     0.014 C  
ENDBRANCH  15  20
ENDBRANCH   5   6
ENDBRANCH   4   5
TORSDOF 3
ENDMDL
MODEL       73
REMARK 921   NORMALIZED FREE ENERGY PREDICTED BY IDOCK:   -5.06 KCAL/MOL
REMARK 922        TOTAL FREE ENERGY PREDICTED BY IDOCK:   -6.76 KCAL/MOL
REMARK 923 INTER-LIGAND FREE ENERGY PREDICTED BY IDOCK:   -5.72 KCAL/MOL
REMARK 924 INTRA-LIGAND FREE ENERGY PREDICTED BY IDOCK:   -1.05 KCAL/MOL
REMARK 927      BINDING AFFINITY PREDICTED BY RF-SCORE:    0.00 PKD
ROOT
HETATM    1  C   UNL     1     -13.969  15.290  70.964  1.00  0.00    -0.368 C  
HETATM    2  C   UNL     1     -12.611  14.641  71.230  1.00  0.00    -0.403 C  
HETATM    3  C   UNL     1     -12.670  13.843  72.536  1.00  0.00    -0.276 C  
HETATM    4  C   UNL     1     -12.168  13.705  70.090  1.00  0.00    -0.413 C  
ENDROOT
BRANCH   4   5
HETATM    5  C   UNL     1     -11.942  14.402  68.748  1.00  0.00    -0.331 C  
BRANCH   5   6
HETATM    6  C   UNL     1     -10.628  13.918  68.091  1.00  0.00    -0.258 C  
HETATM    7  C   UNL     1     -10.701  12.483  67.492  1.00  0.00    -0.250 C  
HETATM    8  C   UNL     1      -9.258  11.950  66.938  1.00  0.00    -0.193 C  
HETATM    9  C   UNL     1     -11.871  12.455  66.492  1.00  0.00    -0.407 C  
HETATM   10  C   UNL     1      -8.304  11.801  68.127  1.00  0.00    -0.156 C  
HETATM   11  C   UNL     1      -8.588  10.412  68.682  1.00  0.00    -0.133 C  
HETATM   12  C   UNL     1      -9.490   9.672  67.652  1.00  0.00    -0.155 C  
HETATM   13  C   UNL     1      -9.211   8.170  67.699  1.00  0.00    -0.150 C  
HETATM   14  C   UNL     1      -9.264   7.521  66.341  1.00  0.00    -0.212 C  
HETATM   15  C   UNL     1      -8.958   7.498  68.844  1.00  0.00    -0.134 C  
HETATM   16  C   UNL     1     -10.200  10.520  65.101  1.00  0.00    -0.358 C  
HETATM   17  C   UNL     1      -8.456   8.299  65.284  1.00  0.00    -0.179 C  
HETATM   18  C   UNL     1      -9.249  10.483  66.314  1.00  0.00    -0.192 C  
HETATM   19  C   UNL     1      -8.011   9.751  65.712  1.00  0.00    -0.116 C  
BRANCH  15  20
HETATM   20  C   UNL     1      -9.114   6.061  68.982  1.00  0.00    -0.122 C  
HETATM   21  C   UNL     1      -8.329   5.026  68.637  1.00  0.00    -0.087 C  
HETATM   22  C   UNL     1      -8.734   3.643  69.131  1.00  0.00    -0.137 C  
HETATM   23  C   UNL     1      -8.810   2.613  68.005  1.00  0.00    -0.127 C  
HETATM   24  C   UNL     1      -7.502   2.566  67.221  1.00  0.00    -0.061 C  
HETATM   25  O   UNL     1      -9.907   2.894  67.133  1.00  0.00    -0.349 OA 
HETATM   26  C   UNL     1      -7.085   3.954  66.724  1.00  0.00    -0.063 C  
HETATM   27  H   UNL     1      -9.954   2.254  66.433  1.00  0.00     0.000 HD 
HETATM   28  C   UNL     1      -7.113   5.000  67.825  1.00  0.00    -0.066 C  
HETATM   29  C   UNL     1      -6.041   5.786  68.067  1.00  0.00    -0.021 C  
ENDBRANCH  15  20
ENDBRANCH   5   6
ENDBRANCH   4   5
TORSDOF 3
ENDMDL
MODEL       74
REMARK 921   NORMALIZED FREE ENERGY PREDICTED BY IDOCK:   -5.06 KCAL/MOL
REMARK 922        TOTAL FREE ENERGY PREDICTED BY IDOCK:   -6.76 KCAL/MOL
REMARK 923 INTER-LIGAND FREE ENERGY PREDICTED BY IDOCK:   -5.53 KCAL/MOL
REMARK 924 INTRA-LIGAND FREE ENERGY PREDICTED BY IDOCK:   -1.23 KCAL/MOL
REMARK 927      BINDING AFFINITY PREDICTED BY RF-SCORE:    0.00 PKD
ROOT
HETATM    1  C   UNL     1      -7.781   2.579  67.650  1.00  0.00    -0.060 C  
HETATM    2  C   UNL     1      -7.467   2.912  66.192  1.00  0.00    -0.072 C  
HETATM    3  C   UNL     1      -6.794   1.709  65.523  1.00  0.00    -0.034 C  
HETATM    4  C   UNL     1      -8.722   3.296  65.387  1.00  0.00    -0.124 C  
ENDROOT
BRANCH   4   5
HETATM    5  C   UNL     1      -9.423   4.566  65.870  1.00  0.00    -0.171 C  
BRANCH   5   6
HETATM    6  C   UNL     1      -8.701   5.828  65.342  1.00  0.00    -0.122 C  
HETATM    7  C   UNL     1      -8.556   6.970  66.390  1.00  0.00    -0.136 C  
HETATM    8  C   UNL     1      -7.923   8.338  65.759  1.00  0.00    -0.099 C  
HETATM    9  C   UNL     1      -7.836   6.385  67.619  1.00  0.00    -0.106 C  
HETATM   10  C   UNL     1      -8.910   8.906  64.735  1.00  0.00    -0.130 C  
HETATM   11  C   UNL     1      -9.877   9.749  65.554  1.00  0.00    -0.378 C  
HETATM   12  C   UNL     1      -9.281   9.887  66.986  1.00  0.00    -0.164 C  
HETATM   13  C   UNL     1      -9.699  11.224  67.597  1.00  0.00    -0.183 C  
HETATM   14  C   UNL     1      -8.614  11.853  68.431  1.00  0.00    -0.152 C  
HETATM   15  C   UNL     1     -10.922  11.772  67.417  1.00  0.00    -0.314 C  
HETATM   16  C   UNL     1      -6.769   9.082  67.862  1.00  0.00    -0.068 C  
HETATM   17  C   UNL     1      -7.251  11.866  67.710  1.00  0.00    -0.104 C  
HETATM   18  C   UNL     1      -7.749   9.558  66.770  1.00  0.00    -0.098 C  
HETATM   19  C   UNL     1      -7.162  10.960  66.422  1.00  0.00    -0.140 C  
BRANCH  15  20
HETATM   20  C   UNL     1     -11.486  12.780  68.298  1.00  0.00    -0.354 C  
HETATM   21  C   UNL     1     -11.354  14.117  68.349  1.00  0.00    -0.315 C  
HETATM   22  C   UNL     1     -12.274  14.876  69.297  1.00  0.00    -0.221 C  
HETATM   23  C   UNL     1     -11.511  15.809  70.237  1.00  0.00    -0.359 C  
HETATM   24  C   UNL     1     -10.610  16.756  69.452  1.00  0.00    -0.318 C  
HETATM   25  O   UNL     1     -10.747  15.060  71.184  1.00  0.00    -0.543 OA 
HETATM   26  C   UNL     1      -9.685  16.000  68.493  1.00  0.00    -0.214 C  
HETATM   27  H   UNL     1     -10.273  15.639  71.769  1.00  0.00     0.000 HD 
HETATM   28  C   UNL     1     -10.432  14.996  67.632  1.00  0.00    -0.247 C  
HETATM   29  C   UNL     1     -10.296  14.994  66.288  1.00  0.00    -0.304 C  
ENDBRANCH  15  20
ENDBRANCH   5   6
ENDBRANCH   4   5
TORSDOF 3
ENDMDL
MODEL       75
REMARK 921   NORMALIZED FREE ENERGY PREDICTED BY IDOCK:   -5.05 KCAL/MOL
REMARK 922        TOTAL FREE ENERGY PREDICTED BY IDOCK:   -6.75 KCAL/MOL
REMARK 923 INTER-LIGAND FREE ENERGY PREDICTED BY IDOCK:   -5.83 KCAL/MOL
REMARK 924 INTRA-LIGAND FREE ENERGY PREDICTED BY IDOCK:   -0.91 KCAL/MOL
REMARK 927      BINDING AFFINITY PREDICTED BY RF-SCORE:    0.00 PKD
ROOT
HETATM    1  C   UNL     1     -13.888  13.373  72.265  1.00  0.00    -0.671 C  
HETATM    2  C   UNL     1     -13.158  14.019  71.088  1.00  0.00    -0.373 C  
HETATM    3  C   UNL     1     -12.632  15.397  71.503  1.00  0.00    -0.462 C  
HETATM    4  C   UNL     1     -11.981  13.166  70.580  1.00  0.00    -0.303 C  
ENDROOT
BRANCH   4   5
HETATM    5  C   UNL     1     -12.382  11.805  70.010  1.00  0.00    -0.233 C  
BRANCH   5   6
HETATM    6  C   UNL     1     -11.464  10.687  70.556  1.00  0.00    -0.407 C  
HETATM    7  C   UNL     1     -10.573  10.004  69.477  1.00  0.00    -0.267 C  
HETATM    8  C   UNL     1      -9.727   8.734  70.061  1.00  0.00    -0.182 C  
HETATM    9  C   UNL     1      -9.758  11.108  68.780  1.00  0.00    -0.194 C  
HETATM   10  C   UNL     1     -10.713   7.636  70.469  1.00  0.00    -0.241 C  
HETATM   11  C   UNL     1     -10.975   6.854  69.189  1.00  0.00    -0.240 C  
HETATM   12  C   UNL     1      -9.935   7.326  68.131  1.00  0.00    -0.181 C  
HETATM   13  C   UNL     1      -9.605   6.180  67.176  1.00  0.00    -0.139 C  
HETATM   14  C   UNL     1      -8.156   6.154  66.767  1.00  0.00    -0.109 C  
HETATM   15  C   UNL     1     -10.526   5.294  66.735  1.00  0.00    -0.330 C  
HETATM   16  C   UNL     1      -7.757   9.010  68.526  1.00  0.00    -0.097 C  
HETATM   17  C   UNL     1      -7.203   6.291  67.971  1.00  0.00    -0.087 C  
HETATM   18  C   UNL     1      -8.794   7.976  69.014  1.00  0.00    -0.145 C  
HETATM   19  C   UNL     1      -7.882   6.748  69.319  1.00  0.00    -0.110 C  
BRANCH  15  20
HETATM   20  C   UNL     1     -10.357   4.489  65.537  1.00  0.00    -0.254 C  
HETATM   21  C   UNL     1      -9.638   3.383  65.281  1.00  0.00    -0.116 C  
HETATM   22  C   UNL     1      -9.870   2.690  63.945  1.00  0.00    -0.145 C  
HETATM   23  C   UNL     1      -8.573   2.451  63.171  1.00  0.00    -0.085 C  
HETATM   24  C   UNL     1      -7.561   1.695  64.026  1.00  0.00    -0.059 C  
HETATM   25  O   UNL     1      -8.020   3.687  62.715  1.00  0.00    -0.069 OA 
HETATM   26  C   UNL     1      -7.326   2.384  65.375  1.00  0.00    -0.066 C  
HETATM   27  H   UNL     1      -7.214   3.538  62.234  1.00  0.00     0.000 HD 
HETATM   28  C   UNL     1      -8.622   2.717  66.094  1.00  0.00    -0.111 C  
HETATM   29  C   UNL     1      -8.825   2.337  67.375  1.00  0.00    -0.159 C  
ENDBRANCH  15  20
ENDBRANCH   5   6
ENDBRANCH   4   5
TORSDOF 3
ENDMDL
MODEL       76
REMARK 921   NORMALIZED FREE ENERGY PREDICTED BY IDOCK:   -4.99 KCAL/MOL
REMARK 922        TOTAL FREE ENERGY PREDICTED BY IDOCK:   -6.68 KCAL/MOL
REMARK 923 INTER-LIGAND FREE ENERGY PREDICTED BY IDOCK:   -5.56 KCAL/MOL
REMARK 924 INTRA-LIGAND FREE ENERGY PREDICTED BY IDOCK:   -1.12 KCAL/MOL
REMARK 927      BINDING AFFINITY PREDICTED BY RF-SCORE:    0.00 PKD
ROOT
HETATM    1  C   UNL     1      -8.333  17.407  67.161  1.00  0.00    -0.232 C  
HETATM    2  C   UNL     1      -9.851  17.239  67.133  1.00  0.00    -0.269 C  
HETATM    3  C   UNL     1     -10.522  18.616  67.157  1.00  0.00    -0.461 C  
HETATM    4  C   UNL     1     -10.340  16.465  65.895  1.00  0.00    -0.378 C  
ENDROOT
BRANCH   4   5
HETATM    5  C   UNL     1      -9.848  15.019  65.814  1.00  0.00    -0.386 C  
BRANCH   5   6
HETATM    6  C   UNL     1     -10.283  14.219  67.064  1.00  0.00    -0.260 C  
HETATM    7  C   UNL     1      -9.447  12.932  67.325  1.00  0.00    -0.216 C  
HETATM    8  C   UNL     1     -10.025  12.037  68.564  1.00  0.00    -0.188 C  
HETATM    9  C   UNL     1      -7.967  13.347  67.412  1.00  0.00    -0.170 C  
HETATM   10  C   UNL     1     -11.408  11.503  68.177  1.00  0.00    -0.367 C  
HETATM   11  C   UNL     1     -11.127  10.222  67.403  1.00  0.00    -0.261 C  
HETATM   12  C   UNL     1      -9.619   9.884  67.590  1.00  0.00    -0.172 C  
HETATM   13  C   UNL     1      -9.415   8.370  67.541  1.00  0.00    -0.182 C  
HETATM   14  C   UNL     1      -8.365   7.888  68.508  1.00  0.00    -0.128 C  
HETATM   15  C   UNL     1     -10.098   7.556  66.706  1.00  0.00    -0.313 C  
HETATM   16  C   UNL     1      -7.798  11.126  69.285  1.00  0.00    -0.007 C  
HETATM   17  C   UNL     1      -8.552   8.474  69.921  1.00  0.00    -0.131 C  
HETATM   18  C   UNL     1      -9.226  10.697  68.889  1.00  0.00    -0.189 C  
HETATM   19  C   UNL     1      -9.565   9.679  70.021  1.00  0.00    -0.281 C  
BRANCH  15  20
HETATM   20  C   UNL     1      -9.645   6.227  66.333  1.00  0.00    -0.159 C  
HETATM   21  C   UNL     1      -8.695   5.796  65.486  1.00  0.00    -0.141 C  
HETATM   22  C   UNL     1      -8.358   4.311  65.506  1.00  0.00    -0.110 C  
HETATM   23  C   UNL     1      -8.416   3.674  64.117  1.00  0.00    -0.090 C  
HETATM   24  C   UNL     1      -7.535   4.436  63.132  1.00  0.00    -0.054 C  
HETATM   25  O   UNL     1      -9.762   3.615  63.642  1.00  0.00    -0.135 OA 
HETATM   26  C   UNL     1      -7.864   5.932  63.110  1.00  0.00    -0.099 C  
HETATM   27  H   UNL     1      -9.799   3.220  62.779  1.00  0.00     0.000 HD 
HETATM   28  C   UNL     1      -7.910   6.540  64.501  1.00  0.00    -0.112 C  
HETATM   29  C   UNL     1      -7.198   7.648  64.801  1.00  0.00    -0.067 C  
ENDBRANCH  15  20
ENDBRANCH   5   6
ENDBRANCH   4   5
TORSDOF 3
ENDMDL
MODEL       77
REMARK 921   NORMALIZED FREE ENERGY PREDICTED BY IDOCK:   -4.98 KCAL/MOL
REMARK 922        TOTAL FREE ENERGY PREDICTED BY IDOCK:   -6.67 KCAL/MOL
REMARK 923 INTER-LIGAND FREE ENERGY PREDICTED BY IDOCK:   -5.50 KCAL/MOL
REMARK 924 INTRA-LIGAND FREE ENERGY PREDICTED BY IDOCK:   -1.17 KCAL/MOL
REMARK 927      BINDING AFFINITY PREDICTED BY RF-SCORE:    0.00 PKD
ROOT
HETATM    1  C   UNL     1     -12.414  13.953  70.800  1.00  0.00    -0.445 C  
HETATM    2  C   UNL     1     -12.253  15.463  70.974  1.00  0.00    -0.431 C  
HETATM    3  C   UNL     1     -11.933  15.781  72.437  1.00  0.00    -0.600 C  
HETATM    4  C   UNL     1     -11.145  16.049  70.079  1.00  0.00    -0.362 C  
ENDROOT
BRANCH   4   5
HETATM    5  C   UNL     1     -11.404  15.917  68.578  1.00  0.00    -0.374 C  
BRANCH   5   6
HETATM    6  C   UNL     1     -10.126  15.462  67.836  1.00  0.00    -0.226 C  
HETATM    7  C   UNL     1      -9.902  13.921  67.830  1.00  0.00    -0.237 C  
HETATM    8  C   UNL     1      -8.472  13.488  67.168  1.00  0.00    -0.177 C  
HETATM    9  C   UNL     1     -11.160  13.270  67.228  1.00  0.00    -0.301 C  
HETATM   10  C   UNL     1      -7.342  14.017  68.056  1.00  0.00    -0.142 C  
HETATM   11  C   UNL     1      -7.154  12.949  69.124  1.00  0.00     0.033 C  
HETATM   12  C   UNL     1      -7.972  11.699  68.685  1.00  0.00    -0.127 C  
HETATM   13  C   UNL     1      -7.297  10.428  69.197  1.00  0.00    -0.102 C  
HETATM   14  C   UNL     1      -7.381   9.284  68.221  1.00  0.00    -0.078 C  
HETATM   15  C   UNL     1      -6.700  10.341  70.407  1.00  0.00    -0.122 C  
HETATM   16  C   UNL     1      -9.266  11.285  66.259  1.00  0.00    -0.214 C  
HETATM   17  C   UNL     1      -6.983   9.700  66.791  1.00  0.00    -0.085 C  
HETATM   18  C   UNL     1      -8.165  11.924  67.130  1.00  0.00    -0.171 C  
HETATM   19  C   UNL     1      -6.884  11.255  66.545  1.00  0.00    -0.101 C  
BRANCH  15  20
HETATM   20  C   UNL     1      -6.442   9.082  71.086  1.00  0.00    -0.079 C  
HETATM   21  C   UNL     1      -7.256   8.154  71.616  1.00  0.00    -0.083 C  
HETATM   22  C   UNL     1      -6.623   6.845  72.071  1.00  0.00    -0.053 C  
HETATM   23  C   UNL     1      -6.986   6.484  73.511  1.00  0.00    -0.077 C  
HETATM   24  C   UNL     1      -8.499   6.471  73.705  1.00  0.00    -0.130 C  
HETATM   25  O   UNL     1      -6.371   7.387  74.431  1.00  0.00    -0.081 OA 
HETATM   26  C   UNL     1      -9.143   7.783  73.245  1.00  0.00    -0.303 C  
HETATM   27  H   UNL     1      -6.597   7.162  75.327  1.00  0.00     0.000 HD 
HETATM   28  C   UNL     1      -8.698   8.195  71.852  1.00  0.00    -0.206 C  
HETATM   29  C   UNL     1      -9.600   8.496  70.892  1.00  0.00    -0.228 C  
ENDBRANCH  15  20
ENDBRANCH   5   6
ENDBRANCH   4   5
TORSDOF 3
ENDMDL
MODEL       78
REMARK 921   NORMALIZED FREE ENERGY PREDICTED BY IDOCK:   -4.93 KCAL/MOL
REMARK 922        TOTAL FREE ENERGY PREDICTED BY IDOCK:   -6.61 KCAL/MOL
REMARK 923 INTER-LIGAND FREE ENERGY PREDICTED BY IDOCK:   -6.05 KCAL/MOL
REMARK 924 INTRA-LIGAND FREE ENERGY PREDICTED BY IDOCK:   -0.56 KCAL/MOL
REMARK 927      BINDING AFFINITY PREDICTED BY RF-SCORE:    0.00 PKD
ROOT
HETATM    1  C   UNL     1     -10.199  20.091  67.792  1.00  0.00    -0.549 C  
HETATM    2  C   UNL     1      -9.661  19.475  66.501  1.00  0.00    -0.462 C  
HETATM    3  C   UNL     1     -10.798  19.336  65.485  1.00  0.00    -0.143 C  
HETATM    4  C   UNL     1      -8.527  20.308  65.875  1.00  0.00    -0.002 C  
ENDROOT
BRANCH   4   5
HETATM    5  C   UNL     1      -7.268  20.418  66.736  1.00  0.00    -0.329 C  
BRANCH   5   6
HETATM    6  C   UNL     1      -7.360  19.486  67.967  1.00  0.00    -0.317 C  
HETATM    7  C   UNL     1      -6.878  18.029  67.706  1.00  0.00    -0.201 C  
HETATM    8  C   UNL     1      -7.126  17.038  68.982  1.00  0.00    -0.233 C  
HETATM    9  C   UNL     1      -5.438  18.105  67.167  1.00  0.00    -0.145 C  
HETATM   10  C   UNL     1      -8.634  16.890  69.199  1.00  0.00    -0.058 C  
HETATM   11  C   UNL     1      -9.053  15.765  68.263  1.00  0.00    -0.187 C  
HETATM   12  C   UNL     1      -7.755  15.093  67.729  1.00  0.00    -0.164 C  
HETATM   13  C   UNL     1      -8.010  13.612  67.451  1.00  0.00    -0.177 C  
HETATM   14  C   UNL     1      -6.835  12.737  67.801  1.00  0.00    -0.135 C  
HETATM   15  C   UNL     1      -9.167  13.143  66.933  1.00  0.00    -0.236 C  
HETATM   16  C   UNL     1      -5.140  15.562  68.550  1.00  0.00    -0.096 C  
HETATM   17  C   UNL     1      -6.266  13.048  69.200  1.00  0.00    -0.101 C  
HETATM   18  C   UNL     1      -6.663  15.525  68.790  1.00  0.00    -0.114 C  
HETATM   19  C   UNL     1      -6.779  14.389  69.853  1.00  0.00    -0.101 C  
BRANCH  15  20
HETATM   20  C   UNL     1      -9.287  11.854  66.273  1.00  0.00    -0.234 C  
HETATM   21  C   UNL     1      -9.956  10.732  66.590  1.00  0.00    -0.251 C  
HETATM   22  C   UNL     1     -10.014   9.631  65.539  1.00  0.00    -0.279 C  
HETATM   23  C   UNL     1      -9.566   8.274  66.081  1.00  0.00    -0.147 C  
HETATM   24  C   UNL     1     -10.358   7.899  67.330  1.00  0.00    -0.377 C  
HETATM   25  O   UNL     1      -8.165   8.276  66.358  1.00  0.00    -0.102 OA 
HETATM   26  C   UNL     1     -10.308   9.003  68.390  1.00  0.00    -0.242 C  
HETATM   27  H   UNL     1      -7.886   7.432  66.695  1.00  0.00     0.000 HD 
HETATM   28  C   UNL     1     -10.651  10.371  67.824  1.00  0.00    -0.294 C  
HETATM   29  C   UNL     1     -11.598  11.145  68.398  1.00  0.00    -0.376 C  
ENDBRANCH  15  20
ENDBRANCH   5   6
ENDBRANCH   4   5
TORSDOF 3
ENDMDL
MODEL       79
REMARK 921   NORMALIZED FREE ENERGY PREDICTED BY IDOCK:   -4.92 KCAL/MOL
REMARK 922        TOTAL FREE ENERGY PREDICTED BY IDOCK:   -6.60 KCAL/MOL
REMARK 923 INTER-LIGAND FREE ENERGY PREDICTED BY IDOCK:   -5.60 KCAL/MOL
REMARK 924 INTRA-LIGAND FREE ENERGY PREDICTED BY IDOCK:   -1.01 KCAL/MOL
REMARK 927      BINDING AFFINITY PREDICTED BY RF-SCORE:    0.00 PKD
ROOT
HETATM    1  C   UNL     1     -10.513  19.778  67.906  1.00  0.00    -0.531 C  
HETATM    2  C   UNL     1      -9.682  18.626  67.343  1.00  0.00    -0.330 C  
HETATM    3  C   UNL     1      -8.298  19.140  66.937  1.00  0.00    -0.300 C  
HETATM    4  C   UNL     1      -9.513  17.470  68.346  1.00  0.00    -0.292 C  
ENDROOT
BRANCH   4   5
HETATM    5  C   UNL     1     -10.817  16.773  68.739  1.00  0.00    -0.318 C  
BRANCH   5   6
HETATM    6  C   UNL     1     -11.079  15.546  67.835  1.00  0.00    -0.321 C  
HETATM    7  C   UNL     1     -10.933  14.175  68.557  1.00  0.00    -0.271 C  
HETATM    8  C   UNL     1     -11.072  12.902  67.541  1.00  0.00    -0.302 C  
HETATM    9  C   UNL     1     -11.875  14.186  69.774  1.00  0.00    -0.381 C  
HETATM   10  C   UNL     1      -9.894  12.927  66.562  1.00  0.00    -0.254 C  
HETATM   11  C   UNL     1      -8.769  12.205  67.289  1.00  0.00    -0.182 C  
HETATM   12  C   UNL     1      -9.384  11.530  68.550  1.00  0.00    -0.171 C  
HETATM   13  C   UNL     1      -8.615  10.253  68.886  1.00  0.00    -0.150 C  
HETATM   14  C   UNL     1      -9.504   9.147  69.389  1.00  0.00    -0.161 C  
HETATM   15  C   UNL     1      -7.274  10.139  68.757  1.00  0.00    -0.081 C  
HETATM   16  C   UNL     1     -12.073  11.334  69.228  1.00  0.00    -0.372 C  
HETATM   17  C   UNL     1     -10.748   8.942  68.501  1.00  0.00    -0.124 C  
HETATM   18  C   UNL     1     -10.927  11.460  68.205  1.00  0.00    -0.284 C  
HETATM   19  C   UNL     1     -11.029  10.094  67.460  1.00  0.00    -0.319 C  
BRANCH  15  20
HETATM   20  C   UNL     1      -6.484   9.135  69.448  1.00  0.00    -0.044 C  
HETATM   21  C   UNL     1      -6.288   7.824  69.226  1.00  0.00    -0.035 C  
HETATM   22  C   UNL     1      -5.214   7.126  70.051  1.00  0.00    -0.019 C  
HETATM   23  C   UNL     1      -5.730   5.868  70.747  1.00  0.00    -0.017 C  
HETATM   24  C   UNL     1      -6.372   4.915  69.744  1.00  0.00    -0.030 C  
HETATM   25  O   UNL     1      -6.656   6.203  71.782  1.00  0.00    -0.052 OA 
HETATM   26  C   UNL     1      -7.450   5.611  68.906  1.00  0.00    -0.084 C  
HETATM   27  H   UNL     1      -6.976   5.421  72.215  1.00  0.00     0.000 HD 
HETATM   28  C   UNL     1      -6.967   6.917  68.302  1.00  0.00    -0.080 C  
HETATM   29  C   UNL     1      -7.096   7.163  66.979  1.00  0.00    -0.090 C  
ENDBRANCH  15  20
ENDBRANCH   5   6
ENDBRANCH   4   5
TORSDOF 3
ENDMDL
MODEL       80
REMARK 921   NORMALIZED FREE ENERGY PREDICTED BY IDOCK:   -4.92 KCAL/MOL
REMARK 922        TOTAL FREE ENERGY PREDICTED BY IDOCK:   -6.60 KCAL/MOL
REMARK 923 INTER-LIGAND FREE ENERGY PREDICTED BY IDOCK:   -6.03 KCAL/MOL
REMARK 924 INTRA-LIGAND FREE ENERGY PREDICTED BY IDOCK:   -0.57 KCAL/MOL
REMARK 927      BINDING AFFINITY PREDICTED BY RF-SCORE:    0.00 PKD
ROOT
HETATM    1  C   UNL     1     -10.719  15.979  66.868  1.00  0.00    -0.262 C  
HETATM    2  C   UNL     1     -11.097  14.728  67.660  1.00  0.00    -0.311 C  
HETATM    3  C   UNL     1     -11.514  15.126  69.080  1.00  0.00    -0.325 C  
HETATM    4  C   UNL     1     -12.242  13.935  67.005  1.00  0.00    -0.392 C  
ENDROOT
BRANCH   4   5
HETATM    5  C   UNL     1     -11.911  13.363  65.626  1.00  0.00    -0.439 C  
BRANCH   5   6
HETATM    6  C   UNL     1     -10.420  12.964  65.539  1.00  0.00    -0.305 C  
HETATM    7  C   UNL     1     -10.174  11.478  65.148  1.00  0.00    -0.322 C  
HETATM    8  C   UNL     1      -8.596  11.055  65.208  1.00  0.00    -0.048 C  
HETATM    9  C   UNL     1     -10.901  11.221  63.815  1.00  0.00    -0.424 C  
HETATM   10  C   UNL     1      -8.126  11.132  66.663  1.00  0.00    -0.159 C  
HETATM   11  C   UNL     1      -8.495   9.782  67.263  1.00  0.00    -0.125 C  
HETATM   12  C   UNL     1      -8.914   8.848  66.090  1.00  0.00    -0.218 C  
HETATM   13  C   UNL     1      -8.569   7.399  66.430  1.00  0.00    -0.138 C  
HETATM   14  C   UNL     1      -8.086   6.615  65.238  1.00  0.00    -0.130 C  
HETATM   15  C   UNL     1      -8.700   6.876  67.669  1.00  0.00    -0.120 C  
HETATM   16  C   UNL     1      -8.715   9.354  63.364  1.00  0.00    -0.219 C  
HETATM   17  C   UNL     1      -7.006   7.370  64.436  1.00  0.00    -0.059 C  
HETATM   18  C   UNL     1      -8.264   9.544  64.826  1.00  0.00    -0.143 C  
HETATM   19  C   UNL     1      -6.845   8.897  64.796  1.00  0.00    -0.073 C  
BRANCH  15  20
HETATM   20  C   UNL     1      -8.797   5.450  67.933  1.00  0.00    -0.105 C  
HETATM   21  C   UNL     1      -9.452   4.743  68.870  1.00  0.00    -0.209 C  
HETATM   22  C   UNL     1      -9.486   3.229  68.709  1.00  0.00    -0.198 C  
HETATM   23  C   UNL     1      -9.022   2.491  69.964  1.00  0.00    -0.096 C  
HETATM   24  C   UNL     1      -9.817   2.943  71.186  1.00  0.00    -0.098 C  
HETATM   25  O   UNL     1      -7.623   2.684  70.179  1.00  0.00    -0.043 OA 
HETATM   26  C   UNL     1      -9.791   4.466  71.352  1.00  0.00    -0.262 C  
HETATM   27  H   UNL     1      -7.335   2.225  70.959  1.00  0.00     0.000 HD 
HETATM   28  C   UNL     1     -10.149   5.199  70.071  1.00  0.00    -0.345 C  
HETATM   29  C   UNL     1     -11.111   6.148  70.058  1.00  0.00    -0.462 C  
ENDBRANCH  15  20
ENDBRANCH   5   6
ENDBRANCH   4   5
TORSDOF 3
ENDMDL
MODEL       81
REMARK 921   NORMALIZED FREE ENERGY PREDICTED BY IDOCK:   -4.90 KCAL/MOL
REMARK 922        TOTAL FREE ENERGY PREDICTED BY IDOCK:   -6.58 KCAL/MOL
REMARK 923 INTER-LIGAND FREE ENERGY PREDICTED BY IDOCK:   -5.74 KCAL/MOL
REMARK 924 INTRA-LIGAND FREE ENERGY PREDICTED BY IDOCK:   -0.84 KCAL/MOL
REMARK 927      BINDING AFFINITY PREDICTED BY RF-SCORE:    0.00 PKD
ROOT
HETATM    1  C   UNL     1     -10.393   4.575  65.716  1.00  0.00    -0.287 C  
HETATM    2  C   UNL     1      -9.169   3.884  65.118  1.00  0.00    -0.150 C  
HETATM    3  C   UNL     1      -8.727   4.626  63.852  1.00  0.00    -0.140 C  
HETATM    4  C   UNL     1      -7.985   3.820  66.100  1.00  0.00    -0.090 C  
ENDROOT
BRANCH   4   5
HETATM    5  C   UNL     1      -8.247   2.992  67.359  1.00  0.00    -0.085 C  
BRANCH   5   6
HETATM    6  C   UNL     1      -7.656   3.686  68.608  1.00  0.00    -0.053 C  
HETATM    7  C   UNL     1      -8.707   4.417  69.494  1.00  0.00    -0.117 C  
HETATM    8  C   UNL     1      -8.032   5.260  70.720  1.00  0.00    -0.098 C  
HETATM    9  C   UNL     1      -9.785   3.388  69.881  1.00  0.00    -0.097 C  
HETATM   10  C   UNL     1      -7.197   6.399  70.128  1.00  0.00    -0.084 C  
HETATM   11  C   UNL     1      -8.188   7.535  69.913  1.00  0.00    -0.131 C  
HETATM   12  C   UNL     1      -9.511   7.145  70.635  1.00  0.00    -0.161 C  
HETATM   13  C   UNL     1     -10.228   8.403  71.126  1.00  0.00    -0.254 C  
HETATM   14  C   UNL     1     -10.900   8.212  72.460  1.00  0.00    -0.431 C  
HETATM   15  C   UNL     1     -10.263   9.558  70.424  1.00  0.00    -0.337 C  
HETATM   16  C   UNL     1      -9.950   4.974  72.316  1.00  0.00    -0.233 C  
HETATM   17  C   UNL     1      -9.974   7.546  73.496  1.00  0.00    -0.371 C  
HETATM   18  C   UNL     1      -9.044   6.043  71.670  1.00  0.00    -0.147 C  
HETATM   19  C   UNL     1      -8.657   6.906  72.909  1.00  0.00    -0.129 C  
BRANCH  15  20
HETATM   20  C   UNL     1     -11.256  10.596  70.638  1.00  0.00    -0.182 C  
HETATM   21  C   UNL     1     -11.678  11.619  69.874  1.00  0.00    -0.414 C  
HETATM   22  C   UNL     1     -12.900  12.392  70.352  1.00  0.00     0.183 C  
HETATM   23  C   UNL     1     -12.658  13.900  70.410  1.00  0.00    -0.282 C  
HETATM   24  C   UNL     1     -12.153  14.423  69.069  1.00  0.00    -0.298 C  
HETATM   25  O   UNL     1     -11.737  14.226  71.453  1.00  0.00    -0.471 OA 
HETATM   26  C   UNL     1     -10.926  13.646  68.579  1.00  0.00    -0.289 C  
HETATM   27  H   UNL     1     -11.587  15.163  71.490  1.00  0.00     0.000 HD 
HETATM   28  C   UNL     1     -11.132  12.142  68.623  1.00  0.00    -0.297 C  
HETATM   29  C   UNL     1     -10.896  11.375  67.536  1.00  0.00    -0.291 C  
ENDBRANCH  15  20
ENDBRANCH   5   6
ENDBRANCH   4   5
TORSDOF 3
ENDMDL
MODEL       82
REMARK 921   NORMALIZED FREE ENERGY PREDICTED BY IDOCK:   -4.90 KCAL/MOL
REMARK 922        TOTAL FREE ENERGY PREDICTED BY IDOCK:   -6.57 KCAL/MOL
REMARK 923 INTER-LIGAND FREE ENERGY PREDICTED BY IDOCK:   -5.31 KCAL/MOL
REMARK 924 INTRA-LIGAND FREE ENERGY PREDICTED BY IDOCK:   -1.26 KCAL/MOL
REMARK 927      BINDING AFFINITY PREDICTED BY RF-SCORE:    0.00 PKD
ROOT
HETATM    1  C   UNL     1     -10.330  11.271  65.061  1.00  0.00    -0.359 C  
HETATM    2  C   UNL     1     -11.195  12.529  65.011  1.00  0.00    -0.344 C  
HETATM    3  C   UNL     1     -12.401  12.287  64.098  1.00  0.00    -0.546 C  
HETATM    4  C   UNL     1     -11.697  12.961  66.401  1.00  0.00    -0.454 C  
ENDROOT
BRANCH   4   5
HETATM    5  C   UNL     1     -10.592  13.361  67.379  1.00  0.00    -0.254 C  
BRANCH   5   6
HETATM    6  C   UNL     1     -10.641  12.486  68.653  1.00  0.00    -0.240 C  
HETATM    7  C   UNL     1      -9.620  11.311  68.665  1.00  0.00    -0.195 C  
HETATM    8  C   UNL     1      -9.799  10.323  69.955  1.00  0.00    -0.153 C  
HETATM    9  C   UNL     1      -8.219  11.910  68.450  1.00  0.00    -0.160 C  
HETATM   10  C   UNL     1     -11.159   9.625  69.850  1.00  0.00    -0.268 C  
HETATM   11  C   UNL     1     -10.904   8.408  68.973  1.00  0.00    -0.015 C  
HETATM   12  C   UNL     1      -9.362   8.261  68.812  1.00  0.00    -0.143 C  
HETATM   13  C   UNL     1      -8.993   6.787  68.648  1.00  0.00    -0.125 C  
HETATM   14  C   UNL     1      -7.706   6.423  69.340  1.00  0.00    -0.101 C  
HETATM   15  C   UNL     1      -9.741   5.910  67.942  1.00  0.00    -0.128 C  
HETATM   16  C   UNL     1      -7.375   9.690  70.132  1.00  0.00    -0.141 C  
HETATM   17  C   UNL     1      -7.646   6.951  70.787  1.00  0.00    -0.091 C  
HETATM   18  C   UNL     1      -8.793   9.090  70.034  1.00  0.00    -0.181 C  
HETATM   19  C   UNL     1      -8.749   8.014  71.162  1.00  0.00    -0.149 C  
BRANCH  15  20
HETATM   20  C   UNL     1      -9.226   4.657  67.416  1.00  0.00    -0.146 C  
HETATM   21  C   UNL     1      -8.653   4.333  66.244  1.00  0.00    -0.113 C  
HETATM   22  C   UNL     1      -8.043   2.942  66.123  1.00  0.00    -0.083 C  
HETATM   23  C   UNL     1      -8.547   2.181  64.898  1.00  0.00    -0.106 C  
HETATM   24  C   UNL     1      -8.337   2.997  63.626  1.00  0.00    -0.086 C  
HETATM   25  O   UNL     1      -9.925   1.833  65.047  1.00  0.00    -0.320 OA 
HETATM   26  C   UNL     1      -8.944   4.400  63.741  1.00  0.00    -0.143 C  
HETATM   27  H   UNL     1     -10.238   1.361  64.285  1.00  0.00     0.000 HD 
HETATM   28  C   UNL     1      -8.525   5.113  65.015  1.00  0.00    -0.148 C  
HETATM   29  C   UNL     1      -7.996   6.357  64.975  1.00  0.00    -0.120 C  
ENDBRANCH  15  20
ENDBRANCH   5   6
ENDBRANCH   4   5
TORSDOF 3
ENDMDL
MODEL       83
REMARK 921   NORMALIZED FREE ENERGY PREDICTED BY IDOCK:   -4.89 KCAL/MOL
REMARK 922        TOTAL FREE ENERGY PREDICTED BY IDOCK:   -6.56 KCAL/MOL
REMARK 923 INTER-LIGAND FREE ENERGY PREDICTED BY IDOCK:   -5.91 KCAL/MOL
REMARK 924 INTRA-LIGAND FREE ENERGY PREDICTED BY IDOCK:   -0.64 KCAL/MOL
REMARK 927      BINDING AFFINITY PREDICTED BY RF-SCORE:    0.00 PKD
ROOT
HETATM    1  C   UNL     1     -13.103  13.275  72.149  1.00  0.00    -0.486 C  
HETATM    2  C   UNL     1     -12.839  13.874  70.768  1.00  0.00    -0.329 C  
HETATM    3  C   UNL     1     -12.330  15.311  70.919  1.00  0.00    -0.433 C  
HETATM    4  C   UNL     1     -11.814  13.062  69.955  1.00  0.00    -0.355 C  
ENDROOT
BRANCH   4   5
HETATM    5  C   UNL     1     -12.256  11.638  69.617  1.00  0.00    -0.271 C  
BRANCH   5   6
HETATM    6  C   UNL     1     -11.667  10.624  70.625  1.00  0.00    -0.454 C  
HETATM    7  C   UNL     1     -10.528   9.734  70.048  1.00  0.00    -0.314 C  
HETATM    8  C   UNL     1     -10.031   8.579  71.093  1.00  0.00    -0.265 C  
HETATM    9  C   UNL     1      -9.439  10.671  69.495  1.00  0.00    -0.038 C  
HETATM   10  C   UNL     1     -11.183   7.596  71.318  1.00  0.00    -0.277 C  
HETATM   11  C   UNL     1     -11.068   6.594  70.179  1.00  0.00    -0.384 C  
HETATM   12  C   UNL     1      -9.701   6.839  69.476  1.00  0.00    -0.154 C  
HETATM   13  C   UNL     1      -9.169   5.527  68.900  1.00  0.00    -0.141 C  
HETATM   14  C   UNL     1      -7.673   5.396  69.022  1.00  0.00    -0.089 C  
HETATM   15  C   UNL     1      -9.961   4.593  68.329  1.00  0.00    -0.130 C  
HETATM   16  C   UNL     1      -7.648   8.523  70.300  1.00  0.00    -0.075 C  
HETATM   17  C   UNL     1      -7.166   5.738  70.437  1.00  0.00    -0.071 C  
HETATM   18  C   UNL     1      -8.869   7.620  70.572  1.00  0.00    -0.149 C  
HETATM   19  C   UNL     1      -8.215   6.453  71.373  1.00  0.00    -0.121 C  
BRANCH  15  20
HETATM   20  C   UNL     1      -9.470   3.575  67.415  1.00  0.00    -0.234 C  
HETATM   21  C   UNL     1      -9.004   3.634  66.156  1.00  0.00    -0.142 C  
HETATM   22  C   UNL     1      -8.378   2.370  65.580  1.00  0.00    -0.092 C  
HETATM   23  C   UNL     1      -8.979   1.976  64.231  1.00  0.00    -0.108 C  
HETATM   24  C   UNL     1      -8.908   3.137  63.244  1.00  0.00    -0.092 C  
HETATM   25  O   UNL     1     -10.329   1.534  64.386  1.00  0.00    -0.332 OA 
HETATM   26  C   UNL     1      -9.531   4.414  63.818  1.00  0.00    -0.072 C  
HETATM   27  H   UNL     1     -10.702   1.289  63.548  1.00  0.00     0.000 HD 
HETATM   28  C   UNL     1      -9.009   4.744  65.205  1.00  0.00    -0.151 C  
HETATM   29  C   UNL     1      -8.514   5.969  65.490  1.00  0.00    -0.151 C  
ENDBRANCH  15  20
ENDBRANCH   5   6
ENDBRANCH   4   5
TORSDOF 3
ENDMDL
MODEL       84
REMARK 921   NORMALIZED FREE ENERGY PREDICTED BY IDOCK:   -4.87 KCAL/MOL
REMARK 922        TOTAL FREE ENERGY PREDICTED BY IDOCK:   -6.53 KCAL/MOL
REMARK 923 INTER-LIGAND FREE ENERGY PREDICTED BY IDOCK:   -5.38 KCAL/MOL
REMARK 924 INTRA-LIGAND FREE ENERGY PREDICTED BY IDOCK:   -1.16 KCAL/MOL
REMARK 927      BINDING AFFINITY PREDICTED BY RF-SCORE:    0.00 PKD
ROOT
HETATM    1  C   UNL     1     -10.667  15.784  68.777  1.00  0.00    -0.253 C  
HETATM    2  C   UNL     1     -11.217  14.367  68.616  1.00  0.00    -0.280 C  
HETATM    3  C   UNL     1     -11.938  13.947  69.900  1.00  0.00    -0.405 C  
HETATM    4  C   UNL     1     -12.190  14.239  67.430  1.00  0.00    -0.267 C  
ENDROOT
BRANCH   4   5
HETATM    5  C   UNL     1     -11.562  14.505  66.061  1.00  0.00    -0.356 C  
BRANCH   5   6
HETATM    6  C   UNL     1     -10.171  13.837  65.954  1.00  0.00    -0.322 C  
HETATM    7  C   UNL     1     -10.215  12.305  65.684  1.00  0.00    -0.287 C  
HETATM    8  C   UNL     1      -8.736  11.609  65.724  1.00  0.00     0.060 C  
HETATM    9  C   UNL     1     -11.044  12.080  64.407  1.00  0.00    -0.399 C  
HETATM   10  C   UNL     1      -8.185  11.713  67.149  1.00  0.00    -0.165 C  
HETATM   11  C   UNL     1      -8.757  10.504  67.876  1.00  0.00    -0.126 C  
HETATM   12  C   UNL     1      -9.395   9.573  66.805  1.00  0.00    -0.196 C  
HETATM   13  C   UNL     1      -9.297   8.116  67.256  1.00  0.00    -0.174 C  
HETATM   14  C   UNL     1      -9.022   7.166  66.119  1.00  0.00    -0.168 C  
HETATM   15  C   UNL     1      -9.454   7.725  68.540  1.00  0.00    -0.148 C  
HETATM   16  C   UNL     1      -9.250   9.818  64.039  1.00  0.00    -0.267 C  
HETATM   17  C   UNL     1      -7.869   7.647  65.216  1.00  0.00    -0.122 C  
HETATM   18  C   UNL     1      -8.698  10.037  65.462  1.00  0.00    -0.171 C  
HETATM   19  C   UNL     1      -7.420   9.143  65.437  1.00  0.00    -0.093 C  
BRANCH  15  20
HETATM   20  C   UNL     1      -9.789   6.366  68.930  1.00  0.00    -0.152 C  
HETATM   21  C   UNL     1      -9.039   5.329  69.341  1.00  0.00    -0.135 C  
HETATM   22  C   UNL     1      -9.770   4.100  69.866  1.00  0.00    -0.280 C  
HETATM   23  C   UNL     1      -9.320   2.809  69.183  1.00  0.00    -0.136 C  
HETATM   24  C   UNL     1      -7.807   2.643  69.276  1.00  0.00    -0.049 C  
HETATM   25  O   UNL     1      -9.744   2.782  67.819  1.00  0.00    -0.325 OA 
HETATM   26  C   UNL     1      -7.064   3.877  68.753  1.00  0.00    -0.051 C  
HETATM   27  H   UNL     1      -9.465   1.980  67.394  1.00  0.00     0.000 HD 
HETATM   28  C   UNL     1      -7.586   5.170  69.356  1.00  0.00    -0.061 C  
HETATM   29  C   UNL     1      -6.747   6.058  69.933  1.00  0.00    -0.052 C  
ENDBRANCH  15  20
ENDBRANCH   5   6
ENDBRANCH   4   5
TORSDOF 3
ENDMDL
MODEL       85
REMARK 921   NORMALIZED FREE ENERGY PREDICTED BY IDOCK:   -4.85 KCAL/MOL
REMARK 922        TOTAL FREE ENERGY PREDICTED BY IDOCK:   -6.52 KCAL/MOL
REMARK 923 INTER-LIGAND FREE ENERGY PREDICTED BY IDOCK:   -5.83 KCAL/MOL
REMARK 924 INTRA-LIGAND FREE ENERGY PREDICTED BY IDOCK:   -0.69 KCAL/MOL
REMARK 927      BINDING AFFINITY PREDICTED BY RF-SCORE:    0.00 PKD
ROOT
HETATM    1  C   UNL     1      -9.637   4.507  67.981  1.00  0.00    -0.209 C  
HETATM    2  C   UNL     1      -9.957   5.368  66.760  1.00  0.00    -0.217 C  
HETATM    3  C   UNL     1     -10.531   4.488  65.646  1.00  0.00    -0.261 C  
HETATM    4  C   UNL     1     -10.958   6.495  67.075  1.00  0.00    -0.466 C  
ENDROOT
BRANCH   4   5
HETATM    5  C   UNL     1     -10.455   7.529  68.083  1.00  0.00    -0.233 C  
BRANCH   5   6
HETATM    6  C   UNL     1      -9.214   8.272  67.537  1.00  0.00    -0.155 C  
HETATM    7  C   UNL     1      -8.779   9.503  68.385  1.00  0.00    -0.124 C  
HETATM    8  C   UNL     1      -7.559  10.349  67.700  1.00  0.00    -0.089 C  
HETATM    9  C   UNL     1      -8.552   9.018  69.827  1.00  0.00    -0.138 C  
HETATM   10  C   UNL     1      -8.066  10.966  66.394  1.00  0.00    -0.164 C  
HETATM   11  C   UNL     1      -8.720  12.276  66.810  1.00  0.00    -0.175 C  
HETATM   12  C   UNL     1      -8.342  12.535  68.298  1.00  0.00    -0.167 C  
HETATM   13  C   UNL     1      -8.271  14.039  68.563  1.00  0.00    -0.136 C  
HETATM   14  C   UNL     1      -7.163  14.416  69.511  1.00  0.00    -0.051 C  
HETATM   15  C   UNL     1      -9.124  14.931  68.012  1.00  0.00    -0.180 C  
HETATM   16  C   UNL     1      -6.534  11.116  69.862  1.00  0.00    -0.142 C  
HETATM   17  C   UNL     1      -5.820  13.757  69.139  1.00  0.00    -0.083 C  
HETATM   18  C   UNL     1      -7.061  11.631  68.507  1.00  0.00    -0.089 C  
HETATM   19  C   UNL     1      -5.912  12.594  68.077  1.00  0.00    -0.094 C  
BRANCH  15  20
HETATM   20  C   UNL     1      -9.359  16.258  68.554  1.00  0.00    -0.213 C  
HETATM   21  C   UNL     1      -9.776  17.406  67.994  1.00  0.00    -0.281 C  
HETATM   22  C   UNL     1     -10.106  18.563  68.929  1.00  0.00    -0.348 C  
HETATM   23  C   UNL     1      -9.383  19.854  68.548  1.00  0.00    -0.214 C  
HETATM   24  C   UNL     1      -9.651  20.218  67.091  1.00  0.00    -0.580 C  
HETATM   25  O   UNL     1      -7.979  19.739  68.785  1.00  0.00    -0.307 OA 
HETATM   26  C   UNL     1      -9.326  19.058  66.144  1.00  0.00    -0.232 C  
HETATM   27  H   UNL     1      -7.529  20.541  68.547  1.00  0.00     0.000 HD 
HETATM   28  C   UNL     1      -9.960  17.750  66.585  1.00  0.00    -0.338 C  
HETATM   29  C   UNL     1     -10.707  17.015  65.732  1.00  0.00    -0.146 C  
ENDBRANCH  15  20
ENDBRANCH   5   6
ENDBRANCH   4   5
TORSDOF 3
ENDMDL
MODEL       86
REMARK 921   NORMALIZED FREE ENERGY PREDICTED BY IDOCK:   -4.79 KCAL/MOL
REMARK 922        TOTAL FREE ENERGY PREDICTED BY IDOCK:   -6.44 KCAL/MOL
REMARK 923 INTER-LIGAND FREE ENERGY PREDICTED BY IDOCK:   -5.47 KCAL/MOL
REMARK 924 INTRA-LIGAND FREE ENERGY PREDICTED BY IDOCK:   -0.97 KCAL/MOL
REMARK 927      BINDING AFFINITY PREDICTED BY RF-SCORE:    0.00 PKD
ROOT
HETATM    1  C   UNL     1     -10.382   4.531  65.547  1.00  0.00    -0.254 C  
HETATM    2  C   UNL     1      -9.546   3.378  64.995  1.00  0.00    -0.141 C  
HETATM    3  C   UNL     1      -9.181   3.660  63.534  1.00  0.00    -0.106 C  
HETATM    4  C   UNL     1      -8.253   3.144  65.798  1.00  0.00    -0.094 C  
ENDROOT
BRANCH   4   5
HETATM    5  C   UNL     1      -8.475   2.722  67.251  1.00  0.00    -0.106 C  
BRANCH   5   6
HETATM    6  C   UNL     1      -7.790   3.712  68.222  1.00  0.00    -0.067 C  
HETATM    7  C   UNL     1      -8.753   4.757  68.858  1.00  0.00    -0.107 C  
HETATM    8  C   UNL     1      -7.974   5.874  69.761  1.00  0.00    -0.101 C  
HETATM    9  C   UNL     1      -9.887   3.982  69.554  1.00  0.00    -0.134 C  
HETATM   10  C   UNL     1      -7.083   6.712  68.840  1.00  0.00    -0.085 C  
HETATM   11  C   UNL     1      -7.997   7.805  68.304  1.00  0.00    -0.122 C  
HETATM   12  C   UNL     1      -9.317   7.757  69.128  1.00  0.00    -0.151 C  
HETATM   13  C   UNL     1      -9.923   9.157  69.223  1.00  0.00    -0.187 C  
HETATM   14  C   UNL     1     -10.558   9.432  70.560  1.00  0.00    -0.331 C  
HETATM   15  C   UNL     1      -9.901  10.045  68.204  1.00  0.00    -0.162 C  
HETATM   16  C   UNL     1      -9.848   6.237  71.394  1.00  0.00    -0.195 C  
HETATM   17  C   UNL     1      -9.644   9.038  71.738  1.00  0.00    -0.278 C  
HETATM   18  C   UNL     1      -8.892   6.985  70.442  1.00  0.00    -0.155 C  
HETATM   19  C   UNL     1      -8.399   8.149  71.355  1.00  0.00    -0.146 C  
BRANCH  15  20
HETATM   20  C   UNL     1     -10.809  11.175  68.105  1.00  0.00    -0.266 C  
HETATM   21  C   UNL     1     -11.209  11.930  67.067  1.00  0.00    -0.379 C  
HETATM   22  C   UNL     1     -12.346  12.913  67.313  1.00  0.00     0.120 C  
HETATM   23  C   UNL     1     -12.001  14.335  66.870  1.00  0.00    -0.438 C  
HETATM   24  C   UNL     1     -11.547  14.356  65.413  1.00  0.00    -0.347 C  
HETATM   25  O   UNL     1     -10.999  14.902  67.715  1.00  0.00    -0.275 OA 
HETATM   26  C   UNL     1     -10.406  13.366  65.158  1.00  0.00    -0.349 C  
HETATM   27  H   UNL     1     -10.785  15.785  67.440  1.00  0.00     0.000 HD 
HETATM   28  C   UNL     1     -10.708  11.977  65.694  1.00  0.00    -0.313 C  
HETATM   29  C   UNL     1     -10.590  10.885  64.908  1.00  0.00    -0.304 C  
ENDBRANCH  15  20
ENDBRANCH   5   6
ENDBRANCH   4   5
TORSDOF 3
ENDMDL
MODEL       87
REMARK 921   NORMALIZED FREE ENERGY PREDICTED BY IDOCK:   -4.74 KCAL/MOL
REMARK 922        TOTAL FREE ENERGY PREDICTED BY IDOCK:   -6.38 KCAL/MOL
REMARK 923 INTER-LIGAND FREE ENERGY PREDICTED BY IDOCK:   -5.73 KCAL/MOL
REMARK 924 INTRA-LIGAND FREE ENERGY PREDICTED BY IDOCK:   -0.66 KCAL/MOL
REMARK 927      BINDING AFFINITY PREDICTED BY RF-SCORE:    0.00 PKD
ROOT
HETATM    1  C   UNL     1      -8.225   2.279  63.416  1.00  0.00    -0.073 C  
HETATM    2  C   UNL     1      -8.127   3.779  63.692  1.00  0.00    -0.089 C  
HETATM    3  C   UNL     1      -8.173   4.550  62.369  1.00  0.00    -0.073 C  
HETATM    4  C   UNL     1      -9.255   4.288  64.609  1.00  0.00    -0.156 C  
ENDROOT
BRANCH   4   5
HETATM    5  C   UNL     1      -9.247   3.693  66.017  1.00  0.00    -0.165 C  
BRANCH   5   6
HETATM    6  C   UNL     1      -8.259   4.455  66.931  1.00  0.00    -0.102 C  
HETATM    7  C   UNL     1      -8.930   5.196  68.124  1.00  0.00    -0.118 C  
HETATM    8  C   UNL     1      -7.878   6.108  68.980  1.00  0.00    -0.100 C  
HETATM    9  C   UNL     1      -9.742   4.158  68.919  1.00  0.00    -0.176 C  
HETATM   10  C   UNL     1      -7.372   7.242  68.084  1.00  0.00    -0.100 C  
HETATM   11  C   UNL     1      -8.415   8.342  68.223  1.00  0.00    -0.136 C  
HETATM   12  C   UNL     1      -9.355   7.950  69.400  1.00  0.00    -0.152 C  
HETATM   13  C   UNL     1      -9.885   9.208  70.086  1.00  0.00    -0.229 C  
HETATM   14  C   UNL     1     -10.001   9.059  71.580  1.00  0.00    -0.391 C  
HETATM   15  C   UNL     1     -10.226  10.331  69.414  1.00  0.00    -0.255 C  
HETATM   16  C   UNL     1      -9.046   5.843  71.188  1.00  0.00    -0.152 C  
HETATM   17  C   UNL     1      -8.728   8.461  72.212  1.00  0.00    -0.277 C  
HETATM   18  C   UNL     1      -8.492   6.905  70.217  1.00  0.00    -0.139 C  
HETATM   19  C   UNL     1      -7.703   7.831  71.193  1.00  0.00    -0.084 C  
BRANCH  15  20
HETATM   20  C   UNL     1     -11.108  11.352  69.953  1.00  0.00    -0.134 C  
HETATM   21  C   UNL     1     -11.567  12.511  69.452  1.00  0.00    -0.368 C  
HETATM   22  C   UNL     1     -12.654  13.234  70.238  1.00  0.00    -0.160 C  
HETATM   23  C   UNL     1     -12.307  14.695  70.518  1.00  0.00    -0.337 C  
HETATM   24  C   UNL     1     -11.967  15.431  69.225  1.00  0.00    -0.335 C  
HETATM   25  O   UNL     1     -11.226  14.792  71.447  1.00  0.00    -0.545 OA 
HETATM   26  C   UNL     1     -10.878  14.708  68.426  1.00  0.00    -0.250 C  
HETATM   27  H   UNL     1     -11.010  15.700  71.621  1.00  0.00     0.000 HD 
HETATM   28  C   UNL     1     -11.174  13.230  68.241  1.00  0.00    -0.309 C  
HETATM   29  C   UNL     1     -11.149  12.663  67.015  1.00  0.00    -0.322 C  
ENDBRANCH  15  20
ENDBRANCH   5   6
ENDBRANCH   4   5
TORSDOF 3
ENDMDL
MODEL       88
REMARK 921   NORMALIZED FREE ENERGY PREDICTED BY IDOCK:   -4.73 KCAL/MOL
REMARK 922        TOTAL FREE ENERGY PREDICTED BY IDOCK:   -6.38 KCAL/MOL
REMARK 923 INTER-LIGAND FREE ENERGY PREDICTED BY IDOCK:   -5.16 KCAL/MOL
REMARK 924 INTRA-LIGAND FREE ENERGY PREDICTED BY IDOCK:   -1.22 KCAL/MOL
REMARK 927      BINDING AFFINITY PREDICTED BY RF-SCORE:    0.00 PKD
ROOT
HETATM    1  C   UNL     1      -9.261   4.419  65.135  1.00  0.00    -0.156 C  
HETATM    2  C   UNL     1      -9.201   3.710  63.783  1.00  0.00    -0.121 C  
HETATM    3  C   UNL     1     -10.614   3.305  63.352  1.00  0.00    -0.250 C  
HETATM    4  C   UNL     1      -8.573   4.584  62.682  1.00  0.00    -0.104 C  
ENDROOT
BRANCH   4   5
HETATM    5  C   UNL     1      -7.109   4.955  62.923  1.00  0.00    -0.042 C  
BRANCH   5   6
HETATM    6  C   UNL     1      -6.937   6.490  63.010  1.00  0.00    -0.044 C  
HETATM    7  C   UNL     1      -6.924   7.053  64.460  1.00  0.00    -0.051 C  
HETATM    8  C   UNL     1      -6.889   8.687  64.509  1.00  0.00    -0.069 C  
HETATM    9  C   UNL     1      -5.814   6.320  65.235  1.00  0.00    -0.025 C  
HETATM   10  C   UNL     1      -8.198   9.221  63.921  1.00  0.00    -0.165 C  
HETATM   11  C   UNL     1      -9.176   9.223  65.088  1.00  0.00    -0.264 C  
HETATM   12  C   UNL     1      -8.357   8.959  66.385  1.00  0.00    -0.117 C  
HETATM   13  C   UNL     1      -9.020   9.659  67.571  1.00  0.00    -0.136 C  
HETATM   14  C   UNL     1      -8.025  10.234  68.545  1.00  0.00    -0.107 C  
HETATM   15  C   UNL     1     -10.360   9.739  67.731  1.00  0.00    -0.274 C  
HETATM   16  C   UNL     1      -5.592   8.851  66.654  1.00  0.00    -0.040 C  
HETATM   17  C   UNL     1      -6.919  11.048  67.845  1.00  0.00    -0.073 C  
HETATM   18  C   UNL     1      -6.881   9.341  65.963  1.00  0.00    -0.088 C  
HETATM   19  C   UNL     1      -6.838  10.867  66.280  1.00  0.00    -0.123 C  
BRANCH  15  20
HETATM   20  C   UNL     1     -11.001  10.000  69.008  1.00  0.00    -0.249 C  
HETATM   21  C   UNL     1     -11.112   9.273  70.134  1.00  0.00    -0.260 C  
HETATM   22  C   UNL     1     -11.690   9.965  71.361  1.00  0.00    -0.449 C  
HETATM   23  C   UNL     1     -12.848   9.188  71.985  1.00  0.00    -0.408 C  
HETATM   24  C   UNL     1     -12.437   7.752  72.294  1.00  0.00    -0.224 C  
HETATM   25  O   UNL     1     -13.993   9.208  71.130  1.00  0.00    -0.528 OA 
HETATM   26  C   UNL     1     -11.850   7.050  71.065  1.00  0.00    -0.395 C  
HETATM   27  H   UNL     1     -14.713   8.725  71.518  1.00  0.00     0.000 HD 
HETATM   28  C   UNL     1     -10.771   7.874  70.383  1.00  0.00    -0.233 C  
HETATM   29  C   UNL     1      -9.557   7.344  70.112  1.00  0.00    -0.165 C  
ENDBRANCH  15  20
ENDBRANCH   5   6
ENDBRANCH   4   5
TORSDOF 3
ENDMDL
MODEL       89
REMARK 921   NORMALIZED FREE ENERGY PREDICTED BY IDOCK:   -4.72 KCAL/MOL
REMARK 922        TOTAL FREE ENERGY PREDICTED BY IDOCK:   -6.36 KCAL/MOL
REMARK 923 INTER-LIGAND FREE ENERGY PREDICTED BY IDOCK:   -5.27 KCAL/MOL
REMARK 924 INTRA-LIGAND FREE ENERGY PREDICTED BY IDOCK:   -1.09 KCAL/MOL
REMARK 927      BINDING AFFINITY PREDICTED BY RF-SCORE:    0.00 PKD
ROOT
HETATM    1  C   UNL     1      -6.655   6.908  64.881  1.00  0.00    -0.043 C  
HETATM    2  C   UNL     1      -5.412   7.301  64.083  1.00  0.00    -0.033 C  
HETATM    3  C   UNL     1      -5.154   6.261  62.989  1.00  0.00    -0.018 C  
HETATM    4  C   UNL     1      -5.540   8.691  63.433  1.00  0.00    -0.068 C  
ENDROOT
BRANCH   4   5
HETATM    5  C   UNL     1      -5.672   9.847  64.426  1.00  0.00    -0.098 C  
BRANCH   5   6
HETATM    6  C   UNL     1      -7.145  10.301  64.550  1.00  0.00    -0.072 C  
HETATM    7  C   UNL     1      -7.641  10.476  66.015  1.00  0.00    -0.140 C  
HETATM    8  C   UNL     1      -9.238  10.812  66.111  1.00  0.00    -0.202 C  
HETATM    9  C   UNL     1      -6.689  11.464  66.714  1.00  0.00    -0.137 C  
HETATM   10  C   UNL     1     -10.024   9.601  65.602  1.00  0.00    -0.321 C  
HETATM   11  C   UNL     1     -10.158   8.688  66.813  1.00  0.00    -0.366 C  
HETATM   12  C   UNL     1      -9.701   9.497  68.062  1.00  0.00    -0.168 C  
HETATM   13  C   UNL     1     -10.464   9.022  69.298  1.00  0.00    -0.238 C  
HETATM   14  C   UNL     1     -10.810  10.144  70.241  1.00  0.00    -0.370 C  
HETATM   15  C   UNL     1     -10.779   7.727  69.523  1.00  0.00    -0.200 C  
HETATM   16  C   UNL     1      -9.082  12.204  68.196  1.00  0.00    -0.196 C  
HETATM   17  C   UNL     1     -11.436  11.352  69.514  1.00  0.00    -0.381 C  
HETATM   18  C   UNL     1      -9.824  11.000  67.582  1.00  0.00    -0.192 C  
HETATM   19  C   UNL     1     -11.303  11.334  67.942  1.00  0.00    -0.367 C  
BRANCH  15  20
HETATM   20  C   UNL     1     -11.104   7.197  70.836  1.00  0.00    -0.290 C  
HETATM   21  C   UNL     1     -10.347   6.898  71.906  1.00  0.00    -0.210 C  
HETATM   22  C   UNL     1     -11.070   6.549  73.201  1.00  0.00    -0.197 C  
HETATM   23  C   UNL     1     -10.600   5.224  73.801  1.00  0.00    -0.287 C  
HETATM   24  C   UNL     1      -9.085   5.218  73.986  1.00  0.00    -0.118 C  
HETATM   25  O   UNL     1     -11.009   4.124  72.987  1.00  0.00    -0.190 OA 
HETATM   26  C   UNL     1      -8.351   5.573  72.689  1.00  0.00    -0.114 C  
HETATM   27  H   UNL     1     -10.716   3.301  73.359  1.00  0.00     0.000 HD 
HETATM   28  C   UNL     1      -8.892   6.833  72.038  1.00  0.00    -0.134 C  
HETATM   29  C   UNL     1      -8.069   7.846  71.688  1.00  0.00    -0.120 C  
ENDBRANCH  15  20
ENDBRANCH   5   6
ENDBRANCH   4   5
TORSDOF 3
ENDMDL
MODEL       90
REMARK 921   NORMALIZED FREE ENERGY PREDICTED BY IDOCK:   -4.69 KCAL/MOL
REMARK 922        TOTAL FREE ENERGY PREDICTED BY IDOCK:   -6.33 KCAL/MOL
REMARK 923 INTER-LIGAND FREE ENERGY PREDICTED BY IDOCK:   -5.43 KCAL/MOL
REMARK 924 INTRA-LIGAND FREE ENERGY PREDICTED BY IDOCK:   -0.90 KCAL/MOL
REMARK 927      BINDING AFFINITY PREDICTED BY RF-SCORE:    0.00 PKD
ROOT
HETATM    1  C   UNL     1      -9.412  18.690  66.112  1.00  0.00    -0.185 C  
HETATM    2  C   UNL     1      -9.007  17.332  66.683  1.00  0.00    -0.279 C  
HETATM    3  C   UNL     1      -7.609  16.959  66.180  1.00  0.00    -0.230 C  
HETATM    4  C   UNL     1      -9.007  17.311  68.223  1.00  0.00    -0.262 C  
ENDROOT
BRANCH   4   5
HETATM    5  C   UNL     1     -10.378  17.540  68.860  1.00  0.00    -0.338 C  
BRANCH   5   6
HETATM    6  C   UNL     1     -11.338  16.372  68.535  1.00  0.00    -0.289 C  
HETATM    7  C   UNL     1     -11.039  15.059  69.315  1.00  0.00    -0.280 C  
HETATM    8  C   UNL     1     -11.978  13.808  68.840  1.00  0.00    -0.394 C  
HETATM    9  C   UNL     1     -11.056  15.396  70.817  1.00  0.00    -0.371 C  
HETATM   10  C   UNL     1     -11.629  13.459  67.390  1.00  0.00    -0.394 C  
HETATM   11  C   UNL     1     -10.443  12.510  67.493  1.00  0.00    -0.231 C  
HETATM   12  C   UNL     1     -10.298  12.103  68.989  1.00  0.00    -0.014 C  
HETATM   13  C   UNL     1      -9.722  10.691  69.092  1.00  0.00    -0.205 C  
HETATM   14  C   UNL     1     -10.320   9.894  70.221  1.00  0.00    -0.339 C  
HETATM   15  C   UNL     1      -8.766  10.218  68.261  1.00  0.00    -0.126 C  
HETATM   16  C   UNL     1     -12.043  12.670  71.079  1.00  0.00    -0.019 C  
HETATM   17  C   UNL     1     -11.859   9.972  70.246  1.00  0.00    -0.291 C  
HETATM   18  C   UNL     1     -11.727  12.423  69.589  1.00  0.00    -0.377 C  
HETATM   19  C   UNL     1     -12.492  11.089  69.330  1.00  0.00    -0.075 C  
BRANCH  15  20
HETATM   20  C   UNL     1      -7.915   9.085  68.581  1.00  0.00    -0.102 C  
HETATM   21  C   UNL     1      -7.403   8.094  67.831  1.00  0.00    -0.096 C  
HETATM   22  C   UNL     1      -6.369   7.184  68.482  1.00  0.00    -0.036 C  
HETATM   23  C   UNL     1      -6.717   5.703  68.343  1.00  0.00    -0.057 C  
HETATM   24  C   UNL     1      -6.947   5.333  66.881  1.00  0.00    -0.065 C  
HETATM   25  O   UNL     1      -7.864   5.374  69.129  1.00  0.00    -0.087 OA 
HETATM   26  C   UNL     1      -7.982   6.247  66.217  1.00  0.00    -0.110 C  
HETATM   27  H   UNL     1      -8.080   4.453  69.042  1.00  0.00     0.000 HD 
HETATM   28  C   UNL     1      -7.693   7.720  66.448  1.00  0.00    -0.093 C  
HETATM   29  C   UNL     1      -7.633   8.589  65.414  1.00  0.00    -0.088 C  
ENDBRANCH  15  20
ENDBRANCH   5   6
ENDBRANCH   4   5
TORSDOF 3
ENDMDL
MODEL       91
REMARK 921   NORMALIZED FREE ENERGY PREDICTED BY IDOCK:   -4.68 KCAL/MOL
REMARK 922        TOTAL FREE ENERGY PREDICTED BY IDOCK:   -6.31 KCAL/MOL
REMARK 923 INTER-LIGAND FREE ENERGY PREDICTED BY IDOCK:   -5.13 KCAL/MOL
REMARK 924 INTRA-LIGAND FREE ENERGY PREDICTED BY IDOCK:   -1.18 KCAL/MOL
REMARK 927      BINDING AFFINITY PREDICTED BY RF-SCORE:    0.00 PKD
ROOT
HETATM    1  C   UNL     1      -9.387   4.008  65.131  1.00  0.00    -0.163 C  
HETATM    2  C   UNL     1      -9.360   3.059  63.933  1.00  0.00    -0.108 C  
HETATM    3  C   UNL     1     -10.784   2.849  63.411  1.00  0.00    -0.242 C  
HETATM    4  C   UNL     1      -8.476   3.578  62.784  1.00  0.00    -0.081 C  
ENDROOT
BRANCH   4   5
HETATM    5  C   UNL     1      -6.993   3.710  63.133  1.00  0.00    -0.043 C  
BRANCH   5   6
HETATM    6  C   UNL     1      -6.485   5.142  62.848  1.00  0.00    -0.026 C  
HETATM    7  C   UNL     1      -6.608   6.120  64.053  1.00  0.00    -0.033 C  
HETATM    8  C   UNL     1      -6.201   7.656  63.672  1.00  0.00    -0.054 C  
HETATM    9  C   UNL     1      -5.863   5.488  65.243  1.00  0.00    -0.021 C  
HETATM   10  C   UNL     1      -7.216   8.194  62.660  1.00  0.00    -0.096 C  
HETATM   11  C   UNL     1      -8.364   8.725  63.507  1.00  0.00    -0.147 C  
HETATM   12  C   UNL     1      -7.884   8.745  64.987  1.00  0.00    -0.111 C  
HETATM   13  C   UNL     1      -8.572   9.881  65.743  1.00  0.00    -0.151 C  
HETATM   14  C   UNL     1      -7.668  10.553  66.742  1.00  0.00    -0.118 C  
HETATM   15  C   UNL     1      -9.862  10.232  65.542  1.00  0.00    -0.347 C  
HETATM   16  C   UNL     1      -5.320   8.259  65.946  1.00  0.00    -0.031 C  
HETATM   17  C   UNL     1      -6.292  10.909  66.144  1.00  0.00    -0.123 C  
HETATM   18  C   UNL     1      -6.308   8.720  64.854  1.00  0.00    -0.065 C  
HETATM   19  C   UNL     1      -5.968  10.238  64.754  1.00  0.00    -0.132 C  
BRANCH  15  20
HETATM   20  C   UNL     1     -10.649  10.983  66.505  1.00  0.00    -0.310 C  
HETATM   21  C   UNL     1     -11.023  12.272  66.562  1.00  0.00    -0.320 C  
HETATM   22  C   UNL     1     -12.034  12.662  67.633  1.00  0.00    -0.309 C  
HETATM   23  C   UNL     1     -11.566  13.841  68.485  1.00  0.00    -0.338 C  
HETATM   24  C   UNL     1     -11.192  15.032  67.608  1.00  0.00    -0.331 C  
HETATM   25  O   UNL     1     -10.464  13.464  69.313  1.00  0.00    -0.441 OA 
HETATM   26  C   UNL     1     -10.179  14.647  66.525  1.00  0.00    -0.282 C  
HETATM   27  H   UNL     1     -10.173  14.197  69.842  1.00  0.00     0.000 HD 
HETATM   28  C   UNL     1     -10.596  13.410  65.749  1.00  0.00    -0.286 C  
HETATM   29  C   UNL     1     -10.638  13.415  64.398  1.00  0.00    -0.423 C  
ENDBRANCH  15  20
ENDBRANCH   5   6
ENDBRANCH   4   5
TORSDOF 3
ENDMDL
MODEL       92
REMARK 921   NORMALIZED FREE ENERGY PREDICTED BY IDOCK:   -4.68 KCAL/MOL
REMARK 922        TOTAL FREE ENERGY PREDICTED BY IDOCK:   -6.31 KCAL/MOL
REMARK 923 INTER-LIGAND FREE ENERGY PREDICTED BY IDOCK:   -5.21 KCAL/MOL
REMARK 924 INTRA-LIGAND FREE ENERGY PREDICTED BY IDOCK:   -1.10 KCAL/MOL
REMARK 927      BINDING AFFINITY PREDICTED BY RF-SCORE:    0.00 PKD
ROOT
HETATM    1  C   UNL     1      -9.687   4.053  66.617  1.00  0.00    -0.215 C  
HETATM    2  C   UNL     1      -9.888   5.258  67.534  1.00  0.00    -0.183 C  
HETATM    3  C   UNL     1     -11.026   6.130  66.994  1.00  0.00    -0.414 C  
HETATM    4  C   UNL     1     -10.212   4.854  68.984  1.00  0.00    -0.164 C  
ENDROOT
BRANCH   4   5
HETATM    5  C   UNL     1      -9.097   4.085  69.693  1.00  0.00    -0.186 C  
BRANCH   5   6
HETATM    6  C   UNL     1      -7.756   4.851  69.602  1.00  0.00    -0.063 C  
HETATM    7  C   UNL     1      -7.859   6.366  69.944  1.00  0.00    -0.114 C  
HETATM    8  C   UNL     1      -6.458   7.171  69.696  1.00  0.00    -0.040 C  
HETATM    9  C   UNL     1      -8.478   6.486  71.347  1.00  0.00    -0.125 C  
HETATM   10  C   UNL     1      -6.144   7.155  68.197  1.00  0.00    -0.034 C  
HETATM   11  C   UNL     1      -6.909   8.341  67.627  1.00  0.00    -0.070 C  
HETATM   12  C   UNL     1      -7.424   9.187  68.828  1.00  0.00    -0.076 C  
HETATM   13  C   UNL     1      -7.501  10.661  68.432  1.00  0.00    -0.093 C  
HETATM   14  C   UNL     1      -7.108  11.590  69.550  1.00  0.00     0.016 C  
HETATM   15  C   UNL     1      -7.895  11.081  67.209  1.00  0.00    -0.122 C  
HETATM   16  C   UNL     1      -6.807   8.863  71.519  1.00  0.00    -0.082 C  
HETATM   17  C   UNL     1      -5.791  11.168  70.231  1.00  0.00    -0.137 C  
HETATM   18  C   UNL     1      -6.484   8.732  70.017  1.00  0.00    -0.038 C  
HETATM   19  C   UNL     1      -5.284   9.717  69.875  1.00  0.00    -0.033 C  
BRANCH  15  20
HETATM   20  C   UNL     1      -8.381  12.424  66.940  1.00  0.00    -0.117 C  
HETATM   21  C   UNL     1      -9.617  12.951  66.908  1.00  0.00    -0.240 C  
HETATM   22  C   UNL     1      -9.730  14.466  66.790  1.00  0.00    -0.278 C  
HETATM   23  C   UNL     1     -10.642  14.902  65.644  1.00  0.00    -0.344 C  
HETATM   24  C   UNL     1     -12.014  14.245  65.760  1.00  0.00    -0.399 C  
HETATM   25  O   UNL     1     -10.048  14.601  64.380  1.00  0.00    -0.500 OA 
HETATM   26  C   UNL     1     -11.909  12.722  65.883  1.00  0.00    -0.490 C  
HETATM   27  H   UNL     1     -10.615  14.872  63.667  1.00  0.00     0.000 HD 
HETATM   28  C   UNL     1     -10.921  12.290  66.953  1.00  0.00    -0.312 C  
HETATM   29  C   UNL     1     -11.276  11.413  67.917  1.00  0.00    -0.352 C  
ENDBRANCH  15  20
ENDBRANCH   5   6
ENDBRANCH   4   5
TORSDOF 3
ENDMDL
MODEL       93
REMARK 921   NORMALIZED FREE ENERGY PREDICTED BY IDOCK:   -4.67 KCAL/MOL
REMARK 922        TOTAL FREE ENERGY PREDICTED BY IDOCK:   -6.31 KCAL/MOL
REMARK 923 INTER-LIGAND FREE ENERGY PREDICTED BY IDOCK:   -5.27 KCAL/MOL
REMARK 924 INTRA-LIGAND FREE ENERGY PREDICTED BY IDOCK:   -1.04 KCAL/MOL
REMARK 927      BINDING AFFINITY PREDICTED BY RF-SCORE:    0.00 PKD
ROOT
HETATM    1  C   UNL     1     -10.458   4.853  67.122  1.00  0.00    -0.130 C  
HETATM    2  C   UNL     1     -10.010   5.826  68.213  1.00  0.00    -0.185 C  
HETATM    3  C   UNL     1     -11.237   6.361  68.959  1.00  0.00    -0.402 C  
HETATM    4  C   UNL     1      -9.050   5.178  69.228  1.00  0.00    -0.140 C  
ENDROOT
BRANCH   4   5
HETATM    5  C   UNL     1      -7.719   4.713  68.636  1.00  0.00    -0.072 C  
BRANCH   5   6
HETATM    6  C   UNL     1      -7.216   5.708  67.565  1.00  0.00    -0.076 C  
HETATM    7  C   UNL     1      -7.103   7.180  68.059  1.00  0.00    -0.085 C  
HETATM    8  C   UNL     1      -6.710   8.225  66.865  1.00  0.00    -0.062 C  
HETATM    9  C   UNL     1      -6.193   7.186  69.301  1.00  0.00    -0.035 C  
HETATM   10  C   UNL     1      -7.860   8.266  65.854  1.00  0.00    -0.093 C  
HETATM   11  C   UNL     1      -8.833   9.295  66.414  1.00  0.00    -0.169 C  
HETATM   12  C   UNL     1      -8.113  10.033  67.580  1.00  0.00    -0.110 C  
HETATM   13  C   UNL     1      -8.625  11.470  67.682  1.00  0.00    -0.135 C  
HETATM   14  C   UNL     1      -7.544  12.454  68.043  1.00  0.00    -0.128 C  
HETATM   15  C   UNL     1      -9.917  11.812  67.481  1.00  0.00    -0.204 C  
HETATM   16  C   UNL     1      -5.443   9.825  68.329  1.00  0.00    -0.039 C  
HETATM   17  C   UNL     1      -6.275  12.276  67.186  1.00  0.00    -0.118 C  
HETATM   18  C   UNL     1      -6.582   9.755  67.291  1.00  0.00    -0.070 C  
HETATM   19  C   UNL     1      -6.210  10.941  66.349  1.00  0.00    -0.130 C  
BRANCH  15  20
HETATM   20  C   UNL     1     -10.506  13.045  67.976  1.00  0.00    -0.234 C  
HETATM   21  C   UNL     1     -10.718  14.243  67.404  1.00  0.00    -0.282 C  
HETATM   22  C   UNL     1     -11.560  15.250  68.177  1.00  0.00    -0.344 C  
HETATM   23  C   UNL     1     -10.871  16.606  68.323  1.00  0.00    -0.356 C  
HETATM   24  C   UNL     1     -10.451  17.153  66.963  1.00  0.00    -0.282 C  
HETATM   25  O   UNL     1      -9.741  16.510  69.193  1.00  0.00    -0.259 OA 
HETATM   26  C   UNL     1      -9.608  16.144  66.177  1.00  0.00    -0.359 C  
HETATM   27  H   UNL     1      -9.313  17.353  69.285  1.00  0.00     0.000 HD 
HETATM   28  C   UNL     1     -10.246  14.767  66.123  1.00  0.00    -0.310 C  
HETATM   29  C   UNL     1     -10.426  14.128  64.946  1.00  0.00    -0.461 C  
ENDBRANCH  15  20
ENDBRANCH   5   6
ENDBRANCH   4   5
TORSDOF 3
ENDMDL
MODEL       94
REMARK 921   NORMALIZED FREE ENERGY PREDICTED BY IDOCK:   -4.64 KCAL/MOL
REMARK 922        TOTAL FREE ENERGY PREDICTED BY IDOCK:   -6.27 KCAL/MOL
REMARK 923 INTER-LIGAND FREE ENERGY PREDICTED BY IDOCK:   -5.07 KCAL/MOL
REMARK 924 INTRA-LIGAND FREE ENERGY PREDICTED BY IDOCK:   -1.19 KCAL/MOL
REMARK 927      BINDING AFFINITY PREDICTED BY RF-SCORE:    0.00 PKD
ROOT
HETATM    1  C   UNL     1      -8.273  17.007  68.770  1.00  0.00    -0.245 C  
HETATM    2  C   UNL     1      -9.651  17.114  68.117  1.00  0.00    -0.270 C  
HETATM    3  C   UNL     1     -10.240  18.502  68.384  1.00  0.00    -0.409 C  
HETATM    4  C   UNL     1      -9.606  16.873  66.597  1.00  0.00    -0.282 C  
ENDROOT
BRANCH   4   5
HETATM    5  C   UNL     1      -9.157  15.469  66.189  1.00  0.00    -0.359 C  
BRANCH   5   6
HETATM    6  C   UNL     1      -9.973  14.390  66.938  1.00  0.00    -0.261 C  
HETATM    7  C   UNL     1      -9.177  13.093  67.264  1.00  0.00    -0.221 C  
HETATM    8  C   UNL     1     -10.107  11.922  67.923  1.00  0.00    -0.199 C  
HETATM    9  C   UNL     1      -7.926  13.504  68.062  1.00  0.00    -0.151 C  
HETATM   10  C   UNL     1     -11.132  11.469  66.879  1.00  0.00    -0.366 C  
HETATM   11  C   UNL     1     -10.408  10.411  66.058  1.00  0.00    -0.262 C  
HETATM   12  C   UNL     1      -9.085  10.065  66.801  1.00  0.00    -0.159 C  
HETATM   13  C   UNL     1      -8.704   8.609  66.538  1.00  0.00    -0.143 C  
HETATM   14  C   UNL     1      -8.100   7.933  67.741  1.00  0.00    -0.128 C  
HETATM   15  C   UNL     1      -8.879   8.001  65.344  1.00  0.00    -0.056 C  
HETATM   16  C   UNL     1      -8.289  10.909  69.328  1.00  0.00    -0.023 C  
HETATM   17  C   UNL     1      -8.923   8.168  69.023  1.00  0.00    -0.144 C  
HETATM   18  C   UNL     1      -9.364  10.558  68.279  1.00  0.00    -0.156 C  
HETATM   19  C   UNL     1     -10.020   9.298  68.921  1.00  0.00    -0.190 C  
BRANCH  15  20
HETATM   20  C   UNL     1      -8.161   6.805  64.939  1.00  0.00    -0.112 C  
HETATM   21  C   UNL     1      -8.323   5.504  65.238  1.00  0.00    -0.144 C  
HETATM   22  C   UNL     1      -7.494   4.496  64.453  1.00  0.00    -0.071 C  
HETATM   23  C   UNL     1      -6.722   3.536  65.357  1.00  0.00    -0.041 C  
HETATM   24  C   UNL     1      -7.659   2.844  66.342  1.00  0.00    -0.076 C  
HETATM   25  O   UNL     1      -5.680   4.221  66.054  1.00  0.00    -0.020 OA 
HETATM   26  C   UNL     1      -8.500   3.852  67.133  1.00  0.00    -0.100 C  
HETATM   27  H   UNL     1      -5.200   3.624  66.616  1.00  0.00     0.000 HD 
HETATM   28  C   UNL     1      -9.182   4.872  66.238  1.00  0.00    -0.142 C  
HETATM   29  C   UNL     1     -10.511   5.100  66.327  1.00  0.00    -0.341 C  
ENDBRANCH  15  20
ENDBRANCH   5   6
ENDBRANCH   4   5
TORSDOF 3
ENDMDL
MODEL       95
REMARK 921   NORMALIZED FREE ENERGY PREDICTED BY IDOCK:   -4.63 KCAL/MOL
REMARK 922        TOTAL FREE ENERGY PREDICTED BY IDOCK:   -6.25 KCAL/MOL
REMARK 923 INTER-LIGAND FREE ENERGY PREDICTED BY IDOCK:   -4.97 KCAL/MOL
REMARK 924 INTRA-LIGAND FREE ENERGY PREDICTED BY IDOCK:   -1.28 KCAL/MOL
REMARK 927      BINDING AFFINITY PREDICTED BY RF-SCORE:    0.00 PKD
ROOT
HETATM    1  C   UNL     1     -10.553  11.658  64.172  1.00  0.00    -0.411 C  
HETATM    2  C   UNL     1     -11.736  12.622  64.255  1.00  0.00    -0.446 C  
HETATM    3  C   UNL     1     -12.901  12.078  63.422  1.00  0.00    -0.427 C  
HETATM    4  C   UNL     1     -12.216  12.850  65.700  1.00  0.00    -0.519 C  
ENDROOT
BRANCH   4   5
HETATM    5  C   UNL     1     -11.186  13.515  66.614  1.00  0.00    -0.328 C  
BRANCH   5   6
HETATM    6  C   UNL     1     -10.855  12.607  67.822  1.00  0.00    -0.248 C  
HETATM    7  C   UNL     1      -9.716  11.580  67.559  1.00  0.00    -0.189 C  
HETATM    8  C   UNL     1      -9.493  10.543  68.802  1.00  0.00    -0.181 C  
HETATM    9  C   UNL     1      -8.478  12.367  67.093  1.00  0.00    -0.185 C  
HETATM   10  C   UNL     1     -10.745   9.672  68.942  1.00  0.00    -0.230 C  
HETATM   11  C   UNL     1     -10.530   8.523  67.966  1.00  0.00    -0.249 C  
HETATM   12  C   UNL     1      -9.052   8.589  67.484  1.00  0.00    -0.146 C  
HETATM   13  C   UNL     1      -8.544   7.182  67.168  1.00  0.00    -0.121 C  
HETATM   14  C   UNL     1      -7.105   6.976  67.558  1.00  0.00    -0.085 C  
HETATM   15  C   UNL     1      -9.308   6.232  66.584  1.00  0.00    -0.167 C  
HETATM   16  C   UNL     1      -7.026  10.235  68.442  1.00  0.00    -0.069 C  
HETATM   17  C   UNL     1      -6.807   7.468  68.989  1.00  0.00    -0.064 C  
HETATM   18  C   UNL     1      -8.346   9.453  68.606  1.00  0.00    -0.117 C  
HETATM   19  C   UNL     1      -7.930   8.363  69.640  1.00  0.00    -0.106 C  
BRANCH  15  20
HETATM   20  C   UNL     1      -8.763   5.075  65.896  1.00  0.00    -0.131 C  
HETATM   21  C   UNL     1      -8.324   3.882  66.334  1.00  0.00    -0.105 C  
HETATM   22  C   UNL     1      -8.008   2.823  65.286  1.00  0.00    -0.082 C  
HETATM   23  C   UNL     1      -6.610   2.229  65.450  1.00  0.00    -0.031 C  
HETATM   24  C   UNL     1      -6.409   1.694  66.865  1.00  0.00    -0.020 C  
HETATM   25  O   UNL     1      -5.607   3.195  65.133  1.00  0.00    -0.012 OA 
HETATM   26  C   UNL     1      -6.729   2.752  67.925  1.00  0.00    -0.040 C  
HETATM   27  H   UNL     1      -4.738   2.826  65.235  1.00  0.00     0.000 HD 
HETATM   28  C   UNL     1      -8.075   3.418  67.698  1.00  0.00    -0.080 C  
HETATM   29  C   UNL     1      -8.993   3.489  68.687  1.00  0.00    -0.183 C  
ENDBRANCH  15  20
ENDBRANCH   5   6
ENDBRANCH   4   5
TORSDOF 3
ENDMDL
MODEL       96
REMARK 921   NORMALIZED FREE ENERGY PREDICTED BY IDOCK:   -4.63 KCAL/MOL
REMARK 922        TOTAL FREE ENERGY PREDICTED BY IDOCK:   -6.25 KCAL/MOL
REMARK 923 INTER-LIGAND FREE ENERGY PREDICTED BY IDOCK:   -5.27 KCAL/MOL
REMARK 924 INTRA-LIGAND FREE ENERGY PREDICTED BY IDOCK:   -0.98 KCAL/MOL
REMARK 927      BINDING AFFINITY PREDICTED BY RF-SCORE:    0.00 PKD
ROOT
HETATM    1  C   UNL     1      -7.239   3.637  67.356  1.00  0.00    -0.059 C  
HETATM    2  C   UNL     1      -7.372   3.682  68.878  1.00  0.00    -0.053 C  
HETATM    3  C   UNL     1      -7.321   2.259  69.441  1.00  0.00    -0.043 C  
HETATM    4  C   UNL     1      -6.268   4.524  69.545  1.00  0.00    -0.027 C  
ENDROOT
BRANCH   4   5
HETATM    5  C   UNL     1      -6.286   6.007  69.169  1.00  0.00    -0.036 C  
BRANCH   5   6
HETATM    6  C   UNL     1      -7.726   6.569  69.213  1.00  0.00    -0.101 C  
HETATM    7  C   UNL     1      -7.985   7.747  68.230  1.00  0.00    -0.122 C  
HETATM    8  C   UNL     1      -9.468   8.410  68.407  1.00  0.00    -0.145 C  
HETATM    9  C   UNL     1      -7.616   7.263  66.816  1.00  0.00    -0.100 C  
HETATM   10  C   UNL     1      -9.549   9.064  69.790  1.00  0.00    -0.182 C  
HETATM   11  C   UNL     1      -8.966  10.457  69.595  1.00  0.00    -0.061 C  
HETATM   12  C   UNL     1      -8.816  10.692  68.064  1.00  0.00    -0.130 C  
HETATM   13  C   UNL     1      -8.983  12.178  67.746  1.00  0.00    -0.179 C  
HETATM   14  C   UNL     1      -9.717  12.423  66.454  1.00  0.00    -0.246 C  
HETATM   15  C   UNL     1      -8.508  13.164  68.539  1.00  0.00    -0.058 C  
HETATM   16  C   UNL     1      -9.742   9.075  66.000  1.00  0.00    -0.339 C  
HETATM   17  C   UNL     1     -11.006  11.584  66.341  1.00  0.00    -0.336 C  
HETATM   18  C   UNL     1      -9.808   9.630  67.438  1.00  0.00    -0.218 C  
HETATM   19  C   UNL     1     -11.149  10.424  67.400  1.00  0.00    -0.297 C  
BRANCH  15  20
HETATM   20  C   UNL     1      -8.270  14.521  68.076  1.00  0.00    -0.145 C  
HETATM   21  C   UNL     1      -8.915  15.680  68.295  1.00  0.00    -0.181 C  
HETATM   22  C   UNL     1      -8.247  16.957  67.802  1.00  0.00    -0.195 C  
HETATM   23  C   UNL     1      -9.173  17.809  66.934  1.00  0.00    -0.258 C  
HETATM   24  C   UNL     1     -10.481  18.106  67.661  1.00  0.00    -0.432 C  
HETATM   25  O   UNL     1      -9.430  17.168  65.684  1.00  0.00    -0.523 OA 
HETATM   26  C   UNL     1     -11.156  16.826  68.165  1.00  0.00    -0.254 C  
HETATM   27  H   UNL     1     -10.005  17.698  65.145  1.00  0.00     0.000 HD 
HETATM   28  C   UNL     1     -10.205  15.929  68.937  1.00  0.00    -0.226 C  
HETATM   29  C   UNL     1     -10.522  15.473  70.169  1.00  0.00    -0.317 C  
ENDBRANCH  15  20
ENDBRANCH   5   6
ENDBRANCH   4   5
TORSDOF 3
ENDMDL
MODEL       97
REMARK 921   NORMALIZED FREE ENERGY PREDICTED BY IDOCK:   -4.61 KCAL/MOL
REMARK 922        TOTAL FREE ENERGY PREDICTED BY IDOCK:   -6.23 KCAL/MOL
REMARK 923 INTER-LIGAND FREE ENERGY PREDICTED BY IDOCK:   -5.56 KCAL/MOL
REMARK 924 INTRA-LIGAND FREE ENERGY PREDICTED BY IDOCK:   -0.67 KCAL/MOL
REMARK 927      BINDING AFFINITY PREDICTED BY RF-SCORE:    0.00 PKD
ROOT
HETATM    1  C   UNL     1     -11.703  12.428  66.055  1.00  0.00    -0.469 C  
HETATM    2  C   UNL     1     -11.860  12.804  64.582  1.00  0.00    -0.428 C  
HETATM    3  C   UNL     1     -12.260  14.278  64.468  1.00  0.00    -0.476 C  
HETATM    4  C   UNL     1     -10.574  12.569  63.769  1.00  0.00    -0.471 C  
ENDROOT
BRANCH   4   5
HETATM    5  C   UNL     1     -10.131  11.108  63.690  1.00  0.00    -0.432 C  
BRANCH   5   6
HETATM    6  C   UNL     1      -8.772  10.905  64.400  1.00  0.00    -0.014 C  
HETATM    7  C   UNL     1      -8.475   9.433  64.809  1.00  0.00    -0.180 C  
HETATM    8  C   UNL     1      -7.104   9.279  65.685  1.00  0.00    -0.082 C  
HETATM    9  C   UNL     1      -8.579   8.567  63.541  1.00  0.00     0.044 C  
HETATM   10  C   UNL     1      -7.296   9.999  67.023  1.00  0.00    -0.091 C  
HETATM   11  C   UNL     1      -7.968   8.972  67.924  1.00  0.00    -0.102 C  
HETATM   12  C   UNL     1      -7.903   7.597  67.196  1.00  0.00    -0.117 C  
HETATM   13  C   UNL     1      -7.826   6.467  68.222  1.00  0.00    -0.106 C  
HETATM   14  C   UNL     1      -6.930   5.338  67.786  1.00  0.00    -0.065 C  
HETATM   15  C   UNL     1      -8.506   6.479  69.390  1.00  0.00    -0.127 C  
HETATM   16  C   UNL     1      -6.528   6.977  64.860  1.00  0.00    -0.043 C  
HETATM   17  C   UNL     1      -5.567   5.837  67.264  1.00  0.00    -0.012 C  
HETATM   18  C   UNL     1      -6.734   7.799  66.149  1.00  0.00    -0.053 C  
HETATM   19  C   UNL     1      -5.481   7.386  66.980  1.00  0.00    -0.026 C  
BRANCH  15  20
HETATM   20  C   UNL     1      -8.793   5.283  70.163  1.00  0.00    -0.144 C  
HETATM   21  C   UNL     1      -9.793   4.964  71.004  1.00  0.00    -0.266 C  
HETATM   22  C   UNL     1      -9.875   3.519  71.479  1.00  0.00    -0.219 C  
HETATM   23  C   UNL     1      -9.953   3.403  73.001  1.00  0.00    -0.143 C  
HETATM   24  C   UNL     1     -11.103   4.240  73.553  1.00  0.00    -0.377 C  
HETATM   25  O   UNL     1      -8.717   3.790  73.604  1.00  0.00    -0.089 OA 
HETATM   26  C   UNL     1     -11.030   5.694  73.075  1.00  0.00    -0.325 C  
HETATM   27  H   UNL     1      -8.766   3.718  74.550  1.00  0.00     0.000 HD 
HETATM   28  C   UNL     1     -10.845   5.805  71.571  1.00  0.00    -0.316 C  
HETATM   29  C   UNL     1     -11.665   6.576  70.823  1.00  0.00    -0.427 C  
ENDBRANCH  15  20
ENDBRANCH   5   6
ENDBRANCH   4   5
TORSDOF 3
ENDMDL
MODEL       98
REMARK 921   NORMALIZED FREE ENERGY PREDICTED BY IDOCK:   -4.58 KCAL/MOL
REMARK 922        TOTAL FREE ENERGY PREDICTED BY IDOCK:   -6.20 KCAL/MOL
REMARK 923 INTER-LIGAND FREE ENERGY PREDICTED BY IDOCK:   -5.01 KCAL/MOL
REMARK 924 INTRA-LIGAND FREE ENERGY PREDICTED BY IDOCK:   -1.19 KCAL/MOL
REMARK 927      BINDING AFFINITY PREDICTED BY RF-SCORE:    0.00 PKD
ROOT
HETATM    1  C   UNL     1     -10.002   8.231  72.342  1.00  0.00    -0.379 C  
HETATM    2  C   UNL     1     -11.438   7.735  72.180  1.00  0.00    -0.361 C  
HETATM    3  C   UNL     1     -12.411   8.799  72.697  1.00  0.00    -0.254 C  
HETATM    4  C   UNL     1     -11.790   7.401  70.719  1.00  0.00    -0.288 C  
ENDROOT
BRANCH   4   5
HETATM    5  C   UNL     1     -10.977   6.256  70.115  1.00  0.00    -0.411 C  
BRANCH   5   6
HETATM    6  C   UNL     1     -10.621   6.551  68.639  1.00  0.00    -0.289 C  
HETATM    7  C   UNL     1      -9.295   7.342  68.445  1.00  0.00    -0.144 C  
HETATM    8  C   UNL     1      -9.027   7.763  66.888  1.00  0.00    -0.153 C  
HETATM    9  C   UNL     1      -8.175   6.552  69.144  1.00  0.00    -0.116 C  
HETATM   10  C   UNL     1     -10.111   8.755  66.456  1.00  0.00    -0.349 C  
HETATM   11  C   UNL     1      -9.591  10.116  66.898  1.00  0.00    -0.219 C  
HETATM   12  C   UNL     1      -8.104   9.933  67.323  1.00  0.00    -0.113 C  
HETATM   13  C   UNL     1      -7.322  11.218  67.048  1.00  0.00    -0.136 C  
HETATM   14  C   UNL     1      -5.920  10.959  66.564  1.00  0.00    -0.118 C  
HETATM   15  C   UNL     1      -7.837  12.453  67.236  1.00  0.00    -0.166 C  
HETATM   16  C   UNL     1      -6.520   7.667  67.025  1.00  0.00    -0.054 C  
HETATM   17  C   UNL     1      -5.871   9.914  65.432  1.00  0.00    -0.076 C  
HETATM   18  C   UNL     1      -7.689   8.584  66.608  1.00  0.00    -0.090 C  
HETATM   19  C   UNL     1      -7.200   9.091  65.217  1.00  0.00    -0.088 C  
BRANCH  15  20
HETATM   20  C   UNL     1      -7.023  13.645  67.399  1.00  0.00    -0.075 C  
HETATM   21  C   UNL     1      -6.222  14.068  68.393  1.00  0.00    -0.102 C  
HETATM   22  C   UNL     1      -5.354  15.291  68.122  1.00  0.00    -0.130 C  
HETATM   23  C   UNL     1      -5.509  16.372  69.190  1.00  0.00    -0.121 C  
HETATM   24  C   UNL     1      -5.256  15.802  70.583  1.00  0.00    -0.168 C  
HETATM   25  O   UNL     1      -6.805  16.970  69.123  1.00  0.00    -0.225 OA 
HETATM   26  C   UNL     1      -6.121  14.569  70.861  1.00  0.00    -0.115 C  
HETATM   27  H   UNL     1      -6.901  17.643  69.787  1.00  0.00     0.000 HD 
HETATM   28  C   UNL     1      -6.048  13.541  69.745  1.00  0.00    -0.127 C  
HETATM   29  C   UNL     1      -5.759  12.248  70.008  1.00  0.00    -0.141 C  
ENDBRANCH  15  20
ENDBRANCH   5   6
ENDBRANCH   4   5
TORSDOF 3
ENDMDL
MODEL       99
REMARK 921   NORMALIZED FREE ENERGY PREDICTED BY IDOCK:   -4.58 KCAL/MOL
REMARK 922        TOTAL FREE ENERGY PREDICTED BY IDOCK:   -6.20 KCAL/MOL
REMARK 923 INTER-LIGAND FREE ENERGY PREDICTED BY IDOCK:   -5.05 KCAL/MOL
REMARK 924 INTRA-LIGAND FREE ENERGY PREDICTED BY IDOCK:   -1.15 KCAL/MOL
REMARK 927      BINDING AFFINITY PREDICTED BY RF-SCORE:    0.00 PKD
ROOT
HETATM    1  C   UNL     1      -7.406   9.092  71.268  1.00  0.00    -0.093 C  
HETATM    2  C   UNL     1      -7.635   7.822  72.087  1.00  0.00    -0.093 C  
HETATM    3  C   UNL     1      -8.492   8.149  73.314  1.00  0.00    -0.294 C  
HETATM    4  C   UNL     1      -8.326   6.710  71.276  1.00  0.00    -0.124 C  
ENDROOT
BRANCH   4   5
HETATM    5  C   UNL     1      -7.514   6.193  70.088  1.00  0.00    -0.094 C  
BRANCH   5   6
HETATM    6  C   UNL     1      -8.329   6.295  68.777  1.00  0.00    -0.120 C  
HETATM    7  C   UNL     1      -8.127   7.628  67.998  1.00  0.00    -0.123 C  
HETATM    8  C   UNL     1      -9.111   7.763  66.701  1.00  0.00    -0.195 C  
HETATM    9  C   UNL     1      -6.619   7.788  67.734  1.00  0.00    -0.060 C  
HETATM   10  C   UNL     1     -10.559   7.844  67.192  1.00  0.00    -0.383 C  
HETATM   11  C   UNL     1     -10.784   9.319  67.498  1.00  0.00    -0.272 C  
HETATM   12  C   UNL     1      -9.571  10.106  66.921  1.00  0.00    -0.219 C  
HETATM   13  C   UNL     1     -10.014  11.506  66.495  1.00  0.00    -0.240 C  
HETATM   14  C   UNL     1      -9.331  11.981  65.240  1.00  0.00     0.050 C  
HETATM   15  C   UNL     1     -10.914  12.241  67.185  1.00  0.00    -0.308 C  
HETATM   16  C   UNL     1      -7.522   9.129  65.315  1.00  0.00    -0.097 C  
HETATM   17  C   UNL     1      -9.356  10.923  64.119  1.00  0.00    -0.264 C  
HETATM   18  C   UNL     1      -8.968   9.106  65.853  1.00  0.00    -0.231 C  
HETATM   19  C   UNL     1      -9.778   9.472  64.573  1.00  0.00     0.188 C  
BRANCH  15  20
HETATM   20  C   UNL     1     -11.031  13.684  67.066  1.00  0.00    -0.298 C  
HETATM   21  C   UNL     1     -10.203  14.692  67.392  1.00  0.00    -0.240 C  
HETATM   22  C   UNL     1     -10.585  16.091  66.925  1.00  0.00    -0.300 C  
HETATM   23  C   UNL     1     -10.590  17.111  68.063  1.00  0.00    -0.374 C  
HETATM   24  C   UNL     1      -9.255  17.111  68.801  1.00  0.00    -0.249 C  
HETATM   25  O   UNL     1     -11.663  16.854  68.971  1.00  0.00    -0.016 OA 
HETATM   26  C   UNL     1      -8.862  15.707  69.269  1.00  0.00    -0.264 C  
HETATM   27  H   UNL     1     -11.666  17.488  69.678  1.00  0.00     0.000 HD 
HETATM   28  C   UNL     1      -8.960  14.673  68.161  1.00  0.00    -0.179 C  
HETATM   29  C   UNL     1      -7.921  13.858  67.873  1.00  0.00    -0.160 C  
ENDBRANCH  15  20
ENDBRANCH   5   6
ENDBRANCH   4   5
TORSDOF 3
ENDMDL
MODEL      100
REMARK 921   NORMALIZED FREE ENERGY PREDICTED BY IDOCK:   -4.57 KCAL/MOL
REMARK 922        TOTAL FREE ENERGY PREDICTED BY IDOCK:   -6.18 KCAL/MOL
REMARK 923 INTER-LIGAND FREE ENERGY PREDICTED BY IDOCK:   -5.41 KCAL/MOL
REMARK 924 INTRA-LIGAND FREE ENERGY PREDICTED BY IDOCK:   -0.77 KCAL/MOL
REMARK 927      BINDING AFFINITY PREDICTED BY RF-SCORE:    0.00 PKD
ROOT
HETATM    1  C   UNL     1     -11.983   8.851  72.022  1.00  0.00    -0.439 C  
HETATM    2  C   UNL     1     -13.065   7.826  72.357  1.00  0.00     0.063 C  
HETATM    3  C   UNL     1     -14.316   8.106  71.519  1.00  0.00    -0.534 C  
HETATM    4  C   UNL     1     -12.608   6.377  72.106  1.00  0.00    -0.104 C  
ENDROOT
BRANCH   4   5
HETATM    5  C   UNL     1     -11.439   5.919  72.980  1.00  0.00    -0.151 C  
BRANCH   5   6
HETATM    6  C   UNL     1     -10.133   5.841  72.156  1.00  0.00    -0.219 C  
HETATM    7  C   UNL     1      -9.370   7.192  72.032  1.00  0.00    -0.151 C  
HETATM    8  C   UNL     1      -8.077   7.106  71.036  1.00  0.00    -0.104 C  
HETATM    9  C   UNL     1      -9.104   7.708  73.458  1.00  0.00    -0.317 C  
HETATM   10  C   UNL     1      -8.574   6.835  69.613  1.00  0.00    -0.133 C  
HETATM   11  C   UNL     1      -8.899   8.211  69.047  1.00  0.00    -0.144 C  
HETATM   12  C   UNL     1      -8.328   9.270  70.035  1.00  0.00    -0.176 C  
HETATM   13  C   UNL     1      -7.922  10.529  69.271  1.00  0.00    -0.156 C  
HETATM   14  C   UNL     1      -6.671  11.168  69.814  1.00  0.00    -0.121 C  
HETATM   15  C   UNL     1      -8.624  11.022  68.226  1.00  0.00    -0.143 C  
HETATM   16  C   UNL     1      -6.704   8.825  72.247  1.00  0.00    -0.023 C  
HETATM   17  C   UNL     1      -5.537  10.146  70.034  1.00  0.00    -0.046 C  
HETATM   18  C   UNL     1      -7.247   8.454  70.852  1.00  0.00    -0.059 C  
HETATM   19  C   UNL     1      -5.973   8.632  69.970  1.00  0.00    -0.027 C  
BRANCH  15  20
HETATM   20  C   UNL     1      -8.524  12.398  67.769  1.00  0.00    -0.169 C  
HETATM   21  C   UNL     1      -9.370  13.440  67.835  1.00  0.00    -0.216 C  
HETATM   22  C   UNL     1      -8.834  14.805  67.425  1.00  0.00    -0.203 C  
HETATM   23  C   UNL     1      -9.712  15.496  66.382  1.00  0.00    -0.283 C  
HETATM   24  C   UNL     1     -11.159  15.582  66.860  1.00  0.00    -0.221 C  
HETATM   25  O   UNL     1      -9.640  14.817  65.127  1.00  0.00    -0.435 OA 
HETATM   26  C   UNL     1     -11.704  14.213  67.279  1.00  0.00    -0.421 C  
HETATM   27  H   UNL     1     -10.187  15.246  64.479  1.00  0.00     0.000 HD 
HETATM   28  C   UNL     1     -10.776  13.482  68.234  1.00  0.00    -0.271 C  
HETATM   29  C   UNL     1     -11.231  12.986  69.405  1.00  0.00    -0.209 C  
ENDBRANCH  15  20
ENDBRANCH   5   6
ENDBRANCH   4   5
TORSDOF 3
ENDMDL
MODEL      101
REMARK 921   NORMALIZED FREE ENERGY PREDICTED BY IDOCK:   -4.56 KCAL/MOL
REMARK 922        TOTAL FREE ENERGY PREDICTED BY IDOCK:   -6.18 KCAL/MOL
REMARK 923 INTER-LIGAND FREE ENERGY PREDICTED BY IDOCK:   -5.03 KCAL/MOL
REMARK 924 INTRA-LIGAND FREE ENERGY PREDICTED BY IDOCK:   -1.15 KCAL/MOL
REMARK 927      BINDING AFFINITY PREDICTED BY RF-SCORE:    0.00 PKD
ROOT
HETATM    1  C   UNL     1     -10.213  12.535  64.454  1.00  0.00    -0.346 C  
HETATM    2  C   UNL     1     -11.365  13.535  64.367  1.00  0.00    -0.407 C  
HETATM    3  C   UNL     1     -12.363  13.078  63.299  1.00  0.00    -0.392 C  
HETATM    4  C   UNL     1     -12.106  13.705  65.706  1.00  0.00    -0.463 C  
ENDROOT
BRANCH   4   5
HETATM    5  C   UNL     1     -11.253  14.284  66.835  1.00  0.00    -0.333 C  
BRANCH   5   6
HETATM    6  C   UNL     1     -11.221  13.326  68.048  1.00  0.00    -0.307 C  
HETATM    7  C   UNL     1     -10.098  12.250  67.987  1.00  0.00    -0.206 C  
HETATM    8  C   UNL     1     -10.186  11.167  69.209  1.00  0.00    -0.110 C  
HETATM    9  C   UNL     1      -8.757  12.986  67.820  1.00  0.00    -0.188 C  
HETATM   10  C   UNL     1     -11.476  10.357  69.051  1.00  0.00    -0.258 C  
HETATM   11  C   UNL     1     -11.113   9.228  68.097  1.00  0.00     0.050 C  
HETATM   12  C   UNL     1      -9.564   9.232  67.935  1.00  0.00    -0.163 C  
HETATM   13  C   UNL     1      -9.064   7.812  67.676  1.00  0.00    -0.138 C  
HETATM   14  C   UNL     1      -7.748   7.521  68.349  1.00  0.00    -0.120 C  
HETATM   15  C   UNL     1      -9.729   6.919  66.910  1.00  0.00    -0.222 C  
HETATM   16  C   UNL     1      -7.714  10.745  69.357  1.00  0.00    -0.107 C  
HETATM   17  C   UNL     1      -7.735   7.955  69.829  1.00  0.00    -0.099 C  
HETATM   18  C   UNL     1      -9.072  10.027  69.212  1.00  0.00    -0.208 C  
HETATM   19  C   UNL     1      -8.930   8.887  70.267  1.00  0.00    -0.201 C  
BRANCH  15  20
HETATM   20  C   UNL     1      -9.103   5.756  66.305  1.00  0.00    -0.154 C  
HETATM   21  C   UNL     1      -8.167   5.624  65.349  1.00  0.00    -0.132 C  
HETATM   22  C   UNL     1      -7.599   4.230  65.113  1.00  0.00    -0.078 C  
HETATM   23  C   UNL     1      -7.666   3.806  63.646  1.00  0.00    -0.074 C  
HETATM   24  C   UNL     1      -6.998   4.843  62.749  1.00  0.00    -0.034 C  
HETATM   25  O   UNL     1      -9.019   3.592  63.242  1.00  0.00    -0.093 OA 
HETATM   26  C   UNL     1      -7.562   6.249  62.984  1.00  0.00    -0.080 C  
HETATM   27  H   UNL     1      -9.062   3.328  62.330  1.00  0.00     0.000 HD 
HETATM   28  C   UNL     1      -7.592   6.627  64.454  1.00  0.00    -0.103 C  
HETATM   29  C   UNL     1      -7.044   7.783  64.888  1.00  0.00    -0.060 C  
ENDBRANCH  15  20
ENDBRANCH   5   6
ENDBRANCH   4   5
TORSDOF 3
ENDMDL
MODEL      102
REMARK 921   NORMALIZED FREE ENERGY PREDICTED BY IDOCK:   -4.52 KCAL/MOL
REMARK 922        TOTAL FREE ENERGY PREDICTED BY IDOCK:   -6.13 KCAL/MOL
REMARK 923 INTER-LIGAND FREE ENERGY PREDICTED BY IDOCK:   -5.34 KCAL/MOL
REMARK 924 INTRA-LIGAND FREE ENERGY PREDICTED BY IDOCK:   -0.80 KCAL/MOL
REMARK 927      BINDING AFFINITY PREDICTED BY RF-SCORE:    0.00 PKD
ROOT
HETATM    1  C   UNL     1      -7.053  19.021  67.830  1.00  0.00    -0.254 C  
HETATM    2  C   UNL     1      -8.434  18.856  67.196  1.00  0.00    -0.290 C  
HETATM    3  C   UNL     1      -8.939  20.216  66.704  1.00  0.00    -0.416 C  
HETATM    4  C   UNL     1      -8.430  17.866  66.016  1.00  0.00    -0.054 C  
ENDROOT
BRANCH   4   5
HETATM    5  C   UNL     1      -8.069  16.429  66.394  1.00  0.00    -0.357 C  
BRANCH   5   6
HETATM    6  C   UNL     1      -9.301  15.502  66.275  1.00  0.00    -0.355 C  
HETATM    7  C   UNL     1      -9.535  14.583  67.510  1.00  0.00    -0.203 C  
HETATM    8  C   UNL     1     -10.754  13.517  67.289  1.00  0.00    -0.272 C  
HETATM    9  C   UNL     1      -9.633  15.488  68.751  1.00  0.00    -0.208 C  
HETATM   10  C   UNL     1     -10.353  12.541  66.178  1.00  0.00    -0.274 C  
HETATM   11  C   UNL     1      -9.552  11.456  66.885  1.00  0.00    -0.203 C  
HETATM   12  C   UNL     1      -9.734  11.663  68.417  1.00  0.00    -0.199 C  
HETATM   13  C   UNL     1      -9.653  10.318  69.137  1.00  0.00    -0.229 C  
HETATM   14  C   UNL     1     -10.610  10.214  70.296  1.00  0.00    -0.324 C  
HETATM   15  C   UNL     1      -8.800   9.333  68.777  1.00  0.00    -0.132 C  
HETATM   16  C   UNL     1     -11.457  13.429  69.698  1.00  0.00    -0.274 C  
HETATM   17  C   UNL     1     -12.036  10.668  69.924  1.00  0.00    -0.385 C  
HETATM   18  C   UNL     1     -11.051  12.535  68.509  1.00  0.00    -0.297 C  
HETATM   19  C   UNL     1     -12.161  11.440  68.554  1.00  0.00    -0.168 C  
BRANCH  15  20
HETATM   20  C   UNL     1      -8.399   8.255  69.664  1.00  0.00    -0.123 C  
HETATM   21  C   UNL     1      -7.225   7.629  69.859  1.00  0.00    -0.072 C  
HETATM   22  C   UNL     1      -7.130   6.668  71.036  1.00  0.00    -0.072 C  
HETATM   23  C   UNL     1      -6.610   5.289  70.632  1.00  0.00    -0.038 C  
HETATM   24  C   UNL     1      -5.279   5.404  69.895  1.00  0.00    -0.004 C  
HETATM   25  O   UNL     1      -7.569   4.600  69.829  1.00  0.00    -0.054 OA 
HETATM   26  C   UNL     1      -5.365   6.373  68.711  1.00  0.00    -0.011 C  
HETATM   27  H   UNL     1      -7.245   3.743  69.578  1.00  0.00     0.000 HD 
HETATM   28  C   UNL     1      -5.982   7.708  69.093  1.00  0.00    -0.034 C  
HETATM   29  C   UNL     1      -5.360   8.872  68.803  1.00  0.00    -0.033 C  
ENDBRANCH  15  20
ENDBRANCH   5   6
ENDBRANCH   4   5
TORSDOF 3
ENDMDL
MODEL      103
REMARK 921   NORMALIZED FREE ENERGY PREDICTED BY IDOCK:   -4.52 KCAL/MOL
REMARK 922        TOTAL FREE ENERGY PREDICTED BY IDOCK:   -6.12 KCAL/MOL
REMARK 923 INTER-LIGAND FREE ENERGY PREDICTED BY IDOCK:   -5.56 KCAL/MOL
REMARK 924 INTRA-LIGAND FREE ENERGY PREDICTED BY IDOCK:   -0.56 KCAL/MOL
REMARK 927      BINDING AFFINITY PREDICTED BY RF-SCORE:    0.00 PKD
ROOT
HETATM    1  C   UNL     1     -12.701  14.550  72.921  1.00  0.00    -0.473 C  
HETATM    2  C   UNL     1     -13.002  14.906  71.466  1.00  0.00    -0.419 C  
HETATM    3  C   UNL     1     -14.369  15.591  71.377  1.00  0.00    -0.366 C  
HETATM    4  C   UNL     1     -11.937  15.831  70.848  1.00  0.00    -0.453 C  
ENDROOT
BRANCH   4   5
HETATM    5  C   UNL     1     -10.540  15.217  70.754  1.00  0.00    -0.010 C  
BRANCH   5   6
HETATM    6  C   UNL     1     -10.119  15.032  69.277  1.00  0.00    -0.236 C  
HETATM    7  C   UNL     1     -10.364  13.602  68.714  1.00  0.00    -0.182 C  
HETATM    8  C   UNL     1      -9.774  13.402  67.202  1.00  0.00    -0.237 C  
HETATM    9  C   UNL     1     -11.854  13.271  68.917  1.00  0.00    -0.367 C  
HETATM   10  C   UNL     1      -8.248  13.517  67.255  1.00  0.00    -0.164 C  
HETATM   11  C   UNL     1      -7.765  12.118  67.612  1.00  0.00    -0.148 C  
HETATM   12  C   UNL     1      -8.983  11.157  67.487  1.00  0.00    -0.139 C  
HETATM   13  C   UNL     1      -8.508   9.763  67.077  1.00  0.00    -0.117 C  
HETATM   14  C   UNL     1      -9.450   9.077  66.124  1.00  0.00    -0.318 C  
HETATM   15  C   UNL     1      -7.366   9.204  67.537  1.00  0.00    -0.084 C  
HETATM   16  C   UNL     1     -11.505  11.736  66.469  1.00  0.00    -0.325 C  
HETATM   17  C   UNL     1      -9.872   9.990  64.955  1.00  0.00    -0.352 C  
HETATM   18  C   UNL     1      -9.981  11.959  66.557  1.00  0.00    -0.225 C  
HETATM   19  C   UNL     1      -9.523  11.518  65.134  1.00  0.00    -0.190 C  
BRANCH  15  20
HETATM   20  C   UNL     1      -7.108   7.775  67.518  1.00  0.00    -0.083 C  
HETATM   21  C   UNL     1      -7.605   6.754  68.238  1.00  0.00    -0.107 C  
HETATM   22  C   UNL     1      -7.244   5.342  67.793  1.00  0.00    -0.072 C  
HETATM   23  C   UNL     1      -6.668   4.495  68.927  1.00  0.00    -0.046 C  
HETATM   24  C   UNL     1      -7.609   4.481  70.128  1.00  0.00    -0.053 C  
HETATM   25  O   UNL     1      -5.376   4.970  69.310  1.00  0.00    -0.003 OA 
HETATM   26  C   UNL     1      -7.980   5.898  70.579  1.00  0.00    -0.106 C  
HETATM   27  H   UNL     1      -5.018   4.444  70.015  1.00  0.00     0.000 HD 
HETATM   28  C   UNL     1      -8.452   6.770  69.429  1.00  0.00    -0.132 C  
HETATM   29  C   UNL     1      -9.623   7.442  69.499  1.00  0.00    -0.155 C  
ENDBRANCH  15  20
ENDBRANCH   5   6
ENDBRANCH   4   5
TORSDOF 3
ENDMDL
MODEL      104
REMARK 921   NORMALIZED FREE ENERGY PREDICTED BY IDOCK:   -4.52 KCAL/MOL
REMARK 922        TOTAL FREE ENERGY PREDICTED BY IDOCK:   -6.12 KCAL/MOL
REMARK 923 INTER-LIGAND FREE ENERGY PREDICTED BY IDOCK:   -4.81 KCAL/MOL
REMARK 924 INTRA-LIGAND FREE ENERGY PREDICTED BY IDOCK:   -1.31 KCAL/MOL
REMARK 927      BINDING AFFINITY PREDICTED BY RF-SCORE:    0.00 PKD
ROOT
HETATM    1  C   UNL     1     -11.545  12.102  65.918  1.00  0.00    -0.425 C  
HETATM    2  C   UNL     1     -11.377  11.606  64.483  1.00  0.00    -0.310 C  
HETATM    3  C   UNL     1     -11.342  12.801  63.526  1.00  0.00    -0.480 C  
HETATM    4  C   UNL     1     -10.097  10.772  64.290  1.00  0.00    -0.427 C  
ENDROOT
BRANCH   4   5
HETATM    5  C   UNL     1     -10.058   9.471  65.093  1.00  0.00     0.243 C  
BRANCH   5   6
HETATM    6  C   UNL     1      -8.671   9.268  65.745  1.00  0.00    -0.182 C  
HETATM    7  C   UNL     1      -8.415  10.154  66.999  1.00  0.00    -0.129 C  
HETATM    8  C   UNL     1      -6.890  10.021  67.573  1.00  0.00    -0.081 C  
HETATM    9  C   UNL     1      -9.551   9.881  68.002  1.00  0.00    -0.155 C  
HETATM   10  C   UNL     1      -5.924  10.582  66.526  1.00  0.00    -0.077 C  
HETATM   11  C   UNL     1      -5.880  12.079  66.800  1.00  0.00     0.016 C  
HETATM   12  C   UNL     1      -6.593  12.327  68.162  1.00  0.00    -0.067 C  
HETATM   13  C   UNL     1      -5.977  13.539  68.859  1.00  0.00    -0.082 C  
HETATM   14  C   UNL     1      -5.884  13.373  70.353  1.00  0.00    -0.162 C  
HETATM   15  C   UNL     1      -5.573  14.648  68.200  1.00  0.00    -0.125 C  
HETATM   16  C   UNL     1      -7.486  10.422  69.980  1.00  0.00    -0.088 C  
HETATM   17  C   UNL     1      -5.279  12.014  70.757  1.00  0.00    -0.143 C  
HETATM   18  C   UNL     1      -6.548  10.905  68.855  1.00  0.00    -0.056 C  
HETATM   19  C   UNL     1      -5.177  10.950  69.597  1.00  0.00    -0.038 C  
BRANCH  15  20
HETATM   20  C   UNL     1      -5.395  15.941  68.838  1.00  0.00    -0.104 C  
HETATM   21  C   UNL     1      -6.264  16.900  69.203  1.00  0.00    -0.196 C  
HETATM   22  C   UNL     1      -5.726  18.049  70.046  1.00  0.00    -0.238 C  
HETATM   23  C   UNL     1      -6.064  19.419  69.460  1.00  0.00    -0.277 C  
HETATM   24  C   UNL     1      -7.564  19.554  69.222  1.00  0.00    -0.237 C  
HETATM   25  O   UNL     1      -5.342  19.646  68.248  1.00  0.00    -0.188 OA 
HETATM   26  C   UNL     1      -8.114  18.400  68.378  1.00  0.00    -0.327 C  
HETATM   27  H   UNL     1      -5.552  20.497  67.884  1.00  0.00     0.000 HD 
HETATM   28  C   UNL     1      -7.688  17.040  68.902  1.00  0.00    -0.231 C  
HETATM   29  C   UNL     1      -8.596  16.069  69.142  1.00  0.00    -0.247 C  
ENDBRANCH  15  20
ENDBRANCH   5   6
ENDBRANCH   4   5
TORSDOF 3
ENDMDL
MODEL      105
REMARK 921   NORMALIZED FREE ENERGY PREDICTED BY IDOCK:   -4.46 KCAL/MOL
REMARK 922        TOTAL FREE ENERGY PREDICTED BY IDOCK:   -6.06 KCAL/MOL
REMARK 923 INTER-LIGAND FREE ENERGY PREDICTED BY IDOCK:   -5.35 KCAL/MOL
REMARK 924 INTRA-LIGAND FREE ENERGY PREDICTED BY IDOCK:   -0.71 KCAL/MOL
REMARK 927      BINDING AFFINITY PREDICTED BY RF-SCORE:    0.00 PKD
ROOT
HETATM    1  C   UNL     1     -11.761  16.404  71.774  1.00  0.00    -0.395 C  
HETATM    2  C   UNL     1     -11.586  15.908  70.339  1.00  0.00    -0.387 C  
HETATM    3  C   UNL     1     -10.569  16.792  69.610  1.00  0.00    -0.242 C  
HETATM    4  C   UNL     1     -11.118  14.443  70.270  1.00  0.00    -0.018 C  
ENDROOT
BRANCH   4   5
HETATM    5  C   UNL     1     -12.108  13.432  70.849  1.00  0.00    -0.269 C  
BRANCH   5   6
HETATM    6  C   UNL     1     -12.087  12.115  70.038  1.00  0.00    -0.352 C  
HETATM    7  C   UNL     1     -11.946  10.830  70.905  1.00  0.00    -0.438 C  
HETATM    8  C   UNL     1     -11.780   9.472  70.010  1.00  0.00    -0.028 C  
HETATM    9  C   UNL     1     -13.089  10.835  71.936  1.00  0.00    -0.557 C  
HETATM   10  C   UNL     1     -10.453   9.548  69.250  1.00  0.00    -0.226 C  
HETATM   11  C   UNL     1      -9.415   9.012  70.226  1.00  0.00    -0.230 C  
HETATM   12  C   UNL     1     -10.182   8.378  71.424  1.00  0.00    -0.284 C  
HETATM   13  C   UNL     1      -9.370   7.223  72.009  1.00  0.00    -0.150 C  
HETATM   14  C   UNL     1     -10.229   6.070  72.458  1.00  0.00    -0.210 C  
HETATM   15  C   UNL     1      -8.023   7.247  72.124  1.00  0.00    -0.098 C  
HETATM   16  C   UNL     1     -12.919   7.944  71.647  1.00  0.00    -0.359 C  
HETATM   17  C   UNL     1     -11.267   5.661  71.394  1.00  0.00    -0.167 C  
HETATM   18  C   UNL     1     -11.623   8.113  70.827  1.00  0.00    -0.249 C  
HETATM   19  C   UNL     1     -11.462   6.688  70.213  1.00  0.00    -0.449 C  
BRANCH  15  20
HETATM   20  C   UNL     1      -7.281   6.393  73.035  1.00  0.00    -0.082 C  
HETATM   21  C   UNL     1      -6.409   5.390  72.832  1.00  0.00    -0.059 C  
HETATM   22  C   UNL     1      -5.662   4.853  74.046  1.00  0.00    -0.018 C  
HETATM   23  C   UNL     1      -5.776   3.336  74.186  1.00  0.00    -0.003 C  
HETATM   24  C   UNL     1      -5.335   2.637  72.903  1.00  0.00     0.000 C  
HETATM   25  O   UNL     1      -7.110   2.956  74.529  1.00  0.00    -0.039 OA 
HETATM   26  C   UNL     1      -6.079   3.175  71.676  1.00  0.00    -0.014 C  
HETATM   27  H   UNL     1      -7.181   2.013  74.616  1.00  0.00     0.000 HD 
HETATM   28  C   UNL     1      -6.054   4.691  71.598  1.00  0.00    -0.018 C  
HETATM   29  C   UNL     1      -5.650   5.325  70.475  1.00  0.00    -0.008 C  
ENDBRANCH  15  20
ENDBRANCH   5   6
ENDBRANCH   4   5
TORSDOF 3
ENDMDL
MODEL      106
REMARK 921   NORMALIZED FREE ENERGY PREDICTED BY IDOCK:   -4.46 KCAL/MOL
REMARK 922        TOTAL FREE ENERGY PREDICTED BY IDOCK:   -6.06 KCAL/MOL
REMARK 923 INTER-LIGAND FREE ENERGY PREDICTED BY IDOCK:   -5.25 KCAL/MOL
REMARK 924 INTRA-LIGAND FREE ENERGY PREDICTED BY IDOCK:   -0.80 KCAL/MOL
REMARK 927      BINDING AFFINITY PREDICTED BY RF-SCORE:    0.00 PKD
ROOT
HETATM    1  C   UNL     1     -10.089   5.728  71.072  1.00  0.00    -0.260 C  
HETATM    2  C   UNL     1      -9.239   4.487  71.338  1.00  0.00    -0.189 C  
HETATM    3  C   UNL     1     -10.040   3.485  72.175  1.00  0.00    -0.205 C  
HETATM    4  C   UNL     1      -8.772   3.799  70.042  1.00  0.00    -0.119 C  
ENDROOT
BRANCH   4   5
HETATM    5  C   UNL     1      -7.849   4.648  69.168  1.00  0.00    -0.070 C  
BRANCH   5   6
HETATM    6  C   UNL     1      -8.633   5.291  68.001  1.00  0.00    -0.103 C  
HETATM    7  C   UNL     1      -8.402   6.822  67.838  1.00  0.00    -0.120 C  
HETATM    8  C   UNL     1      -9.356   7.491  66.692  1.00  0.00    -0.222 C  
HETATM    9  C   UNL     1      -6.887   7.050  67.688  1.00  0.00    -0.074 C  
HETATM   10  C   UNL     1     -10.814   7.389  67.148  1.00  0.00    -0.340 C  
HETATM   11  C   UNL     1     -11.033   8.613  68.026  1.00  0.00     0.091 C  
HETATM   12  C   UNL     1      -9.802   9.548  67.842  1.00  0.00    -0.186 C  
HETATM   13  C   UNL     1     -10.223  11.006  68.017  1.00  0.00    -0.201 C  
HETATM   14  C   UNL     1      -9.508  11.941  67.078  1.00  0.00    -0.192 C  
HETATM   15  C   UNL     1     -11.133  11.410  68.932  1.00  0.00    -0.290 C  
HETATM   16  C   UNL     1      -7.726   9.277  66.012  1.00  0.00    -0.096 C  
HETATM   17  C   UNL     1      -9.517  11.433  65.622  1.00  0.00    -0.253 C  
HETATM   18  C   UNL     1      -9.183   9.060  66.469  1.00  0.00    -0.226 C  
HETATM   19  C   UNL     1      -9.961   9.931  65.436  1.00  0.00    -0.349 C  
BRANCH  15  20
HETATM   20  C   UNL     1     -11.236  12.778  69.411  1.00  0.00    -0.198 C  
HETATM   21  C   UNL     1     -11.835  13.321  70.485  1.00  0.00    -0.215 C  
HETATM   22  C   UNL     1     -11.554  14.789  70.777  1.00  0.00    -0.318 C  
HETATM   23  C   UNL     1     -12.831  15.611  70.948  1.00  0.00    -0.442 C  
HETATM   24  C   UNL     1     -13.738  14.993  72.007  1.00  0.00    -0.550 C  
HETATM   25  O   UNL     1     -13.525  15.736  69.706  1.00  0.00    -0.150 OA 
HETATM   26  C   UNL     1     -14.021  13.514  71.724  1.00  0.00    -0.216 C  
HETATM   27  H   UNL     1     -14.319  16.246  69.812  1.00  0.00     0.000 HD 
HETATM   28  C   UNL     1     -12.756  12.721  71.448  1.00  0.00    -0.353 C  
HETATM   29  C   UNL     1     -12.488  11.581  72.123  1.00  0.00     0.596 C  
ENDBRANCH  15  20
ENDBRANCH   5   6
ENDBRANCH   4   5
TORSDOF 3
ENDMDL
MODEL      107
REMARK 921   NORMALIZED FREE ENERGY PREDICTED BY IDOCK:   -4.44 KCAL/MOL
REMARK 922        TOTAL FREE ENERGY PREDICTED BY IDOCK:   -6.03 KCAL/MOL
REMARK 923 INTER-LIGAND FREE ENERGY PREDICTED BY IDOCK:   -5.51 KCAL/MOL
REMARK 924 INTRA-LIGAND FREE ENERGY PREDICTED BY IDOCK:   -0.52 KCAL/MOL
REMARK 927      BINDING AFFINITY PREDICTED BY RF-SCORE:    0.00 PKD
ROOT
HETATM    1  C   UNL     1      -5.189   7.075  65.664  1.00  0.00    -0.023 C  
HETATM    2  C   UNL     1      -6.042   7.119  64.396  1.00  0.00    -0.037 C  
HETATM    3  C   UNL     1      -5.300   6.419  63.253  1.00  0.00    -0.018 C  
HETATM    4  C   UNL     1      -7.417   6.452  64.583  1.00  0.00    -0.091 C  
ENDROOT
BRANCH   4   5
HETATM    5  C   UNL     1      -8.320   7.136  65.610  1.00  0.00    -0.138 C  
BRANCH   5   6
HETATM    6  C   UNL     1      -8.591   8.607  65.213  1.00  0.00    -0.206 C  
HETATM    7  C   UNL     1      -8.545   9.611  66.401  1.00  0.00    -0.136 C  
HETATM    8  C   UNL     1      -8.979  11.127  65.971  1.00  0.00    -0.210 C  
HETATM    9  C   UNL     1      -7.176   9.458  67.087  1.00  0.00    -0.087 C  
HETATM   10  C   UNL     1     -10.453  11.115  65.559  1.00  0.00    -0.317 C  
HETATM   11  C   UNL     1     -11.222  11.281  66.862  1.00  0.00    -0.300 C  
HETATM   12  C   UNL     1     -10.194  11.666  67.966  1.00  0.00    -0.202 C  
HETATM   13  C   UNL     1     -10.864  12.549  69.018  1.00  0.00    -0.183 C  
HETATM   14  C   UNL     1      -9.957  13.631  69.541  1.00  0.00     0.689 C  
HETATM   15  C   UNL     1     -12.135  12.365  69.441  1.00  0.00    -0.237 C  
HETATM   16  C   UNL     1      -7.507  12.297  67.636  1.00  0.00    -0.134 C  
HETATM   17  C   UNL     1      -9.240  14.396  68.411  1.00  0.00    -0.195 C  
HETATM   18  C   UNL     1      -8.964  12.214  67.136  1.00  0.00    -0.189 C  
HETATM   19  C   UNL     1      -9.323  13.724  66.986  1.00  0.00    -0.250 C  
BRANCH  15  20
HETATM   20  C   UNL     1     -12.645  12.883  70.698  1.00  0.00    -0.256 C  
HETATM   21  C   UNL     1     -12.779  14.132  71.178  1.00  0.00    -0.431 C  
HETATM   22  C   UNL     1     -13.557  14.304  72.476  1.00  0.00    -0.620 C  
HETATM   23  C   UNL     1     -12.783  15.102  73.525  1.00  0.00    -0.547 C  
HETATM   24  C   UNL     1     -12.327  16.444  72.962  1.00  0.00    -0.488 C  
HETATM   25  O   UNL     1     -11.663  14.355  74.006  1.00  0.00    -0.134 OA 
HETATM   26  C   UNL     1     -11.548  16.279  71.653  1.00  0.00    -0.436 C  
HETATM   27  H   UNL     1     -11.182  14.851  74.658  1.00  0.00     0.000 HD 
HETATM   28  C   UNL     1     -12.273  15.398  70.651  1.00  0.00    -0.431 C  
HETATM   29  C   UNL     1     -12.492  15.817  69.385  1.00  0.00     0.101 C  
ENDBRANCH  15  20
ENDBRANCH   5   6
ENDBRANCH   4   5
TORSDOF 3
ENDMDL
MODEL      108
REMARK 921   NORMALIZED FREE ENERGY PREDICTED BY IDOCK:   -4.39 KCAL/MOL
REMARK 922        TOTAL FREE ENERGY PREDICTED BY IDOCK:   -5.97 KCAL/MOL
REMARK 923 INTER-LIGAND FREE ENERGY PREDICTED BY IDOCK:   -4.84 KCAL/MOL
REMARK 924 INTRA-LIGAND FREE ENERGY PREDICTED BY IDOCK:   -1.14 KCAL/MOL
REMARK 927      BINDING AFFINITY PREDICTED BY RF-SCORE:    0.00 PKD
ROOT
HETATM    1  C   UNL     1      -9.597   4.081  68.898  1.00  0.00    -0.213 C  
HETATM    2  C   UNL     1      -8.851   2.771  69.147  1.00  0.00    -0.152 C  
HETATM    3  C   UNL     1      -9.779   1.588  68.856  1.00  0.00    -0.081 C  
HETATM    4  C   UNL     1      -7.582   2.638  68.284  1.00  0.00    -0.055 C  
ENDROOT
BRANCH   4   5
HETATM    5  C   UNL     1      -6.507   3.687  68.569  1.00  0.00    -0.037 C  
BRANCH   5   6
HETATM    6  C   UNL     1      -6.246   4.560  67.319  1.00  0.00    -0.039 C  
HETATM    7  C   UNL     1      -6.388   6.091  67.565  1.00  0.00    -0.041 C  
HETATM    8  C   UNL     1      -6.250   6.971  66.195  1.00  0.00    -0.039 C  
HETATM    9  C   UNL     1      -5.441   6.467  68.719  1.00  0.00    -0.015 C  
HETATM   10  C   UNL     1      -7.431   6.638  65.279  1.00  0.00    -0.082 C  
HETATM   11  C   UNL     1      -8.553   7.558  65.740  1.00  0.00    -0.158 C  
HETATM   12  C   UNL     1      -7.932   8.598  66.718  1.00  0.00    -0.094 C  
HETATM   13  C   UNL     1      -8.698   9.918  66.629  1.00  0.00    -0.138 C  
HETATM   14  C   UNL     1      -7.805  11.125  66.749  1.00  0.00    -0.153 C  
HETATM   15  C   UNL     1     -10.039   9.988  66.474  1.00  0.00    -0.296 C  
HETATM   16  C   UNL     1      -5.240   8.994  67.290  1.00  0.00    -0.037 C  
HETATM   17  C   UNL     1      -6.564  11.031  65.839  1.00  0.00     0.016 C  
HETATM   18  C   UNL     1      -6.391   8.550  66.363  1.00  0.00    -0.058 C  
HETATM   19  C   UNL     1      -6.289   9.606  65.221  1.00  0.00    -0.081 C  
BRANCH  15  20
HETATM   20  C   UNL     1     -10.825  11.163  66.810  1.00  0.00    -0.322 C  
HETATM   21  C   UNL     1     -11.210  12.233  66.093  1.00  0.00    -0.372 C  
HETATM   22  C   UNL     1     -12.216  13.180  66.733  1.00  0.00    -0.306 C  
HETATM   23  C   UNL     1     -11.752  14.636  66.712  1.00  0.00    -0.341 C  
HETATM   24  C   UNL     1     -11.394  15.073  65.295  1.00  0.00    -0.349 C  
HETATM   25  O   UNL     1     -10.641  14.828  67.590  1.00  0.00    -0.256 OA 
HETATM   26  C   UNL     1     -10.385  14.122  64.642  1.00  0.00    -0.296 C  
HETATM   27  H   UNL     1     -10.352  15.733  67.577  1.00  0.00     0.000 HD 
HETATM   28  C   UNL     1     -10.798  12.665  64.759  1.00  0.00    -0.332 C  
HETATM   29  C   UNL     1     -10.849  11.866  63.670  1.00  0.00    -0.510 C  
ENDBRANCH  15  20
ENDBRANCH   5   6
ENDBRANCH   4   5
TORSDOF 3
ENDMDL
MODEL      109
REMARK 921   NORMALIZED FREE ENERGY PREDICTED BY IDOCK:   -4.39 KCAL/MOL
REMARK 922        TOTAL FREE ENERGY PREDICTED BY IDOCK:   -5.97 KCAL/MOL
REMARK 923 INTER-LIGAND FREE ENERGY PREDICTED BY IDOCK:   -5.27 KCAL/MOL
REMARK 924 INTRA-LIGAND FREE ENERGY PREDICTED BY IDOCK:   -0.70 KCAL/MOL
REMARK 927      BINDING AFFINITY PREDICTED BY RF-SCORE:    0.00 PKD
ROOT
HETATM    1  C   UNL     1     -10.146  19.117  68.318  1.00  0.00    -0.499 C  
HETATM    2  C   UNL     1      -8.770  18.918  67.684  1.00  0.00    -0.312 C  
HETATM    3  C   UNL     1      -8.097  20.279  67.478  1.00  0.00    -0.351 C  
HETATM    4  C   UNL     1      -7.847  18.026  68.535  1.00  0.00    -0.310 C  
ENDROOT
BRANCH   4   5
HETATM    5  C   UNL     1      -8.339  16.589  68.711  1.00  0.00    -0.248 C  
BRANCH   5   6
HETATM    6  C   UNL     1      -7.248  15.578  68.287  1.00  0.00    -0.118 C  
HETATM    7  C   UNL     1      -7.765  14.123  68.087  1.00  0.00    -0.140 C  
HETATM    8  C   UNL     1      -6.564  13.057  67.784  1.00  0.00    -0.146 C  
HETATM    9  C   UNL     1      -8.912  14.174  67.061  1.00  0.00    -0.251 C  
HETATM   10  C   UNL     1      -5.672  12.960  69.025  1.00  0.00    -0.072 C  
HETATM   11  C   UNL     1      -6.349  11.923  69.910  1.00  0.00    -0.104 C  
HETATM   12  C   UNL     1      -7.457  11.234  69.061  1.00  0.00    -0.116 C  
HETATM   13  C   UNL     1      -7.644   9.789  69.521  1.00  0.00    -0.114 C  
HETATM   14  C   UNL     1      -7.922   8.841  68.384  1.00  0.00    -0.109 C  
HETATM   15  C   UNL     1      -7.579   9.409  70.817  1.00  0.00    -0.138 C  
HETATM   16  C   UNL     1      -7.937  11.529  66.338  1.00  0.00    -0.046 C  
HETATM   17  C   UNL     1      -6.941   9.028  67.210  1.00  0.00    -0.078 C  
HETATM   18  C   UNL     1      -7.013  11.542  67.573  1.00  0.00    -0.102 C  
HETATM   19  C   UNL     1      -6.068  10.341  67.263  1.00  0.00    -0.054 C  
BRANCH  15  20
HETATM   20  C   UNL     1      -8.159   8.176  71.322  1.00  0.00    -0.119 C  
HETATM   21  C   UNL     1      -9.427   7.738  71.406  1.00  0.00    -0.173 C  
HETATM   22  C   UNL     1      -9.640   6.285  71.811  1.00  0.00    -0.165 C  
HETATM   23  C   UNL     1     -10.611   6.136  72.982  1.00  0.00    -0.241 C  
HETATM   24  C   UNL     1     -11.934   6.835  72.684  1.00  0.00     0.020 C  
HETATM   25  O   UNL     1     -10.036   6.645  74.186  1.00  0.00    -0.306 OA 
HETATM   26  C   UNL     1     -11.727   8.295  72.271  1.00  0.00    -0.453 C  
HETATM   27  H   UNL     1     -10.640   6.552  74.914  1.00  0.00     0.000 HD 
HETATM   28  C   UNL     1     -10.683   8.451  71.180  1.00  0.00    -0.280 C  
HETATM   29  C   UNL     1     -10.953   9.140  70.049  1.00  0.00    -0.240 C  
ENDBRANCH  15  20
ENDBRANCH   5   6
ENDBRANCH   4   5
TORSDOF 3
ENDMDL
MODEL      110
REMARK 921   NORMALIZED FREE ENERGY PREDICTED BY IDOCK:   -4.39 KCAL/MOL
REMARK 922        TOTAL FREE ENERGY PREDICTED BY IDOCK:   -5.97 KCAL/MOL
REMARK 923 INTER-LIGAND FREE ENERGY PREDICTED BY IDOCK:   -4.99 KCAL/MOL
REMARK 924 INTRA-LIGAND FREE ENERGY PREDICTED BY IDOCK:   -0.98 KCAL/MOL
REMARK 927      BINDING AFFINITY PREDICTED BY RF-SCORE:    0.00 PKD
ROOT
HETATM    1  C   UNL     1      -9.904   3.869  74.450  1.00  0.00    -0.172 C  
HETATM    2  C   UNL     1      -9.726   4.475  73.058  1.00  0.00    -0.167 C  
HETATM    3  C   UNL     1      -9.613   3.355  72.020  1.00  0.00    -0.214 C  
HETATM    4  C   UNL     1     -10.886   5.409  72.665  1.00  0.00    -0.307 C  
ENDROOT
BRANCH   4   5
HETATM    5  C   UNL     1     -11.031   6.649  73.548  1.00  0.00    -0.114 C  
BRANCH   5   6
HETATM    6  C   UNL     1     -10.233   7.837  72.962  1.00  0.00    -0.393 C  
HETATM    7  C   UNL     1     -10.497   8.105  71.452  1.00  0.00    -0.261 C  
HETATM    8  C   UNL     1      -9.532   9.270  70.834  1.00  0.00    -0.330 C  
HETATM    9  C   UNL     1     -12.013   8.305  71.272  1.00  0.00    -0.317 C  
HETATM   10  C   UNL     1      -8.083   8.774  70.869  1.00  0.00    -0.174 C  
HETATM   11  C   UNL     1      -7.915   7.974  69.585  1.00  0.00    -0.117 C  
HETATM   12  C   UNL     1      -9.164   8.247  68.696  1.00  0.00    -0.143 C  
HETATM   13  C   UNL     1      -8.782   8.158  67.219  1.00  0.00    -0.125 C  
HETATM   14  C   UNL     1      -9.496   9.173  66.365  1.00  0.00    -0.288 C  
HETATM   15  C   UNL     1      -7.906   7.250  66.733  1.00  0.00    -0.113 C  
HETATM   16  C   UNL     1     -11.187  10.103  69.138  1.00  0.00    -0.234 C  
HETATM   17  C   UNL     1      -9.439  10.591  66.967  1.00  0.00    -0.188 C  
HETATM   18  C   UNL     1      -9.737   9.599  69.287  1.00  0.00    -0.191 C  
HETATM   19  C   UNL     1      -8.954  10.668  68.466  1.00  0.00    -0.156 C  
BRANCH  15  20
HETATM   20  C   UNL     1      -7.848   6.860  65.335  1.00  0.00    -0.115 C  
HETATM   21  C   UNL     1      -8.379   5.827  64.659  1.00  0.00    -0.102 C  
HETATM   22  C   UNL     1      -8.273   5.855  63.139  1.00  0.00    -0.064 C  
HETATM   23  C   UNL     1      -7.673   4.572  62.566  1.00  0.00    -0.060 C  
HETATM   24  C   UNL     1      -8.443   3.347  63.051  1.00  0.00    -0.089 C  
HETATM   25  O   UNL     1      -6.290   4.461  62.907  1.00  0.00    -0.021 OA 
HETATM   26  C   UNL     1      -8.558   3.314  64.579  1.00  0.00    -0.094 C  
HETATM   27  H   UNL     1      -5.917   3.664  62.550  1.00  0.00     0.000 HD 
HETATM   28  C   UNL     1      -9.054   4.628  65.155  1.00  0.00    -0.155 C  
HETATM   29  C   UNL     1     -10.104   4.664  66.005  1.00  0.00    -0.287 C  
ENDBRANCH  15  20
ENDBRANCH   5   6
ENDBRANCH   4   5
TORSDOF 3
ENDMDL
MODEL      111
REMARK 921   NORMALIZED FREE ENERGY PREDICTED BY IDOCK:   -4.32 KCAL/MOL
REMARK 922        TOTAL FREE ENERGY PREDICTED BY IDOCK:   -5.89 KCAL/MOL
REMARK 923 INTER-LIGAND FREE ENERGY PREDICTED BY IDOCK:   -4.82 KCAL/MOL
REMARK 924 INTRA-LIGAND FREE ENERGY PREDICTED BY IDOCK:   -1.08 KCAL/MOL
REMARK 927      BINDING AFFINITY PREDICTED BY RF-SCORE:    0.00 PKD
ROOT
HETATM    1  C   UNL     1     -11.898  12.367  67.002  1.00  0.00    -0.368 C  
HETATM    2  C   UNL     1     -11.095  12.917  68.181  1.00  0.00    -0.282 C  
HETATM    3  C   UNL     1     -11.777  12.524  69.495  1.00  0.00    -0.375 C  
HETATM    4  C   UNL     1      -9.642  12.408  68.198  1.00  0.00    -0.218 C  
ENDROOT
BRANCH   4   5
HETATM    5  C   UNL     1      -8.802  12.843  66.997  1.00  0.00    -0.208 C  
BRANCH   5   6
HETATM    6  C   UNL     1      -7.675  11.822  66.714  1.00  0.00    -0.086 C  
HETATM    7  C   UNL     1      -8.139  10.336  66.726  1.00  0.00    -0.121 C  
HETATM    8  C   UNL     1      -6.900   9.281  66.570  1.00  0.00    -0.080 C  
HETATM    9  C   UNL     1      -9.288  10.198  65.710  1.00  0.00    -0.239 C  
HETATM   10  C   UNL     1      -6.004   9.394  67.806  1.00  0.00    -0.052 C  
HETATM   11  C   UNL     1      -6.641   8.470  68.834  1.00  0.00    -0.053 C  
HETATM   12  C   UNL     1      -7.724   7.627  68.098  1.00  0.00    -0.119 C  
HETATM   13  C   UNL     1      -7.857   6.257  68.760  1.00  0.00    -0.101 C  
HETATM   14  C   UNL     1      -8.102   5.148  67.771  1.00  0.00    -0.099 C  
HETATM   15  C   UNL     1      -7.777   6.067  70.096  1.00  0.00    -0.096 C  
HETATM   16  C   UNL     1      -8.217   7.514  65.364  1.00  0.00    -0.136 C  
HETATM   17  C   UNL     1      -7.129   5.200  66.576  1.00  0.00    -0.069 C  
HETATM   18  C   UNL     1      -7.293   7.736  66.579  1.00  0.00    -0.087 C  
HETATM   19  C   UNL     1      -6.305   6.538  66.437  1.00  0.00    -0.042 C  
BRANCH  15  20
HETATM   20  C   UNL     1      -8.311   4.899  70.775  1.00  0.00    -0.103 C  
HETATM   21  C   UNL     1      -9.525   4.618  71.279  1.00  0.00    -0.221 C  
HETATM   22  C   UNL     1      -9.777   3.189  71.743  1.00  0.00    -0.234 C  
HETATM   23  C   UNL     1     -10.317   3.120  73.171  1.00  0.00    -0.159 C  
HETATM   24  C   UNL     1     -11.562   3.987  73.326  1.00  0.00    -0.102 C  
HETATM   25  O   UNL     1      -9.316   3.511  74.112  1.00  0.00    -0.092 OA 
HETATM   26  C   UNL     1     -11.318   5.425  72.856  1.00  0.00    -0.365 C  
HETATM   27  H   UNL     1      -9.651   3.468  75.000  1.00  0.00     0.000 HD 
HETATM   28  C   UNL     1     -10.682   5.489  71.478  1.00  0.00    -0.290 C  
HETATM   29  C   UNL     1     -11.220   6.246  70.497  1.00  0.00    -0.420 C  
ENDBRANCH  15  20
ENDBRANCH   5   6
ENDBRANCH   4   5
TORSDOF 3
ENDMDL
MODEL      112
REMARK 921   NORMALIZED FREE ENERGY PREDICTED BY IDOCK:   -4.32 KCAL/MOL
REMARK 922        TOTAL FREE ENERGY PREDICTED BY IDOCK:   -5.89 KCAL/MOL
REMARK 923 INTER-LIGAND FREE ENERGY PREDICTED BY IDOCK:   -4.58 KCAL/MOL
REMARK 924 INTRA-LIGAND FREE ENERGY PREDICTED BY IDOCK:   -1.31 KCAL/MOL
REMARK 927      BINDING AFFINITY PREDICTED BY RF-SCORE:    0.00 PKD
ROOT
HETATM    1  C   UNL     1      -8.584   2.988  74.374  1.00  0.00    -0.075 C  
HETATM    2  C   UNL     1      -9.061   3.317  72.960  1.00  0.00    -0.107 C  
HETATM    3  C   UNL     1      -8.581   2.233  71.990  1.00  0.00    -0.088 C  
HETATM    4  C   UNL     1     -10.594   3.433  72.863  1.00  0.00    -0.213 C  
ENDROOT
BRANCH   4   5
HETATM    5  C   UNL     1     -11.198   4.571  73.687  1.00  0.00    -0.346 C  
BRANCH   5   6
HETATM    6  C   UNL     1     -10.429   5.891  73.449  1.00  0.00    -0.263 C  
HETATM    7  C   UNL     1     -10.645   6.514  72.038  1.00  0.00    -0.244 C  
HETATM    8  C   UNL     1      -9.706   7.825  71.770  1.00  0.00    -0.206 C  
HETATM    9  C   UNL     1     -12.159   6.703  71.840  1.00  0.00    -0.385 C  
HETATM   10  C   UNL     1      -8.241   7.381  71.754  1.00  0.00    -0.107 C  
HETATM   11  C   UNL     1      -7.989   6.927  70.323  1.00  0.00    -0.115 C  
HETATM   12  C   UNL     1      -9.212   7.370  69.468  1.00  0.00    -0.146 C  
HETATM   13  C   UNL     1      -8.769   7.658  68.034  1.00  0.00    -0.125 C  
HETATM   14  C   UNL     1      -9.491   8.829  67.420  1.00  0.00    -0.183 C  
HETATM   15  C   UNL     1      -7.837   6.926  67.385  1.00  0.00    -0.111 C  
HETATM   16  C   UNL     1     -11.328   8.995  70.250  1.00  0.00    -0.202 C  
HETATM   17  C   UNL     1      -9.519  10.057  68.352  1.00  0.00    -0.146 C  
HETATM   18  C   UNL     1      -9.865   8.516  70.343  1.00  0.00    -0.198 C  
HETATM   19  C   UNL     1      -9.096   9.779  69.846  1.00  0.00    -0.257 C  
BRANCH  15  20
HETATM   20  C   UNL     1      -7.707   6.893  65.938  1.00  0.00    -0.098 C  
HETATM   21  C   UNL     1      -7.126   7.729  65.060  1.00  0.00    -0.060 C  
HETATM   22  C   UNL     1      -7.010   7.257  63.616  1.00  0.00    -0.062 C  
HETATM   23  C   UNL     1      -7.572   8.268  62.618  1.00  0.00    -0.118 C  
HETATM   24  C   UNL     1      -6.933   9.639  62.813  1.00  0.00    -0.104 C  
HETATM   25  O   UNL     1      -8.993   8.358  62.733  1.00  0.00    -0.394 OA 
HETATM   26  C   UNL     1      -7.042  10.119  64.264  1.00  0.00    -0.102 C  
HETATM   27  H   UNL     1      -9.343   8.987  62.112  1.00  0.00     0.000 HD 
HETATM   28  C   UNL     1      -6.581   9.070  65.261  1.00  0.00    -0.068 C  
HETATM   29  C   UNL     1      -5.665   9.365  66.210  1.00  0.00    -0.053 C  
ENDBRANCH  15  20
ENDBRANCH   5   6
ENDBRANCH   4   5
TORSDOF 3
ENDMDL
MODEL      113
REMARK 921   NORMALIZED FREE ENERGY PREDICTED BY IDOCK:   -4.24 KCAL/MOL
REMARK 922        TOTAL FREE ENERGY PREDICTED BY IDOCK:   -5.79 KCAL/MOL
REMARK 923 INTER-LIGAND FREE ENERGY PREDICTED BY IDOCK:   -4.60 KCAL/MOL
REMARK 924 INTRA-LIGAND FREE ENERGY PREDICTED BY IDOCK:   -1.19 KCAL/MOL
REMARK 927      BINDING AFFINITY PREDICTED BY RF-SCORE:    0.00 PKD
ROOT
HETATM    1  C   UNL     1     -10.460   4.387  65.475  1.00  0.00    -0.228 C  
HETATM    2  C   UNL     1      -9.790   3.614  64.340  1.00  0.00    -0.185 C  
HETATM    3  C   UNL     1     -10.699   3.622  63.106  1.00  0.00    -0.210 C  
HETATM    4  C   UNL     1      -8.417   4.195  63.955  1.00  0.00    -0.100 C  
ENDROOT
BRANCH   4   5
HETATM    5  C   UNL     1      -7.366   4.127  65.063  1.00  0.00    -0.072 C  
BRANCH   5   6
HETATM    6  C   UNL     1      -6.544   5.436  65.123  1.00  0.00    -0.040 C  
HETATM    7  C   UNL     1      -6.962   6.404  66.268  1.00  0.00    -0.066 C  
HETATM    8  C   UNL     1      -6.175   7.835  66.212  1.00  0.00    -0.045 C  
HETATM    9  C   UNL     1      -6.872   5.624  67.593  1.00  0.00    -0.060 C  
HETATM   10  C   UNL     1      -6.595   8.574  64.938  1.00  0.00    -0.068 C  
HETATM   11  C   UNL     1      -7.873   9.309  65.319  1.00  0.00    -0.105 C  
HETATM   12  C   UNL     1      -8.023   9.216  66.865  1.00  0.00    -0.105 C  
HETATM   13  C   UNL     1      -8.743  10.456  67.394  1.00  0.00    -0.125 C  
HETATM   14  C   UNL     1      -8.206  10.927  68.720  1.00  0.00    -0.151 C  
HETATM   15  C   UNL     1      -9.765  11.055  66.742  1.00  0.00    -0.222 C  
HETATM   16  C   UNL     1      -6.175   8.227  68.693  1.00  0.00    -0.045 C  
HETATM   17  C   UNL     1      -6.667  11.014  68.734  1.00  0.00    -0.065 C  
HETATM   18  C   UNL     1      -6.553   8.885  67.350  1.00  0.00    -0.061 C  
HETATM   19  C   UNL     1      -5.942  10.309  67.523  1.00  0.00    -0.053 C  
BRANCH  15  20
HETATM   20  C   UNL     1     -10.725  11.933  67.389  1.00  0.00    -0.271 C  
HETATM   21  C   UNL     1     -10.655  13.214  67.790  1.00  0.00    -0.242 C  
HETATM   22  C   UNL     1     -11.947  13.875  68.252  1.00  0.00    -0.392 C  
HETATM   23  C   UNL     1     -11.818  14.525  69.629  1.00  0.00    -0.318 C  
HETATM   24  C   UNL     1     -10.646  15.502  69.662  1.00  0.00    -0.285 C  
HETATM   25  O   UNL     1     -11.671  13.534  70.647  1.00  0.00    -0.517 OA 
HETATM   26  C   UNL     1      -9.343  14.846  69.194  1.00  0.00    -0.145 C  
HETATM   27  H   UNL     1     -11.591  13.938  71.503  1.00  0.00     0.000 HD 
HETATM   28  C   UNL     1      -9.502  14.109  67.876  1.00  0.00    -0.211 C  
HETATM   29  C   UNL     1      -8.666  14.345  66.840  1.00  0.00    -0.218 C  
ENDBRANCH  15  20
ENDBRANCH   5   6
ENDBRANCH   4   5
TORSDOF 3
ENDMDL
MODEL      114
REMARK 921   NORMALIZED FREE ENERGY PREDICTED BY IDOCK:   -4.20 KCAL/MOL
REMARK 922        TOTAL FREE ENERGY PREDICTED BY IDOCK:   -5.75 KCAL/MOL
REMARK 923 INTER-LIGAND FREE ENERGY PREDICTED BY IDOCK:   -4.46 KCAL/MOL
REMARK 924 INTRA-LIGAND FREE ENERGY PREDICTED BY IDOCK:   -1.29 KCAL/MOL
REMARK 927      BINDING AFFINITY PREDICTED BY RF-SCORE:    0.00 PKD
ROOT
HETATM    1  C   UNL     1      -7.924   2.610  74.230  1.00  0.00    -0.059 C  
HETATM    2  C   UNL     1      -8.649   3.029  72.952  1.00  0.00    -0.081 C  
HETATM    3  C   UNL     1      -8.028   2.311  71.749  1.00  0.00    -0.048 C  
HETATM    4  C   UNL     1     -10.157   2.718  72.997  1.00  0.00    -0.207 C  
ENDROOT
BRANCH   4   5
HETATM    5  C   UNL     1     -10.930   3.476  74.076  1.00  0.00    -0.218 C  
BRANCH   5   6
HETATM    6  C   UNL     1     -10.554   4.977  74.072  1.00  0.00    -0.348 C  
HETATM    7  C   UNL     1     -10.889   5.718  72.745  1.00  0.00    -0.295 C  
HETATM    8  C   UNL     1     -10.346   7.260  72.722  1.00  0.00    -0.282 C  
HETATM    9  C   UNL     1     -12.389   5.515  72.464  1.00  0.00     0.232 C  
HETATM   10  C   UNL     1      -8.815   7.239  72.752  1.00  0.00    -0.156 C  
HETATM   11  C   UNL     1      -8.400   7.087  71.296  1.00  0.00    -0.114 C  
HETATM   12  C   UNL     1      -9.670   7.302  70.422  1.00  0.00    -0.172 C  
HETATM   13  C   UNL     1      -9.279   7.908  69.074  1.00  0.00    -0.147 C  
HETATM   14  C   UNL     1     -10.280   8.915  68.571  1.00  0.00    -0.223 C  
HETATM   15  C   UNL     1      -8.159   7.562  68.402  1.00  0.00    -0.125 C  
HETATM   16  C   UNL     1     -12.180   8.156  71.258  1.00  0.00    -0.302 C  
HETATM   17  C   UNL     1     -10.680   9.938  69.653  1.00  0.00    -0.277 C  
HETATM   18  C   UNL     1     -10.645   8.085  71.391  1.00  0.00    -0.258 C  
HETATM   19  C   UNL     1     -10.245   9.568  71.123  1.00  0.00    -0.300 C  
BRANCH  15  20
HETATM   20  C   UNL     1      -7.978   7.779  66.977  1.00  0.00    -0.116 C  
HETATM   21  C   UNL     1      -8.407   7.106  65.895  1.00  0.00    -0.141 C  
HETATM   22  C   UNL     1      -8.190   7.756  64.535  1.00  0.00    -0.060 C  
HETATM   23  C   UNL     1      -7.487   6.829  63.544  1.00  0.00    -0.080 C  
HETATM   24  C   UNL     1      -8.229   5.502  63.419  1.00  0.00    -0.110 C  
HETATM   25  O   UNL     1      -6.130   6.608  63.930  1.00  0.00    -0.033 OA 
HETATM   26  C   UNL     1      -8.455   4.844  64.784  1.00  0.00    -0.145 C  
HETATM   27  H   UNL     1      -5.693   6.032  63.314  1.00  0.00     0.000 HD 
HETATM   28  C   UNL     1      -9.057   5.800  65.800  1.00  0.00    -0.122 C  
HETATM   29  C   UNL     1     -10.167   5.470  66.495  1.00  0.00    -0.273 C  
ENDBRANCH  15  20
ENDBRANCH   5   6
ENDBRANCH   4   5
TORSDOF 3
ENDMDL
MODEL      115
REMARK 921   NORMALIZED FREE ENERGY PREDICTED BY IDOCK:   -4.17 KCAL/MOL
REMARK 922        TOTAL FREE ENERGY PREDICTED BY IDOCK:   -5.71 KCAL/MOL
REMARK 923 INTER-LIGAND FREE ENERGY PREDICTED BY IDOCK:   -4.73 KCAL/MOL
REMARK 924 INTRA-LIGAND FREE ENERGY PREDICTED BY IDOCK:   -0.98 KCAL/MOL
REMARK 927      BINDING AFFINITY PREDICTED BY RF-SCORE:    0.00 PKD
ROOT
HETATM    1  C   UNL     1      -7.854   2.581  64.699  1.00  0.00    -0.077 C  
HETATM    2  C   UNL     1      -8.932   3.421  64.015  1.00  0.00    -0.097 C  
HETATM    3  C   UNL     1      -9.570   2.615  62.880  1.00  0.00    -0.092 C  
HETATM    4  C   UNL     1     -10.035   3.877  64.988  1.00  0.00    -0.186 C  
ENDROOT
BRANCH   4   5
HETATM    5  C   UNL     1      -9.554   4.804  66.105  1.00  0.00    -0.185 C  
BRANCH   5   6
HETATM    6  C   UNL     1      -8.931   6.093  65.520  1.00  0.00    -0.004 C  
HETATM    7  C   UNL     1      -8.637   7.199  66.575  1.00  0.00    -0.130 C  
HETATM    8  C   UNL     1      -8.117   8.597  65.905  1.00  0.00    -0.111 C  
HETATM    9  C   UNL     1      -7.735   6.582  67.658  1.00  0.00    -0.106 C  
HETATM   10  C   UNL     1      -9.252   9.186  65.063  1.00  0.00    -0.180 C  
HETATM   11  C   UNL     1     -10.091   9.989  66.048  1.00  0.00    -0.318 C  
HETATM   12  C   UNL     1      -9.286  10.085  67.378  1.00  0.00    -0.167 C  
HETATM   13  C   UNL     1      -9.617  11.394  68.093  1.00  0.00    -0.190 C  
HETATM   14  C   UNL     1      -8.423  12.008  68.776  1.00  0.00     0.065 C  
HETATM   15  C   UNL     1     -10.857  11.932  68.120  1.00  0.00    -0.259 C  
HETATM   16  C   UNL     1      -6.664   9.282  67.835  1.00  0.00    -0.071 C  
HETATM   17  C   UNL     1      -7.185  12.063  67.859  1.00  0.00    -0.102 C  
HETATM   18  C   UNL     1      -7.801   9.783  66.922  1.00  0.00    -0.102 C  
HETATM   19  C   UNL     1      -7.285  11.204  66.540  1.00  0.00    -0.124 C  
BRANCH  15  20
HETATM   20  C   UNL     1     -11.289  12.902  69.111  1.00  0.00    -0.329 C  
HETATM   21  C   UNL     1     -11.803  12.769  70.346  1.00  0.00    -0.238 C  
HETATM   22  C   UNL     1     -11.949  14.033  71.184  1.00  0.00    -0.257 C  
HETATM   23  C   UNL     1     -13.360  14.209  71.745  1.00  0.00    -0.380 C  
HETATM   24  C   UNL     1     -13.795  12.969  72.521  1.00  0.00    -0.420 C  
HETATM   25  O   UNL     1     -14.290  14.498  70.701  1.00  0.00    -0.222 OA 
HETATM   26  C   UNL     1     -13.647  11.693  71.686  1.00  0.00     0.145 C  
HETATM   27  H   UNL     1     -15.166  14.607  71.049  1.00  0.00     0.000 HD 
HETATM   28  C   UNL     1     -12.277  11.574  71.042  1.00  0.00    -0.368 C  
HETATM   29  C   UNL     1     -11.534  10.454  71.186  1.00  0.00    -0.223 C  
ENDBRANCH  15  20
ENDBRANCH   5   6
ENDBRANCH   4   5
TORSDOF 3
ENDMDL
MODEL      116
REMARK 921   NORMALIZED FREE ENERGY PREDICTED BY IDOCK:   -4.09 KCAL/MOL
REMARK 922        TOTAL FREE ENERGY PREDICTED BY IDOCK:   -5.62 KCAL/MOL
REMARK 923 INTER-LIGAND FREE ENERGY PREDICTED BY IDOCK:   -4.71 KCAL/MOL
REMARK 924 INTRA-LIGAND FREE ENERGY PREDICTED BY IDOCK:   -0.92 KCAL/MOL
REMARK 927      BINDING AFFINITY PREDICTED BY RF-SCORE:    0.00 PKD
ROOT
HETATM    1  C   UNL     1     -13.238  12.296  71.797  1.00  0.00    -0.428 C  
HETATM    2  C   UNL     1     -12.252  11.413  71.034  1.00  0.00    -0.391 C  
HETATM    3  C   UNL     1     -12.491   9.944  71.393  1.00  0.00    -0.495 C  
HETATM    4  C   UNL     1     -12.364  11.581  69.507  1.00  0.00    -0.190 C  
ENDROOT
BRANCH   4   5
HETATM    5  C   UNL     1     -12.019  12.980  68.995  1.00  0.00    -0.312 C  
BRANCH   5   6
HETATM    6  C   UNL     1     -10.540  13.053  68.547  1.00  0.00    -0.274 C  
HETATM    7  C   UNL     1     -10.074  11.850  67.675  1.00  0.00    -0.202 C  
HETATM    8  C   UNL     1      -8.474  11.886  67.344  1.00  0.00    -0.166 C  
HETATM    9  C   UNL     1     -11.022  11.756  66.466  1.00  0.00    -0.342 C  
HETATM   10  C   UNL     1      -7.700  11.710  68.654  1.00  0.00    -0.134 C  
HETATM   11  C   UNL     1      -7.609  10.204  68.852  1.00  0.00    -0.090 C  
HETATM   12  C   UNL     1      -8.079   9.529  67.530  1.00  0.00    -0.110 C  
HETATM   13  C   UNL     1      -7.353   8.198  67.338  1.00  0.00    -0.089 C  
HETATM   14  C   UNL     1      -7.006   7.920  65.899  1.00  0.00    -0.057 C  
HETATM   15  C   UNL     1      -7.067   7.355  68.356  1.00  0.00    -0.085 C  
HETATM   16  C   UNL     1      -8.649  10.762  65.105  1.00  0.00    -0.133 C  
HETATM   17  C   UNL     1      -6.341   9.128  65.210  1.00  0.00    -0.064 C  
HETATM   18  C   UNL     1      -7.917  10.683  66.460  1.00  0.00    -0.138 C  
HETATM   19  C   UNL     1      -6.440  10.491  65.999  1.00  0.00    -0.127 C  
BRANCH  15  20
HETATM   20  C   UNL     1      -6.782   5.942  68.172  1.00  0.00    -0.058 C  
HETATM   21  C   UNL     1      -7.548   4.842  68.271  1.00  0.00    -0.078 C  
HETATM   22  C   UNL     1      -6.946   3.525  67.800  1.00  0.00    -0.051 C  
HETATM   23  C   UNL     1      -7.045   2.421  68.852  1.00  0.00    -0.044 C  
HETATM   24  C   UNL     1      -8.486   2.243  69.320  1.00  0.00    -0.090 C  
HETATM   25  O   UNL     1      -6.190   2.699  69.962  1.00  0.00    -0.023 OA 
HETATM   26  C   UNL     1      -9.101   3.565  69.791  1.00  0.00    -0.196 C  
HETATM   27  H   UNL     1      -6.252   2.013  70.617  1.00  0.00     0.000 HD 
HETATM   28  C   UNL     1      -8.907   4.688  68.788  1.00  0.00    -0.127 C  
HETATM   29  C   UNL     1      -9.953   5.428  68.359  1.00  0.00    -0.217 C  
ENDBRANCH  15  20
ENDBRANCH   5   6
ENDBRANCH   4   5
TORSDOF 3
ENDMDL
MODEL      117
REMARK 921   NORMALIZED FREE ENERGY PREDICTED BY IDOCK:   -4.04 KCAL/MOL
REMARK 922        TOTAL FREE ENERGY PREDICTED BY IDOCK:   -5.57 KCAL/MOL
REMARK 923 INTER-LIGAND FREE ENERGY PREDICTED BY IDOCK:   -4.57 KCAL/MOL
REMARK 924 INTRA-LIGAND FREE ENERGY PREDICTED BY IDOCK:   -1.00 KCAL/MOL
REMARK 927      BINDING AFFINITY PREDICTED BY RF-SCORE:    0.00 PKD
ROOT
HETATM    1  C   UNL     1      -9.469  19.893  68.085  1.00  0.00    -0.431 C  
HETATM    2  C   UNL     1      -9.706  18.777  67.068  1.00  0.00    -0.340 C  
HETATM    3  C   UNL     1     -10.729  19.240  66.026  1.00  0.00    -0.477 C  
HETATM    4  C   UNL     1      -8.415  18.348  66.347  1.00  0.00    -0.264 C  
ENDROOT
BRANCH   4   5
HETATM    5  C   UNL     1      -7.350  17.739  67.260  1.00  0.00    -0.206 C  
BRANCH   5   6
HETATM    6  C   UNL     1      -7.945  16.597  68.116  1.00  0.00    -0.177 C  
HETATM    7  C   UNL     1      -7.273  15.211  67.892  1.00  0.00    -0.158 C  
HETATM    8  C   UNL     1      -8.021  14.002  68.700  1.00  0.00    -0.122 C  
HETATM    9  C   UNL     1      -5.765  15.377  68.150  1.00  0.00    -0.138 C  
HETATM   10  C   UNL     1      -9.427  13.825  68.121  1.00  0.00    -0.212 C  
HETATM   11  C   UNL     1      -9.242  12.894  66.930  1.00  0.00    -0.234 C  
HETATM   12  C   UNL     1      -7.795  12.325  67.001  1.00  0.00    -0.108 C  
HETATM   13  C   UNL     1      -7.756  10.922  66.397  1.00  0.00    -0.154 C  
HETATM   14  C   UNL     1      -6.826   9.992  67.130  1.00  0.00    -0.082 C  
HETATM   15  C   UNL     1      -8.473  10.563  65.308  1.00  0.00    -0.175 C  
HETATM   16  C   UNL     1      -5.955  12.621  69.065  1.00  0.00    -0.076 C  
HETATM   17  C   UNL     1      -7.034  10.036  68.657  1.00  0.00    -0.069 C  
HETATM   18  C   UNL     1      -7.395  12.548  68.516  1.00  0.00    -0.115 C  
HETATM   19  C   UNL     1      -7.912  11.237  69.183  1.00  0.00    -0.002 C  
BRANCH  15  20
HETATM   20  C   UNL     1      -8.148   9.419  64.474  1.00  0.00    -0.136 C  
HETATM   21  C   UNL     1      -8.286   8.094  64.657  1.00  0.00    -0.128 C  
HETATM   22  C   UNL     1      -8.018   7.190  63.461  1.00  0.00    -0.067 C  
HETATM   23  C   UNL     1      -7.020   6.076  63.776  1.00  0.00    -0.043 C  
HETATM   24  C   UNL     1      -7.465   5.275  64.995  1.00  0.00    -0.073 C  
HETATM   25  O   UNL     1      -5.711   6.610  63.978  1.00  0.00    -0.029 OA 
HETATM   26  C   UNL     1      -7.740   6.179  66.202  1.00  0.00    -0.099 C  
HETATM   27  H   UNL     1      -5.090   5.918  64.173  1.00  0.00     0.000 HD 
HETATM   28  C   UNL     1      -8.649   7.347  65.860  1.00  0.00    -0.165 C  
HETATM   29  C   UNL     1      -9.757   7.604  66.590  1.00  0.00    -0.283 C  
ENDBRANCH  15  20
ENDBRANCH   5   6
ENDBRANCH   4   5
TORSDOF 3
ENDMDL
MODEL      118
REMARK 921   NORMALIZED FREE ENERGY PREDICTED BY IDOCK:   -4.04 KCAL/MOL
REMARK 922        TOTAL FREE ENERGY PREDICTED BY IDOCK:   -5.56 KCAL/MOL
REMARK 923 INTER-LIGAND FREE ENERGY PREDICTED BY IDOCK:   -4.92 KCAL/MOL
REMARK 924 INTRA-LIGAND FREE ENERGY PREDICTED BY IDOCK:   -0.65 KCAL/MOL
REMARK 927      BINDING AFFINITY PREDICTED BY RF-SCORE:    0.00 PKD
ROOT
HETATM    1  C   UNL     1      -6.103   4.199  67.399  1.00  0.00    -0.028 C  
HETATM    2  C   UNL     1      -7.217   4.142  68.443  1.00  0.00    -0.056 C  
HETATM    3  C   UNL     1      -7.282   2.737  69.050  1.00  0.00    -0.044 C  
HETATM    4  C   UNL     1      -7.023   5.168  69.574  1.00  0.00    -0.054 C  
ENDROOT
BRANCH   4   5
HETATM    5  C   UNL     1      -7.070   6.628  69.123  1.00  0.00    -0.088 C  
BRANCH   5   6
HETATM    6  C   UNL     1      -8.068   6.812  67.955  1.00  0.00    -0.114 C  
HETATM    7  C   UNL     1      -7.992   8.202  67.258  1.00  0.00    -0.113 C  
HETATM    8  C   UNL     1      -9.155   8.413  66.130  1.00  0.00    -0.238 C  
HETATM    9  C   UNL     1      -6.540   8.410  66.792  1.00  0.00    -0.057 C  
HETATM   10  C   UNL     1     -10.517   8.430  66.830  1.00  0.00    -0.359 C  
HETATM   11  C   UNL     1     -10.708   9.873  67.276  1.00  0.00    -0.304 C  
HETATM   12  C   UNL     1      -9.599  10.724  66.591  1.00  0.00    -0.208 C  
HETATM   13  C   UNL     1     -10.111  12.142  66.341  1.00  0.00    -0.242 C  
HETATM   14  C   UNL     1      -9.621  12.722  65.040  1.00  0.00     0.161 C  
HETATM   15  C   UNL     1     -10.907  12.807  67.208  1.00  0.00    -0.277 C  
HETATM   16  C   UNL     1      -7.797   9.908  64.637  1.00  0.00    -0.142 C  
HETATM   17  C   UNL     1      -9.800  11.749  63.858  1.00  0.00    -0.298 C  
HETATM   18  C   UNL     1      -9.148   9.817  65.375  1.00  0.00    -0.251 C  
HETATM   19  C   UNL     1     -10.139  10.261  64.256  1.00  0.00    -0.191 C  
BRANCH  15  20
HETATM   20  C   UNL     1     -11.053  14.253  67.216  1.00  0.00    -0.315 C  
HETATM   21  C   UNL     1     -10.182  15.251  67.443  1.00  0.00    -0.243 C  
HETATM   22  C   UNL     1     -10.655  16.671  67.161  1.00  0.00    -0.264 C  
HETATM   23  C   UNL     1     -10.440  17.611  68.347  1.00  0.00    -0.359 C  
HETATM   24  C   UNL     1      -8.985  17.586  68.805  1.00  0.00    -0.211 C  
HETATM   25  O   UNL     1     -11.311  17.272  69.428  1.00  0.00    -0.004 OA 
HETATM   26  C   UNL     1      -8.501  16.160  69.086  1.00  0.00    -0.239 C  
HETATM   27  H   UNL     1     -11.177  17.857  70.165  1.00  0.00     0.000 HD 
HETATM   28  C   UNL     1      -8.811  15.203  67.948  1.00  0.00    -0.166 C  
HETATM   29  C   UNL     1      -7.845  14.430  67.405  1.00  0.00    -0.211 C  
ENDBRANCH  15  20
ENDBRANCH   5   6
ENDBRANCH   4   5
TORSDOF 3
ENDMDL
MODEL      119
REMARK 921   NORMALIZED FREE ENERGY PREDICTED BY IDOCK:   -4.02 KCAL/MOL
REMARK 922        TOTAL FREE ENERGY PREDICTED BY IDOCK:   -5.54 KCAL/MOL
REMARK 923 INTER-LIGAND FREE ENERGY PREDICTED BY IDOCK:   -5.59 KCAL/MOL
REMARK 924 INTRA-LIGAND FREE ENERGY PREDICTED BY IDOCK:    0.05 KCAL/MOL
REMARK 927      BINDING AFFINITY PREDICTED BY RF-SCORE:    0.00 PKD
ROOT
HETATM    1  C   UNL     1      -8.501  15.942  66.696  1.00  0.00    -0.322 C  
HETATM    2  C   UNL     1      -8.603  16.347  68.166  1.00  0.00    -0.193 C  
HETATM    3  C   UNL     1      -8.210  17.819  68.321  1.00  0.00    -0.285 C  
HETATM    4  C   UNL     1     -10.017  16.143  68.741  1.00  0.00    -0.231 C  
ENDROOT
BRANCH   4   5
HETATM    5  C   UNL     1     -10.488  14.689  68.768  1.00  0.00    -0.246 C  
BRANCH   5   6
HETATM    6  C   UNL     1      -9.493  13.774  68.017  1.00  0.00    -0.207 C  
HETATM    7  C   UNL     1      -9.988  12.311  67.821  1.00  0.00    -0.200 C  
HETATM    8  C   UNL     1      -8.855  11.338  67.156  1.00  0.00    -0.153 C  
HETATM    9  C   UNL     1     -11.347  12.373  67.099  1.00  0.00    -0.390 C  
HETATM   10  C   UNL     1      -7.691  11.201  68.142  1.00  0.00    -0.107 C  
HETATM   11  C   UNL     1      -8.100  10.065  69.070  1.00  0.00    -0.118 C  
HETATM   12  C   UNL     1      -9.352   9.380  68.448  1.00  0.00    -0.137 C  
HETATM   13  C   UNL     1      -9.371   7.897  68.815  1.00  0.00    -0.146 C  
HETATM   14  C   UNL     1      -9.876   7.021  67.699  1.00  0.00    -0.180 C  
HETATM   15  C   UNL     1      -8.986   7.427  70.024  1.00  0.00    -0.144 C  
HETATM   16  C   UNL     1     -10.475   9.846  65.947  1.00  0.00    -0.072 C  
HETATM   17  C   UNL     1      -9.209   7.347  66.348  1.00  0.00    -0.203 C  
HETATM   18  C   UNL     1      -9.285   9.820  66.929  1.00  0.00    -0.174 C  
HETATM   19  C   UNL     1      -8.398   8.700  66.306  1.00  0.00    -0.124 C  
BRANCH  15  20
HETATM   20  C   UNL     1      -9.384   6.130  70.544  1.00  0.00    -0.173 C  
HETATM   21  C   UNL     1     -10.082   5.764  71.633  1.00  0.00    -0.241 C  
HETATM   22  C   UNL     1     -10.485   4.300  71.748  1.00  0.00    -0.026 C  
HETATM   23  C   UNL     1     -10.076   3.678  73.082  1.00  0.00    -0.147 C  
HETATM   24  C   UNL     1     -10.609   4.500  74.252  1.00  0.00    -0.316 C  
HETATM   25  O   UNL     1      -8.655   3.550  73.168  1.00  0.00    -0.084 OA 
HETATM   26  C   UNL     1     -10.211   5.975  74.141  1.00  0.00    -0.307 C  
HETATM   27  H   UNL     1      -8.401   3.163  73.997  1.00  0.00     0.000 HD 
HETATM   28  C   UNL     1     -10.523   6.562  72.776  1.00  0.00    -0.240 C  
HETATM   29  C   UNL     1     -11.233   7.706  72.654  1.00  0.00    -0.419 C  
ENDBRANCH  15  20
ENDBRANCH   5   6
ENDBRANCH   4   5
TORSDOF 3
ENDMDL
MODEL      120
REMARK 921   NORMALIZED FREE ENERGY PREDICTED BY IDOCK:   -4.01 KCAL/MOL
REMARK 922        TOTAL FREE ENERGY PREDICTED BY IDOCK:   -5.53 KCAL/MOL
REMARK 923 INTER-LIGAND FREE ENERGY PREDICTED BY IDOCK:   -4.67 KCAL/MOL
REMARK 924 INTRA-LIGAND FREE ENERGY PREDICTED BY IDOCK:   -0.86 KCAL/MOL
REMARK 927      BINDING AFFINITY PREDICTED BY RF-SCORE:    0.00 PKD
ROOT
HETATM    1  C   UNL     1      -7.679  15.678  69.429  1.00  0.00    -0.218 C  
HETATM    2  C   UNL     1      -7.558  15.416  67.929  1.00  0.00    -0.149 C  
HETATM    3  C   UNL     1      -7.698  16.735  67.163  1.00  0.00    -0.213 C  
HETATM    4  C   UNL     1      -6.221  14.754  67.548  1.00  0.00    -0.019 C  
ENDROOT
BRANCH   4   5
HETATM    5  C   UNL     1      -6.009  13.362  68.142  1.00  0.00    -0.112 C  
BRANCH   5   6
HETATM    6  C   UNL     1      -6.393  12.263  67.124  1.00  0.00    -0.117 C  
HETATM    7  C   UNL     1      -7.600  11.381  67.556  1.00  0.00    -0.117 C  
HETATM    8  C   UNL     1      -7.885  10.142  66.529  1.00  0.00    -0.112 C  
HETATM    9  C   UNL     1      -8.786  12.321  67.841  1.00  0.00    -0.177 C  
HETATM   10  C   UNL     1      -6.693   9.182  66.580  1.00  0.00    -0.076 C  
HETATM   11  C   UNL     1      -6.989   8.257  67.753  1.00  0.00    -0.078 C  
HETATM   12  C   UNL     1      -8.463   8.508  68.186  1.00  0.00    -0.134 C  
HETATM   13  C   UNL     1      -9.065   7.224  68.755  1.00  0.00    -0.127 C  
HETATM   14  C   UNL     1     -10.513   7.040  68.384  1.00  0.00    -0.231 C  
HETATM   15  C   UNL     1      -8.370   6.356  69.523  1.00  0.00    -0.126 C  
HETATM   16  C   UNL     1     -10.369  10.069  66.895  1.00  0.00    -0.297 C  
HETATM   17  C   UNL     1     -10.769   7.268  66.881  1.00  0.00    -0.346 C  
HETATM   18  C   UNL     1      -9.103   9.187  66.908  1.00  0.00    -0.163 C  
HETATM   19  C   UNL     1      -9.585   7.948  66.092  1.00  0.00    -0.127 C  
BRANCH  15  20
HETATM   20  C   UNL     1      -8.996   5.389  70.408  1.00  0.00    -0.155 C  
HETATM   21  C   UNL     1      -9.691   5.522  71.551  1.00  0.00    -0.201 C  
HETATM   22  C   UNL     1     -10.380   4.279  72.101  1.00  0.00    -0.193 C  
HETATM   23  C   UNL     1     -10.031   4.011  73.565  1.00  0.00    -0.126 C  
HETATM   24  C   UNL     1     -10.316   5.237  74.426  1.00  0.00    -0.302 C  
HETATM   25  O   UNL     1      -8.665   3.613  73.697  1.00  0.00    -0.088 OA 
HETATM   26  C   UNL     1      -9.630   6.492  73.876  1.00  0.00    -0.222 C  
HETATM   27  H   UNL     1      -8.449   3.446  74.606  1.00  0.00     0.000 HD 
HETATM   28  C   UNL     1      -9.892   6.699  72.395  1.00  0.00    -0.169 C  
HETATM   29  C   UNL     1     -10.357   7.878  71.927  1.00  0.00    -0.271 C  
ENDBRANCH  15  20
ENDBRANCH   5   6
ENDBRANCH   4   5
TORSDOF 3
ENDMDL
MODEL      121
REMARK 921   NORMALIZED FREE ENERGY PREDICTED BY IDOCK:   -3.99 KCAL/MOL
REMARK 922        TOTAL FREE ENERGY PREDICTED BY IDOCK:   -5.50 KCAL/MOL
REMARK 923 INTER-LIGAND FREE ENERGY PREDICTED BY IDOCK:   -4.35 KCAL/MOL
REMARK 924 INTRA-LIGAND FREE ENERGY PREDICTED BY IDOCK:   -1.15 KCAL/MOL
REMARK 927      BINDING AFFINITY PREDICTED BY RF-SCORE:    0.00 PKD
ROOT
HETATM    1  C   UNL     1     -11.003   8.129  73.075  1.00  0.00    -0.181 C  
HETATM    2  C   UNL     1     -12.333   7.399  72.897  1.00  0.00     0.485 C  
HETATM    3  C   UNL     1     -13.247   8.213  71.976  1.00  0.00    -0.306 C  
HETATM    4  C   UNL     1     -12.161   5.986  72.311  1.00  0.00    -0.196 C  
ENDROOT
BRANCH   4   5
HETATM    5  C   UNL     1     -11.373   5.022  73.199  1.00  0.00    -0.397 C  
BRANCH   5   6
HETATM    6  C   UNL     1     -10.440   4.128  72.349  1.00  0.00    -0.172 C  
HETATM    7  C   UNL     1      -9.380   4.911  71.521  1.00  0.00    -0.196 C  
HETATM    8  C   UNL     1      -8.511   3.949  70.525  1.00  0.00    -0.099 C  
HETATM    9  C   UNL     1      -8.578   5.786  72.500  1.00  0.00    -0.120 C  
HETATM   10  C   UNL     1      -9.450   3.371  69.462  1.00  0.00    -0.219 C  
HETATM   11  C   UNL     1      -9.500   4.430  68.370  1.00  0.00    -0.213 C  
HETATM   12  C   UNL     1      -8.384   5.471  68.677  1.00  0.00    -0.101 C  
HETATM   13  C   UNL     1      -7.859   6.071  67.373  1.00  0.00    -0.102 C  
HETATM   14  C   UNL     1      -6.374   6.323  67.400  1.00  0.00    -0.037 C  
HETATM   15  C   UNL     1      -8.651   6.357  66.316  1.00  0.00    -0.140 C  
HETATM   16  C   UNL     1      -6.405   5.314  70.623  1.00  0.00    -0.023 C  
HETATM   17  C   UNL     1      -5.580   5.110  67.924  1.00  0.00    -0.013 C  
HETATM   18  C   UNL     1      -7.407   4.679  69.637  1.00  0.00    -0.051 C  
HETATM   19  C   UNL     1      -6.445   3.990  68.622  1.00  0.00    -0.037 C  
BRANCH  15  20
HETATM   20  C   UNL     1      -8.282   7.291  65.266  1.00  0.00    -0.126 C  
HETATM   21  C   UNL     1      -8.440   8.620  65.138  1.00  0.00    -0.197 C  
HETATM   22  C   UNL     1      -7.733   9.301  63.973  1.00  0.00    -0.117 C  
HETATM   23  C   UNL     1      -8.677  10.157  63.129  1.00  0.00    -0.211 C  
HETATM   24  C   UNL     1      -9.421  11.165  63.999  1.00  0.00    -0.241 C  
HETATM   25  O   UNL     1      -9.601   9.337  62.411  1.00  0.00    -0.546 OA 
HETATM   26  C   UNL     1     -10.131  10.488  65.176  1.00  0.00    -0.383 C  
HETATM   27  H   UNL     1     -10.187   9.869  61.887  1.00  0.00     0.000 HD 
HETATM   28  C   UNL     1      -9.217   9.555  65.950  1.00  0.00    -0.260 C  
HETATM   29  C   UNL     1      -9.089   9.658  67.292  1.00  0.00    -0.150 C  
ENDBRANCH  15  20
ENDBRANCH   5   6
ENDBRANCH   4   5
TORSDOF 3
ENDMDL
MODEL      122
REMARK 921   NORMALIZED FREE ENERGY PREDICTED BY IDOCK:   -3.93 KCAL/MOL
REMARK 922        TOTAL FREE ENERGY PREDICTED BY IDOCK:   -5.44 KCAL/MOL
REMARK 923 INTER-LIGAND FREE ENERGY PREDICTED BY IDOCK:   -4.17 KCAL/MOL
REMARK 924 INTRA-LIGAND FREE ENERGY PREDICTED BY IDOCK:   -1.26 KCAL/MOL
REMARK 927      BINDING AFFINITY PREDICTED BY RF-SCORE:    0.00 PKD
ROOT
HETATM    1  C   UNL     1      -9.924   7.888  71.086  1.00  0.00    -0.198 C  
HETATM    2  C   UNL     1     -10.989   8.219  72.132  1.00  0.00    -0.396 C  
HETATM    3  C   UNL     1     -12.369   8.252  71.468  1.00  0.00    -0.336 C  
HETATM    4  C   UNL     1     -11.014   7.207  73.292  1.00  0.00    -0.325 C  
ENDROOT
BRANCH   4   5
HETATM    5  C   UNL     1      -9.734   7.165  74.128  1.00  0.00    -0.264 C  
BRANCH   5   6
HETATM    6  C   UNL     1      -9.192   5.721  74.232  1.00  0.00    -0.127 C  
HETATM    7  C   UNL     1      -8.390   5.245  72.986  1.00  0.00    -0.112 C  
HETATM    8  C   UNL     1      -7.959   3.671  73.069  1.00  0.00    -0.071 C  
HETATM    9  C   UNL     1      -7.253   6.255  72.750  1.00  0.00    -0.087 C  
HETATM   10  C   UNL     1      -9.228   2.814  73.036  1.00  0.00    -0.114 C  
HETATM   11  C   UNL     1      -9.538   2.636  71.556  1.00  0.00    -0.221 C  
HETATM   12  C   UNL     1      -8.305   3.146  70.755  1.00  0.00    -0.088 C  
HETATM   13  C   UNL     1      -8.174   2.365  69.447  1.00  0.00    -0.065 C  
HETATM   14  C   UNL     1      -6.742   2.089  69.070  1.00  0.00    -0.029 C  
HETATM   15  C   UNL     1      -9.235   1.978  68.705  1.00  0.00    -0.223 C  
HETATM   16  C   UNL     1      -5.830   3.918  71.759  1.00  0.00    -0.012 C  
HETATM   17  C   UNL     1      -5.921   1.527  70.248  1.00  0.00    -0.018 C  
HETATM   18  C   UNL     1      -7.139   3.105  71.824  1.00  0.00    -0.038 C  
HETATM   19  C   UNL     1      -6.605   1.649  71.664  1.00  0.00    -0.019 C  
BRANCH  15  20
HETATM   20  C   UNL     1      -9.146   1.633  67.296  1.00  0.00    -0.135 C  
HETATM   21  C   UNL     1      -9.042   2.380  66.184  1.00  0.00    -0.079 C  
HETATM   22  C   UNL     1      -8.761   1.653  64.875  1.00  0.00    -0.105 C  
HETATM   23  C   UNL     1      -9.755   2.016  63.773  1.00  0.00    -0.129 C  
HETATM   24  C   UNL     1      -9.817   3.527  63.572  1.00  0.00    -0.154 C  
HETATM   25  O   UNL     1     -11.053   1.497  64.068  1.00  0.00    -0.375 OA 
HETATM   26  C   UNL     1     -10.095   4.266  64.885  1.00  0.00    -0.184 C  
HETATM   27  H   UNL     1     -11.671   1.723  63.383  1.00  0.00     0.000 HD 
HETATM   28  C   UNL     1      -9.173   3.825  66.009  1.00  0.00    -0.161 C  
HETATM   29  C   UNL     1      -8.472   4.728  66.729  1.00  0.00    -0.105 C  
ENDBRANCH  15  20
ENDBRANCH   5   6
ENDBRANCH   4   5
TORSDOF 3
ENDMDL
MODEL      123
REMARK 921   NORMALIZED FREE ENERGY PREDICTED BY IDOCK:   -3.91 KCAL/MOL
REMARK 922        TOTAL FREE ENERGY PREDICTED BY IDOCK:   -5.41 KCAL/MOL
REMARK 923 INTER-LIGAND FREE ENERGY PREDICTED BY IDOCK:   -4.31 KCAL/MOL
REMARK 924 INTRA-LIGAND FREE ENERGY PREDICTED BY IDOCK:   -1.10 KCAL/MOL
REMARK 927      BINDING AFFINITY PREDICTED BY RF-SCORE:    0.00 PKD
ROOT
HETATM    1  C   UNL     1     -11.463   4.770  73.547  1.00  0.00    -0.248 C  
HETATM    2  C   UNL     1     -10.349   5.710  73.087  1.00  0.00    -0.227 C  
HETATM    3  C   UNL     1     -10.354   6.974  73.953  1.00  0.00    -0.386 C  
HETATM    4  C   UNL     1      -8.955   5.059  73.159  1.00  0.00    -0.117 C  
ENDROOT
BRANCH   4   5
HETATM    5  C   UNL     1      -8.769   3.853  72.236  1.00  0.00    -0.118 C  
BRANCH   5   6
HETATM    6  C   UNL     1      -9.506   4.069  70.894  1.00  0.00    -0.237 C  
HETATM    7  C   UNL     1      -8.800   5.064  69.927  1.00  0.00    -0.130 C  
HETATM    8  C   UNL     1      -9.678   5.379  68.585  1.00  0.00    -0.187 C  
HETATM    9  C   UNL     1      -7.365   4.556  69.703  1.00  0.00    -0.051 C  
HETATM   10  C   UNL     1     -10.955   6.115  68.998  1.00  0.00    -0.436 C  
HETATM   11  C   UNL     1     -10.554   7.583  69.062  1.00  0.00    -0.190 C  
HETATM   12  C   UNL     1      -9.142   7.710  68.420  1.00  0.00    -0.130 C  
HETATM   13  C   UNL     1      -8.989   9.082  67.765  1.00  0.00    -0.132 C  
HETATM   14  C   UNL     1      -8.205   9.036  66.480  1.00  0.00    -0.114 C  
HETATM   15  C   UNL     1      -9.495  10.218  68.295  1.00  0.00    -0.147 C  
HETATM   16  C   UNL     1      -7.709   5.747  67.070  1.00  0.00    -0.101 C  
HETATM   17  C   UNL     1      -8.687   7.915  65.537  1.00  0.00    -0.112 C  
HETATM   18  C   UNL     1      -9.024   6.396  67.546  1.00  0.00    -0.116 C  
HETATM   19  C   UNL     1      -9.650   6.851  66.192  1.00  0.00    -0.007 C  
BRANCH  15  20
HETATM   20  C   UNL     1      -9.020  11.546  67.949  1.00  0.00    -0.159 C  
HETATM   21  C   UNL     1      -7.859  12.184  68.181  1.00  0.00    -0.147 C  
HETATM   22  C   UNL     1      -7.640  13.518  67.478  1.00  0.00    -0.176 C  
HETATM   23  C   UNL     1      -7.243  14.634  68.444  1.00  0.00    -0.117 C  
HETATM   24  C   UNL     1      -6.027  14.231  69.273  1.00  0.00    -0.095 C  
HETATM   25  O   UNL     1      -8.336  14.981  69.295  1.00  0.00    -0.223 OA 
HETATM   26  C   UNL     1      -6.239  12.887  69.978  1.00  0.00    -0.058 C  
HETATM   27  H   UNL     1      -8.090  15.675  69.895  1.00  0.00     0.000 HD 
HETATM   28  C   UNL     1      -6.735  11.805  69.036  1.00  0.00    -0.102 C  
HETATM   29  C   UNL     1      -6.110  10.609  68.956  1.00  0.00    -0.041 C  
ENDBRANCH  15  20
ENDBRANCH   5   6
ENDBRANCH   4   5
TORSDOF 3
ENDMDL
MODEL      124
REMARK 921   NORMALIZED FREE ENERGY PREDICTED BY IDOCK:   -3.91 KCAL/MOL
REMARK 922        TOTAL FREE ENERGY PREDICTED BY IDOCK:   -5.41 KCAL/MOL
REMARK 923 INTER-LIGAND FREE ENERGY PREDICTED BY IDOCK:   -4.47 KCAL/MOL
REMARK 924 INTRA-LIGAND FREE ENERGY PREDICTED BY IDOCK:   -0.94 KCAL/MOL
REMARK 927      BINDING AFFINITY PREDICTED BY RF-SCORE:    0.00 PKD
ROOT
HETATM    1  C   UNL     1     -11.236  18.560  68.033  1.00  0.00     0.457 C  
HETATM    2  C   UNL     1     -10.655  17.259  67.479  1.00  0.00    -0.329 C  
HETATM    3  C   UNL     1      -9.291  17.537  66.839  1.00  0.00    -0.275 C  
HETATM    4  C   UNL     1     -10.490  16.175  68.560  1.00  0.00    -0.269 C  
ENDROOT
BRANCH   4   5
HETATM    5  C   UNL     1     -11.800  15.706  69.194  1.00  0.00    -0.378 C  
BRANCH   5   6
HETATM    6  C   UNL     1     -12.139  14.263  68.754  1.00  0.00    -0.300 C  
HETATM    7  C   UNL     1     -11.801  13.173  69.812  1.00  0.00    -0.386 C  
HETATM    8  C   UNL     1     -12.035  11.653  69.259  1.00  0.00    -0.382 C  
HETATM    9  C   UNL     1     -12.531  13.547  71.115  1.00  0.00    -0.424 C  
HETATM   10  C   UNL     1     -11.037  11.386  68.129  1.00  0.00    -0.306 C  
HETATM   11  C   UNL     1      -9.770  10.919  68.831  1.00  0.00    -0.198 C  
HETATM   12  C   UNL     1     -10.132  10.654  70.322  1.00  0.00     0.481 C  
HETATM   13  C   UNL     1      -9.249   9.539  70.883  1.00  0.00    -0.125 C  
HETATM   14  C   UNL     1      -9.982   8.633  71.836  1.00  0.00    -0.392 C  
HETATM   15  C   UNL     1      -7.943   9.396  70.564  1.00  0.00    -0.199 C  
HETATM   16  C   UNL     1     -12.659  10.663  71.481  1.00  0.00    -0.517 C  
HETATM   17  C   UNL     1     -11.341   8.167  71.277  1.00  0.00    -0.300 C  
HETATM   18  C   UNL     1     -11.704  10.478  70.284  1.00  0.00    -0.420 C  
HETATM   19  C   UNL     1     -11.852   8.951  70.007  1.00  0.00     0.327 C  
BRANCH  15  20
HETATM   20  C   UNL     1      -6.997   8.649  71.374  1.00  0.00    -0.086 C  
HETATM   21  C   UNL     1      -6.574   7.374  71.331  1.00  0.00    -0.046 C  
HETATM   22  C   UNL     1      -5.402   6.993  72.227  1.00  0.00    -0.037 C  
HETATM   23  C   UNL     1      -5.698   5.772  73.098  1.00  0.00    -0.036 C  
HETATM   24  C   UNL     1      -6.156   4.594  72.244  1.00  0.00    -0.017 C  
HETATM   25  O   UNL     1      -6.677   6.082  74.091  1.00  0.00    -0.078 OA 
HETATM   26  C   UNL     1      -7.332   4.970  71.336  1.00  0.00    -0.077 C  
HETATM   27  H   UNL     1      -6.861   5.323  74.632  1.00  0.00     0.000 HD 
HETATM   28  C   UNL     1      -7.077   6.244  70.551  1.00  0.00    -0.069 C  
HETATM   29  C   UNL     1      -7.236   6.280  69.209  1.00  0.00    -0.086 C  
ENDBRANCH  15  20
ENDBRANCH   5   6
ENDBRANCH   4   5
TORSDOF 3
ENDMDL
MODEL      125
REMARK 921   NORMALIZED FREE ENERGY PREDICTED BY IDOCK:   -3.88 KCAL/MOL
REMARK 922        TOTAL FREE ENERGY PREDICTED BY IDOCK:   -5.38 KCAL/MOL
REMARK 923 INTER-LIGAND FREE ENERGY PREDICTED BY IDOCK:   -4.90 KCAL/MOL
REMARK 924 INTRA-LIGAND FREE ENERGY PREDICTED BY IDOCK:   -0.48 KCAL/MOL
REMARK 927      BINDING AFFINITY PREDICTED BY RF-SCORE:    0.00 PKD
ROOT
HETATM    1  C   UNL     1     -11.903  14.804  66.211  1.00  0.00    -0.215 C  
HETATM    2  C   UNL     1     -12.188  14.404  64.765  1.00  0.00    -0.458 C  
HETATM    3  C   UNL     1     -11.878  15.581  63.835  1.00  0.00     0.215 C  
HETATM    4  C   UNL     1     -11.367  13.180  64.315  1.00  0.00    -0.427 C  
ENDROOT
BRANCH   4   5
HETATM    5  C   UNL     1     -11.676  11.893  65.080  1.00  0.00    -0.253 C  
BRANCH   5   6
HETATM    6  C   UNL     1     -11.114  11.959  66.519  1.00  0.00    -0.357 C  
HETATM    7  C   UNL     1     -10.131  10.807  66.878  1.00  0.00    -0.255 C  
HETATM    8  C   UNL     1      -9.673  10.825  68.447  1.00  0.00    -0.179 C  
HETATM    9  C   UNL     1      -8.999  10.819  65.834  1.00  0.00    -0.200 C  
HETATM   10  C   UNL     1     -10.901  10.542  69.317  1.00  0.00    -0.284 C  
HETATM   11  C   UNL     1     -10.992   9.023  69.377  1.00  0.00    -0.082 C  
HETATM   12  C   UNL     1      -9.671   8.451  68.784  1.00  0.00    -0.168 C  
HETATM   13  C   UNL     1      -9.334   7.119  69.451  1.00  0.00    -0.147 C  
HETATM   14  C   UNL     1      -7.856   6.930  69.673  1.00  0.00    -0.119 C  
HETATM   15  C   UNL     1     -10.268   6.202  69.792  1.00  0.00    -0.249 C  
HETATM   16  C   UNL     1      -7.387   9.860  68.059  1.00  0.00    -0.084 C  
HETATM   17  C   UNL     1      -7.196   8.166  70.317  1.00  0.00    -0.052 C  
HETATM   18  C   UNL     1      -8.669   9.671  68.895  1.00  0.00    -0.132 C  
HETATM   19  C   UNL     1      -8.078   9.474  70.324  1.00  0.00    -0.200 C  
BRANCH  15  20
HETATM   20  C   UNL     1      -9.969   4.799  70.018  1.00  0.00    -0.314 C  
HETATM   21  C   UNL     1      -9.449   4.139  71.068  1.00  0.00    -0.233 C  
HETATM   22  C   UNL     1      -9.472   2.617  71.020  1.00  0.00    -0.224 C  
HETATM   23  C   UNL     1      -8.100   1.998  71.280  1.00  0.00    -0.046 C  
HETATM   24  C   UNL     1      -7.511   2.509  72.592  1.00  0.00    -0.047 C  
HETATM   25  O   UNL     1      -7.209   2.264  70.195  1.00  0.00    -0.033 OA 
HETATM   26  C   UNL     1      -7.489   4.040  72.649  1.00  0.00    -0.072 C  
HETATM   27  H   UNL     1      -6.356   1.879  70.357  1.00  0.00     0.000 HD 
HETATM   28  C   UNL     1      -8.829   4.656  72.286  1.00  0.00    -0.133 C  
HETATM   29  C   UNL     1      -9.422   5.561  73.096  1.00  0.00    -0.148 C  
ENDBRANCH  15  20
ENDBRANCH   5   6
ENDBRANCH   4   5
TORSDOF 3
ENDMDL
MODEL      126
REMARK 921   NORMALIZED FREE ENERGY PREDICTED BY IDOCK:   -3.82 KCAL/MOL
REMARK 922        TOTAL FREE ENERGY PREDICTED BY IDOCK:   -5.31 KCAL/MOL
REMARK 923 INTER-LIGAND FREE ENERGY PREDICTED BY IDOCK:   -4.18 KCAL/MOL
REMARK 924 INTRA-LIGAND FREE ENERGY PREDICTED BY IDOCK:   -1.13 KCAL/MOL
REMARK 927      BINDING AFFINITY PREDICTED BY RF-SCORE:    0.00 PKD
ROOT
HETATM    1  C   UNL     1     -11.098   6.599  66.894  1.00  0.00    -0.319 C  
HETATM    2  C   UNL     1      -9.681   6.030  66.840  1.00  0.00    -0.173 C  
HETATM    3  C   UNL     1      -9.741   4.499  66.864  1.00  0.00    -0.226 C  
HETATM    4  C   UNL     1      -8.908   6.481  65.587  1.00  0.00    -0.057 C  
ENDROOT
BRANCH   4   5
HETATM    5  C   UNL     1      -8.661   7.988  65.502  1.00  0.00    -0.158 C  
BRANCH   5   6
HETATM    6  C   UNL     1      -7.383   8.381  66.280  1.00  0.00    -0.086 C  
HETATM    7  C   UNL     1      -7.582   9.545  67.294  1.00  0.00    -0.091 C  
HETATM    8  C   UNL     1      -6.184  10.030  67.989  1.00  0.00    -0.053 C  
HETATM    9  C   UNL     1      -8.718   9.140  68.250  1.00  0.00    -0.129 C  
HETATM   10  C   UNL     1      -5.286  10.637  66.908  1.00  0.00    -0.046 C  
HETATM   11  C   UNL     1      -5.725  12.091  66.810  1.00  0.00     0.017 C  
HETATM   12  C   UNL     1      -6.666  12.378  68.016  1.00  0.00    -0.081 C  
HETATM   13  C   UNL     1      -6.541  13.842  68.438  1.00  0.00    -0.103 C  
HETATM   14  C   UNL     1      -6.619  14.032  69.930  1.00  0.00    -0.057 C  
HETATM   15  C   UNL     1      -6.392  14.857  67.558  1.00  0.00    -0.071 C  
HETATM   16  C   UNL     1      -7.210  10.716  70.177  1.00  0.00     0.067 C  
HETATM   17  C   UNL     1      -5.704  13.055  70.696  1.00  0.00    -0.165 C  
HETATM   18  C   UNL     1      -6.304  11.225  69.037  1.00  0.00    -0.060 C  
HETATM   19  C   UNL     1      -5.129  11.861  69.840  1.00  0.00    -0.075 C  
BRANCH  15  20
HETATM   20  C   UNL     1      -6.696  16.243  67.872  1.00  0.00    -0.151 C  
HETATM   21  C   UNL     1      -7.853  16.922  67.952  1.00  0.00    -0.180 C  
HETATM   22  C   UNL     1      -7.798  18.336  68.517  1.00  0.00    -0.313 C  
HETATM   23  C   UNL     1      -8.463  19.363  67.602  1.00  0.00    -0.304 C  
HETATM   24  C   UNL     1      -9.893  18.949  67.267  1.00  0.00    -0.368 C  
HETATM   25  O   UNL     1      -7.703  19.546  66.406  1.00  0.00    -0.264 OA 
HETATM   26  C   UNL     1      -9.957  17.526  66.702  1.00  0.00    -0.314 C  
HETATM   27  H   UNL     1      -8.116  20.185  65.837  1.00  0.00     0.000 HD 
HETATM   28  C   UNL     1      -9.204  16.524  67.560  1.00  0.00    -0.203 C  
HETATM   29  C   UNL     1      -9.796  15.385  67.984  1.00  0.00    -0.216 C  
ENDBRANCH  15  20
ENDBRANCH   5   6
ENDBRANCH   4   5
TORSDOF 3
ENDMDL
MODEL      127
REMARK 921   NORMALIZED FREE ENERGY PREDICTED BY IDOCK:   -3.76 KCAL/MOL
REMARK 922        TOTAL FREE ENERGY PREDICTED BY IDOCK:   -5.24 KCAL/MOL
REMARK 923 INTER-LIGAND FREE ENERGY PREDICTED BY IDOCK:   -4.44 KCAL/MOL
REMARK 924 INTRA-LIGAND FREE ENERGY PREDICTED BY IDOCK:   -0.80 KCAL/MOL
REMARK 927      BINDING AFFINITY PREDICTED BY RF-SCORE:    0.00 PKD
ROOT
HETATM    1  C   UNL     1     -12.428  12.711  63.331  1.00  0.00    -0.474 C  
HETATM    2  C   UNL     1     -11.704  13.133  64.609  1.00  0.00    -0.404 C  
HETATM    3  C   UNL     1     -12.636  13.994  65.468  1.00  0.00    -0.543 C  
HETATM    4  C   UNL     1     -11.223  11.930  65.442  1.00  0.00    -0.351 C  
ENDROOT
BRANCH   4   5
HETATM    5  C   UNL     1     -10.181  11.053  64.748  1.00  0.00    -0.381 C  
BRANCH   5   6
HETATM    6  C   UNL     1      -8.915  10.905  65.623  1.00  0.00    -0.209 C  
HETATM    7  C   UNL     1      -8.550   9.434  65.980  1.00  0.00    -0.154 C  
HETATM    8  C   UNL     1      -7.297   9.324  67.024  1.00  0.00    -0.091 C  
HETATM    9  C   UNL     1      -8.413   8.655  64.660  1.00  0.00    -0.150 C  
HETATM   10  C   UNL     1      -7.723   9.930  68.364  1.00  0.00    -0.084 C  
HETATM   11  C   UNL     1      -8.417   8.794  69.102  1.00  0.00    -0.123 C  
HETATM   12  C   UNL     1      -8.141   7.483  68.308  1.00  0.00    -0.124 C  
HETATM   13  C   UNL     1      -8.103   6.293  69.265  1.00  0.00    -0.110 C  
HETATM   14  C   UNL     1      -7.065   5.269  68.889  1.00  0.00    -0.061 C  
HETATM   15  C   UNL     1      -8.929   6.170  70.329  1.00  0.00    -0.154 C  
HETATM   16  C   UNL     1      -6.425   7.137  66.148  1.00  0.00    -0.051 C  
HETATM   17  C   UNL     1      -5.693   5.905  68.589  1.00  0.00    -0.012 C  
HETATM   18  C   UNL     1      -6.867   7.848  67.444  1.00  0.00    -0.070 C  
HETATM   19  C   UNL     1      -5.703   7.473  68.412  1.00  0.00    -0.027 C  
BRANCH  15  20
HETATM   20  C   UNL     1      -9.212   4.903  70.982  1.00  0.00    -0.192 C  
HETATM   21  C   UNL     1      -8.788   4.364  72.138  1.00  0.00    -0.132 C  
HETATM   22  C   UNL     1      -9.469   3.083  72.605  1.00  0.00    -0.160 C  
HETATM   23  C   UNL     1      -8.473   1.969  72.926  1.00  0.00    -0.062 C  
HETATM   24  C   UNL     1      -7.428   2.446  73.930  1.00  0.00    -0.041 C  
HETATM   25  O   UNL     1      -7.842   1.493  71.736  1.00  0.00    -0.040 OA 
HETATM   26  C   UNL     1      -6.742   3.737  73.470  1.00  0.00    -0.043 C  
HETATM   27  H   UNL     1      -7.223   0.801  71.936  1.00  0.00     0.000 HD 
HETATM   28  C   UNL     1      -7.735   4.807  73.049  1.00  0.00    -0.092 C  
HETATM   29  C   UNL     1      -7.672   6.056  73.563  1.00  0.00    -0.100 C  
ENDBRANCH  15  20
ENDBRANCH   5   6
ENDBRANCH   4   5
TORSDOF 3
ENDMDL
MODEL      128
REMARK 921   NORMALIZED FREE ENERGY PREDICTED BY IDOCK:   -3.75 KCAL/MOL
REMARK 922        TOTAL FREE ENERGY PREDICTED BY IDOCK:   -5.22 KCAL/MOL
REMARK 923 INTER-LIGAND FREE ENERGY PREDICTED BY IDOCK:   -4.40 KCAL/MOL
REMARK 924 INTRA-LIGAND FREE ENERGY PREDICTED BY IDOCK:   -0.82 KCAL/MOL
REMARK 927      BINDING AFFINITY PREDICTED BY RF-SCORE:    0.00 PKD
ROOT
HETATM    1  C   UNL     1     -13.906   9.758  72.531  1.00  0.00    -0.106 C  
HETATM    2  C   UNL     1     -12.713   9.164  71.785  1.00  0.00    -0.446 C  
HETATM    3  C   UNL     1     -12.886   7.647  71.664  1.00  0.00    -0.378 C  
HETATM    4  C   UNL     1     -12.535   9.763  70.378  1.00  0.00    -0.031 C  
ENDROOT
BRANCH   4   5
HETATM    5  C   UNL     1     -12.222  11.259  70.359  1.00  0.00    -0.453 C  
BRANCH   5   6
HETATM    6  C   UNL     1     -10.799  11.517  69.810  1.00  0.00     0.049 C  
HETATM    7  C   UNL     1     -10.593  11.075  68.332  1.00  0.00    -0.224 C  
HETATM    8  C   UNL     1      -9.044  11.227  67.832  1.00  0.00    -0.150 C  
HETATM    9  C   UNL     1     -11.660  11.785  67.479  1.00  0.00    -0.361 C  
HETATM   10  C   UNL     1      -8.175  10.251  68.630  1.00  0.00    -0.116 C  
HETATM   11  C   UNL     1      -8.274   8.934  67.873  1.00  0.00    -0.110 C  
HETATM   12  C   UNL     1      -8.962   9.229  66.508  1.00  0.00    -0.178 C  
HETATM   13  C   UNL     1      -8.449   8.258  65.445  1.00  0.00    -0.189 C  
HETATM   14  C   UNL     1      -8.290   8.899  64.092  1.00  0.00    -0.168 C  
HETATM   15  C   UNL     1      -8.183   6.957  65.696  1.00  0.00    -0.134 C  
HETATM   16  C   UNL     1      -9.595  11.713  65.430  1.00  0.00    -0.228 C  
HETATM   17  C   UNL     1      -7.536  10.243  64.162  1.00  0.00    -0.087 C  
HETATM   18  C   UNL     1      -8.750  10.787  66.328  1.00  0.00    -0.175 C  
HETATM   19  C   UNL     1      -7.366  10.844  65.611  1.00  0.00     0.052 C  
BRANCH  15  20
HETATM   20  C   UNL     1      -8.116   5.938  64.663  1.00  0.00    -0.132 C  
HETATM   21  C   UNL     1      -8.774   4.779  64.487  1.00  0.00    -0.153 C  
HETATM   22  C   UNL     1      -8.584   4.059  63.158  1.00  0.00    -0.098 C  
HETATM   23  C   UNL     1      -8.175   2.597  63.333  1.00  0.00    -0.084 C  
HETATM   24  C   UNL     1      -9.162   1.860  64.232  1.00  0.00    -0.125 C  
HETATM   25  O   UNL     1      -6.850   2.499  63.857  1.00  0.00    -0.034 OA 
HETATM   26  C   UNL     1      -9.363   2.580  65.570  1.00  0.00    -0.021 C  
HETATM   27  H   UNL     1      -6.597   1.590  63.966  1.00  0.00     0.000 HD 
HETATM   28  C   UNL     1      -9.664   4.059  65.396  1.00  0.00    -0.196 C  
HETATM   29  C   UNL     1     -10.738   4.626  65.990  1.00  0.00    -0.126 C  
ENDBRANCH  15  20
ENDBRANCH   5   6
ENDBRANCH   4   5
TORSDOF 3
ENDMDL
MODEL      129
REMARK 921   NORMALIZED FREE ENERGY PREDICTED BY IDOCK:   -3.74 KCAL/MOL
REMARK 922        TOTAL FREE ENERGY PREDICTED BY IDOCK:   -5.21 KCAL/MOL
REMARK 923 INTER-LIGAND FREE ENERGY PREDICTED BY IDOCK:   -4.01 KCAL/MOL
REMARK 924 INTRA-LIGAND FREE ENERGY PREDICTED BY IDOCK:   -1.20 KCAL/MOL
REMARK 927      BINDING AFFINITY PREDICTED BY RF-SCORE:    0.00 PKD
ROOT
HETATM    1  C   UNL     1      -9.724   9.168  71.418  1.00  0.00    -0.338 C  
HETATM    2  C   UNL     1     -10.950   8.944  72.302  1.00  0.00    -0.245 C  
HETATM    3  C   UNL     1     -12.219   9.299  71.521  1.00  0.00    -0.439 C  
HETATM    4  C   UNL     1     -11.062   7.493  72.806  1.00  0.00    -0.416 C  
ENDROOT
BRANCH   4   5
HETATM    5  C   UNL     1      -9.916   7.046  73.714  1.00  0.00    -0.367 C  
BRANCH   5   6
HETATM    6  C   UNL     1      -9.560   5.562  73.462  1.00  0.00    -0.140 C  
HETATM    7  C   UNL     1      -8.552   5.332  72.299  1.00  0.00    -0.126 C  
HETATM    8  C   UNL     1      -8.313   3.750  71.966  1.00  0.00    -0.090 C  
HETATM    9  C   UNL     1      -7.294   6.166  72.602  1.00  0.00    -0.089 C  
HETATM   10  C   UNL     1      -9.622   3.159  71.436  1.00  0.00    -0.227 C  
HETATM   11  C   UNL     1      -9.608   3.460  69.943  1.00  0.00    -0.198 C  
HETATM   12  C   UNL     1      -8.181   3.965  69.581  1.00  0.00    -0.067 C  
HETATM   13  C   UNL     1      -7.839   3.575  68.144  1.00  0.00    -0.067 C  
HETATM   14  C   UNL     1      -6.395   3.184  67.969  1.00  0.00    -0.033 C  
HETATM   15  C   UNL     1      -8.740   3.594  67.136  1.00  0.00    -0.126 C  
HETATM   16  C   UNL     1      -5.930   4.003  71.213  1.00  0.00    -0.014 C  
HETATM   17  C   UNL     1      -5.921   2.185  69.044  1.00  0.00    -0.024 C  
HETATM   18  C   UNL     1      -7.296   3.432  70.780  1.00  0.00    -0.037 C  
HETATM   19  C   UNL     1      -6.890   2.013  70.276  1.00  0.00    -0.033 C  
BRANCH  15  20
HETATM   20  C   UNL     1      -8.371   3.651  65.732  1.00  0.00    -0.106 C  
HETATM   21  C   UNL     1      -7.838   4.623  64.972  1.00  0.00    -0.094 C  
HETATM   22  C   UNL     1      -7.393   4.248  63.564  1.00  0.00    -0.054 C  
HETATM   23  C   UNL     1      -7.979   5.169  62.495  1.00  0.00    -0.080 C  
HETATM   24  C   UNL     1      -7.674   6.630  62.808  1.00  0.00    -0.101 C  
HETATM   25  O   UNL     1      -9.388   4.968  62.369  1.00  0.00    -0.304 OA 
HETATM   26  C   UNL     1      -8.115   7.014  64.225  1.00  0.00    -0.040 C  
HETATM   27  H   UNL     1      -9.753   5.540  61.704  1.00  0.00     0.000 HD 
HETATM   28  C   UNL     1      -7.619   6.036  65.275  1.00  0.00    -0.088 C  
HETATM   29  C   UNL     1      -6.950   6.467  66.368  1.00  0.00    -0.066 C  
ENDBRANCH  15  20
ENDBRANCH   5   6
ENDBRANCH   4   5
TORSDOF 3
ENDMDL
MODEL      130
REMARK 921   NORMALIZED FREE ENERGY PREDICTED BY IDOCK:   -3.58 KCAL/MOL
REMARK 922        TOTAL FREE ENERGY PREDICTED BY IDOCK:   -5.02 KCAL/MOL
REMARK 923 INTER-LIGAND FREE ENERGY PREDICTED BY IDOCK:   -4.17 KCAL/MOL
REMARK 924 INTRA-LIGAND FREE ENERGY PREDICTED BY IDOCK:   -0.85 KCAL/MOL
REMARK 927      BINDING AFFINITY PREDICTED BY RF-SCORE:    0.00 PKD
ROOT
HETATM    1  C   UNL     1      -6.293  19.066  67.259  1.00  0.00    -0.189 C  
HETATM    2  C   UNL     1      -7.092  18.556  66.060  1.00  0.00    -0.306 C  
HETATM    3  C   UNL     1      -6.380  18.948  64.762  1.00  0.00    -0.112 C  
HETATM    4  C   UNL     1      -7.287  17.028  66.084  1.00  0.00    -0.225 C  
ENDROOT
BRANCH   4   5
HETATM    5  C   UNL     1      -8.103  16.510  67.268  1.00  0.00    -0.193 C  
BRANCH   5   6
HETATM    6  C   UNL     1      -8.916  15.256  66.870  1.00  0.00    -0.274 C  
HETATM    7  C   UNL     1      -9.278  14.321  68.061  1.00  0.00    -0.192 C  
HETATM    8  C   UNL     1     -10.007  12.937  67.586  1.00  0.00    -0.218 C  
HETATM    9  C   UNL     1     -10.028  15.167  69.106  1.00  0.00    -0.238 C  
HETATM   10  C   UNL     1      -9.008  12.115  66.767  1.00  0.00    -0.203 C  
HETATM   11  C   UNL     1      -8.215  11.326  67.799  1.00  0.00    -0.120 C  
HETATM   12  C   UNL     1      -8.942  11.483  69.167  1.00  0.00     0.264 C  
HETATM   13  C   UNL     1      -8.731  10.230  70.016  1.00  0.00     0.115 C  
HETATM   14  C   UNL     1      -9.947   9.855  70.822  1.00  0.00    -0.009 C  
HETATM   15  C   UNL     1      -7.568   9.542  70.047  1.00  0.00    -0.134 C  
HETATM   16  C   UNL     1     -11.411  12.665  69.651  1.00  0.00    -0.252 C  
HETATM   17  C   UNL     1     -11.237   9.860  69.978  1.00  0.00    -0.327 C  
HETATM   18  C   UNL     1     -10.403  11.923  68.750  1.00  0.00    -0.184 C  
HETATM   19  C   UNL     1     -11.113  10.547  68.563  1.00  0.00    -0.329 C  
BRANCH  15  20
HETATM   20  C   UNL     1      -7.198   8.640  71.125  1.00  0.00    -0.085 C  
HETATM   21  C   UNL     1      -7.619   7.410  71.463  1.00  0.00    -0.085 C  
HETATM   22  C   UNL     1      -6.845   6.679  72.553  1.00  0.00    -0.064 C  
HETATM   23  C   UNL     1      -7.747   6.163  73.673  1.00  0.00    -0.095 C  
HETATM   24  C   UNL     1      -8.874   5.301  73.111  1.00  0.00    -0.119 C  
HETATM   25  O   UNL     1      -8.280   7.247  74.436  1.00  0.00    -0.152 OA 
HETATM   26  C   UNL     1      -9.654   6.027  72.012  1.00  0.00    -0.167 C  
HETATM   27  H   UNL     1      -8.841   6.927  75.132  1.00  0.00     0.000 HD 
HETATM   28  C   UNL     1      -8.747   6.631  70.954  1.00  0.00    -0.138 C  
HETATM   29  C   UNL     1      -8.945   6.382  69.641  1.00  0.00    -0.137 C  
ENDBRANCH  15  20
ENDBRANCH   5   6
ENDBRANCH   4   5
TORSDOF 3
ENDMDL
MODEL      131
REMARK 921   NORMALIZED FREE ENERGY PREDICTED BY IDOCK:   -3.54 KCAL/MOL
REMARK 922        TOTAL FREE ENERGY PREDICTED BY IDOCK:   -4.98 KCAL/MOL
REMARK 923 INTER-LIGAND FREE ENERGY PREDICTED BY IDOCK:   -4.17 KCAL/MOL
REMARK 924 INTRA-LIGAND FREE ENERGY PREDICTED BY IDOCK:   -0.80 KCAL/MOL
REMARK 927      BINDING AFFINITY PREDICTED BY RF-SCORE:    0.00 PKD
ROOT
HETATM    1  C   UNL     1     -12.244  14.310  66.353  1.00  0.00    -0.426 C  
HETATM    2  C   UNL     1     -12.393  14.124  64.844  1.00  0.00    -0.446 C  
HETATM    3  C   UNL     1     -12.566  15.490  64.172  1.00  0.00     0.346 C  
HETATM    4  C   UNL     1     -11.187  13.404  64.212  1.00  0.00    -0.406 C  
ENDROOT
BRANCH   4   5
HETATM    5  C   UNL     1     -10.977  11.971  64.701  1.00  0.00    -0.367 C  
BRANCH   5   6
HETATM    6  C   UNL     1      -9.583  11.811  65.353  1.00  0.00    -0.210 C  
HETATM    7  C   UNL     1      -9.369  10.452  66.083  1.00  0.00    -0.210 C  
HETATM    8  C   UNL     1      -7.945  10.377  66.882  1.00  0.00    -0.114 C  
HETATM    9  C   UNL     1      -9.644   9.329  65.067  1.00  0.00    -0.020 C  
HETATM   10  C   UNL     1      -7.969  11.402  68.019  1.00  0.00    -0.127 C  
HETATM   11  C   UNL     1      -8.642  10.682  69.179  1.00  0.00    -0.136 C  
HETATM   12  C   UNL     1      -8.745   9.176  68.798  1.00  0.00    -0.132 C  
HETATM   13  C   UNL     1      -8.671   8.313  70.057  1.00  0.00    -0.133 C  
HETATM   14  C   UNL     1      -7.904   7.034  69.848  1.00  0.00    -0.114 C  
HETATM   15  C   UNL     1      -9.248   8.660  71.229  1.00  0.00    -0.283 C  
HETATM   16  C   UNL     1      -7.621   7.902  66.596  1.00  0.00    -0.093 C  
HETATM   17  C   UNL     1      -6.555   7.265  69.139  1.00  0.00    -0.041 C  
HETATM   18  C   UNL     1      -7.655   9.017  67.662  1.00  0.00    -0.093 C  
HETATM   19  C   UNL     1      -6.373   8.690  68.488  1.00  0.00    -0.054 C  
BRANCH  15  20
HETATM   20  C   UNL     1      -9.563   7.710  72.281  1.00  0.00    -0.215 C  
HETATM   21  C   UNL     1      -8.791   6.985  73.110  1.00  0.00    -0.151 C  
HETATM   22  C   UNL     1      -9.486   6.238  74.241  1.00  0.00    -0.212 C  
HETATM   23  C   UNL     1      -9.117   4.755  74.283  1.00  0.00    -0.111 C  
HETATM   24  C   UNL     1      -7.603   4.573  74.338  1.00  0.00    -0.081 C  
HETATM   25  O   UNL     1      -9.663   4.063  73.159  1.00  0.00    -0.121 OA 
HETATM   26  C   UNL     1      -6.896   5.326  73.206  1.00  0.00    -0.078 C  
HETATM   27  H   UNL     1      -9.434   3.142  73.185  1.00  0.00     0.000 HD 
HETATM   28  C   UNL     1      -7.345   6.773  73.099  1.00  0.00    -0.075 C  
HETATM   29  C   UNL     1      -6.446   7.781  73.078  1.00  0.00    -0.067 C  
ENDBRANCH  15  20
ENDBRANCH   5   6
ENDBRANCH   4   5
TORSDOF 3
ENDMDL
MODEL      132
REMARK 921   NORMALIZED FREE ENERGY PREDICTED BY IDOCK:   -3.53 KCAL/MOL
REMARK 922        TOTAL FREE ENERGY PREDICTED BY IDOCK:   -4.96 KCAL/MOL
REMARK 923 INTER-LIGAND FREE ENERGY PREDICTED BY IDOCK:   -4.68 KCAL/MOL
REMARK 924 INTRA-LIGAND FREE ENERGY PREDICTED BY IDOCK:   -0.28 KCAL/MOL
REMARK 927      BINDING AFFINITY PREDICTED BY RF-SCORE:    0.00 PKD
ROOT
HETATM    1  C   UNL     1      -6.454   5.844  67.142  1.00  0.00    -0.047 C  
HETATM    2  C   UNL     1      -6.321   6.499  68.516  1.00  0.00    -0.038 C  
HETATM    3  C   UNL     1      -6.023   5.428  69.569  1.00  0.00    -0.020 C  
HETATM    4  C   UNL     1      -5.213   7.567  68.559  1.00  0.00    -0.025 C  
ENDROOT
BRANCH   4   5
HETATM    5  C   UNL     1      -5.452   8.769  67.644  1.00  0.00    -0.035 C  
BRANCH   5   6
HETATM    6  C   UNL     1      -6.794   8.627  66.889  1.00  0.00    -0.070 C  
HETATM    7  C   UNL     1      -7.636   9.935  66.827  1.00  0.00    -0.095 C  
HETATM    8  C   UNL     1      -9.109   9.713  66.153  1.00  0.00    -0.201 C  
HETATM    9  C   UNL     1      -6.753  11.028  66.200  1.00  0.00    -0.068 C  
HETATM   10  C   UNL     1      -9.929   8.793  67.062  1.00  0.00    -0.307 C  
HETATM   11  C   UNL     1     -10.557   9.723  68.090  1.00  0.00    -0.276 C  
HETATM   12  C   UNL     1     -10.325  11.183  67.605  1.00  0.00    -0.223 C  
HETATM   13  C   UNL     1     -11.473  12.077  68.072  1.00  0.00    -0.392 C  
HETATM   14  C   UNL     1     -11.858  13.119  67.055  1.00  0.00    -0.435 C  
HETATM   15  C   UNL     1     -12.068  11.949  69.279  1.00  0.00    -0.270 C  
HETATM   16  C   UNL     1      -9.287  12.015  65.163  1.00  0.00     0.095 C  
HETATM   17  C   UNL     1     -12.029  12.527  65.642  1.00  0.00    -0.492 C  
HETATM   18  C   UNL     1     -10.035  11.007  66.059  1.00  0.00    -0.285 C  
HETATM   19  C   UNL     1     -11.471  11.064  65.453  1.00  0.00     0.399 C  
BRANCH  15  20
HETATM   20  C   UNL     1     -12.834  13.009  69.912  1.00  0.00     0.492 C  
HETATM   21  C   UNL     1     -12.480  14.192  70.444  1.00  0.00    -0.424 C  
HETATM   22  C   UNL     1     -13.599  15.146  70.839  1.00  0.00    -0.397 C  
HETATM   23  C   UNL     1     -13.472  15.640  72.280  1.00  0.00    -0.495 C  
HETATM   24  C   UNL     1     -12.098  16.256  72.524  1.00  0.00    -0.615 C  
HETATM   25  O   UNL     1     -13.716  14.578  73.204  1.00  0.00    -0.536 OA 
HETATM   26  C   UNL     1     -10.966  15.304  72.125  1.00  0.00     0.138 C  
HETATM   27  H   UNL     1     -13.637  14.885  74.099  1.00  0.00     0.000 HD 
HETATM   28  C   UNL     1     -11.152  14.731  70.730  1.00  0.00    -0.074 C  
HETATM   29  C   UNL     1     -10.164  14.801  69.811  1.00  0.00     0.012 C  
ENDBRANCH  15  20
ENDBRANCH   5   6
ENDBRANCH   4   5
TORSDOF 3
ENDMDL
MODEL      133
REMARK 921   NORMALIZED FREE ENERGY PREDICTED BY IDOCK:   -3.51 KCAL/MOL
REMARK 922        TOTAL FREE ENERGY PREDICTED BY IDOCK:   -4.94 KCAL/MOL
REMARK 923 INTER-LIGAND FREE ENERGY PREDICTED BY IDOCK:   -3.82 KCAL/MOL
REMARK 924 INTRA-LIGAND FREE ENERGY PREDICTED BY IDOCK:   -1.13 KCAL/MOL
REMARK 927      BINDING AFFINITY PREDICTED BY RF-SCORE:    0.00 PKD
ROOT
HETATM    1  C   UNL     1      -9.832   3.815  64.803  1.00  0.00    -0.191 C  
HETATM    2  C   UNL     1      -9.713   3.041  63.491  1.00  0.00    -0.116 C  
HETATM    3  C   UNL     1     -11.099   2.567  63.045  1.00  0.00    -0.185 C  
HETATM    4  C   UNL     1      -9.082   3.878  62.363  1.00  0.00    -0.098 C  
ENDROOT
BRANCH   4   5
HETATM    5  C   UNL     1      -7.638   4.309  62.623  1.00  0.00    -0.053 C  
BRANCH   5   6
HETATM    6  C   UNL     1      -7.581   5.774  63.115  1.00  0.00    -0.084 C  
HETATM    7  C   UNL     1      -7.190   5.934  64.613  1.00  0.00    -0.063 C  
HETATM    8  C   UNL     1      -7.283   7.480  65.135  1.00  0.00    -0.066 C  
HETATM    9  C   UNL     1      -5.842   5.220  64.821  1.00  0.00    -0.021 C  
HETATM   10  C   UNL     1      -8.748   7.923  65.091  1.00  0.00     0.015 C  
HETATM   11  C   UNL     1      -9.335   7.457  66.415  1.00  0.00    -0.206 C  
HETATM   12  C   UNL     1      -8.151   7.005  67.319  1.00  0.00    -0.115 C  
HETATM   13  C   UNL     1      -8.493   7.250  68.788  1.00  0.00    -0.129 C  
HETATM   14  C   UNL     1      -7.309   7.708  69.598  1.00  0.00    -0.089 C  
HETATM   15  C   UNL     1      -9.728   7.060  69.304  1.00  0.00    -0.158 C  
HETATM   16  C   UNL     1      -5.431   7.293  66.821  1.00  0.00    -0.023 C  
HETATM   17  C   UNL     1      -6.533   8.850  68.912  1.00  0.00    -0.048 C  
HETATM   18  C   UNL     1      -6.903   7.724  66.664  1.00  0.00    -0.070 C  
HETATM   19  C   UNL     1      -6.901   9.100  67.398  1.00  0.00    -0.077 C  
BRANCH  15  20
HETATM   20  C   UNL     1      -9.985   6.868  70.721  1.00  0.00    -0.201 C  
HETATM   21  C   UNL     1      -9.749   5.840  71.554  1.00  0.00    -0.193 C  
HETATM   22  C   UNL     1      -9.972   6.079  73.042  1.00  0.00    -0.186 C  
HETATM   23  C   UNL     1     -10.882   5.030  73.679  1.00  0.00    -0.307 C  
HETATM   24  C   UNL     1     -10.361   3.622  73.410  1.00  0.00    -0.237 C  
HETATM   25  O   UNL     1     -12.223   5.166  73.205  1.00  0.00    -0.481 OA 
HETATM   26  C   UNL     1     -10.130   3.375  71.915  1.00  0.00    -0.156 C  
HETATM   27  H   UNL     1     -12.789   4.514  73.600  1.00  0.00     0.000 HD 
HETATM   28  C   UNL     1      -9.313   4.476  71.261  1.00  0.00    -0.209 C  
HETATM   29  C   UNL     1      -8.214   4.188  70.530  1.00  0.00    -0.071 C  
ENDBRANCH  15  20
ENDBRANCH   5   6
ENDBRANCH   4   5
TORSDOF 3
ENDMDL
MODEL      134
REMARK 921   NORMALIZED FREE ENERGY PREDICTED BY IDOCK:   -3.37 KCAL/MOL
REMARK 922        TOTAL FREE ENERGY PREDICTED BY IDOCK:   -4.77 KCAL/MOL
REMARK 923 INTER-LIGAND FREE ENERGY PREDICTED BY IDOCK:   -3.77 KCAL/MOL
REMARK 924 INTRA-LIGAND FREE ENERGY PREDICTED BY IDOCK:   -1.00 KCAL/MOL
REMARK 927      BINDING AFFINITY PREDICTED BY RF-SCORE:    0.00 PKD
ROOT
HETATM    1  C   UNL     1     -13.238  13.818  65.272  1.00  0.00    -0.007 C  
HETATM    2  C   UNL     1     -11.821  13.337  64.963  1.00  0.00    -0.384 C  
HETATM    3  C   UNL     1     -11.837  12.471  63.700  1.00  0.00    -0.610 C  
HETATM    4  C   UNL     1     -10.830  14.499  64.763  1.00  0.00    -0.410 C  
ENDROOT
BRANCH   4   5
HETATM    5  C   UNL     1     -10.618  15.373  65.999  1.00  0.00    -0.330 C  
BRANCH   5   6
HETATM    6  C   UNL     1     -10.490  14.504  67.272  1.00  0.00    -0.266 C  
HETATM    7  C   UNL     1      -9.164  13.693  67.364  1.00  0.00    -0.222 C  
HETATM    8  C   UNL     1      -9.127  12.677  68.645  1.00  0.00     0.040 C  
HETATM    9  C   UNL     1      -7.998  14.691  67.247  1.00  0.00    -0.223 C  
HETATM   10  C   UNL     1     -10.200  11.603  68.447  1.00  0.00    -0.211 C  
HETATM   11  C   UNL     1      -9.527  10.533  67.598  1.00  0.00    -0.164 C  
HETATM   12  C   UNL     1      -8.006  10.862  67.550  1.00  0.00    -0.115 C  
HETATM   13  C   UNL     1      -7.197   9.571  67.422  1.00  0.00    -0.087 C  
HETATM   14  C   UNL     1      -5.913   9.603  68.208  1.00  0.00    -0.047 C  
HETATM   15  C   UNL     1      -7.593   8.520  66.670  1.00  0.00    -0.082 C  
HETATM   16  C   UNL     1      -6.643  12.804  69.000  1.00  0.00    -0.099 C  
HETATM   17  C   UNL     1      -6.118  10.101  69.652  1.00  0.00    -0.046 C  
HETATM   18  C   UNL     1      -7.802  11.805  68.804  1.00  0.00    -0.076 C  
HETATM   19  C   UNL     1      -7.514  10.775  69.940  1.00  0.00     0.060 C  
BRANCH  15  20
HETATM   20  C   UNL     1      -6.686   7.491  66.191  1.00  0.00    -0.053 C  
HETATM   21  C   UNL     1      -6.548   6.888  64.997  1.00  0.00    -0.043 C  
HETATM   22  C   UNL     1      -5.335   5.987  64.804  1.00  0.00    -0.017 C  
HETATM   23  C   UNL     1      -5.709   4.595  64.295  1.00  0.00    -0.014 C  
HETATM   24  C   UNL     1      -6.547   4.688  63.023  1.00  0.00    -0.027 C  
HETATM   25  O   UNL     1      -6.405   3.857  65.300  1.00  0.00    -0.027 OA 
HETATM   26  C   UNL     1      -7.766   5.596  63.208  1.00  0.00    -0.086 C  
HETATM   27  H   UNL     1      -6.638   2.992  64.984  1.00  0.00     0.000 HD 
HETATM   28  C   UNL     1      -7.405   6.941  63.814  1.00  0.00    -0.080 C  
HETATM   29  C   UNL     1      -7.797   8.096  63.231  1.00  0.00    -0.149 C  
ENDBRANCH  15  20
ENDBRANCH   5   6
ENDBRANCH   4   5
TORSDOF 3
ENDMDL
MODEL      135
REMARK 921   NORMALIZED FREE ENERGY PREDICTED BY IDOCK:   -3.24 KCAL/MOL
REMARK 922        TOTAL FREE ENERGY PREDICTED BY IDOCK:   -4.62 KCAL/MOL
REMARK 923 INTER-LIGAND FREE ENERGY PREDICTED BY IDOCK:   -4.07 KCAL/MOL
REMARK 924 INTRA-LIGAND FREE ENERGY PREDICTED BY IDOCK:   -0.55 KCAL/MOL
REMARK 927      BINDING AFFINITY PREDICTED BY RF-SCORE:    0.00 PKD
ROOT
HETATM    1  C   UNL     1     -11.962  12.734  67.394  1.00  0.00    -0.335 C  
HETATM    2  C   UNL     1     -10.864  12.768  66.333  1.00  0.00    -0.294 C  
HETATM    3  C   UNL     1     -11.445  12.352  64.978  1.00  0.00    -0.378 C  
HETATM    4  C   UNL     1     -10.216  14.158  66.194  1.00  0.00    -0.313 C  
ENDROOT
BRANCH   4   5
HETATM    5  C   UNL     1      -9.480  14.644  67.444  1.00  0.00    -0.201 C  
BRANCH   5   6
HETATM    6  C   UNL     1      -9.232  13.474  68.426  1.00  0.00    -0.159 C  
HETATM    7  C   UNL     1      -8.222  12.408  67.911  1.00  0.00    -0.163 C  
HETATM    8  C   UNL     1      -8.095  11.117  68.906  1.00  0.00    -0.115 C  
HETATM    9  C   UNL     1      -6.911  13.137  67.565  1.00  0.00    -0.156 C  
HETATM   10  C   UNL     1      -9.435  10.376  68.916  1.00  0.00    -0.190 C  
HETATM   11  C   UNL     1      -9.371   9.439  67.718  1.00  0.00    -0.144 C  
HETATM   12  C   UNL     1      -7.903   9.444  67.198  1.00  0.00    -0.098 C  
HETATM   13  C   UNL     1      -7.565   8.088  66.580  1.00  0.00    -0.093 C  
HETATM   14  C   UNL     1      -6.151   7.652  66.860  1.00  0.00    -0.048 C  
HETATM   15  C   UNL     1      -8.442   7.368  65.847  1.00  0.00    -0.155 C  
HETATM   16  C   UNL     1      -5.686  10.628  68.388  1.00  0.00    -0.043 C  
HETATM   17  C   UNL     1      -5.773   7.800  68.348  1.00  0.00    -0.028 C  
HETATM   18  C   UNL     1      -7.083   9.976  68.443  1.00  0.00    -0.072 C  
HETATM   19  C   UNL     1      -6.775   8.656  69.215  1.00  0.00    -0.050 C  
BRANCH  15  20
HETATM   20  C   UNL     1      -8.044   6.327  64.914  1.00  0.00    -0.130 C  
HETATM   21  C   UNL     1      -8.428   5.047  64.765  1.00  0.00    -0.148 C  
HETATM   22  C   UNL     1      -7.935   4.307  63.528  1.00  0.00    -0.085 C  
HETATM   23  C   UNL     1      -7.263   2.977  63.866  1.00  0.00    -0.053 C  
HETATM   24  C   UNL     1      -8.182   2.102  64.713  1.00  0.00    -0.079 C  
HETATM   25  O   UNL     1      -6.019   3.192  64.535  1.00  0.00    -0.020 OA 
HETATM   26  C   UNL     1      -8.685   2.841  65.957  1.00  0.00    -0.131 C  
HETATM   27  H   UNL     1      -5.601   2.365  64.745  1.00  0.00     0.000 HD 
HETATM   28  C   UNL     1      -9.257   4.210  65.631  1.00  0.00    -0.149 C  
HETATM   29  C   UNL     1     -10.487   4.571  66.058  1.00  0.00    -0.236 C  
ENDBRANCH  15  20
ENDBRANCH   5   6
ENDBRANCH   4   5
TORSDOF 3
ENDMDL
MODEL      136
REMARK 921   NORMALIZED FREE ENERGY PREDICTED BY IDOCK:   -3.24 KCAL/MOL
REMARK 922        TOTAL FREE ENERGY PREDICTED BY IDOCK:   -4.62 KCAL/MOL
REMARK 923 INTER-LIGAND FREE ENERGY PREDICTED BY IDOCK:   -3.62 KCAL/MOL
REMARK 924 INTRA-LIGAND FREE ENERGY PREDICTED BY IDOCK:   -1.00 KCAL/MOL
REMARK 927      BINDING AFFINITY PREDICTED BY RF-SCORE:    0.00 PKD
ROOT
HETATM    1  C   UNL     1     -11.834  14.061  67.771  1.00  0.00    -0.419 C  
HETATM    2  C   UNL     1     -10.978  14.222  69.027  1.00  0.00    -0.282 C  
HETATM    3  C   UNL     1     -11.669  13.540  70.212  1.00  0.00    -0.244 C  
HETATM    4  C   UNL     1      -9.566  13.631  68.862  1.00  0.00     0.090 C  
ENDROOT
BRANCH   4   5
HETATM    5  C   UNL     1      -8.713  14.314  67.792  1.00  0.00    -0.179 C  
BRANCH   5   6
HETATM    6  C   UNL     1      -7.449  13.478  67.480  1.00  0.00    -0.177 C  
HETATM    7  C   UNL     1      -7.708  11.949  67.345  1.00  0.00    -0.158 C  
HETATM    8  C   UNL     1      -6.333  11.084  67.162  1.00  0.00    -0.076 C  
HETATM    9  C   UNL     1      -8.789  11.754  66.266  1.00  0.00    -0.142 C  
HETATM   10  C   UNL     1      -5.508  11.202  68.446  1.00  0.00    -0.042 C  
HETATM   11  C   UNL     1      -6.053  10.114  69.360  1.00  0.00    -0.041 C  
HETATM   12  C   UNL     1      -6.984   9.206  68.503  1.00  0.00    -0.067 C  
HETATM   13  C   UNL     1      -6.956   7.776  69.041  1.00  0.00    -0.069 C  
HETATM   14  C   UNL     1      -7.012   6.738  67.952  1.00  0.00    -0.083 C  
HETATM   15  C   UNL     1      -6.902   7.480  70.359  1.00  0.00    -0.047 C  
HETATM   16  C   UNL     1      -7.354   9.275  65.749  1.00  0.00    -0.094 C  
HETATM   17  C   UNL     1      -6.011   7.024  66.814  1.00  0.00    -0.033 C  
HETATM   18  C   UNL     1      -6.515   9.506  67.022  1.00  0.00    -0.067 C  
HETATM   19  C   UNL     1      -5.371   8.466  66.828  1.00  0.00    -0.032 C  
BRANCH  15  20
HETATM   20  C   UNL     1      -7.299   6.195  70.910  1.00  0.00    -0.080 C  
HETATM   21  C   UNL     1      -8.500   5.640  71.142  1.00  0.00    -0.127 C  
HETATM   22  C   UNL     1      -8.527   4.171  71.545  1.00  0.00    -0.107 C  
HETATM   23  C   UNL     1      -9.327   3.925  72.824  1.00  0.00    -0.112 C  
HETATM   24  C   UNL     1     -10.736   4.499  72.704  1.00  0.00    -0.229 C  
HETATM   25  O   UNL     1      -8.656   4.478  73.957  1.00  0.00    -0.104 OA 
HETATM   26  C   UNL     1     -10.717   5.975  72.294  1.00  0.00    -0.272 C  
HETATM   27  H   UNL     1      -9.153   4.325  74.752  1.00  0.00     0.000 HD 
HETATM   28  C   UNL     1      -9.835   6.234  71.085  1.00  0.00    -0.203 C  
HETATM   29  C   UNL     1     -10.306   6.901  70.009  1.00  0.00    -0.219 C  
ENDBRANCH  15  20
ENDBRANCH   5   6
ENDBRANCH   4   5
TORSDOF 3
ENDMDL
MODEL      137
REMARK 921   NORMALIZED FREE ENERGY PREDICTED BY IDOCK:   -3.17 KCAL/MOL
REMARK 922        TOTAL FREE ENERGY PREDICTED BY IDOCK:   -4.54 KCAL/MOL
REMARK 923 INTER-LIGAND FREE ENERGY PREDICTED BY IDOCK:   -4.56 KCAL/MOL
REMARK 924 INTRA-LIGAND FREE ENERGY PREDICTED BY IDOCK:    0.02 KCAL/MOL
REMARK 927      BINDING AFFINITY PREDICTED BY RF-SCORE:    0.00 PKD
ROOT
HETATM    1  C   UNL     1      -8.092   4.026  66.328  1.00  0.00    -0.098 C  
HETATM    2  C   UNL     1      -9.140   4.455  65.302  1.00  0.00    -0.146 C  
HETATM    3  C   UNL     1      -9.447   3.286  64.362  1.00  0.00    -0.145 C  
HETATM    4  C   UNL     1     -10.450   4.931  65.956  1.00  0.00    -0.327 C  
ENDROOT
BRANCH   4   5
HETATM    5  C   UNL     1     -10.310   6.182  66.824  1.00  0.00    -0.292 C  
BRANCH   5   6
HETATM    6  C   UNL     1      -8.828   6.608  66.939  1.00  0.00    -0.118 C  
HETATM    7  C   UNL     1      -8.582   7.829  67.873  1.00  0.00    -0.122 C  
HETATM    8  C   UNL     1      -7.030   8.342  67.856  1.00  0.00    -0.078 C  
HETATM    9  C   UNL     1      -9.176   7.488  69.252  1.00  0.00    -0.144 C  
HETATM   10  C   UNL     1      -6.709   8.881  66.459  1.00  0.00    -0.075 C  
HETATM   11  C   UNL     1      -7.173  10.331  66.485  1.00  0.00    -0.109 C  
HETATM   12  C   UNL     1      -7.494  10.693  67.965  1.00  0.00    -0.090 C  
HETATM   13  C   UNL     1      -7.223  12.177  68.209  1.00  0.00    -0.095 C  
HETATM   14  C   UNL     1      -6.641  12.451  69.571  1.00  0.00    -0.048 C  
HETATM   15  C   UNL     1      -7.494  13.139  67.300  1.00  0.00    -0.076 C  
HETATM   16  C   UNL     1      -7.004   9.159  70.232  1.00  0.00    -0.059 C  
HETATM   17  C   UNL     1      -5.466  11.512  69.908  1.00  0.00    -0.078 C  
HETATM   18  C   UNL     1      -6.700   9.596  68.784  1.00  0.00    -0.051 C  
HETATM   19  C   UNL     1      -5.303  10.268  68.953  1.00  0.00    -0.034 C  
BRANCH  15  20
HETATM   20  C   UNL     1      -7.654  14.543  67.640  1.00  0.00    -0.198 C  
HETATM   21  C   UNL     1      -8.669  15.408  67.468  1.00  0.00    -0.186 C  
HETATM   22  C   UNL     1      -8.553  16.767  68.147  1.00  0.00    -0.218 C  
HETATM   23  C   UNL     1      -8.772  17.930  67.179  1.00  0.00    -0.243 C  
HETATM   24  C   UNL     1     -10.100  17.782  66.443  1.00  0.00    -0.357 C  
HETATM   25  O   UNL     1      -7.692  18.027  66.249  1.00  0.00    -0.251 OA 
HETATM   26  C   UNL     1     -10.226  16.416  65.761  1.00  0.00    -0.370 C  
HETATM   27  H   UNL     1      -7.828  18.750  65.648  1.00  0.00     0.000 HD 
HETATM   28  C   UNL     1      -9.903  15.265  66.698  1.00  0.00    -0.263 C  
HETATM   29  C   UNL     1     -10.758  14.230  66.850  1.00  0.00    -0.290 C  
ENDBRANCH  15  20
ENDBRANCH   5   6
ENDBRANCH   4   5
TORSDOF 3
ENDMDL
MODEL      138
REMARK 921   NORMALIZED FREE ENERGY PREDICTED BY IDOCK:   -3.11 KCAL/MOL
REMARK 922        TOTAL FREE ENERGY PREDICTED BY IDOCK:   -4.47 KCAL/MOL
REMARK 923 INTER-LIGAND FREE ENERGY PREDICTED BY IDOCK:   -4.87 KCAL/MOL
REMARK 924 INTRA-LIGAND FREE ENERGY PREDICTED BY IDOCK:    0.41 KCAL/MOL
REMARK 927      BINDING AFFINITY PREDICTED BY RF-SCORE:    0.00 PKD
ROOT
HETATM    1  C   UNL     1      -8.471  11.224  62.418  1.00  0.00    -0.201 C  
HETATM    2  C   UNL     1      -8.145  10.149  63.454  1.00  0.00    -0.161 C  
HETATM    3  C   UNL     1      -6.667   9.763  63.345  1.00  0.00    -0.119 C  
HETATM    4  C   UNL     1      -8.439  10.605  64.895  1.00  0.00    -0.116 C  
ENDROOT
BRANCH   4   5
HETATM    5  C   UNL     1      -9.912  10.900  65.179  1.00  0.00    -0.341 C  
BRANCH   5   6
HETATM    6  C   UNL     1     -10.169  11.005  66.701  1.00  0.00    -0.280 C  
HETATM    7  C   UNL     1      -9.324  10.023  67.563  1.00  0.00    -0.162 C  
HETATM    8  C   UNL     1      -9.726  10.059  69.147  1.00  0.00    -0.217 C  
HETATM    9  C   UNL     1      -7.842  10.264  67.227  1.00  0.00    -0.103 C  
HETATM   10  C   UNL     1     -11.158   9.540  69.300  1.00  0.00    -0.109 C  
HETATM   11  C   UNL     1     -11.016   8.026  69.386  1.00  0.00    -0.021 C  
HETATM   12  C   UNL     1      -9.503   7.708  69.563  1.00  0.00    -0.152 C  
HETATM   13  C   UNL     1      -9.332   6.427  70.379  1.00  0.00    -0.169 C  
HETATM   14  C   UNL     1      -8.158   6.482  71.321  1.00  0.00    -0.113 C  
HETATM   15  C   UNL     1     -10.145   5.354  70.254  1.00  0.00    -0.318 C  
HETATM   16  C   UNL     1      -7.431   9.508  70.007  1.00  0.00    -0.126 C  
HETATM   17  C   UNL     1      -8.124   7.786  72.143  1.00  0.00    -0.136 C  
HETATM   18  C   UNL     1      -8.908   9.074  70.097  1.00  0.00    -0.196 C  
HETATM   19  C   UNL     1      -9.091   8.925  71.639  1.00  0.00    -0.280 C  
BRANCH  15  20
HETATM   20  C   UNL     1      -9.774   4.013  70.673  1.00  0.00    -0.266 C  
HETATM   21  C   UNL     1      -9.846   3.379  71.856  1.00  0.00    -0.238 C  
HETATM   22  C   UNL     1      -9.549   1.885  71.870  1.00  0.00    -0.190 C  
HETATM   23  C   UNL     1      -8.495   1.504  72.908  1.00  0.00    -0.057 C  
HETATM   24  C   UNL     1      -8.886   2.010  74.293  1.00  0.00    -0.068 C  
HETATM   25  O   UNL     1      -7.210   2.006  72.536  1.00  0.00    -0.026 OA 
HETATM   26  C   UNL     1      -9.191   3.512  74.286  1.00  0.00    -0.103 C  
HETATM   27  H   UNL     1      -6.555   1.769  73.182  1.00  0.00     0.000 HD 
HETATM   28  C   UNL     1     -10.159   3.905  73.184  1.00  0.00    -0.208 C  
HETATM   29  C   UNL     1     -11.270   4.625  73.456  1.00  0.00    -0.400 C  
ENDBRANCH  15  20
ENDBRANCH   5   6
ENDBRANCH   4   5
TORSDOF 3
ENDMDL
MODEL      139
REMARK 921   NORMALIZED FREE ENERGY PREDICTED BY IDOCK:   -3.10 KCAL/MOL
REMARK 922        TOTAL FREE ENERGY PREDICTED BY IDOCK:   -4.45 KCAL/MOL
REMARK 923 INTER-LIGAND FREE ENERGY PREDICTED BY IDOCK:   -3.92 KCAL/MOL
REMARK 924 INTRA-LIGAND FREE ENERGY PREDICTED BY IDOCK:   -0.54 KCAL/MOL
REMARK 927      BINDING AFFINITY PREDICTED BY RF-SCORE:    0.00 PKD
ROOT
HETATM    1  C   UNL     1     -10.902  16.307  65.126  1.00  0.00    -0.333 C  
HETATM    2  C   UNL     1     -11.910  15.171  64.961  1.00  0.00    -0.180 C  
HETATM    3  C   UNL     1     -12.384  15.111  63.506  1.00  0.00     0.881 C  
HETATM    4  C   UNL     1     -11.330  13.801  65.357  1.00  0.00    -0.314 C  
ENDROOT
BRANCH   4   5
HETATM    5  C   UNL     1     -10.936  13.679  66.830  1.00  0.00    -0.297 C  
BRANCH   5   6
HETATM    6  C   UNL     1      -9.448  13.282  66.970  1.00  0.00    -0.243 C  
HETATM    7  C   UNL     1      -9.197  11.746  67.025  1.00  0.00    -0.187 C  
HETATM    8  C   UNL     1      -7.635  11.367  67.320  1.00  0.00    -0.138 C  
HETATM    9  C   UNL     1      -9.826  11.127  65.764  1.00  0.00    -0.279 C  
HETATM   10  C   UNL     1      -7.274  11.846  68.729  1.00  0.00    -0.112 C  
HETATM   11  C   UNL     1      -7.707  10.713  69.648  1.00  0.00    -0.080 C  
HETATM   12  C   UNL     1      -8.052   9.488  68.751  1.00  0.00    -0.096 C  
HETATM   13  C   UNL     1      -7.755   8.191  69.503  1.00  0.00    -0.102 C  
HETATM   14  C   UNL     1      -7.196   7.111  68.615  1.00  0.00    -0.094 C  
HETATM   15  C   UNL     1      -7.987   8.031  70.825  1.00  0.00    -0.099 C  
HETATM   16  C   UNL     1      -7.640   9.221  66.014  1.00  0.00    -0.096 C  
HETATM   17  C   UNL     1      -6.048   7.621  67.721  1.00  0.00    -0.045 C  
HETATM   18  C   UNL     1      -7.298   9.810  67.398  1.00  0.00    -0.090 C  
HETATM   19  C   UNL     1      -5.891   9.189  67.656  1.00  0.00    -0.046 C  
BRANCH  15  20
HETATM   20  C   UNL     1      -8.125   6.734  71.465  1.00  0.00    -0.110 C  
HETATM   21  C   UNL     1      -9.179   5.919  71.646  1.00  0.00    -0.156 C  
HETATM   22  C   UNL     1      -8.901   4.523  72.189  1.00  0.00    -0.135 C  
HETATM   23  C   UNL     1      -9.752   4.186  73.412  1.00  0.00    -0.117 C  
HETATM   24  C   UNL     1     -11.235   4.386  73.115  1.00  0.00    -0.309 C  
HETATM   25  O   UNL     1      -9.358   4.971  74.538  1.00  0.00    -0.119 OA 
HETATM   26  C   UNL     1     -11.523   5.786  72.564  1.00  0.00    -0.349 C  
HETATM   27  H   UNL     1      -9.887   4.761  75.298  1.00  0.00     0.000 HD 
HETATM   28  C   UNL     1     -10.602   6.161  71.415  1.00  0.00    -0.294 C  
HETATM   29  C   UNL     1     -11.099   6.610  70.242  1.00  0.00    -0.379 C  
ENDBRANCH  15  20
ENDBRANCH   5   6
ENDBRANCH   4   5
TORSDOF 3
ENDMDL
MODEL      140
REMARK 921   NORMALIZED FREE ENERGY PREDICTED BY IDOCK:   -3.03 KCAL/MOL
REMARK 922        TOTAL FREE ENERGY PREDICTED BY IDOCK:   -4.37 KCAL/MOL
REMARK 923 INTER-LIGAND FREE ENERGY PREDICTED BY IDOCK:   -4.55 KCAL/MOL
REMARK 924 INTRA-LIGAND FREE ENERGY PREDICTED BY IDOCK:    0.18 KCAL/MOL
REMARK 927      BINDING AFFINITY PREDICTED BY RF-SCORE:    0.00 PKD
ROOT
HETATM    1  C   UNL     1      -8.103   4.103  66.286  1.00  0.00    -0.098 C  
HETATM    2  C   UNL     1      -9.096   4.197  65.129  1.00  0.00    -0.142 C  
HETATM    3  C   UNL     1      -9.026   2.919  64.287  1.00  0.00    -0.111 C  
HETATM    4  C   UNL     1     -10.545   4.406  65.605  1.00  0.00    -0.179 C  
ENDROOT
BRANCH   4   5
HETATM    5  C   UNL     1     -10.785   5.719  66.352  1.00  0.00    -0.193 C  
BRANCH   5   6
HETATM    6  C   UNL     1      -9.461   6.495  66.542  1.00  0.00    -0.190 C  
HETATM    7  C   UNL     1      -9.607   7.828  67.331  1.00  0.00    -0.192 C  
HETATM    8  C   UNL     1      -8.219   8.691  67.385  1.00  0.00    -0.105 C  
HETATM    9  C   UNL     1     -10.263   7.499  68.684  1.00  0.00    -0.210 C  
HETATM   10  C   UNL     1      -7.870   9.143  65.965  1.00  0.00    -0.102 C  
HETATM   11  C   UNL     1      -8.648  10.436  65.766  1.00  0.00    -0.172 C  
HETATM   12  C   UNL     1      -9.211  10.862  67.154  1.00  0.00    -0.159 C  
HETATM   13  C   UNL     1      -9.312  12.385  67.230  1.00  0.00    -0.184 C  
HETATM   14  C   UNL     1      -8.967  12.929  68.592  1.00  0.00     0.048 C  
HETATM   15  C   UNL     1      -9.686  13.157  66.186  1.00  0.00    -0.254 C  
HETATM   16  C   UNL     1      -8.651   9.730  69.631  1.00  0.00    -0.201 C  
HETATM   17  C   UNL     1      -7.658  12.335  69.148  1.00  0.00     0.200 C  
HETATM   18  C   UNL     1      -8.289  10.076  68.172  1.00  0.00    -0.113 C  
HETATM   19  C   UNL     1      -7.109  11.074  68.377  1.00  0.00    -0.074 C  
BRANCH  15  20
HETATM   20  C   UNL     1     -10.197  14.509  66.330  1.00  0.00    -0.306 C  
HETATM   21  C   UNL     1      -9.643  15.644  66.790  1.00  0.00    -0.257 C  
HETATM   22  C   UNL     1     -10.428  16.936  66.596  1.00  0.00    -0.257 C  
HETATM   23  C   UNL     1     -10.599  17.722  67.896  1.00  0.00    -0.382 C  
HETATM   24  C   UNL     1      -9.249  17.980  68.558  1.00  0.00    -0.296 C  
HETATM   25  O   UNL     1     -11.473  17.035  68.793  1.00  0.00    -0.111 OA 
HETATM   26  C   UNL     1      -8.452  16.686  68.751  1.00  0.00    -0.255 C  
HETATM   27  H   UNL     1     -11.580  17.523  69.601  1.00  0.00     0.000 HD 
HETATM   28  C   UNL     1      -8.373  15.854  67.483  1.00  0.00    -0.180 C  
HETATM   29  C   UNL     1      -7.186  15.419  67.007  1.00  0.00    -0.072 C  
ENDBRANCH  15  20
ENDBRANCH   5   6
ENDBRANCH   4   5
TORSDOF 3
ENDMDL
MODEL      141
REMARK 921   NORMALIZED FREE ENERGY PREDICTED BY IDOCK:   -2.85 KCAL/MOL
REMARK 922        TOTAL FREE ENERGY PREDICTED BY IDOCK:   -4.16 KCAL/MOL
REMARK 923 INTER-LIGAND FREE ENERGY PREDICTED BY IDOCK:   -4.39 KCAL/MOL
REMARK 924 INTRA-LIGAND FREE ENERGY PREDICTED BY IDOCK:    0.24 KCAL/MOL
REMARK 927      BINDING AFFINITY PREDICTED BY RF-SCORE:    0.00 PKD
ROOT
HETATM    1  C   UNL     1     -11.062  13.707  65.561  1.00  0.00    -0.301 C  
HETATM    2  C   UNL     1     -11.560  12.944  64.335  1.00  0.00    -0.415 C  
HETATM    3  C   UNL     1     -12.414  13.870  63.464  1.00  0.00     0.051 C  
HETATM    4  C   UNL     1     -10.411  12.374  63.483  1.00  0.00    -0.397 C  
ENDROOT
BRANCH   4   5
HETATM    5  C   UNL     1      -9.551  11.328  64.194  1.00  0.00    -0.255 C  
BRANCH   5   6
HETATM    6  C   UNL     1      -9.113  11.832  65.589  1.00  0.00    -0.034 C  
HETATM    7  C   UNL     1      -8.214  10.836  66.377  1.00  0.00    -0.155 C  
HETATM    8  C   UNL     1      -7.892  11.336  67.900  1.00  0.00    -0.116 C  
HETATM    9  C   UNL     1      -6.998  10.506  65.493  1.00  0.00    -0.100 C  
HETATM   10  C   UNL     1      -9.201  11.354  68.695  1.00  0.00    -0.149 C  
HETATM   11  C   UNL     1      -9.362   9.931  69.212  1.00  0.00    -0.215 C  
HETATM   12  C   UNL     1      -8.021   9.184  68.952  1.00  0.00    -0.099 C  
HETATM   13  C   UNL     1      -7.799   8.122  70.027  1.00  0.00    -0.103 C  
HETATM   14  C   UNL     1      -6.355   7.992  70.436  1.00  0.00    -0.036 C  
HETATM   15  C   UNL     1      -8.797   7.370  70.544  1.00  0.00    -0.148 C  
HETATM   16  C   UNL     1      -5.624  10.266  68.048  1.00  0.00    -0.037 C  
HETATM   17  C   UNL     1      -5.701   9.357  70.727  1.00  0.00    -0.053 C  
HETATM   18  C   UNL     1      -6.981  10.364  68.775  1.00  0.00    -0.068 C  
HETATM   19  C   UNL     1      -6.524  10.614  70.245  1.00  0.00    -0.138 C  
BRANCH  15  20
HETATM   20  C   UNL     1      -8.579   6.102  71.220  1.00  0.00    -0.129 C  
HETATM   21  C   UNL     1      -9.370   5.339  71.994  1.00  0.00    -0.159 C  
HETATM   22  C   UNL     1      -8.859   3.953  72.365  1.00  0.00    -0.123 C  
HETATM   23  C   UNL     1      -8.899   3.693  73.871  1.00  0.00    -0.088 C  
HETATM   24  C   UNL     1     -10.296   3.944  74.430  1.00  0.00    -0.267 C  
HETATM   25  O   UNL     1      -7.936   4.500  74.551  1.00  0.00    -0.087 OA 
HETATM   26  C   UNL     1     -10.819   5.335  74.056  1.00  0.00    -0.200 C  
HETATM   27  H   UNL     1      -7.961   4.339  75.487  1.00  0.00     0.000 HD 
HETATM   28  C   UNL     1     -10.680   5.632  72.573  1.00  0.00    -0.285 C  
HETATM   29  C   UNL     1     -11.735   6.059  71.846  1.00  0.00    -0.287 C  
ENDBRANCH  15  20
ENDBRANCH   5   6
ENDBRANCH   4   5
TORSDOF 3
ENDMDL
MODEL      142
REMARK 921   NORMALIZED FREE ENERGY PREDICTED BY IDOCK:   -2.79 KCAL/MOL
REMARK 922        TOTAL FREE ENERGY PREDICTED BY IDOCK:   -4.09 KCAL/MOL
REMARK 923 INTER-LIGAND FREE ENERGY PREDICTED BY IDOCK:   -3.37 KCAL/MOL
REMARK 924 INTRA-LIGAND FREE ENERGY PREDICTED BY IDOCK:   -0.72 KCAL/MOL
REMARK 927      BINDING AFFINITY PREDICTED BY RF-SCORE:    0.00 PKD
ROOT
HETATM    1  C   UNL     1      -7.816   1.769  63.380  1.00  0.00    -0.060 C  
HETATM    2  C   UNL     1      -7.240   3.033  64.016  1.00  0.00    -0.057 C  
HETATM    3  C   UNL     1      -6.960   4.075  62.928  1.00  0.00    -0.039 C  
HETATM    4  C   UNL     1      -8.179   3.649  65.069  1.00  0.00    -0.097 C  
ENDROOT
BRANCH   4   5
HETATM    5  C   UNL     1      -8.440   2.759  66.285  1.00  0.00    -0.103 C  
BRANCH   5   6
HETATM    6  C   UNL     1      -7.739   3.325  67.542  1.00  0.00    -0.076 C  
HETATM    7  C   UNL     1      -8.436   4.573  68.158  1.00  0.00    -0.099 C  
HETATM    8  C   UNL     1      -7.590   5.230  69.393  1.00  0.00    -0.069 C  
HETATM    9  C   UNL     1      -9.897   4.192  68.455  1.00  0.00    -0.085 C  
HETATM   10  C   UNL     1      -6.272   5.782  68.843  1.00  0.00    -0.029 C  
HETATM   11  C   UNL     1      -6.612   7.182  68.350  1.00  0.00    -0.048 C  
HETATM   12  C   UNL     1      -8.038   7.527  68.870  1.00  0.00    -0.127 C  
HETATM   13  C   UNL     1      -8.157   9.033  69.104  1.00  0.00    -0.109 C  
HETATM   14  C   UNL     1      -8.984   9.375  70.315  1.00  0.00    -0.277 C  
HETATM   15  C   UNL     1      -7.589   9.956  68.296  1.00  0.00    -0.080 C  
HETATM   16  C   UNL     1      -9.592   6.070  70.657  1.00  0.00    -0.201 C  
HETATM   17  C   UNL     1      -8.578   8.555  71.556  1.00  0.00    -0.236 C  
HETATM   18  C   UNL     1      -8.236   6.519  70.073  1.00  0.00    -0.130 C  
HETATM   19  C   UNL     1      -7.638   7.321  71.269  1.00  0.00    -0.083 C  
BRANCH  15  20
HETATM   20  C   UNL     1      -8.022  11.341  68.232  1.00  0.00    -0.134 C  
HETATM   21  C   UNL     1      -7.404  12.468  67.839  1.00  0.00    -0.115 C  
HETATM   22  C   UNL     1      -8.252  13.727  67.716  1.00  0.00    -0.174 C  
HETATM   23  C   UNL     1      -7.667  14.911  68.484  1.00  0.00    -0.123 C  
HETATM   24  C   UNL     1      -6.221  15.167  68.070  1.00  0.00    -0.159 C  
HETATM   25  O   UNL     1      -7.752  14.694  69.894  1.00  0.00    -0.402 OA 
HETATM   26  C   UNL     1      -5.362  13.904  68.187  1.00  0.00    -0.119 C  
HETATM   27  H   UNL     1      -7.388  15.430  70.372  1.00  0.00     0.000 HD 
HETATM   28  C   UNL     1      -5.998  12.701  67.513  1.00  0.00    -0.151 C  
HETATM   29  C   UNL     1      -5.311  11.962  66.613  1.00  0.00     0.012 C  
ENDBRANCH  15  20
ENDBRANCH   5   6
ENDBRANCH   4   5
TORSDOF 3
ENDMDL
MODEL      143
REMARK 921   NORMALIZED FREE ENERGY PREDICTED BY IDOCK:   -2.73 KCAL/MOL
REMARK 922        TOTAL FREE ENERGY PREDICTED BY IDOCK:   -4.02 KCAL/MOL
REMARK 923 INTER-LIGAND FREE ENERGY PREDICTED BY IDOCK:   -3.02 KCAL/MOL
REMARK 924 INTRA-LIGAND FREE ENERGY PREDICTED BY IDOCK:   -1.00 KCAL/MOL
REMARK 927      BINDING AFFINITY PREDICTED BY RF-SCORE:    0.00 PKD
ROOT
HETATM    1  C   UNL     1      -9.868   3.778  66.104  1.00  0.00    -0.078 C  
HETATM    2  C   UNL     1      -9.443   3.485  64.666  1.00  0.00    -0.156 C  
HETATM    3  C   UNL     1     -10.606   3.784  63.715  1.00  0.00    -0.267 C  
HETATM    4  C   UNL     1      -8.215   4.307  64.231  1.00  0.00    -0.098 C  
ENDROOT
BRANCH   4   5
HETATM    5  C   UNL     1      -6.939   4.008  65.018  1.00  0.00    -0.058 C  
BRANCH   5   6
HETATM    6  C   UNL     1      -6.290   5.315  65.531  1.00  0.00    -0.035 C  
HETATM    7  C   UNL     1      -6.824   5.798  66.911  1.00  0.00    -0.063 C  
HETATM    8  C   UNL     1      -6.225   7.253  67.351  1.00  0.00    -0.050 C  
HETATM    9  C   UNL     1      -6.632   4.646  67.913  1.00  0.00    -0.046 C  
HETATM   10  C   UNL     1      -6.739   8.311  66.370  1.00  0.00    -0.062 C  
HETATM   11  C   UNL     1      -8.098   8.721  66.918  1.00  0.00    -0.101 C  
HETATM   12  C   UNL     1      -8.231   8.112  68.345  1.00  0.00    -0.129 C  
HETATM   13  C   UNL     1      -9.102   9.015  69.218  1.00  0.00    -0.145 C  
HETATM   14  C   UNL     1      -8.625   9.088  70.645  1.00  0.00    -0.245 C  
HETATM   15  C   UNL     1     -10.193   9.666  68.756  1.00  0.00    -0.213 C  
HETATM   16  C   UNL     1      -6.269   6.811  69.824  1.00  0.00    -0.037 C  
HETATM   17  C   UNL     1      -7.109   9.351  70.746  1.00  0.00    -0.119 C  
HETATM   18  C   UNL     1      -6.730   7.821  68.753  1.00  0.00    -0.054 C  
HETATM   19  C   UNL     1      -6.304   9.173  69.401  1.00  0.00    -0.044 C  
BRANCH  15  20
HETATM   20  C   UNL     1     -11.254  10.162  69.615  1.00  0.00    -0.310 C  
HETATM   21  C   UNL     1     -11.963  11.305  69.613  1.00  0.00    -0.423 C  
HETATM   22  C   UNL     1     -13.154  11.392  70.558  1.00  0.00     0.153 C  
HETATM   23  C   UNL     1     -13.116  12.638  71.442  1.00  0.00    -0.216 C  
HETATM   24  C   UNL     1     -12.977  13.901  70.597  1.00  0.00    -0.219 C  
HETATM   25  O   UNL     1     -12.053  12.553  72.393  1.00  0.00     1.166 OA 
HETATM   26  C   UNL     1     -11.783  13.819  69.640  1.00  0.00    -0.379 C  
HETATM   27  H   UNL     1     -12.029  13.328  72.943  1.00  0.00     0.000 HD 
HETATM   28  C   UNL     1     -11.766  12.529  68.839  1.00  0.00    -0.367 C  
HETATM   29  C   UNL     1     -11.657  12.547  67.492  1.00  0.00    -0.424 C  
ENDBRANCH  15  20
ENDBRANCH   5   6
ENDBRANCH   4   5
TORSDOF 3
ENDMDL
MODEL      144
REMARK 921   NORMALIZED FREE ENERGY PREDICTED BY IDOCK:   -2.71 KCAL/MOL
REMARK 922        TOTAL FREE ENERGY PREDICTED BY IDOCK:   -3.99 KCAL/MOL
REMARK 923 INTER-LIGAND FREE ENERGY PREDICTED BY IDOCK:   -3.64 KCAL/MOL
REMARK 924 INTRA-LIGAND FREE ENERGY PREDICTED BY IDOCK:   -0.35 KCAL/MOL
REMARK 927      BINDING AFFINITY PREDICTED BY RF-SCORE:    0.00 PKD
ROOT
HETATM    1  C   UNL     1      -8.445  17.061  68.427  1.00  0.00    -0.239 C  
HETATM    2  C   UNL     1      -9.208  15.924  67.747  1.00  0.00    -0.201 C  
HETATM    3  C   UNL     1     -10.321  16.505  66.870  1.00  0.00    -0.300 C  
HETATM    4  C   UNL     1      -8.298  15.035  66.879  1.00  0.00    -0.247 C  
ENDROOT
BRANCH   4   5
HETATM    5  C   UNL     1      -7.215  14.286  67.654  1.00  0.00    -0.200 C  
BRANCH   5   6
HETATM    6  C   UNL     1      -6.921  12.914  67.004  1.00  0.00     0.220 C  
HETATM    7  C   UNL     1      -7.820  11.753  67.521  1.00  0.00    -0.148 C  
HETATM    8  C   UNL     1      -7.386  10.295  66.922  1.00  0.00    -0.097 C  
HETATM    9  C   UNL     1      -9.287  12.171  67.310  1.00  0.00    -0.183 C  
HETATM   10  C   UNL     1      -5.994   9.944  67.454  1.00  0.00    -0.054 C  
HETATM   11  C   UNL     1      -6.248   9.295  68.808  1.00  0.00    -0.044 C  
HETATM   12  C   UNL     1      -7.777   9.026  68.918  1.00  0.00    -0.094 C  
HETATM   13  C   UNL     1      -8.028   7.789  69.780  1.00  0.00    -0.115 C  
HETATM   14  C   UNL     1      -9.176   6.950  69.284  1.00  0.00    -0.139 C  
HETATM   15  C   UNL     1      -7.301   7.492  70.880  1.00  0.00    -0.068 C  
HETATM   16  C   UNL     1      -9.698   9.315  66.929  1.00  0.00    -0.248 C  
HETATM   17  C   UNL     1      -9.095   6.680  67.768  1.00  0.00    -0.113 C  
HETATM   18  C   UNL     1      -8.256   9.053  67.410  1.00  0.00    -0.108 C  
HETATM   19  C   UNL     1      -8.055   7.567  66.981  1.00  0.00    -0.117 C  
BRANCH  15  20
HETATM   20  C   UNL     1      -7.763   6.603  71.932  1.00  0.00    -0.097 C  
HETATM   21  C   UNL     1      -8.009   5.281  71.960  1.00  0.00    -0.113 C  
HETATM   22  C   UNL     1      -8.291   4.649  73.317  1.00  0.00    -0.103 C  
HETATM   23  C   UNL     1      -9.583   3.834  73.331  1.00  0.00    -0.107 C  
HETATM   24  C   UNL     1      -9.581   2.792  72.217  1.00  0.00    -0.198 C  
HETATM   25  O   UNL     1     -10.723   4.687  73.215  1.00  0.00    -0.197 OA 
HETATM   26  C   UNL     1      -9.293   3.419  70.849  1.00  0.00    -0.219 C  
HETATM   27  H   UNL     1     -11.527   4.181  73.224  1.00  0.00     0.000 HD 
HETATM   28  C   UNL     1      -8.067   4.315  70.864  1.00  0.00    -0.071 C  
HETATM   29  C   UNL     1      -7.074   4.153  69.962  1.00  0.00    -0.042 C  
ENDBRANCH  15  20
ENDBRANCH   5   6
ENDBRANCH   4   5
TORSDOF 3
ENDMDL
MODEL      145
REMARK 921   NORMALIZED FREE ENERGY PREDICTED BY IDOCK:   -2.63 KCAL/MOL
REMARK 922        TOTAL FREE ENERGY PREDICTED BY IDOCK:   -3.91 KCAL/MOL
REMARK 923 INTER-LIGAND FREE ENERGY PREDICTED BY IDOCK:   -3.10 KCAL/MOL
REMARK 924 INTRA-LIGAND FREE ENERGY PREDICTED BY IDOCK:   -0.81 KCAL/MOL
REMARK 927      BINDING AFFINITY PREDICTED BY RF-SCORE:    0.00 PKD
ROOT
HETATM    1  C   UNL     1     -12.293  12.348  65.237  1.00  0.00    -0.357 C  
HETATM    2  C   UNL     1     -11.616  12.282  63.868  1.00  0.00    -0.525 C  
HETATM    3  C   UNL     1     -12.009  13.510  63.040  1.00  0.00     0.320 C  
HETATM    4  C   UNL     1     -10.080  12.217  63.969  1.00  0.00    -0.357 C  
ENDROOT
BRANCH   4   5
HETATM    5  C   UNL     1      -9.542  10.965  64.662  1.00  0.00    -0.305 C  
BRANCH   5   6
HETATM    6  C   UNL     1      -9.067  11.292  66.097  1.00  0.00    -0.216 C  
HETATM    7  C   UNL     1      -8.126  10.220  66.721  1.00  0.00    -0.121 C  
HETATM    8  C   UNL     1      -7.763  10.524  68.286  1.00  0.00    -0.101 C  
HETATM    9  C   UNL     1      -6.934  10.034  65.765  1.00  0.00    -0.112 C  
HETATM   10  C   UNL     1      -9.046  10.412  69.115  1.00  0.00    -0.197 C  
HETATM   11  C   UNL     1      -9.165   8.931  69.447  1.00  0.00    -0.146 C  
HETATM   12  C   UNL     1      -7.821   8.252  69.051  1.00  0.00    -0.103 C  
HETATM   13  C   UNL     1      -7.547   7.063  69.971  1.00  0.00    -0.099 C  
HETATM   14  C   UNL     1      -6.088   6.912  70.315  1.00  0.00    -0.024 C  
HETATM   15  C   UNL     1      -8.514   6.230  70.415  1.00  0.00    -0.134 C  
HETATM   16  C   UNL     1      -5.474   9.492  68.224  1.00  0.00    -0.037 C  
HETATM   17  C   UNL     1      -5.448   8.241  70.762  1.00  0.00    -0.028 C  
HETATM   18  C   UNL     1      -6.807   9.466  68.999  1.00  0.00    -0.054 C  
HETATM   19  C   UNL     1      -6.307   9.532  70.474  1.00  0.00    -0.080 C  
BRANCH  15  20
HETATM   20  C   UNL     1      -8.253   4.890  70.912  1.00  0.00    -0.095 C  
HETATM   21  C   UNL     1      -7.675   4.437  72.038  1.00  0.00    -0.081 C  
HETATM   22  C   UNL     1      -7.761   2.942  72.317  1.00  0.00    -0.054 C  
HETATM   23  C   UNL     1      -6.397   2.316  72.604  1.00  0.00    -0.010 C  
HETATM   24  C   UNL     1      -5.684   3.057  73.731  1.00  0.00     0.000 C  
HETATM   25  O   UNL     1      -5.588   2.300  71.426  1.00  0.00    -0.008 OA 
HETATM   26  C   UNL     1      -5.597   4.562  73.460  1.00  0.00    -0.009 C  
HETATM   27  H   UNL     1      -4.740   1.911  71.604  1.00  0.00     0.000 HD 
HETATM   28  C   UNL     1      -6.937   5.162  73.071  1.00  0.00    -0.079 C  
HETATM   29  C   UNL     1      -7.427   6.248  73.711  1.00  0.00    -0.090 C  
ENDBRANCH  15  20
ENDBRANCH   5   6
ENDBRANCH   4   5
TORSDOF 3
ENDMDL
MODEL      146
REMARK 921   NORMALIZED FREE ENERGY PREDICTED BY IDOCK:   -2.62 KCAL/MOL
REMARK 922        TOTAL FREE ENERGY PREDICTED BY IDOCK:   -3.90 KCAL/MOL
REMARK 923 INTER-LIGAND FREE ENERGY PREDICTED BY IDOCK:   -3.06 KCAL/MOL
REMARK 924 INTRA-LIGAND FREE ENERGY PREDICTED BY IDOCK:   -0.84 KCAL/MOL
REMARK 927      BINDING AFFINITY PREDICTED BY RF-SCORE:    0.00 PKD
ROOT
HETATM    1  C   UNL     1     -12.735  12.288  64.632  1.00  0.00    -0.275 C  
HETATM    2  C   UNL     1     -11.543  12.496  65.566  1.00  0.00    -0.429 C  
HETATM    3  C   UNL     1     -11.961  12.192  67.008  1.00  0.00    -0.156 C  
HETATM    4  C   UNL     1     -10.338  11.611  65.196  1.00  0.00    -0.326 C  
ENDROOT
BRANCH   4   5
HETATM    5  C   UNL     1      -9.734  11.903  63.822  1.00  0.00    -0.233 C  
BRANCH   5   6
HETATM    6  C   UNL     1      -8.360  11.209  63.666  1.00  0.00     0.365 C  
HETATM    7  C   UNL     1      -8.422   9.654  63.674  1.00  0.00    -0.189 C  
HETATM    8  C   UNL     1      -6.944   8.957  63.655  1.00  0.00    -0.088 C  
HETATM    9  C   UNL     1      -9.398   9.221  62.565  1.00  0.00     0.252 C  
HETATM   10  C   UNL     1      -6.225   9.301  64.964  1.00  0.00    -0.066 C  
HETATM   11  C   UNL     1      -6.694   8.244  65.954  1.00  0.00    -0.053 C  
HETATM   12  C   UNL     1      -7.449   7.148  65.146  1.00  0.00    -0.094 C  
HETATM   13  C   UNL     1      -7.284   5.791  65.828  1.00  0.00    -0.075 C  
HETATM   14  C   UNL     1      -7.140   4.655  64.850  1.00  0.00    -0.062 C  
HETATM   15  C   UNL     1      -7.281   5.631  67.171  1.00  0.00    -0.075 C  
HETATM   16  C   UNL     1      -7.642   6.907  62.383  1.00  0.00    -0.098 C  
HETATM   17  C   UNL     1      -6.109   4.957  63.744  1.00  0.00    -0.022 C  
HETATM   18  C   UNL     1      -6.923   7.363  63.669  1.00  0.00    -0.059 C  
HETATM   19  C   UNL     1      -5.650   6.463  63.645  1.00  0.00    -0.022 C  
BRANCH  15  20
HETATM   20  C   UNL     1      -7.555   4.364  67.828  1.00  0.00    -0.077 C  
HETATM   21  C   UNL     1      -8.512   3.977  68.689  1.00  0.00    -0.102 C  
HETATM   22  C   UNL     1      -8.603   2.491  69.013  1.00  0.00    -0.115 C  
HETATM   23  C   UNL     1      -8.596   2.214  70.516  1.00  0.00    -0.053 C  
HETATM   24  C   UNL     1      -9.690   3.010  71.221  1.00  0.00    -0.208 C  
HETATM   25  O   UNL     1      -7.318   2.510  71.081  1.00  0.00    -0.033 OA 
HETATM   26  C   UNL     1      -9.608   4.505  70.897  1.00  0.00    -0.250 C  
HETATM   27  H   UNL     1      -7.314   2.338  72.015  1.00  0.00     0.000 HD 
HETATM   28  C   UNL     1      -9.507   4.773  69.405  1.00  0.00    -0.229 C  
HETATM   29  C   UNL     1     -10.349   5.635  68.794  1.00  0.00    -0.288 C  
ENDBRANCH  15  20
ENDBRANCH   5   6
ENDBRANCH   4   5
TORSDOF 3
ENDMDL
MODEL      147
REMARK 921   NORMALIZED FREE ENERGY PREDICTED BY IDOCK:   -2.55 KCAL/MOL
REMARK 922        TOTAL FREE ENERGY PREDICTED BY IDOCK:   -3.81 KCAL/MOL
REMARK 923 INTER-LIGAND FREE ENERGY PREDICTED BY IDOCK:   -3.21 KCAL/MOL
REMARK 924 INTRA-LIGAND FREE ENERGY PREDICTED BY IDOCK:   -0.60 KCAL/MOL
REMARK 927      BINDING AFFINITY PREDICTED BY RF-SCORE:    0.00 PKD
ROOT
HETATM    1  C   UNL     1      -6.981  19.278  68.388  1.00  0.00    -0.316 C  
HETATM    2  C   UNL     1      -8.228  19.168  67.513  1.00  0.00    -0.310 C  
HETATM    3  C   UNL     1      -8.219  20.283  66.462  1.00  0.00    -0.260 C  
HETATM    4  C   UNL     1      -8.334  17.808  66.799  1.00  0.00    -0.271 C  
ENDROOT
BRANCH   4   5
HETATM    5  C   UNL     1      -8.484  16.609  67.736  1.00  0.00    -0.191 C  
BRANCH   5   6
HETATM    6  C   UNL     1      -8.675  15.302  66.932  1.00  0.00    -0.288 C  
HETATM    7  C   UNL     1      -9.437  14.182  67.699  1.00  0.00    -0.213 C  
HETATM    8  C   UNL     1      -9.492  12.771  66.877  1.00  0.00    -0.235 C  
HETATM    9  C   UNL     1     -10.789  14.765  68.152  1.00  0.00    -0.256 C  
HETATM   10  C   UNL     1      -8.068  12.223  66.752  1.00  0.00    -0.025 C  
HETATM   11  C   UNL     1      -7.835  11.446  68.041  1.00  0.00    -0.121 C  
HETATM   12  C   UNL     1      -9.208  11.318  68.764  1.00  0.00    -0.133 C  
HETATM   13  C   UNL     1      -9.255  10.018  69.566  1.00  0.00    -0.238 C  
HETATM   14  C   UNL     1     -10.610   9.361  69.542  1.00  0.00    -0.237 C  
HETATM   15  C   UNL     1      -8.191   9.522  70.238  1.00  0.00    -0.209 C  
HETATM   16  C   UNL     1     -11.713  12.029  67.788  1.00  0.00    -0.379 C  
HETATM   17  C   UNL     1     -11.193   9.267  68.118  1.00  0.00     0.218 C  
HETATM   18  C   UNL     1     -10.252  11.570  67.602  1.00  0.00    -0.205 C  
HETATM   19  C   UNL     1     -10.452  10.134  67.029  1.00  0.00    -0.302 C  
BRANCH  15  20
HETATM   20  C   UNL     1      -8.304   8.564  71.324  1.00  0.00    -0.193 C  
HETATM   21  C   UNL     1      -7.599   8.388  72.455  1.00  0.00    -0.134 C  
HETATM   22  C   UNL     1      -8.143   7.392  73.472  1.00  0.00    -0.152 C  
HETATM   23  C   UNL     1      -7.104   6.355  73.896  1.00  0.00    -0.082 C  
HETATM   24  C   UNL     1      -5.833   7.032  74.399  1.00  0.00    -0.070 C  
HETATM   25  O   UNL     1      -6.805   5.466  72.818  1.00  0.00    -0.072 OA 
HETATM   26  C   UNL     1      -5.282   8.038  73.384  1.00  0.00    -0.041 C  
HETATM   27  H   UNL     1      -6.159   4.822  73.082  1.00  0.00     0.000 HD 
HETATM   28  C   UNL     1      -6.343   9.002  72.883  1.00  0.00     0.119 C  
HETATM   29  C   UNL     1      -6.144  10.338  72.919  1.00  0.00     1.379 C  
ENDBRANCH  15  20
ENDBRANCH   5   6
ENDBRANCH   4   5
TORSDOF 3
ENDMDL
MODEL      148
REMARK 921   NORMALIZED FREE ENERGY PREDICTED BY IDOCK:   -2.50 KCAL/MOL
REMARK 922        TOTAL FREE ENERGY PREDICTED BY IDOCK:   -3.76 KCAL/MOL
REMARK 923 INTER-LIGAND FREE ENERGY PREDICTED BY IDOCK:   -2.66 KCAL/MOL
REMARK 924 INTRA-LIGAND FREE ENERGY PREDICTED BY IDOCK:   -1.09 KCAL/MOL
REMARK 927      BINDING AFFINITY PREDICTED BY RF-SCORE:    0.00 PKD
ROOT
HETATM    1  C   UNL     1      -7.131  16.034  69.496  1.00  0.00    -0.181 C  
HETATM    2  C   UNL     1      -6.708  16.000  68.028  1.00  0.00    -0.140 C  
HETATM    3  C   UNL     1      -6.615  17.430  67.486  1.00  0.00    -0.162 C  
HETATM    4  C   UNL     1      -5.356  15.294  67.816  1.00  0.00    -0.087 C  
ENDROOT
BRANCH   4   5
HETATM    5  C   UNL     1      -5.345  13.813  68.195  1.00  0.00    -0.114 C  
BRANCH   5   6
HETATM    6  C   UNL     1      -6.215  12.988  67.218  1.00  0.00     0.052 C  
HETATM    7  C   UNL     1      -7.159  11.962  67.910  1.00  0.00    -0.093 C  
HETATM    8  C   UNL     1      -7.953  11.009  66.845  1.00  0.00    -0.143 C  
HETATM    9  C   UNL     1      -8.029  12.735  68.918  1.00  0.00     0.182 C  
HETATM   10  C   UNL     1      -6.930  10.132  66.118  1.00  0.00    -0.113 C  
HETATM   11  C   UNL     1      -6.735   8.927  67.027  1.00  0.00    -0.069 C  
HETATM   12  C   UNL     1      -7.841   8.982  68.121  1.00  0.00    -0.100 C  
HETATM   13  C   UNL     1      -8.212   7.565  68.559  1.00  0.00    -0.125 C  
HETATM   14  C   UNL     1      -9.682   7.403  68.841  1.00  0.00    -0.150 C  
HETATM   15  C   UNL     1      -7.307   6.569  68.691  1.00  0.00    -0.087 C  
HETATM   16  C   UNL     1     -10.013  10.713  68.252  1.00  0.00    -0.173 C  
HETATM   17  C   UNL     1     -10.564   7.989  67.720  1.00  0.00    -0.239 C  
HETATM   18  C   UNL     1      -8.937   9.925  67.477  1.00  0.00    -0.141 C  
HETATM   19  C   UNL     1      -9.812   8.909  66.683  1.00  0.00    -0.332 C  
BRANCH  15  20
HETATM   20  C   UNL     1      -7.536   5.378  69.491  1.00  0.00    -0.070 C  
HETATM   21  C   UNL     1      -7.439   5.138  70.810  1.00  0.00    -0.074 C  
HETATM   22  C   UNL     1      -7.963   3.802  71.320  1.00  0.00    -0.064 C  
HETATM   23  C   UNL     1      -6.937   3.049  72.164  1.00  0.00    -0.033 C  
HETATM   24  C   UNL     1      -6.424   3.922  73.305  1.00  0.00    -0.036 C  
HETATM   25  O   UNL     1      -5.850   2.594  71.356  1.00  0.00    -0.012 OA 
HETATM   26  C   UNL     1      -5.899   5.270  72.801  1.00  0.00    -0.023 C  
HETATM   27  H   UNL     1      -5.212   2.125  71.881  1.00  0.00     0.000 HD 
HETATM   28  C   UNL     1      -6.879   5.968  71.875  1.00  0.00    -0.069 C  
HETATM   29  C   UNL     1      -7.253   7.248  72.094  1.00  0.00    -0.068 C  
ENDBRANCH  15  20
ENDBRANCH   5   6
ENDBRANCH   4   5
TORSDOF 3
ENDMDL
MODEL      149
REMARK 921   NORMALIZED FREE ENERGY PREDICTED BY IDOCK:   -2.49 KCAL/MOL
REMARK 922        TOTAL FREE ENERGY PREDICTED BY IDOCK:   -3.74 KCAL/MOL
REMARK 923 INTER-LIGAND FREE ENERGY PREDICTED BY IDOCK:   -4.97 KCAL/MOL
REMARK 924 INTRA-LIGAND FREE ENERGY PREDICTED BY IDOCK:    1.23 KCAL/MOL
REMARK 927      BINDING AFFINITY PREDICTED BY RF-SCORE:    0.00 PKD
ROOT
HETATM    1  C   UNL     1      -7.100   7.339  68.879  1.00  0.00    -0.084 C  
HETATM    2  C   UNL     1      -8.479   6.703  69.044  1.00  0.00    -0.130 C  
HETATM    3  C   UNL     1      -8.409   5.219  68.668  1.00  0.00    -0.089 C  
HETATM    4  C   UNL     1      -9.025   6.831  70.478  1.00  0.00    -0.152 C  
ENDROOT
BRANCH   4   5
HETATM    5  C   UNL     1      -9.269   8.269  70.938  1.00  0.00    -0.182 C  
BRANCH   5   6
HETATM    6  C   UNL     1     -10.181   9.019  69.939  1.00  0.00    -0.214 C  
HETATM    7  C   UNL     1      -9.472  10.166  69.161  1.00  0.00    -0.215 C  
HETATM    8  C   UNL     1     -10.498  11.030  68.226  1.00  0.00    -0.212 C  
HETATM    9  C   UNL     1      -8.246   9.562  68.455  1.00  0.00    -0.113 C  
HETATM   10  C   UNL     1     -11.488  11.763  69.135  1.00  0.00    -0.358 C  
HETATM   11  C   UNL     1     -10.779  13.053  69.523  1.00  0.00     0.253 C  
HETATM   12  C   UNL     1      -9.517  13.182  68.620  1.00  0.00    -0.012 C  
HETATM   13  C   UNL     1      -9.201  14.657  68.376  1.00  0.00    -0.197 C  
HETATM   14  C   UNL     1      -8.698  14.927  66.982  1.00  0.00    -0.263 C  
HETATM   15  C   UNL     1      -9.345  15.613  69.321  1.00  0.00    -0.267 C  
HETATM   16  C   UNL     1      -8.813  11.593  66.450  1.00  0.00    -0.182 C  
HETATM   17  C   UNL     1      -9.575  14.263  65.901  1.00  0.00    -0.227 C  
HETATM   18  C   UNL     1      -9.848  12.229  67.401  1.00  0.00    -0.199 C  
HETATM   19  C   UNL     1     -10.603  13.191  66.434  1.00  0.00    -0.293 C  
BRANCH  15  20
HETATM   20  C   UNL     1      -8.670  16.899  69.270  1.00  0.00     0.069 C  
HETATM   21  C   UNL     1      -8.748  17.932  68.413  1.00  0.00    -0.296 C  
HETATM   22  C   UNL     1      -8.031  19.219  68.799  1.00  0.00    -0.392 C  
HETATM   23  C   UNL     1      -7.098  19.727  67.701  1.00  0.00    -0.252 C  
HETATM   24  C   UNL     1      -7.845  19.877  66.379  1.00  0.00    -0.335 C  
HETATM   25  O   UNL     1      -5.976  18.858  67.545  1.00  0.00    -0.180 OA 
HETATM   26  C   UNL     1      -8.573  18.587  65.986  1.00  0.00    -0.019 C  
HETATM   27  H   UNL     1      -5.396  19.173  66.862  1.00  0.00     0.000 HD 
HETATM   28  C   UNL     1      -9.417  18.026  67.117  1.00  0.00    -0.264 C  
HETATM   29  C   UNL     1     -10.720  17.719  66.929  1.00  0.00    -0.165 C  
ENDBRANCH  15  20
ENDBRANCH   5   6
ENDBRANCH   4   5
TORSDOF 3
ENDMDL
MODEL      150
REMARK 921   NORMALIZED FREE ENERGY PREDICTED BY IDOCK:   -2.43 KCAL/MOL
REMARK 922        TOTAL FREE ENERGY PREDICTED BY IDOCK:   -3.67 KCAL/MOL
REMARK 923 INTER-LIGAND FREE ENERGY PREDICTED BY IDOCK:   -2.87 KCAL/MOL
REMARK 924 INTRA-LIGAND FREE ENERGY PREDICTED BY IDOCK:   -0.80 KCAL/MOL
REMARK 927      BINDING AFFINITY PREDICTED BY RF-SCORE:    0.00 PKD
ROOT
HETATM    1  C   UNL     1      -8.384  14.202  68.761  1.00  0.00    -0.069 C  
HETATM    2  C   UNL     1      -7.999  15.533  68.115  1.00  0.00    -0.132 C  
HETATM    3  C   UNL     1      -8.660  16.684  68.878  1.00  0.00    -0.235 C  
HETATM    4  C   UNL     1      -6.476  15.759  68.086  1.00  0.00    -0.138 C  
ENDROOT
BRANCH   4   5
HETATM    5  C   UNL     1      -5.699  14.748  67.243  1.00  0.00     0.508 C  
BRANCH   5   6
HETATM    6  C   UNL     1      -5.128  13.616  68.128  1.00  0.00    -0.106 C  
HETATM    7  C   UNL     1      -5.776  12.221  67.885  1.00  0.00    -0.079 C  
HETATM    8  C   UNL     1      -5.254  11.084  68.935  1.00  0.00    -0.040 C  
HETATM    9  C   UNL     1      -5.626  11.893  66.388  1.00  0.00     0.288 C  
HETATM   10  C   UNL     1      -5.725  11.465  70.342  1.00  0.00    -0.151 C  
HETATM   11  C   UNL     1      -7.132  10.895  70.448  1.00  0.00     0.571 C  
HETATM   12  C   UNL     1      -7.352   9.960  69.223  1.00  0.00    -0.084 C  
HETATM   13  C   UNL     1      -8.311   8.829  69.596  1.00  0.00    -0.126 C  
HETATM   14  C   UNL     1      -7.943   7.514  68.961  1.00  0.00    -0.122 C  
HETATM   15  C   UNL     1      -9.383   9.001  70.401  1.00  0.00    -0.244 C  
HETATM   16  C   UNL     1      -5.467   9.149  67.347  1.00  0.00    -0.041 C  
HETATM   17  C   UNL     1      -6.447   7.179  69.126  1.00  0.00    -0.036 C  
HETATM   18  C   UNL     1      -5.878   9.628  68.755  1.00  0.00    -0.039 C  
HETATM   19  C   UNL     1      -5.540   8.373  69.616  1.00  0.00    -0.030 C  
BRANCH  15  20
HETATM   20  C   UNL     1     -10.519   8.096  70.429  1.00  0.00    -0.217 C  
HETATM   21  C   UNL     1     -11.813   8.274  70.745  1.00  0.00    -0.172 C  
HETATM   22  C   UNL     1     -12.769   7.123  70.456  1.00  0.00     0.106 C  
HETATM   23  C   UNL     1     -13.603   6.729  71.675  1.00  0.00    -0.072 C  
HETATM   24  C   UNL     1     -14.337   7.938  72.247  1.00  0.00    -0.320 C  
HETATM   25  O   UNL     1     -12.784   6.122  72.676  1.00  0.00    -0.470 OA 
HETATM   26  C   UNL     1     -13.382   9.101  72.536  1.00  0.00    -0.481 C  
HETATM   27  H   UNL     1     -13.302   5.877  73.433  1.00  0.00     0.000 HD 
HETATM   28  C   UNL     1     -12.480   9.422  71.357  1.00  0.00    -0.435 C  
HETATM   29  C   UNL     1     -12.383  10.681  70.876  1.00  0.00    -0.502 C  
ENDBRANCH  15  20
ENDBRANCH   5   6
ENDBRANCH   4   5
TORSDOF 3
ENDMDL
MODEL      151
REMARK 921   NORMALIZED FREE ENERGY PREDICTED BY IDOCK:   -2.34 KCAL/MOL
REMARK 922        TOTAL FREE ENERGY PREDICTED BY IDOCK:   -3.56 KCAL/MOL
REMARK 923 INTER-LIGAND FREE ENERGY PREDICTED BY IDOCK:   -2.35 KCAL/MOL
REMARK 924 INTRA-LIGAND FREE ENERGY PREDICTED BY IDOCK:   -1.21 KCAL/MOL
REMARK 927      BINDING AFFINITY PREDICTED BY RF-SCORE:    0.00 PKD
ROOT
HETATM    1  C   UNL     1      -9.629  13.072  69.203  1.00  0.00     0.543 C  
HETATM    2  C   UNL     1      -9.424  14.457  68.590  1.00  0.00    -0.193 C  
HETATM    3  C   UNL     1      -9.643  15.530  69.660  1.00  0.00    -0.264 C  
HETATM    4  C   UNL     1      -8.020  14.634  67.982  1.00  0.00    -0.137 C  
ENDROOT
BRANCH   4   5
HETATM    5  C   UNL     1      -7.715  13.706  66.806  1.00  0.00     0.583 C  
BRANCH   5   6
HETATM    6  C   UNL     1      -6.704  12.610  67.218  1.00  0.00    -0.105 C  
HETATM    7  C   UNL     1      -7.351  11.236  67.561  1.00  0.00    -0.105 C  
HETATM    8  C   UNL     1      -6.273  10.149  68.131  1.00  0.00    -0.049 C  
HETATM    9  C   UNL     1      -8.188  10.799  66.344  1.00  0.00    -0.155 C  
HETATM   10  C   UNL     1      -5.741  10.648  69.477  1.00  0.00    -0.039 C  
HETATM   11  C   UNL     1      -6.754  10.157  70.502  1.00  0.00    -0.100 C  
HETATM   12  C   UNL     1      -7.700   9.153  69.780  1.00  0.00    -0.082 C  
HETATM   13  C   UNL     1      -8.194   8.099  70.771  1.00  0.00    -0.111 C  
HETATM   14  C   UNL     1      -8.309   6.727  70.161  1.00  0.00    -0.135 C  
HETATM   15  C   UNL     1      -8.508   8.379  72.056  1.00  0.00    -0.245 C  
HETATM   16  C   UNL     1      -7.440   8.123  67.211  1.00  0.00    -0.090 C  
HETATM   17  C   UNL     1      -7.050   6.330  69.365  1.00  0.00    -0.073 C  
HETATM   18  C   UNL     1      -6.861   8.717  68.511  1.00  0.00    -0.064 C  
HETATM   19  C   UNL     1      -6.045   7.508  69.063  1.00  0.00    -0.034 C  
BRANCH  15  20
HETATM   20  C   UNL     1      -9.361   7.535  72.875  1.00  0.00    -0.232 C  
HETATM   21  C   UNL     1      -9.131   6.396  73.551  1.00  0.00    -0.134 C  
HETATM   22  C   UNL     1     -10.229   5.898  74.481  1.00  0.00    -0.293 C  
HETATM   23  C   UNL     1     -10.609   4.441  74.218  1.00  0.00    -0.258 C  
HETATM   24  C   UNL     1      -9.379   3.540  74.271  1.00  0.00    -0.111 C  
HETATM   25  O   UNL     1     -11.273   4.308  72.960  1.00  0.00    -0.181 OA 
HETATM   26  C   UNL     1      -8.267   4.037  73.341  1.00  0.00    -0.089 C  
HETATM   27  H   UNL     1     -11.509   3.403  72.796  1.00  0.00     0.000 HD 
HETATM   28  C   UNL     1      -7.965   5.513  73.531  1.00  0.00    -0.113 C  
HETATM   29  C   UNL     1      -6.703   5.944  73.746  1.00  0.00    -0.080 C  
ENDBRANCH  15  20
ENDBRANCH   5   6
ENDBRANCH   4   5
TORSDOF 3
ENDMDL
MODEL      152
REMARK 921   NORMALIZED FREE ENERGY PREDICTED BY IDOCK:   -2.20 KCAL/MOL
REMARK 922        TOTAL FREE ENERGY PREDICTED BY IDOCK:   -3.40 KCAL/MOL
REMARK 923 INTER-LIGAND FREE ENERGY PREDICTED BY IDOCK:   -2.79 KCAL/MOL
REMARK 924 INTRA-LIGAND FREE ENERGY PREDICTED BY IDOCK:   -0.60 KCAL/MOL
REMARK 927      BINDING AFFINITY PREDICTED BY RF-SCORE:    0.00 PKD
ROOT
HETATM    1  C   UNL     1     -10.621  13.350  64.458  1.00  0.00    -0.441 C  
HETATM    2  C   UNL     1     -11.155  11.930  64.271  1.00  0.00    -0.418 C  
HETATM    3  C   UNL     1     -11.817  11.808  62.896  1.00  0.00     0.251 C  
HETATM    4  C   UNL     1     -10.054  10.861  64.394  1.00  0.00    -0.402 C  
ENDROOT
BRANCH   4   5
HETATM    5  C   UNL     1      -9.393  10.785  65.771  1.00  0.00    -0.235 C  
BRANCH   5   6
HETATM    6  C   UNL     1      -8.007  10.105  65.680  1.00  0.00    -0.147 C  
HETATM    7  C   UNL     1      -8.018   8.580  65.993  1.00  0.00    -0.107 C  
HETATM    8  C   UNL     1      -6.521   7.926  66.031  1.00  0.00    -0.046 C  
HETATM    9  C   UNL     1      -9.031   7.917  65.041  1.00  0.00     0.296 C  
HETATM   10  C   UNL     1      -5.753   8.534  67.208  1.00  0.00    -0.039 C  
HETATM   11  C   UNL     1      -6.140   7.680  68.407  1.00  0.00    -0.036 C  
HETATM   12  C   UNL     1      -6.896   6.432  67.868  1.00  0.00    -0.074 C  
HETATM   13  C   UNL     1      -6.655   5.237  68.790  1.00  0.00    -0.048 C  
HETATM   14  C   UNL     1      -6.522   3.936  68.044  1.00  0.00    -0.038 C  
HETATM   15  C   UNL     1      -6.584   5.342  70.136  1.00  0.00    -0.039 C  
HETATM   16  C   UNL     1      -7.212   5.652  65.217  1.00  0.00    -0.067 C  
HETATM   17  C   UNL     1      -5.554   4.040  66.848  1.00  0.00    -0.021 C  
HETATM   18  C   UNL     1      -6.448   6.367  66.352  1.00  0.00    -0.047 C  
HETATM   19  C   UNL     1      -5.149   5.508  66.435  1.00  0.00    -0.005 C  
BRANCH  15  20
HETATM   20  C   UNL     1      -6.785   4.222  71.040  1.00  0.00    -0.035 C  
HETATM   21  C   UNL     1      -7.893   3.632  71.520  1.00  0.00    -0.057 C  
HETATM   22  C   UNL     1      -7.714   2.333  72.296  1.00  0.00    -0.048 C  
HETATM   23  C   UNL     1      -8.397   2.364  73.663  1.00  0.00    -0.063 C  
HETATM   24  C   UNL     1      -9.870   2.737  73.528  1.00  0.00    -0.155 C  
HETATM   25  O   UNL     1      -7.730   3.270  74.544  1.00  0.00    -0.056 OA 
HETATM   26  C   UNL     1     -10.058   4.040  72.744  1.00  0.00    -0.219 C  
HETATM   27  H   UNL     1      -8.154   3.290  75.393  1.00  0.00     0.000 HD 
HETATM   28  C   UNL     1      -9.291   4.049  71.433  1.00  0.00    -0.212 C  
HETATM   29  C   UNL     1      -9.906   4.347  70.267  1.00  0.00    -0.284 C  
ENDBRANCH  15  20
ENDBRANCH   5   6
ENDBRANCH   4   5
TORSDOF 3
ENDMDL
MODEL      153
REMARK 921   NORMALIZED FREE ENERGY PREDICTED BY IDOCK:   -1.86 KCAL/MOL
REMARK 922        TOTAL FREE ENERGY PREDICTED BY IDOCK:   -2.99 KCAL/MOL
REMARK 923 INTER-LIGAND FREE ENERGY PREDICTED BY IDOCK:   -2.84 KCAL/MOL
REMARK 924 INTRA-LIGAND FREE ENERGY PREDICTED BY IDOCK:   -0.15 KCAL/MOL
REMARK 927      BINDING AFFINITY PREDICTED BY RF-SCORE:    0.00 PKD
ROOT
HETATM    1  C   UNL     1      -9.521  17.115  66.742  1.00  0.00    -0.278 C  
HETATM    2  C   UNL     1     -10.784  16.281  66.531  1.00  0.00    -0.187 C  
HETATM    3  C   UNL     1     -11.467  16.703  65.227  1.00  0.00     0.478 C  
HETATM    4  C   UNL     1     -10.496  14.769  66.480  1.00  0.00    -0.291 C  
ENDROOT
BRANCH   4   5
HETATM    5  C   UNL     1      -9.930  14.187  67.776  1.00  0.00    -0.235 C  
BRANCH   5   6
HETATM    6  C   UNL     1      -8.592  13.457  67.513  1.00  0.00    -0.200 C  
HETATM    7  C   UNL     1      -8.743  12.073  66.816  1.00  0.00    -0.192 C  
HETATM    8  C   UNL     1      -7.327  11.267  66.687  1.00  0.00    -0.131 C  
HETATM    9  C   UNL     1      -9.528  12.292  65.510  1.00  0.00    -0.029 C  
HETATM   10  C   UNL     1      -6.835  10.916  68.094  1.00  0.00    -0.067 C  
HETATM   11  C   UNL     1      -7.532   9.606  68.433  1.00  0.00    -0.080 C  
HETATM   12  C   UNL     1      -8.192   9.074  67.127  1.00  0.00    -0.110 C  
HETATM   13  C   UNL     1      -8.227   7.547  67.146  1.00  0.00    -0.114 C  
HETATM   14  C   UNL     1      -7.977   6.937  65.792  1.00  0.00    -0.116 C  
HETATM   15  C   UNL     1      -8.474   6.824  68.261  1.00  0.00    -0.125 C  
HETATM   16  C   UNL     1      -7.901  10.078  64.550  1.00  0.00    -0.145 C  
HETATM   17  C   UNL     1      -6.749   7.550  65.089  1.00  0.00    -0.044 C  
HETATM   18  C   UNL     1      -7.399   9.836  65.989  1.00  0.00    -0.102 C  
HETATM   19  C   UNL     1      -6.195   8.877  65.736  1.00  0.00    -0.052 C  
BRANCH  15  20
HETATM   20  C   UNL     1      -8.931   5.445  68.240  1.00  0.00    -0.112 C  
HETATM   21  C   UNL     1      -8.301   4.277  68.452  1.00  0.00    -0.098 C  
HETATM   22  C   UNL     1      -9.162   3.024  68.547  1.00  0.00    -0.233 C  
HETATM   23  C   UNL     1      -8.693   1.913  67.609  1.00  0.00    -0.105 C  
HETATM   24  C   UNL     1      -7.217   1.597  67.834  1.00  0.00    -0.043 C  
HETATM   25  O   UNL     1      -8.926   2.268  66.245  1.00  0.00    -0.131 OA 
HETATM   26  C   UNL     1      -6.345   2.854  67.744  1.00  0.00    -0.032 C  
HETATM   27  H   UNL     1      -8.635   1.577  65.661  1.00  0.00     0.000 HD 
HETATM   28  C   UNL     1      -6.874   3.993  68.597  1.00  0.00    -0.047 C  
HETATM   29  C   UNL     1      -6.076   4.631  69.481  1.00  0.00    -0.022 C  
ENDBRANCH  15  20
ENDBRANCH   5   6
ENDBRANCH   4   5
TORSDOF 3
ENDMDL
MODEL      154
REMARK 921   NORMALIZED FREE ENERGY PREDICTED BY IDOCK:   -1.82 KCAL/MOL
REMARK 922        TOTAL FREE ENERGY PREDICTED BY IDOCK:   -2.95 KCAL/MOL
REMARK 923 INTER-LIGAND FREE ENERGY PREDICTED BY IDOCK:   -2.46 KCAL/MOL
REMARK 924 INTRA-LIGAND FREE ENERGY PREDICTED BY IDOCK:   -0.49 KCAL/MOL
REMARK 927      BINDING AFFINITY PREDICTED BY RF-SCORE:    0.00 PKD
ROOT
HETATM    1  C   UNL     1     -12.178   5.514  73.308  1.00  0.00     0.806 C  
HETATM    2  C   UNL     1     -12.241   6.600  72.235  1.00  0.00    -0.185 C  
HETATM    3  C   UNL     1     -13.698   6.834  71.824  1.00  0.00    -0.161 C  
HETATM    4  C   UNL     1     -11.632   7.934  72.706  1.00  0.00    -0.387 C  
ENDROOT
BRANCH   4   5
HETATM    5  C   UNL     1     -10.138   7.873  73.025  1.00  0.00    -0.384 C  
BRANCH   5   6
HETATM    6  C   UNL     1      -9.312   7.602  71.747  1.00  0.00    -0.176 C  
HETATM    7  C   UNL     1      -8.408   8.789  71.303  1.00  0.00    -0.225 C  
HETATM    8  C   UNL     1      -7.664   8.523  69.872  1.00  0.00    -0.091 C  
HETATM    9  C   UNL     1      -7.499   9.152  72.491  1.00  0.00     0.609 C  
HETATM   10  C   UNL     1      -8.729   8.445  68.775  1.00  0.00    -0.136 C  
HETATM   11  C   UNL     1      -8.970   9.891  68.364  1.00  0.00    -0.120 C  
HETATM   12  C   UNL     1      -7.854  10.756  69.019  1.00  0.00    -0.138 C  
HETATM   13  C   UNL     1      -7.542  11.962  68.134  1.00  0.00    -0.121 C  
HETATM   14  C   UNL     1      -6.078  12.315  68.116  1.00  0.00    -0.058 C  
HETATM   15  C   UNL     1      -8.488  12.646  67.452  1.00  0.00    -0.186 C  
HETATM   16  C   UNL     1      -5.609   9.868  70.398  1.00  0.00    -0.052 C  
HETATM   17  C   UNL     1      -5.179  11.085  67.879  1.00  0.00    -0.039 C  
HETATM   18  C   UNL     1      -6.724   9.698  69.346  1.00  0.00    -0.053 C  
HETATM   19  C   UNL     1      -5.899   9.688  68.023  1.00  0.00    -0.040 C  
BRANCH  15  20
HETATM   20  C   UNL     1      -8.305  14.004  66.970  1.00  0.00    -0.127 C  
HETATM   21  C   UNL     1      -8.000  15.156  67.593  1.00  0.00    -0.177 C  
HETATM   22  C   UNL     1      -7.685  16.364  66.720  1.00  0.00    -0.298 C  
HETATM   23  C   UNL     1      -8.513  17.593  67.092  1.00  0.00    -0.226 C  
HETATM   24  C   UNL     1      -8.367  17.920  68.575  1.00  0.00    -0.305 C  
HETATM   25  O   UNL     1      -9.888  17.399  66.756  1.00  0.00    -0.271 OA 
HETATM   26  C   UNL     1      -8.678  16.708  69.460  1.00  0.00     0.323 C  
HETATM   27  H   UNL     1     -10.403  18.163  66.988  1.00  0.00     0.000 HD 
HETATM   28  C   UNL     1      -7.933  15.459  69.022  1.00  0.00    -0.202 C  
HETATM   29  C   UNL     1      -7.198  14.742  69.900  1.00  0.00    -0.044 C  
ENDBRANCH  15  20
ENDBRANCH   5   6
ENDBRANCH   4   5
TORSDOF 3
ENDMDL
MODEL      155
REMARK 921   NORMALIZED FREE ENERGY PREDICTED BY IDOCK:   -1.59 KCAL/MOL
REMARK 922        TOTAL FREE ENERGY PREDICTED BY IDOCK:   -2.68 KCAL/MOL
REMARK 923 INTER-LIGAND FREE ENERGY PREDICTED BY IDOCK:   -1.78 KCAL/MOL
REMARK 924 INTRA-LIGAND FREE ENERGY PREDICTED BY IDOCK:   -0.90 KCAL/MOL
REMARK 927      BINDING AFFINITY PREDICTED BY RF-SCORE:    0.00 PKD
ROOT
HETATM    1  C   UNL     1     -10.228  15.525  67.660  1.00  0.00    -0.255 C  
HETATM    2  C   UNL     1     -10.689  14.814  66.387  1.00  0.00    -0.313 C  
HETATM    3  C   UNL     1     -10.862  15.838  65.261  1.00  0.00    -0.409 C  
HETATM    4  C   UNL     1      -9.703  13.724  65.927  1.00  0.00    -0.217 C  
ENDROOT
BRANCH   4   5
HETATM    5  C   UNL     1      -9.535  12.564  66.908  1.00  0.00    -0.219 C  
BRANCH   5   6
HETATM    6  C   UNL     1      -9.039  11.294  66.179  1.00  0.00    -0.216 C  
HETATM    7  C   UNL     1      -9.721   9.976  66.650  1.00  0.00    -0.246 C  
HETATM    8  C   UNL     1      -9.071   8.642  65.965  1.00  0.00    -0.255 C  
HETATM    9  C   UNL     1     -11.241  10.156  66.490  1.00  0.00     0.441 C  
HETATM   10  C   UNL     1      -7.626   8.499  66.451  1.00  0.00    -0.091 C  
HETATM   11  C   UNL     1      -7.733   7.750  67.773  1.00  0.00    -0.122 C  
HETATM   12  C   UNL     1      -9.194   7.227  67.897  1.00  0.00    -0.131 C  
HETATM   13  C   UNL     1      -9.215   5.924  68.696  1.00  0.00    -0.120 C  
HETATM   14  C   UNL     1     -10.223   4.933  68.177  1.00  0.00    -0.104 C  
HETATM   15  C   UNL     1      -8.419   5.697  69.765  1.00  0.00    -0.107 C  
HETATM   16  C   UNL     1     -11.191   7.294  65.963  1.00  0.00     3.002 C  
HETATM   17  C   UNL     1     -10.142   4.757  66.647  1.00  0.00    -0.276 C  
HETATM   18  C   UNL     1      -9.713   7.250  66.402  1.00  0.00    -0.148 C  
HETATM   19  C   UNL     1      -9.283   5.841  65.890  1.00  0.00    -0.128 C  
BRANCH  15  20
HETATM   20  C   UNL     1      -8.701   4.692  70.775  1.00  0.00    -0.133 C  
HETATM   21  C   UNL     1      -9.593   4.640  71.779  1.00  0.00    -0.216 C  
HETATM   22  C   UNL     1      -9.738   3.317  72.520  1.00  0.00    -0.205 C  
HETATM   23  C   UNL     1      -9.606   3.472  74.035  1.00  0.00    -0.096 C  
HETATM   24  C   UNL     1     -10.582   4.519  74.562  1.00  0.00    -0.236 C  
HETATM   25  O   UNL     1      -8.266   3.811  74.396  1.00  0.00    -0.084 OA 
HETATM   26  C   UNL     1     -10.446   5.851  73.818  1.00  0.00    -0.288 C  
HETATM   27  H   UNL     1      -8.184   3.907  75.337  1.00  0.00     0.000 HD 
HETATM   28  C   UNL     1     -10.471   5.682  72.309  1.00  0.00    -0.260 C  
HETATM   29  C   UNL     1     -11.316   6.403  71.540  1.00  0.00    -0.346 C  
ENDBRANCH  15  20
ENDBRANCH   5   6
ENDBRANCH   4   5
TORSDOF 3
ENDMDL
MODEL      156
REMARK 921   NORMALIZED FREE ENERGY PREDICTED BY IDOCK:   -1.43 KCAL/MOL
REMARK 922        TOTAL FREE ENERGY PREDICTED BY IDOCK:   -2.49 KCAL/MOL
REMARK 923 INTER-LIGAND FREE ENERGY PREDICTED BY IDOCK:   -2.26 KCAL/MOL
REMARK 924 INTRA-LIGAND FREE ENERGY PREDICTED BY IDOCK:   -0.23 KCAL/MOL
REMARK 927      BINDING AFFINITY PREDICTED BY RF-SCORE:    0.00 PKD
ROOT
HETATM    1  C   UNL     1     -10.949  19.397  65.854  1.00  0.00    -0.253 C  
HETATM    2  C   UNL     1     -10.315  18.049  66.193  1.00  0.00    -0.368 C  
HETATM    3  C   UNL     1     -10.920  16.958  65.304  1.00  0.00    -0.049 C  
HETATM    4  C   UNL     1      -8.785  18.051  66.013  1.00  0.00    -0.009 C  
ENDROOT
BRANCH   4   5
HETATM    5  C   UNL     1      -8.038  19.009  66.941  1.00  0.00    -0.277 C  
BRANCH   5   6
HETATM    6  C   UNL     1      -7.341  18.235  68.085  1.00  0.00    -0.266 C  
HETATM    7  C   UNL     1      -7.083  16.731  67.778  1.00  0.00    -0.146 C  
HETATM    8  C   UNL     1      -6.481  15.913  69.059  1.00  0.00    -0.137 C  
HETATM    9  C   UNL     1      -6.270  16.654  66.473  1.00  0.00     0.099 C  
HETATM   10  C   UNL     1      -7.542  15.885  70.163  1.00  0.00     0.738 C  
HETATM   11  C   UNL     1      -8.418  14.685  69.828  1.00  0.00     0.394 C  
HETATM   12  C   UNL     1      -7.697  13.877  68.710  1.00  0.00    -0.096 C  
HETATM   13  C   UNL     1      -8.035  12.392  68.840  1.00  0.00     0.150 C  
HETATM   14  C   UNL     1      -6.870  11.494  68.517  1.00  0.00    -0.074 C  
HETATM   15  C   UNL     1      -9.258  11.938  69.195  1.00  0.00     0.437 C  
HETATM   16  C   UNL     1      -5.134  14.277  67.710  1.00  0.00     0.020 C  
HETATM   17  C   UNL     1      -5.575  11.932  69.229  1.00  0.00    -0.059 C  
HETATM   18  C   UNL     1      -6.196  14.362  68.825  1.00  0.00    -0.085 C  
HETATM   19  C   UNL     1      -5.615  13.369  69.878  1.00  0.00    -0.110 C  
BRANCH  15  20
HETATM   20  C   UNL     1      -9.725  10.590  68.918  1.00  0.00    -0.206 C  
HETATM   21  C   UNL     1     -10.696   9.837  69.461  1.00  0.00    -0.255 C  
HETATM   22  C   UNL     1     -11.039   8.526  68.765  1.00  0.00     0.260 C  
HETATM   23  C   UNL     1     -11.015   7.330  69.716  1.00  0.00    -0.216 C  
HETATM   24  C   UNL     1     -11.916   7.575  70.922  1.00  0.00    -0.278 C  
HETATM   25  O   UNL     1      -9.681   7.043  70.138  1.00  0.00    -0.174 OA 
HETATM   26  C   UNL     1     -11.581   8.895  71.625  1.00  0.00    -0.408 C  
HETATM   27  H   UNL     1      -9.666   6.299  70.729  1.00  0.00     0.000 HD 
HETATM   28  C   UNL     1     -11.500  10.065  70.661  1.00  0.00    -0.425 C  
HETATM   29  C   UNL     1     -12.200  11.200  70.882  1.00  0.00    -0.468 C  
ENDBRANCH  15  20
ENDBRANCH   5   6
ENDBRANCH   4   5
TORSDOF 3
ENDMDL
MODEL      157
REMARK 921   NORMALIZED FREE ENERGY PREDICTED BY IDOCK:   -1.38 KCAL/MOL
REMARK 922        TOTAL FREE ENERGY PREDICTED BY IDOCK:   -2.44 KCAL/MOL
REMARK 923 INTER-LIGAND FREE ENERGY PREDICTED BY IDOCK:   -2.24 KCAL/MOL
REMARK 924 INTRA-LIGAND FREE ENERGY PREDICTED BY IDOCK:   -0.20 KCAL/MOL
REMARK 927      BINDING AFFINITY PREDICTED BY RF-SCORE:    0.00 PKD
ROOT
HETATM    1  C   UNL     1      -8.881  19.848  66.896  1.00  0.00    -0.419 C  
HETATM    2  C   UNL     1     -10.224  19.380  67.455  1.00  0.00    -0.530 C  
HETATM    3  C   UNL     1     -11.124  20.591  67.713  1.00  0.00     0.996 C  
HETATM    4  C   UNL     1     -10.952  18.406  66.509  1.00  0.00     0.138 C  
ENDROOT
BRANCH   4   5
HETATM    5  C   UNL     1     -10.218  17.087  66.268  1.00  0.00    -0.336 C  
BRANCH   5   6
HETATM    6  C   UNL     1     -10.530  16.069  67.390  1.00  0.00    -0.308 C  
HETATM    7  C   UNL     1      -9.536  14.874  67.468  1.00  0.00    -0.200 C  
HETATM    8  C   UNL     1      -9.979  13.747  68.565  1.00  0.00    -0.217 C  
HETATM    9  C   UNL     1      -8.119  15.456  67.617  1.00  0.00    -0.166 C  
HETATM   10  C   UNL     1     -11.289  13.103  68.102  1.00  0.00    -0.328 C  
HETATM   11  C   UNL     1     -10.861  11.991  67.155  1.00  0.00    -0.297 C  
HETATM   12  C   UNL     1      -9.320  11.822  67.296  1.00  0.00    -0.171 C  
HETATM   13  C   UNL     1      -8.929  10.368  67.034  1.00  0.00    -0.150 C  
HETATM   14  C   UNL     1      -7.812   9.891  67.925  1.00  0.00    -0.090 C  
HETATM   15  C   UNL     1      -9.517   9.600  66.089  1.00  0.00    -0.274 C  
HETATM   16  C   UNL     1      -7.644  13.032  69.156  1.00  0.00     0.254 C  
HETATM   17  C   UNL     1      -8.051  10.243  69.407  1.00  0.00    -0.167 C  
HETATM   18  C   UNL     1      -9.013  12.486  68.699  1.00  0.00     0.042 C  
HETATM   19  C   UNL     1      -9.205  11.284  69.674  1.00  0.00     0.817 C  
BRANCH  15  20
HETATM   20  C   UNL     1      -8.907   8.405  65.533  1.00  0.00    -0.172 C  
HETATM   21  C   UNL     1      -7.708   8.176  64.970  1.00  0.00    -0.113 C  
HETATM   22  C   UNL     1      -7.333   6.728  64.683  1.00  0.00    -0.089 C  
HETATM   23  C   UNL     1      -6.890   6.509  63.237  1.00  0.00    -0.046 C  
HETATM   24  C   UNL     1      -5.761   7.464  62.863  1.00  0.00    -0.049 C  
HETATM   25  O   UNL     1      -7.991   6.660  62.340  1.00  0.00    -0.098 OA 
HETATM   26  C   UNL     1      -6.128   8.923  63.154  1.00  0.00    -0.089 C  
HETATM   27  H   UNL     1      -7.716   6.524  61.441  1.00  0.00     0.000 HD 
HETATM   28  C   UNL     1      -6.670   9.120  64.559  1.00  0.00    -0.079 C  
HETATM   29  C   UNL     1      -6.151  10.059  65.380  1.00  0.00    -0.093 C  
ENDBRANCH  15  20
ENDBRANCH   5   6
ENDBRANCH   4   5
TORSDOF 3
ENDMDL
MODEL      158
REMARK 921   NORMALIZED FREE ENERGY PREDICTED BY IDOCK:   -1.35 KCAL/MOL
REMARK 922        TOTAL FREE ENERGY PREDICTED BY IDOCK:   -2.40 KCAL/MOL
REMARK 923 INTER-LIGAND FREE ENERGY PREDICTED BY IDOCK:   -5.38 KCAL/MOL
REMARK 924 INTRA-LIGAND FREE ENERGY PREDICTED BY IDOCK:    2.98 KCAL/MOL
REMARK 927      BINDING AFFINITY PREDICTED BY RF-SCORE:    0.00 PKD
ROOT
HETATM    1  C   UNL     1      -5.134   9.247  64.814  1.00  0.00    -0.044 C  
HETATM    2  C   UNL     1      -6.434   9.228  64.011  1.00  0.00    -0.091 C  
HETATM    3  C   UNL     1      -6.325  10.201  62.833  1.00  0.00    -0.135 C  
HETATM    4  C   UNL     1      -6.778   7.826  63.473  1.00  0.00    -0.062 C  
ENDROOT
BRANCH   4   5
HETATM    5  C   UNL     1      -7.044   6.779  64.554  1.00  0.00    -0.061 C  
BRANCH   5   6
HETATM    6  C   UNL     1      -8.156   7.252  65.519  1.00  0.00    -0.132 C  
HETATM    7  C   UNL     1      -8.606   8.727  65.304  1.00  0.00    -0.212 C  
HETATM    8  C   UNL     1      -9.674   9.238  66.431  1.00  0.00    -0.325 C  
HETATM    9  C   UNL     1      -9.039   8.872  63.834  1.00  0.00     0.361 C  
HETATM   10  C   UNL     1      -8.972   9.264  67.792  1.00  0.00    -0.131 C  
HETATM   11  C   UNL     1      -8.286  10.622  67.849  1.00  0.00    -0.120 C  
HETATM   12  C   UNL     1      -8.823  11.468  66.658  1.00  0.00    -0.187 C  
HETATM   13  C   UNL     1      -8.824  12.950  67.030  1.00  0.00    -0.208 C  
HETATM   14  C   UNL     1     -10.010  13.694  66.475  1.00  0.00    -0.288 C  
HETATM   15  C   UNL     1      -7.851  13.530  67.768  1.00  0.00    -0.167 C  
HETATM   16  C   UNL     1     -10.899  10.829  64.922  1.00  0.00    -0.055 C  
HETATM   17  C   UNL     1     -11.340  12.958  66.733  1.00  0.00    -0.367 C  
HETATM   18  C   UNL     1     -10.178  10.743  66.283  1.00  0.00    -0.301 C  
HETATM   19  C   UNL     1     -11.199  11.463  67.217  1.00  0.00    -0.370 C  
BRANCH  15  20
HETATM   20  C   UNL     1      -7.595  14.960  67.776  1.00  0.00    -0.171 C  
HETATM   21  C   UNL     1      -8.343  16.014  68.147  1.00  0.00    -0.160 C  
HETATM   22  C   UNL     1      -7.657  17.373  68.208  1.00  0.00    -0.234 C  
HETATM   23  C   UNL     1      -8.403  18.446  67.417  1.00  0.00    -0.252 C  
HETATM   24  C   UNL     1      -9.861  18.534  67.858  1.00  0.00    -0.352 C  
HETATM   25  O   UNL     1      -8.320  18.192  66.013  1.00  0.00    -0.491 OA 
HETATM   26  C   UNL     1     -10.557  17.170  67.803  1.00  0.00    -0.360 C  
HETATM   27  H   UNL     1      -8.784  18.859  65.521  1.00  0.00     0.000 HD 
HETATM   28  C   UNL     1      -9.760  16.081  68.501  1.00  0.00    -0.214 C  
HETATM   29  C   UNL     1     -10.329  15.294  69.440  1.00  0.00    -0.255 C  
ENDBRANCH  15  20
ENDBRANCH   5   6
ENDBRANCH   4   5
TORSDOF 3
ENDMDL
MODEL      159
REMARK 921   NORMALIZED FREE ENERGY PREDICTED BY IDOCK:   -1.31 KCAL/MOL
REMARK 922        TOTAL FREE ENERGY PREDICTED BY IDOCK:   -2.35 KCAL/MOL
REMARK 923 INTER-LIGAND FREE ENERGY PREDICTED BY IDOCK:   -4.15 KCAL/MOL
REMARK 924 INTRA-LIGAND FREE ENERGY PREDICTED BY IDOCK:    1.80 KCAL/MOL
REMARK 927      BINDING AFFINITY PREDICTED BY RF-SCORE:    0.00 PKD
ROOT
HETATM    1  C   UNL     1      -6.504   8.210  66.081  1.00  0.00    -0.046 C  
HETATM    2  C   UNL     1      -6.599   8.140  67.605  1.00  0.00    -0.058 C  
HETATM    3  C   UNL     1      -6.757   6.681  68.044  1.00  0.00    -0.071 C  
HETATM    4  C   UNL     1      -5.366   8.743  68.304  1.00  0.00    -0.034 C  
ENDROOT
BRANCH   4   5
HETATM    5  C   UNL     1      -5.163  10.238  68.056  1.00  0.00    -0.034 C  
BRANCH   5   6
HETATM    6  C   UNL     1      -6.137  10.754  66.971  1.00  0.00    -0.068 C  
HETATM    7  C   UNL     1      -6.933  12.028  67.377  1.00  0.00    -0.139 C  
HETATM    8  C   UNL     1      -8.056  12.458  66.269  1.00  0.00     0.506 C  
HETATM    9  C   UNL     1      -5.911  13.110  67.772  1.00  0.00    -0.148 C  
HETATM   10  C   UNL     1      -9.125  11.364  66.208  1.00  0.00    -0.211 C  
HETATM   11  C   UNL     1     -10.106  11.717  67.317  1.00  0.00    -0.221 C  
HETATM   12  C   UNL     1      -9.752  13.147  67.818  1.00  0.00    -0.218 C  
HETATM   13  C   UNL     1     -11.014  13.855  68.308  1.00  0.00    -0.274 C  
HETATM   14  C   UNL     1     -11.032  15.324  67.974  1.00  0.00    -0.299 C  
HETATM   15  C   UNL     1     -12.002  13.227  68.984  1.00  0.00    -0.336 C  
HETATM   16  C   UNL     1      -7.923  14.927  66.713  1.00  0.00     0.066 C  
HETATM   17  C   UNL     1     -10.664  15.596  66.501  1.00  0.00    -0.293 C  
HETATM   18  C   UNL     1      -8.919  13.753  66.616  1.00  0.00    -0.149 C  
HETATM   19  C   UNL     1     -10.039  14.373  65.726  1.00  0.00    -0.361 C  
BRANCH  15  20
HETATM   20  C   UNL     1     -12.972  13.919  69.815  1.00  0.00     0.512 C  
HETATM   21  C   UNL     1     -12.863  14.954  70.667  1.00  0.00    -0.406 C  
HETATM   22  C   UNL     1     -14.153  15.549  71.215  1.00  0.00    -0.347 C  
HETATM   23  C   UNL     1     -14.159  15.642  72.740  1.00  0.00    -0.364 C  
HETATM   24  C   UNL     1     -12.935  16.399  73.245  1.00  0.00    -0.293 C  
HETATM   25  O   UNL     1     -14.220  14.341  73.328  1.00  0.00     0.213 OA 
HETATM   26  C   UNL     1     -11.632  15.809  72.694  1.00  0.00    -0.446 C  
HETATM   27  H   UNL     1     -14.224  14.399  74.276  1.00  0.00     0.000 HD 
HETATM   28  C   UNL     1     -11.669  15.618  71.188  1.00  0.00    -0.461 C  
HETATM   29  C   UNL     1     -10.690  16.112  70.399  1.00  0.00    -0.170 C  
ENDBRANCH  15  20
ENDBRANCH   5   6
ENDBRANCH   4   5
TORSDOF 3
ENDMDL
MODEL      160
REMARK 921   NORMALIZED FREE ENERGY PREDICTED BY IDOCK:   -1.18 KCAL/MOL
REMARK 922        TOTAL FREE ENERGY PREDICTED BY IDOCK:   -2.20 KCAL/MOL
REMARK 923 INTER-LIGAND FREE ENERGY PREDICTED BY IDOCK:   -1.64 KCAL/MOL
REMARK 924 INTRA-LIGAND FREE ENERGY PREDICTED BY IDOCK:   -0.56 KCAL/MOL
REMARK 927      BINDING AFFINITY PREDICTED BY RF-SCORE:    0.00 PKD
ROOT
HETATM    1  C   UNL     1     -12.020  14.970  73.555  1.00  0.00    -0.443 C  
HETATM    2  C   UNL     1     -12.978  14.964  72.364  1.00  0.00    -0.439 C  
HETATM    3  C   UNL     1     -13.690  16.317  72.269  1.00  0.00     0.570 C  
HETATM    4  C   UNL     1     -12.265  14.678  71.030  1.00  0.00    -0.399 C  
ENDROOT
BRANCH   4   5
HETATM    5  C   UNL     1     -11.618  13.295  70.940  1.00  0.00     0.632 C  
BRANCH   5   6
HETATM    6  C   UNL     1     -10.440  13.303  69.937  1.00  0.00     1.081 C  
HETATM    7  C   UNL     1     -10.664  12.414  68.678  1.00  0.00    -0.260 C  
HETATM    8  C   UNL     1      -9.345  12.330  67.716  1.00  0.00    -0.194 C  
HETATM    9  C   UNL     1     -11.972  12.874  68.010  1.00  0.00    -0.323 C  
HETATM   10  C   UNL     1      -8.229  11.610  68.478  1.00  0.00    -0.144 C  
HETATM   11  C   UNL     1      -8.484  10.129  68.233  1.00  0.00    -0.115 C  
HETATM   12  C   UNL     1      -9.563  10.019  67.116  1.00  0.00    -0.202 C  
HETATM   13  C   UNL     1      -9.343   8.743  66.304  1.00  0.00    -0.283 C  
HETATM   14  C   UNL     1      -9.629   8.924  64.836  1.00  0.00     0.487 C  
HETATM   15  C   UNL     1      -8.949   7.572  66.854  1.00  0.00    -0.152 C  
HETATM   16  C   UNL     1     -10.615  12.072  65.564  1.00  0.00    -0.313 C  
HETATM   17  C   UNL     1      -8.958  10.186  64.258  1.00  0.00    -0.267 C  
HETATM   18  C   UNL     1      -9.493  11.432  66.407  1.00  0.00    -0.224 C  
HETATM   19  C   UNL     1      -8.392  11.198  65.327  1.00  0.00     0.147 C  
BRANCH  15  20
HETATM   20  C   UNL     1      -9.142   6.281  66.217  1.00  0.00    -0.166 C  
HETATM   21  C   UNL     1      -8.483   5.114  66.314  1.00  0.00    -0.114 C  
HETATM   22  C   UNL     1      -9.107   3.898  65.640  1.00  0.00    -0.144 C  
HETATM   23  C   UNL     1      -8.135   3.175  64.709  1.00  0.00    -0.086 C  
HETATM   24  C   UNL     1      -6.848   2.810  65.443  1.00  0.00    -0.048 C  
HETATM   25  O   UNL     1      -7.845   3.972  63.560  1.00  0.00    -0.076 OA 
HETATM   26  C   UNL     1      -6.216   4.027  66.128  1.00  0.00    -0.032 C  
HETATM   27  H   UNL     1      -7.241   3.523  62.981  1.00  0.00     0.000 HD 
HETATM   28  C   UNL     1      -7.213   4.805  66.969  1.00  0.00    -0.077 C  
HETATM   29  C   UNL     1      -6.949   5.108  68.259  1.00  0.00    -0.061 C  
ENDBRANCH  15  20
ENDBRANCH   5   6
ENDBRANCH   4   5
TORSDOF 3
ENDMDL
MODEL      161
REMARK 921   NORMALIZED FREE ENERGY PREDICTED BY IDOCK:   -0.89 KCAL/MOL
REMARK 922        TOTAL FREE ENERGY PREDICTED BY IDOCK:   -1.86 KCAL/MOL
REMARK 923 INTER-LIGAND FREE ENERGY PREDICTED BY IDOCK:   -1.89 KCAL/MOL
REMARK 924 INTRA-LIGAND FREE ENERGY PREDICTED BY IDOCK:    0.04 KCAL/MOL
REMARK 927      BINDING AFFINITY PREDICTED BY RF-SCORE:    0.00 PKD
ROOT
HETATM    1  C   UNL     1     -11.106  16.246  72.819  1.00  0.00     1.245 C  
HETATM    2  C   UNL     1     -12.019  15.874  71.651  1.00  0.00    -0.553 C  
HETATM    3  C   UNL     1     -13.479  15.898  72.113  1.00  0.00    -0.348 C  
HETATM    4  C   UNL     1     -11.859  16.822  70.448  1.00  0.00     1.034 C  
ENDROOT
BRANCH   4   5
HETATM    5  C   UNL     1     -10.473  16.799  69.801  1.00  0.00    -0.134 C  
BRANCH   5   6
HETATM    6  C   UNL     1     -10.586  16.760  68.259  1.00  0.00    -0.352 C  
HETATM    7  C   UNL     1     -11.002  15.376  67.681  1.00  0.00    -0.315 C  
HETATM    8  C   UNL     1     -10.968  15.332  66.047  1.00  0.00    -0.317 C  
HETATM    9  C   UNL     1     -12.328  14.972  68.350  1.00  0.00     0.152 C  
HETATM   10  C   UNL     1      -9.518  15.500  65.584  1.00  0.00    -0.271 C  
HETATM   11  C   UNL     1      -8.934  14.095  65.619  1.00  0.00     0.863 C  
HETATM   12  C   UNL     1     -10.114  13.102  65.828  1.00  0.00    -0.290 C  
HETATM   13  C   UNL     1      -9.801  11.769  65.150  1.00  0.00    -0.263 C  
HETATM   14  C   UNL     1     -11.010  11.133  64.517  1.00  0.00    -0.255 C  
HETATM   15  C   UNL     1      -8.567  11.216  65.135  1.00  0.00     0.069 C  
HETATM   16  C   UNL     1     -12.836  13.671  65.796  1.00  0.00    -0.390 C  
HETATM   17  C   UNL     1     -11.815  12.128  63.655  1.00  0.00    -0.608 C  
HETATM   18  C   UNL     1     -11.376  13.944  65.378  1.00  0.00    -0.311 C  
HETATM   19  C   UNL     1     -11.434  13.646  63.848  1.00  0.00    -0.215 C  
BRANCH  15  20
HETATM   20  C   UNL     1      -8.323   9.805  64.893  1.00  0.00    -0.152 C  
HETATM   21  C   UNL     1      -7.613   8.879  65.561  1.00  0.00    -0.087 C  
HETATM   22  C   UNL     1      -7.755   7.430  65.114  1.00  0.00    -0.112 C  
HETATM   23  C   UNL     1      -6.407   6.762  64.843  1.00  0.00    -0.039 C  
HETATM   24  C   UNL     1      -5.484   6.888  66.051  1.00  0.00    -0.023 C  
HETATM   25  O   UNL     1      -5.789   7.318  63.681  1.00  0.00    -0.039 OA 
HETATM   26  C   UNL     1      -5.340   8.342  66.510  1.00  0.00    -0.028 C  
HETATM   27  H   UNL     1      -4.951   6.903  63.513  1.00  0.00     0.000 HD 
HETATM   28  C   UNL     1      -6.681   9.037  66.676  1.00  0.00    -0.075 C  
HETATM   29  C   UNL     1      -6.994   9.682  67.822  1.00  0.00    -0.079 C  
ENDBRANCH  15  20
ENDBRANCH   5   6
ENDBRANCH   4   5
TORSDOF 3
ENDMDL
MODEL      162
REMARK 921   NORMALIZED FREE ENERGY PREDICTED BY IDOCK:   -0.44 KCAL/MOL
REMARK 922        TOTAL FREE ENERGY PREDICTED BY IDOCK:   -1.33 KCAL/MOL
REMARK 923 INTER-LIGAND FREE ENERGY PREDICTED BY IDOCK:   -0.08 KCAL/MOL
REMARK 924 INTRA-LIGAND FREE ENERGY PREDICTED BY IDOCK:   -1.25 KCAL/MOL
REMARK 927      BINDING AFFINITY PREDICTED BY RF-SCORE:    0.00 PKD
ROOT
HETATM    1  C   UNL     1      -7.421   9.535  64.680  1.00  0.00    -0.113 C  
HETATM    2  C   UNL     1      -7.918   9.145  63.289  1.00  0.00    -0.147 C  
HETATM    3  C   UNL     1      -8.279   7.657  63.270  1.00  0.00     0.027 C  
HETATM    4  C   UNL     1      -9.144   9.964  62.845  1.00  0.00    -0.291 C  
ENDROOT
BRANCH   4   5
HETATM    5  C   UNL     1      -8.885  11.464  62.693  1.00  0.00    -0.163 C  
BRANCH   5   6
HETATM    6  C   UNL     1      -9.988  12.287  63.397  1.00  0.00    -0.192 C  
HETATM    7  C   UNL     1      -9.833  12.377  64.943  1.00  0.00    -0.122 C  
HETATM    8  C   UNL     1     -11.092  13.128  65.667  1.00  0.00    -0.296 C  
HETATM    9  C   UNL     1      -8.434  12.946  65.239  1.00  0.00     2.377 C  
HETATM   10  C   UNL     1     -12.347  12.272  65.475  1.00  0.00    -0.101 C  
HETATM   11  C   UNL     1     -12.310  11.265  66.617  1.00  0.00     2.338 C  
HETATM   12  C   UNL     1     -11.200  11.722  67.607  1.00  0.00    -0.345 C  
HETATM   13  C   UNL     1     -11.567  11.304  69.030  1.00  0.00    -0.386 C  
HETATM   14  C   UNL     1     -11.174  12.327  70.063  1.00  0.00     0.167 C  
HETATM   15  C   UNL     1     -12.168  10.130  69.327  1.00  0.00     0.348 C  
HETATM   16  C   UNL     1      -9.758  14.099  67.561  1.00  0.00    -0.234 C  
HETATM   17  C   UNL     1     -11.609  13.754  69.673  1.00  0.00    -0.343 C  
HETATM   18  C   UNL     1     -11.011  13.253  67.254  1.00  0.00    -0.284 C  
HETATM   19  C   UNL     1     -12.071  13.931  68.175  1.00  0.00    -0.317 C  
BRANCH  15  20
HETATM   20  C   UNL     1     -12.139   9.524  70.647  1.00  0.00    -0.230 C  
HETATM   21  C   UNL     1     -11.309   8.636  71.221  1.00  0.00    -0.341 C  
HETATM   22  C   UNL     1     -11.475   8.384  72.714  1.00  0.00    -0.235 C  
HETATM   23  C   UNL     1     -11.615   6.900  73.049  1.00  0.00     0.100 C  
HETATM   24  C   UNL     1     -10.451   6.100  72.472  1.00  0.00    -0.228 C  
HETATM   25  O   UNL     1     -12.860   6.386  72.573  1.00  0.00    -0.489 OA 
HETATM   26  C   UNL     1     -10.274   6.352  70.971  1.00  0.00    -0.227 C  
HETATM   27  H   UNL     1     -12.946   5.464  72.781  1.00  0.00     0.000 HD 
HETATM   28  C   UNL     1     -10.243   7.831  70.628  1.00  0.00    -0.199 C  
HETATM   29  C   UNL     1      -9.239   8.354  69.889  1.00  0.00    -0.151 C  
ENDBRANCH  15  20
ENDBRANCH   5   6
ENDBRANCH   4   5
TORSDOF 3
ENDMDL
MODEL      163
REMARK 921   NORMALIZED FREE ENERGY PREDICTED BY IDOCK:    1.62 KCAL/MOL
REMARK 922        TOTAL FREE ENERGY PREDICTED BY IDOCK:    1.09 KCAL/MOL
REMARK 923 INTER-LIGAND FREE ENERGY PREDICTED BY IDOCK:   -1.04 KCAL/MOL
REMARK 924 INTRA-LIGAND FREE ENERGY PREDICTED BY IDOCK:    2.14 KCAL/MOL
REMARK 927      BINDING AFFINITY PREDICTED BY RF-SCORE:    0.00 PKD
ROOT
HETATM    1  C   UNL     1      -8.362   6.025  67.539  1.00  0.00    -0.108 C  
HETATM    2  C   UNL     1      -6.886   6.227  67.199  1.00  0.00    -0.066 C  
HETATM    3  C   UNL     1      -6.666   5.991  65.702  1.00  0.00    -0.048 C  
HETATM    4  C   UNL     1      -6.380   7.636  67.564  1.00  0.00    -0.054 C  
ENDROOT
BRANCH   4   5
HETATM    5  C   UNL     1      -6.421   7.958  69.058  1.00  0.00    -0.037 C  
BRANCH   5   6
HETATM    6  C   UNL     1      -7.720   8.712  69.424  1.00  0.00    -0.091 C  
HETATM    7  C   UNL     1      -8.250   9.658  68.306  1.00  0.00    -0.106 C  
HETATM    8  C   UNL     1      -9.537  10.546  68.780  1.00  0.00    -0.181 C  
HETATM    9  C   UNL     1      -8.431   8.815  67.031  1.00  0.00    -0.109 C  
HETATM   10  C   UNL     1      -9.088  11.505  69.886  1.00  0.00     1.859 C  
HETATM   11  C   UNL     1      -8.541  12.719  69.150  1.00  0.00     0.681 C  
HETATM   12  C   UNL     1      -8.931  12.573  67.650  1.00  0.00    -0.185 C  
HETATM   13  C   UNL     1      -9.123  13.953  67.024  1.00  0.00    -0.259 C  
HETATM   14  C   UNL     1     -10.254  13.995  66.030  1.00  0.00    -0.313 C  
HETATM   15  C   UNL     1      -8.347  15.019  67.325  1.00  0.00    -0.228 C  
HETATM   16  C   UNL     1     -10.611  10.672  66.513  1.00  0.00    -0.257 C  
HETATM   17  C   UNL     1     -11.541  13.344  66.574  1.00  0.00    -0.394 C  
HETATM   18  C   UNL     1     -10.134  11.545  67.691  1.00  0.00    -0.202 C  
HETATM   19  C   UNL     1     -11.359  12.490  67.888  1.00  0.00    -0.343 C  
BRANCH  15  20
HETATM   20  C   UNL     1      -8.219  16.185  66.469  1.00  0.00    -0.343 C  
HETATM   21  C   UNL     1      -7.245  17.099  66.321  1.00  0.00    -0.308 C  
HETATM   22  C   UNL     1      -7.374  18.080  65.162  1.00  0.00     1.303 C  
HETATM   23  C   UNL     1      -7.241  19.537  65.605  1.00  0.00    -0.262 C  
HETATM   24  C   UNL     1      -5.946  19.754  66.381  1.00  0.00    -0.175 C  
HETATM   25  O   UNL     1      -8.367  19.933  66.389  1.00  0.00    -0.323 OA 
HETATM   26  C   UNL     1      -5.806  18.768  67.545  1.00  0.00    -0.170 C  
HETATM   27  H   UNL     1      -8.285  20.839  66.664  1.00  0.00     0.000 HD 
HETATM   28  C   UNL     1      -6.044  17.329  67.123  1.00  0.00    -0.184 C  
HETATM   29  C   UNL     1      -5.147  16.360  67.413  1.00  0.00    -0.143 C  
ENDBRANCH  15  20
ENDBRANCH   5   6
ENDBRANCH   4   5
TORSDOF 3
ENDMDL
MODEL      164
REMARK 921   NORMALIZED FREE ENERGY PREDICTED BY IDOCK:    2.06 KCAL/MOL
REMARK 922        TOTAL FREE ENERGY PREDICTED BY IDOCK:    1.61 KCAL/MOL
REMARK 923 INTER-LIGAND FREE ENERGY PREDICTED BY IDOCK:    2.57 KCAL/MOL
REMARK 924 INTRA-LIGAND FREE ENERGY PREDICTED BY IDOCK:   -0.96 KCAL/MOL
REMARK 927      BINDING AFFINITY PREDICTED BY RF-SCORE:    0.00 PKD
ROOT
HETATM    1  C   UNL     1      -9.564   4.941  64.089  1.00  0.00     0.292 C  
HETATM    2  C   UNL     1      -9.617   5.842  65.321  1.00  0.00     0.496 C  
HETATM    3  C   UNL     1     -10.316   7.158  64.967  1.00  0.00     4.248 C  
HETATM    4  C   UNL     1     -10.352   5.186  66.505  1.00  0.00    -0.336 C  
ENDROOT
BRANCH   4   5
HETATM    5  C   UNL     1      -9.682   3.924  67.049  1.00  0.00    -0.186 C  
BRANCH   5   6
HETATM    6  C   UNL     1      -8.398   4.278  67.835  1.00  0.00    -0.096 C  
HETATM    7  C   UNL     1      -8.504   5.577  68.686  1.00  0.00    -0.104 C  
HETATM    8  C   UNL     1      -7.088   5.999  69.385  1.00  0.00    -0.066 C  
HETATM    9  C   UNL     1      -9.713   5.420  69.627  1.00  0.00    -0.240 C  
HETATM   10  C   UNL     1      -6.090   6.364  68.283  1.00  0.00    -0.027 C  
HETATM   11  C   UNL     1      -6.362   7.832  67.984  1.00  0.00    -0.050 C  
HETATM   12  C   UNL     1      -7.309   8.369  69.096  1.00  0.00    -0.079 C  
HETATM   13  C   UNL     1      -7.039   9.853  69.339  1.00  0.00    -0.067 C  
HETATM   14  C   UNL     1      -7.149  10.241  70.790  1.00  0.00     0.378 C  
HETATM   15  C   UNL     1      -6.747  10.726  68.348  1.00  0.00    -0.059 C  
HETATM   16  C   UNL     1      -8.111   7.064  71.417  1.00  0.00    -0.108 C  
HETATM   17  C   UNL     1      -6.377   9.280  71.716  1.00  0.00     0.039 C  
HETATM   18  C   UNL     1      -7.114   7.325  70.269  1.00  0.00    -0.065 C  
HETATM   19  C   UNL     1      -5.906   7.932  71.045  1.00  0.00    -0.034 C  
BRANCH  15  20
HETATM   20  C   UNL     1      -6.907  12.164  68.473  1.00  0.00    -0.086 C  
HETATM   21  C   UNL     1      -7.993  12.952  68.557  1.00  0.00    -0.095 C  
HETATM   22  C   UNL     1      -7.769  14.422  68.889  1.00  0.00    -0.128 C  
HETATM   23  C   UNL     1      -8.448  15.362  67.894  1.00  0.00    -0.147 C  
HETATM   24  C   UNL     1      -9.933  15.037  67.765  1.00  0.00    -0.229 C  
HETATM   25  O   UNL     1      -7.810  15.298  66.618  1.00  0.00    -0.297 OA 
HETATM   26  C   UNL     1     -10.168  13.559  67.435  1.00  0.00    -0.237 C  
HETATM   27  H   UNL     1      -8.232  15.882  65.999  1.00  0.00     0.000 HD 
HETATM   28  C   UNL     1      -9.405  12.627  68.361  1.00  0.00    -0.148 C  
HETATM   29  C   UNL     1     -10.034  11.622  69.011  1.00  0.00    -0.002 C  
ENDBRANCH  15  20
ENDBRANCH   5   6
ENDBRANCH   4   5
TORSDOF 3
ENDMDL
MODEL      165
REMARK 921   NORMALIZED FREE ENERGY PREDICTED BY IDOCK:    2.19 KCAL/MOL
REMARK 922        TOTAL FREE ENERGY PREDICTED BY IDOCK:    1.76 KCAL/MOL
REMARK 923 INTER-LIGAND FREE ENERGY PREDICTED BY IDOCK:    2.53 KCAL/MOL
REMARK 924 INTRA-LIGAND FREE ENERGY PREDICTED BY IDOCK:   -0.78 KCAL/MOL
REMARK 927      BINDING AFFINITY PREDICTED BY RF-SCORE:    0.00 PKD
ROOT
HETATM    1  C   UNL     1     -12.330  16.330  72.757  1.00  0.00    -0.543 C  
HETATM    2  C   UNL     1     -12.463  15.749  71.350  1.00  0.00    -0.513 C  
HETATM    3  C   UNL     1     -11.640  16.588  70.367  1.00  0.00     0.115 C  
HETATM    4  C   UNL     1     -11.999  14.282  71.268  1.00  0.00    -0.315 C  
ENDROOT
BRANCH   4   5
HETATM    5  C   UNL     1     -12.826  13.307  72.107  1.00  0.00    -0.291 C  
BRANCH   5   6
HETATM    6  C   UNL     1     -13.151  12.027  71.301  1.00  0.00    -0.209 C  
HETATM    7  C   UNL     1     -11.912  11.146  70.969  1.00  0.00    -0.268 C  
HETATM    8  C   UNL     1     -12.271   9.883  69.995  1.00  0.00     0.048 C  
HETATM    9  C   UNL     1     -11.211  10.808  72.298  1.00  0.00     4.432 C  
HETATM   10  C   UNL     1     -12.708  10.427  68.632  1.00  0.00     2.245 C  
HETATM   11  C   UNL     1     -11.411  10.633  67.862  1.00  0.00    -0.342 C  
HETATM   12  C   UNL     1     -10.271   9.950  68.674  1.00  0.00    -0.197 C  
HETATM   13  C   UNL     1      -9.187   9.442  67.724  1.00  0.00    -0.141 C  
HETATM   14  C   UNL     1      -8.593   8.128  68.159  1.00  0.00    -0.129 C  
HETATM   15  C   UNL     1      -8.796  10.114  66.618  1.00  0.00    -0.145 C  
HETATM   16  C   UNL     1     -10.523   8.337  70.924  1.00  0.00    -0.230 C  
HETATM   17  C   UNL     1      -9.671   7.090  68.531  1.00  0.00    -0.141 C  
HETATM   18  C   UNL     1     -11.051   8.935  69.604  1.00  0.00    -0.056 C  
HETATM   19  C   UNL     1     -11.130   7.666  68.702  1.00  0.00     0.222 C  
BRANCH  15  20
HETATM   20  C   UNL     1      -7.522   9.894  65.954  1.00  0.00    -0.108 C  
HETATM   21  C   UNL     1      -7.202   9.553  64.694  1.00  0.00    -0.113 C  
HETATM   22  C   UNL     1      -5.731   9.616  64.303  1.00  0.00    -0.082 C  
HETATM   23  C   UNL     1      -5.232   8.315  63.675  1.00  0.00    -0.049 C  
HETATM   24  C   UNL     1      -6.109   7.908  62.495  1.00  0.00    -0.073 C  
HETATM   25  O   UNL     1      -5.184   7.268  64.646  1.00  0.00    -0.028 OA 
HETATM   26  C   UNL     1      -7.591   7.848  62.879  1.00  0.00    -0.125 C  
HETATM   27  H   UNL     1      -4.874   6.460  64.256  1.00  0.00     0.000 HD 
HETATM   28  C   UNL     1      -8.059   9.101  63.599  1.00  0.00    -0.160 C  
HETATM   29  C   UNL     1      -9.151   9.777  63.182  1.00  0.00    -0.270 C  
ENDBRANCH  15  20
ENDBRANCH   5   6
ENDBRANCH   4   5
TORSDOF 3
ENDMDL
MODEL      166
REMARK 921   NORMALIZED FREE ENERGY PREDICTED BY IDOCK:    2.30 KCAL/MOL
REMARK 922        TOTAL FREE ENERGY PREDICTED BY IDOCK:    1.89 KCAL/MOL
REMARK 923 INTER-LIGAND FREE ENERGY PREDICTED BY IDOCK:    1.73 KCAL/MOL
REMARK 924 INTRA-LIGAND FREE ENERGY PREDICTED BY IDOCK:    0.16 KCAL/MOL
REMARK 927      BINDING AFFINITY PREDICTED BY RF-SCORE:    0.00 PKD
ROOT
HETATM    1  C   UNL     1     -10.290   2.003  68.484  1.00  0.00     1.873 C  
HETATM    2  C   UNL     1      -9.517   2.559  69.679  1.00  0.00    -0.124 C  
HETATM    3  C   UNL     1     -10.465   2.729  70.870  1.00  0.00     1.219 C  
HETATM    4  C   UNL     1      -8.343   1.655  70.099  1.00  0.00    -0.065 C  
ENDROOT
BRANCH   4   5
HETATM    5  C   UNL     1      -7.248   1.504  69.041  1.00  0.00    -0.036 C  
BRANCH   5   6
HETATM    6  C   UNL     1      -7.823   1.712  67.621  1.00  0.00    -0.059 C  
HETATM    7  C   UNL     1      -7.193   2.903  66.841  1.00  0.00    -0.058 C  
HETATM    8  C   UNL     1      -7.924   3.183  65.406  1.00  0.00    -0.086 C  
HETATM    9  C   UNL     1      -5.670   2.681  66.803  1.00  0.00    -0.022 C  
HETATM   10  C   UNL     1      -9.361   3.640  65.671  1.00  0.00    -0.162 C  
HETATM   11  C   UNL     1      -9.257   5.142  65.894  1.00  0.00    -0.163 C  
HETATM   12  C   UNL     1      -7.820   5.578  65.483  1.00  0.00    -0.099 C  
HETATM   13  C   UNL     1      -7.841   7.011  64.953  1.00  0.00    -0.126 C  
HETATM   14  C   UNL     1      -6.895   7.226  63.802  1.00  0.00    -0.053 C  
HETATM   15  C   UNL     1      -8.620   7.984  65.477  1.00  0.00    -0.158 C  
HETATM   16  C   UNL     1      -5.871   4.036  64.235  1.00  0.00    -0.014 C  
HETATM   17  C   UNL     1      -7.023   6.132  62.723  1.00  0.00    -0.042 C  
HETATM   18  C   UNL     1      -7.338   4.394  64.550  1.00  0.00    -0.071 C  
HETATM   19  C   UNL     1      -7.848   4.857  63.151  1.00  0.00    -0.072 C  
BRANCH  15  20
HETATM   20  C   UNL     1      -8.362   9.402  65.298  1.00  0.00    -0.147 C  
HETATM   21  C   UNL     1      -8.392  10.444  66.146  1.00  0.00    -0.149 C  
HETATM   22  C   UNL     1      -7.855  11.777  65.640  1.00  0.00     0.861 C  
HETATM   23  C   UNL     1      -8.844  12.925  65.837  1.00  0.00     0.564 C  
HETATM   24  C   UNL     1      -9.287  13.017  67.294  1.00  0.00    -0.220 C  
HETATM   25  O   UNL     1      -9.976  12.774  64.979  1.00  0.00    -0.431 OA 
HETATM   26  C   UNL     1      -9.824  11.679  67.813  1.00  0.00    -0.186 C  
HETATM   27  H   UNL     1     -10.591  13.487  65.102  1.00  0.00     0.000 HD 
HETATM   28  C   UNL     1      -8.886  10.521  67.520  1.00  0.00    -0.131 C  
HETATM   29  C   UNL     1      -8.488   9.682  68.501  1.00  0.00    -0.118 C  
ENDBRANCH  15  20
ENDBRANCH   5   6
ENDBRANCH   4   5
TORSDOF 3
ENDMDL
MODEL      167
REMARK 921   NORMALIZED FREE ENERGY PREDICTED BY IDOCK:    2.80 KCAL/MOL
REMARK 922        TOTAL FREE ENERGY PREDICTED BY IDOCK:    2.47 KCAL/MOL
REMARK 923 INTER-LIGAND FREE ENERGY PREDICTED BY IDOCK:    1.94 KCAL/MOL
REMARK 924 INTRA-LIGAND FREE ENERGY PREDICTED BY IDOCK:    0.54 KCAL/MOL
REMARK 927      BINDING AFFINITY PREDICTED BY RF-SCORE:    0.00 PKD
ROOT
HETATM    1  C   UNL     1      -8.180  14.382  69.697  1.00  0.00     0.433 C  
HETATM    2  C   UNL     1      -8.504  15.665  68.932  1.00  0.00    -0.213 C  
HETATM    3  C   UNL     1      -9.553  16.472  69.703  1.00  0.00     0.138 C  
HETATM    4  C   UNL     1      -7.263  16.548  68.701  1.00  0.00    -0.186 C  
ENDROOT
BRANCH   4   5
HETATM    5  C   UNL     1      -6.183  15.909  67.828  1.00  0.00    -0.166 C  
BRANCH   5   6
HETATM    6  C   UNL     1      -5.450  14.783  68.594  1.00  0.00    -0.094 C  
HETATM    7  C   UNL     1      -5.911  13.345  68.216  1.00  0.00    -0.097 C  
HETATM    8  C   UNL     1      -5.223  12.190  69.147  1.00  0.00    -0.055 C  
HETATM    9  C   UNL     1      -5.744  13.187  66.694  1.00  0.00     1.833 C  
HETATM   10  C   UNL     1      -5.716  12.365  70.586  1.00  0.00    -0.138 C  
HETATM   11  C   UNL     1      -7.033  11.604  70.641  1.00  0.00     1.853 C  
HETATM   12  C   UNL     1      -7.147  10.772  69.331  1.00  0.00    -0.122 C  
HETATM   13  C   UNL     1      -7.940   9.492  69.594  1.00  0.00    -0.120 C  
HETATM   14  C   UNL     1      -7.411   8.306  68.830  1.00  0.00    -0.090 C  
HETATM   15  C   UNL     1      -9.011   9.438  70.416  1.00  0.00    -0.294 C  
HETATM   16  C   UNL     1      -5.204  10.409  67.376  1.00  0.00    -0.040 C  
HETATM   17  C   UNL     1      -5.881   8.161  68.955  1.00  0.00    -0.035 C  
HETATM   18  C   UNL     1      -5.650  10.688  68.826  1.00  0.00    -0.040 C  
HETATM   19  C   UNL     1      -5.133   9.412  69.557  1.00  0.00    -0.035 C  
BRANCH  15  20
HETATM   20  C   UNL     1     -10.016   8.390  70.358  1.00  0.00    -0.199 C  
HETATM   21  C   UNL     1     -10.492   7.538  71.282  1.00  0.00    -0.220 C  
HETATM   22  C   UNL     1     -11.707   6.701  70.904  1.00  0.00    -0.431 C  
HETATM   23  C   UNL     1     -11.494   5.207  71.146  1.00  0.00     0.924 C  
HETATM   24  C   UNL     1     -11.059   4.945  72.584  1.00  0.00    -0.227 C  
HETATM   25  O   UNL     1     -10.536   4.677  70.229  1.00  0.00    -0.137 OA 
HETATM   26  C   UNL     1      -9.839   5.787  72.974  1.00  0.00    -0.179 C  
HETATM   27  H   UNL     1     -10.403   3.748  70.379  1.00  0.00     0.000 HD 
HETATM   28  C   UNL     1     -10.012   7.257  72.635  1.00  0.00    -0.223 C  
HETATM   29  C   UNL     1      -9.808   8.216  73.565  1.00  0.00     0.103 C  
ENDBRANCH  15  20
ENDBRANCH   5   6
ENDBRANCH   4   5
TORSDOF 3
ENDMDL
MODEL      168
REMARK 921   NORMALIZED FREE ENERGY PREDICTED BY IDOCK:    3.35 KCAL/MOL
REMARK 922        TOTAL FREE ENERGY PREDICTED BY IDOCK:    3.12 KCAL/MOL
REMARK 923 INTER-LIGAND FREE ENERGY PREDICTED BY IDOCK:    3.79 KCAL/MOL
REMARK 924 INTRA-LIGAND FREE ENERGY PREDICTED BY IDOCK:   -0.67 KCAL/MOL
REMARK 927      BINDING AFFINITY PREDICTED BY RF-SCORE:    0.00 PKD
ROOT
HETATM    1  C   UNL     1      -8.727  17.116  66.101  1.00  0.00    -0.223 C  
HETATM    2  C   UNL     1      -8.013  15.776  66.269  1.00  0.00     0.168 C  
HETATM    3  C   UNL     1      -7.226  15.774  67.584  1.00  0.00    -0.189 C  
HETATM    4  C   UNL     1      -8.984  14.581  66.264  1.00  0.00    -0.077 C  
ENDROOT
BRANCH   4   5
HETATM    5  C   UNL     1      -9.744  14.386  64.952  1.00  0.00     0.278 C  
BRANCH   5   6
HETATM    6  C   UNL     1      -9.785  12.892  64.556  1.00  0.00     0.115 C  
HETATM    7  C   UNL     1     -10.239  11.937  65.698  1.00  0.00    -0.280 C  
HETATM    8  C   UNL     1     -10.130  10.358  65.291  1.00  0.00    -0.370 C  
HETATM    9  C   UNL     1     -11.613  12.424  66.193  1.00  0.00    -0.452 C  
HETATM   10  C   UNL     1      -8.653  10.008  65.088  1.00  0.00    -0.170 C  
HETATM   11  C   UNL     1      -8.139   9.669  66.480  1.00  0.00    -0.119 C  
HETATM   12  C   UNL     1      -9.374   9.554  67.420  1.00  0.00    -0.153 C  
HETATM   13  C   UNL     1      -9.093   8.542  68.529  1.00  0.00    -0.135 C  
HETATM   14  C   UNL     1     -10.300   7.718  68.893  1.00  0.00    -0.224 C  
HETATM   15  C   UNL     1      -7.888   8.414  69.129  1.00  0.00    -0.105 C  
HETATM   16  C   UNL     1     -12.060   9.594  66.704  1.00  0.00     5.746 C  
HETATM   17  C   UNL     1     -11.014   7.142  67.653  1.00  0.00    -0.226 C  
HETATM   18  C   UNL     1     -10.571   9.316  66.413  1.00  0.00    -0.037 C  
HETATM   19  C   UNL     1     -10.571   7.763  66.272  1.00  0.00     0.732 C  
BRANCH  15  20
HETATM   20  C   UNL     1      -7.700   7.796  70.430  1.00  0.00    -0.088 C  
HETATM   21  C   UNL     1      -6.905   6.799  70.855  1.00  0.00    -0.059 C  
HETATM   22  C   UNL     1      -6.829   6.555  72.357  1.00  0.00    -0.068 C  
HETATM   23  C   UNL     1      -7.102   5.099  72.733  1.00  0.00    -0.087 C  
HETATM   24  C   UNL     1      -6.181   4.157  71.965  1.00  0.00    -0.017 C  
HETATM   25  O   UNL     1      -8.470   4.762  72.499  1.00  0.00    -0.113 OA 
HETATM   26  C   UNL     1      -6.249   4.399  70.453  1.00  0.00    -0.019 C  
HETATM   27  H   UNL     1      -8.640   3.858  72.732  1.00  0.00     0.000 HD 
HETATM   28  C   UNL     1      -6.083   5.864  70.089  1.00  0.00    -0.026 C  
HETATM   29  C   UNL     1      -5.170   6.255  69.173  1.00  0.00    -0.011 C  
ENDBRANCH  15  20
ENDBRANCH   5   6
ENDBRANCH   4   5
TORSDOF 3
ENDMDL
MODEL      169
REMARK 921   NORMALIZED FREE ENERGY PREDICTED BY IDOCK:    4.01 KCAL/MOL
REMARK 922        TOTAL FREE ENERGY PREDICTED BY IDOCK:    3.90 KCAL/MOL
REMARK 923 INTER-LIGAND FREE ENERGY PREDICTED BY IDOCK:    4.16 KCAL/MOL
REMARK 924 INTRA-LIGAND FREE ENERGY PREDICTED BY IDOCK:   -0.25 KCAL/MOL
REMARK 927      BINDING AFFINITY PREDICTED BY RF-SCORE:    0.00 PKD
ROOT
HETATM    1  C   UNL     1     -11.972   9.890  73.264  1.00  0.00     4.871 C  
HETATM    2  C   UNL     1     -11.339   9.375  71.973  1.00  0.00    -0.122 C  
HETATM    3  C   UNL     1     -11.741   7.914  71.750  1.00  0.00    -0.329 C  
HETATM    4  C   UNL     1     -11.751  10.201  70.740  1.00  0.00    -0.446 C  
ENDROOT
BRANCH   4   5
HETATM    5  C   UNL     1     -11.293  11.660  70.771  1.00  0.00     0.869 C  
BRANCH   5   6
HETATM    6  C   UNL     1     -10.368  11.972  69.571  1.00  0.00     0.483 C  
HETATM    7  C   UNL     1     -10.421  10.917  68.429  1.00  0.00    -0.206 C  
HETATM    8  C   UNL     1      -9.327  11.201  67.248  1.00  0.00    -0.170 C  
HETATM    9  C   UNL     1     -11.889  10.783  67.985  1.00  0.00     0.047 C  
HETATM   10  C   UNL     1      -7.922  11.035  67.834  1.00  0.00    -0.112 C  
HETATM   11  C   UNL     1      -7.629   9.545  67.726  1.00  0.00    -0.087 C  
HETATM   12  C   UNL     1      -8.737   8.914  66.833  1.00  0.00    -0.128 C  
HETATM   13  C   UNL     1      -8.172   7.716  66.071  1.00  0.00    -0.128 C  
HETATM   14  C   UNL     1      -8.718   7.600  64.672  1.00  0.00     0.315 C  
HETATM   15  C   UNL     1      -7.286   6.847  66.606  1.00  0.00    -0.077 C  
HETATM   16  C   UNL     1     -10.706  10.237  65.383  1.00  0.00     0.158 C  
HETATM   17  C   UNL     1      -8.669   8.938  63.908  1.00  0.00    -0.056 C  
HETATM   18  C   UNL     1      -9.314  10.158  66.043  1.00  0.00    -0.216 C  
HETATM   19  C   UNL     1      -8.379  10.210  64.796  1.00  0.00    -0.167 C  
BRANCH  15  20
HETATM   20  C   UNL     1      -7.067   5.506  66.092  1.00  0.00    -0.068 C  
HETATM   21  C   UNL     1      -6.499   5.049  64.963  1.00  0.00    -0.036 C  
HETATM   22  C   UNL     1      -6.259   3.548  64.856  1.00  0.00    -0.024 C  
HETATM   23  C   UNL     1      -6.835   2.948  63.574  1.00  0.00    -0.032 C  
HETATM   24  C   UNL     1      -6.313   3.687  62.345  1.00  0.00    -0.021 C  
HETATM   25  O   UNL     1      -8.263   2.968  63.601  1.00  0.00    -0.084 OA 
HETATM   26  C   UNL     1      -6.546   5.198  62.447  1.00  0.00    -0.025 C  
HETATM   27  H   UNL     1      -8.621   2.595  62.804  1.00  0.00     0.000 HD 
HETATM   28  C   UNL     1      -6.069   5.774  63.769  1.00  0.00    -0.025 C  
HETATM   29  C   UNL     1      -5.237   6.839  63.805  1.00  0.00    -0.027 C  
ENDBRANCH  15  20
ENDBRANCH   5   6
ENDBRANCH   4   5
TORSDOF 3
ENDMDL
MODEL      170
REMARK 921   NORMALIZED FREE ENERGY PREDICTED BY IDOCK:    5.07 KCAL/MOL
REMARK 922        TOTAL FREE ENERGY PREDICTED BY IDOCK:    5.15 KCAL/MOL
REMARK 923 INTER-LIGAND FREE ENERGY PREDICTED BY IDOCK:    6.13 KCAL/MOL
REMARK 924 INTRA-LIGAND FREE ENERGY PREDICTED BY IDOCK:   -0.98 KCAL/MOL
REMARK 927      BINDING AFFINITY PREDICTED BY RF-SCORE:    0.00 PKD
ROOT
HETATM    1  C   UNL     1      -8.156   5.559  64.154  1.00  0.00    -0.124 C  
HETATM    2  C   UNL     1      -7.273   6.702  64.651  1.00  0.00    -0.071 C  
HETATM    3  C   UNL     1      -6.621   7.405  63.456  1.00  0.00    -0.053 C  
HETATM    4  C   UNL     1      -8.054   7.739  65.478  1.00  0.00    -0.128 C  
ENDROOT
BRANCH   4   5
HETATM    5  C   UNL     1      -8.651   7.197  66.777  1.00  0.00    -0.124 C  
BRANCH   5   6
HETATM    6  C   UNL     1      -8.394   8.171  67.950  1.00  0.00    -0.129 C  
HETATM    7  C   UNL     1      -9.387   9.367  68.021  1.00  0.00    -0.140 C  
HETATM    8  C   UNL     1      -8.996  10.451  69.180  1.00  0.00    -0.188 C  
HETATM    9  C   UNL     1     -10.811   8.787  68.077  1.00  0.00    -0.056 C  
HETATM   10  C   UNL     1      -7.662  11.105  68.809  1.00  0.00    -0.136 C  
HETATM   11  C   UNL     1      -8.037  12.254  67.882  1.00  0.00    -0.155 C  
HETATM   12  C   UNL     1      -9.583  12.425  67.951  1.00  0.00    -0.205 C  
HETATM   13  C   UNL     1      -9.956  13.889  67.723  1.00  0.00    -0.241 C  
HETATM   14  C   UNL     1     -11.115  14.339  68.573  1.00  0.00    -0.276 C  
HETATM   15  C   UNL     1      -9.318  14.688  66.839  1.00  0.00    -0.258 C  
HETATM   16  C   UNL     1     -11.356  11.156  69.677  1.00  0.00    -0.366 C  
HETATM   17  C   UNL     1     -10.953  13.932  70.051  1.00  0.00     0.202 C  
HETATM   18  C   UNL     1      -9.964  11.712  69.311  1.00  0.00     0.222 C  
HETATM   19  C   UNL     1      -9.818  12.876  70.339  1.00  0.00     4.471 C  
BRANCH  15  20
HETATM   20  C   UNL     1      -9.894  15.906  66.296  1.00  0.00    -0.325 C  
HETATM   21  C   UNL     1      -9.848  17.188  66.696  1.00  0.00    -0.295 C  
HETATM   22  C   UNL     1     -10.412  18.239  65.748  1.00  0.00    -0.228 C  
HETATM   23  C   UNL     1     -11.435  19.153  66.422  1.00  0.00     0.999 C  
HETATM   24  C   UNL     1     -10.852  19.789  67.680  1.00  0.00    -0.361 C  
HETATM   25  O   UNL     1     -12.631  18.435  66.732  1.00  0.00     4.991 OA 
HETATM   26  C   UNL     1     -10.278  18.739  68.637  1.00  0.00    -0.366 C  
HETATM   27  H   UNL     1     -13.267  19.003  67.151  1.00  0.00     0.000 HD 
HETATM   28  C   UNL     1      -9.343  17.765  67.941  1.00  0.00    -0.266 C  
HETATM   29  C   UNL     1      -8.102  17.529  68.420  1.00  0.00    -0.266 C  
ENDBRANCH  15  20
ENDBRANCH   5   6
ENDBRANCH   4   5
TORSDOF 3
ENDMDL
MODEL      171
REMARK 921   NORMALIZED FREE ENERGY PREDICTED BY IDOCK:    5.12 KCAL/MOL
REMARK 922        TOTAL FREE ENERGY PREDICTED BY IDOCK:    5.20 KCAL/MOL
REMARK 923 INTER-LIGAND FREE ENERGY PREDICTED BY IDOCK:    4.99 KCAL/MOL
REMARK 924 INTRA-LIGAND FREE ENERGY PREDICTED BY IDOCK:    0.22 KCAL/MOL
REMARK 927      BINDING AFFINITY PREDICTED BY RF-SCORE:    0.00 PKD
ROOT
HETATM    1  C   UNL     1      -7.671  15.488  71.205  1.00  0.00     3.350 C  
HETATM    2  C   UNL     1      -8.338  14.568  70.184  1.00  0.00     1.069 C  
HETATM    3  C   UNL     1      -9.860  14.720  70.271  1.00  0.00     0.584 C  
HETATM    4  C   UNL     1      -7.887  14.858  68.741  1.00  0.00    -0.149 C  
ENDROOT
BRANCH   4   5
HETATM    5  C   UNL     1      -6.400  14.617  68.479  1.00  0.00    -0.087 C  
BRANCH   5   6
HETATM    6  C   UNL     1      -6.185  13.301  67.696  1.00  0.00    -0.153 C  
HETATM    7  C   UNL     1      -7.477  12.458  67.491  1.00  0.00    -0.150 C  
HETATM    8  C   UNL     1      -7.189  11.009  66.792  1.00  0.00    -0.139 C  
HETATM    9  C   UNL     1      -8.515  13.359  66.797  1.00  0.00     0.021 C  
HETATM   10  C   UNL     1      -6.349  10.162  67.752  1.00  0.00    -0.058 C  
HETATM   11  C   UNL     1      -7.363   9.498  68.673  1.00  0.00    -0.075 C  
HETATM   12  C   UNL     1      -8.776   9.743  68.067  1.00  0.00    -0.118 C  
HETATM   13  C   UNL     1      -9.702   8.577  68.415  1.00  0.00    -0.169 C  
HETATM   14  C   UNL     1     -10.647   8.224  67.297  1.00  0.00    -0.335 C  
HETATM   15  C   UNL     1      -9.679   7.944  69.609  1.00  0.00    -0.173 C  
HETATM   16  C   UNL     1      -9.392  10.858  65.595  1.00  0.00    -0.236 C  
HETATM   17  C   UNL     1      -9.931   8.101  65.937  1.00  0.00     0.332 C  
HETATM   18  C   UNL     1      -8.464  10.083  66.553  1.00  0.00    -0.128 C  
HETATM   19  C   UNL     1      -8.459   8.668  65.898  1.00  0.00    -0.158 C  
BRANCH  15  20
HETATM   20  C   UNL     1     -10.787   7.155  70.120  1.00  0.00    -0.279 C  
HETATM   21  C   UNL     1     -12.027   7.485  70.521  1.00  0.00    -0.088 C  
HETATM   22  C   UNL     1     -12.998   6.346  70.806  1.00  0.00     0.866 C  
HETATM   23  C   UNL     1     -13.647   6.456  72.185  1.00  0.00     0.391 C  
HETATM   24  C   UNL     1     -14.312   7.817  72.367  1.00  0.00    -0.161 C  
HETATM   25  O   UNL     1     -12.688   6.225  73.218  1.00  0.00     0.878 OA 
HETATM   26  C   UNL     1     -13.342   8.968  72.077  1.00  0.00    -0.494 C  
HETATM   27  H   UNL     1     -13.092   6.294  74.075  1.00  0.00     0.000 HD 
HETATM   28  C   UNL     1     -12.618   8.802  70.753  1.00  0.00     0.128 C  
HETATM   29  C   UNL     1     -12.607   9.794  69.835  1.00  0.00     0.516 C  
ENDBRANCH  15  20
ENDBRANCH   5   6
ENDBRANCH   4   5
TORSDOF 3
ENDMDL
MODEL      172
REMARK 921   NORMALIZED FREE ENERGY PREDICTED BY IDOCK:    5.22 KCAL/MOL
REMARK 922        TOTAL FREE ENERGY PREDICTED BY IDOCK:    5.32 KCAL/MOL
REMARK 923 INTER-LIGAND FREE ENERGY PREDICTED BY IDOCK:    6.30 KCAL/MOL
REMARK 924 INTRA-LIGAND FREE ENERGY PREDICTED BY IDOCK:   -0.98 KCAL/MOL
REMARK 927      BINDING AFFINITY PREDICTED BY RF-SCORE:    0.00 PKD
ROOT
HETATM    1  C   UNL     1     -12.470  15.901  72.843  1.00  0.00    -0.582 C  
HETATM    2  C   UNL     1     -12.925  15.290  71.518  1.00  0.00    -0.488 C  
HETATM    3  C   UNL     1     -12.252  16.026  70.355  1.00  0.00    -0.146 C  
HETATM    4  C   UNL     1     -12.603  13.788  71.415  1.00  0.00    -0.433 C  
ENDROOT
BRANCH   4   5
HETATM    5  C   UNL     1     -13.319  12.912  72.444  1.00  0.00    -0.526 C  
BRANCH   5   6
HETATM    6  C   UNL     1     -13.817  11.599  71.797  1.00  0.00     0.497 C  
HETATM    7  C   UNL     1     -12.815  10.412  71.902  1.00  0.00    -0.519 C  
HETATM    8  C   UNL     1     -13.309   9.087  71.083  1.00  0.00    -0.157 C  
HETATM    9  C   UNL     1     -12.484  10.213  73.392  1.00  0.00     5.660 C  
HETATM   10  C   UNL     1     -13.329   9.416  69.588  1.00  0.00     2.683 C  
HETATM   11  C   UNL     1     -11.905   9.159  69.114  1.00  0.00     1.051 C  
HETATM   12  C   UNL     1     -11.155   8.424  70.263  1.00  0.00    -0.216 C  
HETATM   13  C   UNL     1     -10.088   7.498  69.681  1.00  0.00    -0.189 C  
HETATM   14  C   UNL     1      -9.952   6.206  70.442  1.00  0.00    -0.223 C  
HETATM   15  C   UNL     1      -9.338   7.817  68.602  1.00  0.00    -0.148 C  
HETATM   16  C   UNL     1     -12.232   7.418  72.621  1.00  0.00     0.052 C  
HETATM   17  C   UNL     1     -11.315   5.538  70.715  1.00  0.00     0.188 C  
HETATM   18  C   UNL     1     -12.332   7.828  71.137  1.00  0.00    -0.268 C  
HETATM   19  C   UNL     1     -12.576   6.449  70.453  1.00  0.00     0.787 C  
BRANCH  15  20
HETATM   20  C   UNL     1      -8.068   7.184  68.293  1.00  0.00    -0.124 C  
HETATM   21  C   UNL     1      -7.751   6.075  67.601  1.00  0.00    -0.097 C  
HETATM   22  C   UNL     1      -6.277   5.830  67.308  1.00  0.00    -0.034 C  
HETATM   23  C   UNL     1      -5.815   4.437  67.734  1.00  0.00    -0.023 C  
HETATM   24  C   UNL     1      -6.697   3.357  67.115  1.00  0.00    -0.045 C  
HETATM   25  O   UNL     1      -5.805   4.319  69.158  1.00  0.00    -0.020 OA 
HETATM   26  C   UNL     1      -8.182   3.600  67.402  1.00  0.00    -0.090 C  
HETATM   27  H   UNL     1      -5.517   3.453  69.423  1.00  0.00     0.000 HD 
HETATM   28  C   UNL     1      -8.615   5.019  67.076  1.00  0.00    -0.105 C  
HETATM   29  C   UNL     1      -9.684   5.257  66.285  1.00  0.00    -0.185 C  
ENDBRANCH  15  20
ENDBRANCH   5   6
ENDBRANCH   4   5
TORSDOF 3
ENDMDL
MODEL      173
REMARK 921   NORMALIZED FREE ENERGY PREDICTED BY IDOCK:    5.49 KCAL/MOL
REMARK 922        TOTAL FREE ENERGY PREDICTED BY IDOCK:    5.64 KCAL/MOL
REMARK 923 INTER-LIGAND FREE ENERGY PREDICTED BY IDOCK:    6.27 KCAL/MOL
REMARK 924 INTRA-LIGAND FREE ENERGY PREDICTED BY IDOCK:   -0.63 KCAL/MOL
REMARK 927      BINDING AFFINITY PREDICTED BY RF-SCORE:    0.00 PKD
ROOT
HETATM    1  C   UNL     1     -12.470  15.901  72.843  1.00  0.00    -0.582 C  
HETATM    2  C   UNL     1     -12.928  15.294  71.518  1.00  0.00    -0.488 C  
HETATM    3  C   UNL     1     -12.269  16.042  70.355  1.00  0.00    -0.146 C  
HETATM    4  C   UNL     1     -12.592  13.795  71.404  1.00  0.00    -0.433 C  
ENDROOT
BRANCH   4   5
HETATM    5  C   UNL     1     -13.295  12.908  72.432  1.00  0.00    -0.526 C  
BRANCH   5   6
HETATM    6  C   UNL     1     -13.781  11.591  71.782  1.00  0.00     0.230 C  
HETATM    7  C   UNL     1     -12.765  10.415  71.877  1.00  0.00    -0.459 C  
HETATM    8  C   UNL     1     -13.249   9.088  71.055  1.00  0.00    -0.053 C  
HETATM    9  C   UNL     1     -12.425  10.213  73.364  1.00  0.00     5.660 C  
HETATM   10  C   UNL     1     -13.280   9.424  69.561  1.00  0.00     2.974 C  
HETATM   11  C   UNL     1     -11.856   9.185  69.079  1.00  0.00     1.173 C  
HETATM   12  C   UNL     1     -11.092   8.454  70.221  1.00  0.00    -0.216 C  
HETATM   13  C   UNL     1     -10.018   7.542  69.628  1.00  0.00    -0.184 C  
HETATM   14  C   UNL     1      -9.863   6.249  70.384  1.00  0.00    -0.207 C  
HETATM   15  C   UNL     1      -9.276   7.874  68.548  1.00  0.00    -0.138 C  
HETATM   16  C   UNL     1     -12.145   7.425  72.579  1.00  0.00    -0.111 C  
HETATM   17  C   UNL     1     -11.217   5.564  70.661  1.00  0.00     0.037 C  
HETATM   18  C   UNL     1     -12.257   7.841  71.098  1.00  0.00    -0.289 C  
HETATM   19  C   UNL     1     -12.489   6.461  70.409  1.00  0.00     0.546 C  
BRANCH  15  20
HETATM   20  C   UNL     1      -8.001   7.256  68.229  1.00  0.00    -0.124 C  
HETATM   21  C   UNL     1      -7.005   7.608  67.397  1.00  0.00    -0.084 C  
HETATM   22  C   UNL     1      -5.710   6.810  67.478  1.00  0.00    -0.016 C  
HETATM   23  C   UNL     1      -5.258   6.279  66.118  1.00  0.00    -0.013 C  
HETATM   24  C   UNL     1      -5.157   7.410  65.099  1.00  0.00    -0.028 C  
HETATM   25  O   UNL     1      -6.145   5.262  65.649  1.00  0.00    -0.031 OA 
HETATM   26  C   UNL     1      -6.455   8.221  65.015  1.00  0.00    -0.052 C  
HETATM   27  H   UNL     1      -5.865   4.932  64.804  1.00  0.00     0.000 HD 
HETATM   28  C   UNL     1      -6.959   8.657  66.380  1.00  0.00    -0.078 C  
HETATM   29  C   UNL     1      -7.261   9.950  66.631  1.00  0.00    -0.091 C  
ENDBRANCH  15  20
ENDBRANCH   5   6
ENDBRANCH   4   5
TORSDOF 3
ENDMDL
MODEL      174
REMARK 921   NORMALIZED FREE ENERGY PREDICTED BY IDOCK:    5.66 KCAL/MOL
REMARK 922        TOTAL FREE ENERGY PREDICTED BY IDOCK:    5.84 KCAL/MOL
REMARK 923 INTER-LIGAND FREE ENERGY PREDICTED BY IDOCK:    0.50 KCAL/MOL
REMARK 924 INTRA-LIGAND FREE ENERGY PREDICTED BY IDOCK:    5.35 KCAL/MOL
REMARK 927      BINDING AFFINITY PREDICTED BY RF-SCORE:    0.00 PKD
ROOT
HETATM    1  C   UNL     1      -7.550  10.727  65.015  1.00  0.00     0.162 C  
HETATM    2  C   UNL     1      -8.703   9.736  64.869  1.00  0.00    -0.207 C  
HETATM    3  C   UNL     1      -9.671  10.228  63.789  1.00  0.00    -0.298 C  
HETATM    4  C   UNL     1      -8.225   8.318  64.505  1.00  0.00    -0.138 C  
ENDROOT
BRANCH   4   5
HETATM    5  C   UNL     1      -7.350   7.650  65.566  1.00  0.00    -0.074 C  
BRANCH   5   6
HETATM    6  C   UNL     1      -8.000   7.762  66.965  1.00  0.00    -0.116 C  
HETATM    7  C   UNL     1      -9.079   8.877  67.084  1.00  0.00    -0.160 C  
HETATM    8  C   UNL     1      -9.637   9.064  68.609  1.00  0.00    -0.158 C  
HETATM    9  C   UNL     1     -10.136   8.621  65.995  1.00  0.00     0.038 C  
HETATM   10  C   UNL     1      -8.491   9.569  69.490  1.00  0.00    -0.156 C  
HETATM   11  C   UNL     1      -8.505  11.081  69.317  1.00  0.00     0.051 C  
HETATM   12  C   UNL     1      -9.818  11.454  68.569  1.00  0.00    -0.200 C  
HETATM   13  C   UNL     1     -10.287  12.844  69.000  1.00  0.00     0.040 C  
HETATM   14  C   UNL     1     -11.785  12.951  69.108  1.00  0.00    -0.376 C  
HETATM   15  C   UNL     1      -9.441  13.869  69.243  1.00  0.00     0.426 C  
HETATM   16  C   UNL     1     -11.952   9.782  67.950  1.00  0.00     2.288 C  
HETATM   17  C   UNL     1     -12.403  11.782  69.901  1.00  0.00    -0.200 C  
HETATM   18  C   UNL     1     -10.743  10.194  68.814  1.00  0.00    -0.247 C  
HETATM   19  C   UNL     1     -11.439  10.561  70.161  1.00  0.00    -0.405 C  
BRANCH  15  20
HETATM   20  C   UNL     1      -9.846  15.264  69.230  1.00  0.00    -0.255 C  
HETATM   21  C   UNL     1      -9.380  16.338  68.569  1.00  0.00    -0.213 C  
HETATM   22  C   UNL     1     -10.199  17.621  68.650  1.00  0.00    -0.377 C  
HETATM   23  C   UNL     1      -9.365  18.826  69.085  1.00  0.00    -0.073 C  
HETATM   24  C   UNL     1      -8.144  18.996  68.186  1.00  0.00    -0.347 C  
HETATM   25  O   UNL     1      -8.968  18.701  70.451  1.00  0.00     2.105 OA 
HETATM   26  C   UNL     1      -7.318  17.709  68.096  1.00  0.00    -0.228 C  
HETATM   27  H   UNL     1      -8.450  19.450  70.722  1.00  0.00     0.000 HD 
HETATM   28  C   UNL     1      -8.167  16.493  67.768  1.00  0.00    -0.173 C  
HETATM   29  C   UNL     1      -7.842  15.672  66.745  1.00  0.00    -0.211 C  
ENDBRANCH  15  20
ENDBRANCH   5   6
ENDBRANCH   4   5
TORSDOF 3
ENDMDL
MODEL      175
REMARK 921   NORMALIZED FREE ENERGY PREDICTED BY IDOCK:    6.34 KCAL/MOL
REMARK 922        TOTAL FREE ENERGY PREDICTED BY IDOCK:    6.64 KCAL/MOL
REMARK 923 INTER-LIGAND FREE ENERGY PREDICTED BY IDOCK:    6.44 KCAL/MOL
REMARK 924 INTRA-LIGAND FREE ENERGY PREDICTED BY IDOCK:    0.20 KCAL/MOL
REMARK 927      BINDING AFFINITY PREDICTED BY RF-SCORE:    0.00 PKD
ROOT
HETATM    1  C   UNL     1     -10.571   2.020  68.458  1.00  0.00     3.137 C  
HETATM    2  C   UNL     1      -9.837   2.391  69.746  1.00  0.00     0.246 C  
HETATM    3  C   UNL     1     -10.698   2.012  70.955  1.00  0.00     1.534 C  
HETATM    4  C   UNL     1      -8.467   1.700  69.869  1.00  0.00    -0.079 C  
ENDROOT
BRANCH   4   5
HETATM    5  C   UNL     1      -7.457   2.094  68.790  1.00  0.00    -0.043 C  
BRANCH   5   6
HETATM    6  C   UNL     1      -8.177   2.657  67.542  1.00  0.00    -0.083 C  
HETATM    7  C   UNL     1      -8.023   4.194  67.351  1.00  0.00    -0.092 C  
HETATM    8  C   UNL     1      -8.914   4.774  66.109  1.00  0.00    -0.122 C  
HETATM    9  C   UNL     1      -6.517   4.511  67.320  1.00  0.00    -0.042 C  
HETATM   10  C   UNL     1     -10.397   4.595  66.447  1.00  0.00    -0.264 C  
HETATM   11  C   UNL     1     -10.761   5.826  67.264  1.00  0.00    -0.345 C  
HETATM   12  C   UNL     1      -9.575   6.829  67.154  1.00  0.00    -0.177 C  
HETATM   13  C   UNL     1     -10.095   8.263  67.248  1.00  0.00    -0.315 C  
HETATM   14  C   UNL     1      -9.359   9.215  66.342  1.00  0.00    -0.261 C  
HETATM   15  C   UNL     1     -11.100   8.635  68.071  1.00  0.00     0.276 C  
HETATM   16  C   UNL     1      -7.339   6.638  65.512  1.00  0.00    -0.076 C  
HETATM   17  C   UNL     1      -9.214   8.669  64.908  1.00  0.00     0.225 C  
HETATM   18  C   UNL     1      -8.815   6.344  65.853  1.00  0.00    -0.142 C  
HETATM   19  C   UNL     1      -9.553   7.138  64.732  1.00  0.00     2.152 C  
BRANCH  15  20
HETATM   20  C   UNL     1     -11.324  10.006  68.497  1.00  0.00    -0.115 C  
HETATM   21  C   UNL     1     -11.447  10.570  69.711  1.00  0.00    -0.365 C  
HETATM   22  C   UNL     1     -11.469  12.092  69.777  1.00  0.00    -0.261 C  
HETATM   23  C   UNL     1     -12.670  12.631  70.553  1.00  0.00     0.010 C  
HETATM   24  C   UNL     1     -12.744  12.009  71.944  1.00  0.00    -0.208 C  
HETATM   25  O   UNL     1     -13.884  12.399  69.836  1.00  0.00     3.178 OA 
HETATM   26  C   UNL     1     -12.717  10.478  71.886  1.00  0.00    -0.436 C  
HETATM   27  H   UNL     1     -14.631  12.734  70.318  1.00  0.00     0.000 HD 
HETATM   28  C   UNL     1     -11.584   9.947  71.026  1.00  0.00    -0.470 C  
HETATM   29  C   UNL     1     -10.725   9.017  71.500  1.00  0.00    -0.421 C  
ENDBRANCH  15  20
ENDBRANCH   5   6
ENDBRANCH   4   5
TORSDOF 3
ENDMDL
MODEL      176
REMARK 921   NORMALIZED FREE ENERGY PREDICTED BY IDOCK:    8.72 KCAL/MOL
REMARK 922        TOTAL FREE ENERGY PREDICTED BY IDOCK:    9.44 KCAL/MOL
REMARK 923 INTER-LIGAND FREE ENERGY PREDICTED BY IDOCK:    8.42 KCAL/MOL
REMARK 924 INTRA-LIGAND FREE ENERGY PREDICTED BY IDOCK:    1.01 KCAL/MOL
REMARK 927      BINDING AFFINITY PREDICTED BY RF-SCORE:    0.00 PKD
ROOT
HETATM    1  C   UNL     1      -7.624  15.800  71.734  1.00  0.00     5.621 C  
HETATM    2  C   UNL     1      -8.729  15.141  70.908  1.00  0.00     2.384 C  
HETATM    3  C   UNL     1      -9.950  14.882  71.796  1.00  0.00     2.868 C  
HETATM    4  C   UNL     1      -9.158  15.996  69.702  1.00  0.00     0.037 C  
ENDROOT
BRANCH   4   5
HETATM    5  C   UNL     1      -8.061  16.223  68.661  1.00  0.00    -0.213 C  
BRANCH   5   6
HETATM    6  C   UNL     1      -8.173  15.197  67.510  1.00  0.00    -0.196 C  
HETATM    7  C   UNL     1      -8.927  13.889  67.888  1.00  0.00    -0.191 C  
HETATM    8  C   UNL     1      -8.898  12.770  66.697  1.00  0.00    -0.113 C  
HETATM    9  C   UNL     1     -10.316  14.289  68.419  1.00  0.00    -0.247 C  
HETATM   10  C   UNL     1      -7.451  12.311  66.493  1.00  0.00     0.402 C  
HETATM   11  C   UNL     1      -7.247  11.204  67.518  1.00  0.00    -0.101 C  
HETATM   12  C   UNL     1      -8.644  10.845  68.105  1.00  0.00    -0.133 C  
HETATM   13  C   UNL     1      -8.679   9.369  68.502  1.00  0.00    -0.128 C  
HETATM   14  C   UNL     1     -10.008   8.718  68.224  1.00  0.00    -0.202 C  
HETATM   15  C   UNL     1      -7.628   8.725  69.057  1.00  0.00    -0.090 C  
HETATM   16  C   UNL     1     -11.128  11.752  67.247  1.00  0.00    -0.342 C  
HETATM   17  C   UNL     1     -10.527   9.022  66.804  1.00  0.00    -0.270 C  
HETATM   18  C   UNL     1      -9.645  11.397  67.011  1.00  0.00    -0.192 C  
HETATM   19  C   UNL     1      -9.771  10.180  66.045  1.00  0.00    -0.285 C  
BRANCH  15  20
HETATM   20  C   UNL     1      -7.753   7.495  69.819  1.00  0.00    -0.095 C  
HETATM   21  C   UNL     1      -8.118   7.247  71.089  1.00  0.00    -0.102 C  
HETATM   22  C   UNL     1      -8.333   5.792  71.485  1.00  0.00    -0.127 C  
HETATM   23  C   UNL     1      -7.545   5.398  72.734  1.00  0.00    -0.098 C  
HETATM   24  C   UNL     1      -7.849   6.345  73.891  1.00  0.00    -0.094 C  
HETATM   25  O   UNL     1      -6.142   5.375  72.463  1.00  0.00    -0.029 OA 
HETATM   26  C   UNL     1      -7.640   7.811  73.499  1.00  0.00    -0.166 C  
HETATM   27  H   UNL     1      -5.652   5.131  73.239  1.00  0.00     0.000 HD 
HETATM   28  C   UNL     1      -8.339   8.172  72.199  1.00  0.00    -0.209 C  
HETATM   29  C   UNL     1      -9.167   9.238  72.126  1.00  0.00     0.734 C  
ENDBRANCH  15  20
ENDBRANCH   5   6
ENDBRANCH   4   5
TORSDOF 3
ENDMDL
MODEL      177
REMARK 921   NORMALIZED FREE ENERGY PREDICTED BY IDOCK:    8.99 KCAL/MOL
REMARK 922        TOTAL FREE ENERGY PREDICTED BY IDOCK:    9.76 KCAL/MOL
REMARK 923 INTER-LIGAND FREE ENERGY PREDICTED BY IDOCK:   10.62 KCAL/MOL
REMARK 924 INTRA-LIGAND FREE ENERGY PREDICTED BY IDOCK:   -0.87 KCAL/MOL
REMARK 927      BINDING AFFINITY PREDICTED BY RF-SCORE:    0.00 PKD
ROOT
HETATM    1  C   UNL     1     -11.407  19.707  68.619  1.00  0.00     1.831 C  
HETATM    2  C   UNL     1     -12.279  18.761  67.795  1.00  0.00     3.741 C  
HETATM    3  C   UNL     1     -12.928  19.533  66.642  1.00  0.00     6.908 C  
HETATM    4  C   UNL     1     -11.486  17.573  67.219  1.00  0.00     0.898 C  
ENDROOT
BRANCH   4   5
HETATM    5  C   UNL     1     -10.889  16.638  68.271  1.00  0.00    -0.356 C  
BRANCH   5   6
HETATM    6  C   UNL     1      -9.524  16.082  67.804  1.00  0.00    -0.217 C  
HETATM    7  C   UNL     1      -9.477  14.533  67.658  1.00  0.00    -0.209 C  
HETATM    8  C   UNL     1      -7.983  13.971  67.305  1.00  0.00    -0.157 C  
HETATM    9  C   UNL     1     -10.608  14.122  66.698  1.00  0.00    -0.278 C  
HETATM   10  C   UNL     1      -7.062  14.254  68.496  1.00  0.00    -0.105 C  
HETATM   11  C   UNL     1      -7.268  13.074  69.435  1.00  0.00     0.265 C  
HETATM   12  C   UNL     1      -8.082  11.996  68.661  1.00  0.00    -0.069 C  
HETATM   13  C   UNL     1      -7.702  10.601  69.156  1.00  0.00    -0.138 C  
HETATM   14  C   UNL     1      -7.664   9.577  68.053  1.00  0.00    -0.087 C  
HETATM   15  C   UNL     1      -7.442  10.319  70.452  1.00  0.00     0.156 C  
HETATM   16  C   UNL     1      -8.762  11.995  65.965  1.00  0.00     0.115 C  
HETATM   17  C   UNL     1      -6.876  10.067  66.822  1.00  0.00    -0.081 C  
HETATM   18  C   UNL     1      -7.852  12.391  67.146  1.00  0.00    -0.138 C  
HETATM   19  C   UNL     1      -6.547  11.609  66.803  1.00  0.00    -0.094 C  
BRANCH  15  20
HETATM   20  C   UNL     1      -7.503   8.979  71.010  1.00  0.00    -0.132 C  
HETATM   21  C   UNL     1      -8.504   8.270  71.561  1.00  0.00    -0.179 C  
HETATM   22  C   UNL     1      -8.242   6.798  71.853  1.00  0.00    -0.102 C  
HETATM   23  C   UNL     1      -8.569   6.415  73.295  1.00  0.00    -0.121 C  
HETATM   24  C   UNL     1      -9.998   6.811  73.653  1.00  0.00    -0.293 C  
HETATM   25  O   UNL     1      -7.642   7.013  74.203  1.00  0.00    -0.104 OA 
HETATM   26  C   UNL     1     -10.271   8.290  73.358  1.00  0.00     0.365 C  
HETATM   27  H   UNL     1      -7.846   6.775  75.099  1.00  0.00     0.000 HD 
HETATM   28  C   UNL     1      -9.846   8.694  71.957  1.00  0.00    -0.396 C  
HETATM   29  C   UNL     1     -10.700   9.329  71.125  1.00  0.00    -0.403 C  
ENDBRANCH  15  20
ENDBRANCH   5   6
ENDBRANCH   4   5
TORSDOF 3
ENDMDL
MODEL      178
REMARK 921   NORMALIZED FREE ENERGY PREDICTED BY IDOCK:    9.29 KCAL/MOL
REMARK 922        TOTAL FREE ENERGY PREDICTED BY IDOCK:   10.11 KCAL/MOL
REMARK 923 INTER-LIGAND FREE ENERGY PREDICTED BY IDOCK:   10.50 KCAL/MOL
REMARK 924 INTRA-LIGAND FREE ENERGY PREDICTED BY IDOCK:   -0.39 KCAL/MOL
REMARK 927      BINDING AFFINITY PREDICTED BY RF-SCORE:    0.00 PKD
ROOT
HETATM    1  C   UNL     1      -5.625   8.398  64.348  1.00  0.00    -0.059 C  
HETATM    2  C   UNL     1      -6.818   8.157  63.425  1.00  0.00    -0.084 C  
HETATM    3  C   UNL     1      -6.709   6.765  62.796  1.00  0.00    -0.046 C  
HETATM    4  C   UNL     1      -8.168   8.272  64.158  1.00  0.00    -0.107 C  
ENDROOT
BRANCH   4   5
HETATM    5  C   UNL     1      -8.467   9.659  64.726  1.00  0.00    -0.168 C  
BRANCH   5   6
HETATM    6  C   UNL     1      -7.689   9.895  66.042  1.00  0.00    -0.108 C  
HETATM    7  C   UNL     1      -8.342  10.938  66.995  1.00  0.00    -0.132 C  
HETATM    8  C   UNL     1      -7.422  11.269  68.304  1.00  0.00    -0.099 C  
HETATM    9  C   UNL     1      -9.785  10.478  67.271  1.00  0.00    -0.197 C  
HETATM   10  C   UNL     1      -6.136  11.957  67.836  1.00  0.00    -0.057 C  
HETATM   11  C   UNL     1      -6.498  13.432  67.736  1.00  0.00    -0.165 C  
HETATM   12  C   UNL     1      -7.890  13.619  68.409  1.00  0.00    -0.140 C  
HETATM   13  C   UNL     1      -7.988  15.014  69.025  1.00  0.00    -0.180 C  
HETATM   14  C   UNL     1      -8.739  15.029  70.330  1.00  0.00     0.866 C  
HETATM   15  C   UNL     1      -7.465  16.119  68.446  1.00  0.00    -0.153 C  
HETATM   16  C   UNL     1      -9.341  11.739  69.856  1.00  0.00     2.152 C  
HETATM   17  C   UNL     1      -8.264  13.925  71.295  1.00  0.00     6.256 C  
HETATM   18  C   UNL     1      -8.020  12.336  69.326  1.00  0.00     0.536 C  
HETATM   19  C   UNL     1      -7.348  12.815  70.649  1.00  0.00     3.430 C  
BRANCH  15  20
HETATM   20  C   UNL     1      -7.894  17.470  68.762  1.00  0.00    -0.242 C  
HETATM   21  C   UNL     1      -8.641  18.365  68.093  1.00  0.00    -0.301 C  
HETATM   22  C   UNL     1      -9.061  19.625  68.838  1.00  0.00    -0.281 C  
HETATM   23  C   UNL     1      -8.713  20.904  68.076  1.00  0.00     0.417 C  
HETATM   24  C   UNL     1      -9.289  20.870  66.664  1.00  0.00     0.086 C  
HETATM   25  O   UNL     1      -7.299  21.102  68.035  1.00  0.00    -0.043 OA 
HETATM   26  C   UNL     1      -8.875  19.602  65.909  1.00  0.00    -0.126 C  
HETATM   27  H   UNL     1      -7.083  21.896  67.561  1.00  0.00     0.000 HD 
HETATM   28  C   UNL     1      -9.124  18.338  66.713  1.00  0.00    -0.287 C  
HETATM   29  C   UNL     1      -9.819  17.304  66.189  1.00  0.00    -0.269 C  
ENDBRANCH  15  20
ENDBRANCH   5   6
ENDBRANCH   4   5
TORSDOF 3
ENDMDL
MODEL      179
REMARK 921   NORMALIZED FREE ENERGY PREDICTED BY IDOCK:    9.95 KCAL/MOL
REMARK 922        TOTAL FREE ENERGY PREDICTED BY IDOCK:   10.89 KCAL/MOL
REMARK 923 INTER-LIGAND FREE ENERGY PREDICTED BY IDOCK:   10.47 KCAL/MOL
REMARK 924 INTRA-LIGAND FREE ENERGY PREDICTED BY IDOCK:    0.42 KCAL/MOL
REMARK 927      BINDING AFFINITY PREDICTED BY RF-SCORE:    0.00 PKD
ROOT
HETATM    1  C   UNL     1      -7.646  18.226  64.017  1.00  0.00     7.996 C  
HETATM    2  C   UNL     1      -6.246  18.224  64.629  1.00  0.00     0.519 C  
HETATM    3  C   UNL     1      -5.418  19.360  64.023  1.00  0.00    -0.302 C  
HETATM    4  C   UNL     1      -6.268  18.382  66.161  1.00  0.00    -0.235 C  
ENDROOT
BRANCH   4   5
HETATM    5  C   UNL     1      -6.956  17.238  66.908  1.00  0.00    -0.229 C  
BRANCH   5   6
HETATM    6  C   UNL     1      -8.047  16.584  66.029  1.00  0.00    -0.053 C  
HETATM    7  C   UNL     1      -9.015  15.642  66.803  1.00  0.00    -0.291 C  
HETATM    8  C   UNL     1     -10.059  14.856  65.822  1.00  0.00    -0.367 C  
HETATM    9  C   UNL     1      -9.635  16.455  67.953  1.00  0.00    -0.228 C  
HETATM   10  C   UNL     1      -9.264  13.905  64.923  1.00  0.00     1.551 C  
HETATM   11  C   UNL     1      -9.106  12.634  65.747  1.00  0.00     0.265 C  
HETATM   12  C   UNL     1     -10.040  12.760  66.985  1.00  0.00    -0.240 C  
HETATM   13  C   UNL     1     -10.528  11.376  67.412  1.00  0.00    -0.239 C  
HETATM   14  C   UNL     1     -11.956  11.378  67.891  1.00  0.00    -0.120 C  
HETATM   15  C   UNL     1      -9.749  10.271  67.377  1.00  0.00    -0.189 C  
HETATM   16  C   UNL     1     -11.934  14.732  67.489  1.00  0.00    -0.239 C  
HETATM   17  C   UNL     1     -12.897  12.131  66.929  1.00  0.00     2.886 C  
HETATM   18  C   UNL     1     -11.081  13.865  66.540  1.00  0.00    -0.310 C  
HETATM   19  C   UNL     1     -12.178  13.011  65.835  1.00  0.00    -0.493 C  
BRANCH  15  20
HETATM   20  C   UNL     1     -10.021   9.072  68.151  1.00  0.00    -0.206 C  
HETATM   21  C   UNL     1     -10.122   8.849  69.473  1.00  0.00    -0.198 C  
HETATM   22  C   UNL     1     -10.628   7.483  69.916  1.00  0.00    -0.243 C  
HETATM   23  C   UNL     1      -9.701   6.811  70.929  1.00  0.00    -0.178 C  
HETATM   24  C   UNL     1      -9.443   7.727  72.122  1.00  0.00    -0.216 C  
HETATM   25  O   UNL     1      -8.469   6.430  70.315  1.00  0.00    -0.131 OA 
HETATM   26  C   UNL     1      -8.938   9.106  71.683  1.00  0.00     0.004 C  
HETATM   27  H   UNL     1      -7.893   6.013  70.945  1.00  0.00     0.000 HD 
HETATM   28  C   UNL     1      -9.802   9.725  70.599  1.00  0.00    -0.171 C  
HETATM   29  C   UNL     1     -10.296  10.977  70.731  1.00  0.00     2.127 C  
ENDBRANCH  15  20
ENDBRANCH   5   6
ENDBRANCH   4   5
TORSDOF 3
ENDMDL
MODEL      180
REMARK 921   NORMALIZED FREE ENERGY PREDICTED BY IDOCK:   10.38 KCAL/MOL
REMARK 922        TOTAL FREE ENERGY PREDICTED BY IDOCK:   11.38 KCAL/MOL
REMARK 923 INTER-LIGAND FREE ENERGY PREDICTED BY IDOCK:   11.97 KCAL/MOL
REMARK 924 INTRA-LIGAND FREE ENERGY PREDICTED BY IDOCK:   -0.59 KCAL/MOL
REMARK 927      BINDING AFFINITY PREDICTED BY RF-SCORE:    0.00 PKD
ROOT
HETATM    1  C   UNL     1      -7.759  19.307  68.128  1.00  0.00    -0.332 C  
HETATM    2  C   UNL     1      -8.215  19.635  66.707  1.00  0.00    -0.331 C  
HETATM    3  C   UNL     1      -7.201  20.574  66.046  1.00  0.00    -0.174 C  
HETATM    4  C   UNL     1      -8.380  18.379  65.832  1.00  0.00     0.098 C  
ENDROOT
BRANCH   4   5
HETATM    5  C   UNL     1      -9.463  17.411  66.309  1.00  0.00    -0.247 C  
BRANCH   5   6
HETATM    6  C   UNL     1      -9.859  16.429  65.182  1.00  0.00     0.492 C  
HETATM    7  C   UNL     1     -10.663  15.187  65.666  1.00  0.00    -0.374 C  
HETATM    8  C   UNL     1     -10.936  14.101  64.475  1.00  0.00    -0.340 C  
HETATM    9  C   UNL     1     -11.902  15.701  66.422  1.00  0.00     0.596 C  
HETATM   10  C   UNL     1      -9.593  13.515  64.031  1.00  0.00     1.936 C  
HETATM   11  C   UNL     1      -9.331  12.368  64.997  1.00  0.00     0.324 C  
HETATM   12  C   UNL     1     -10.641  12.126  65.802  1.00  0.00    -0.295 C  
HETATM   13  C   UNL     1     -10.753  10.650  66.184  1.00  0.00    -0.146 C  
HETATM   14  C   UNL     1     -12.166  10.133  66.123  1.00  0.00     5.734 C  
HETATM   15  C   UNL     1      -9.692   9.897  66.552  1.00  0.00    -0.260 C  
HETATM   16  C   UNL     1     -13.134  13.281  65.375  1.00  0.00     0.038 C  
HETATM   17  C   UNL     1     -12.878  10.520  64.811  1.00  0.00     7.036 C  
HETATM   18  C   UNL     1     -11.751  12.796  64.894  1.00  0.00    -0.394 C  
HETATM   19  C   UNL     1     -12.148  11.622  63.949  1.00  0.00    -0.298 C  
BRANCH  15  20
HETATM   20  C   UNL     1      -9.808   8.664  67.312  1.00  0.00    -0.256 C  
HETATM   21  C   UNL     1      -9.109   8.166  68.346  1.00  0.00    -0.136 C  
HETATM   22  C   UNL     1      -9.656   6.918  69.026  1.00  0.00    -0.136 C  
HETATM   23  C   UNL     1      -8.618   5.802  69.135  1.00  0.00    -0.110 C  
HETATM   24  C   UNL     1      -7.350   6.303  69.819  1.00  0.00    -0.079 C  
HETATM   25  O   UNL     1      -8.312   5.266  67.847  1.00  0.00    -0.099 OA 
HETATM   26  C   UNL     1      -6.795   7.561  69.143  1.00  0.00    -0.056 C  
HETATM   27  H   UNL     1      -7.667   4.572  67.914  1.00  0.00     0.000 HD 
HETATM   28  C   UNL     1      -7.856   8.629  68.940  1.00  0.00    -0.104 C  
HETATM   29  C   UNL     1      -7.658   9.897  69.365  1.00  0.00    -0.113 C  
ENDBRANCH  15  20
ENDBRANCH   5   6
ENDBRANCH   4   5
TORSDOF 3
ENDMDL
MODEL      181
REMARK 921   NORMALIZED FREE ENERGY PREDICTED BY IDOCK:   12.73 KCAL/MOL
REMARK 922        TOTAL FREE ENERGY PREDICTED BY IDOCK:   14.15 KCAL/MOL
REMARK 923 INTER-LIGAND FREE ENERGY PREDICTED BY IDOCK:   14.78 KCAL/MOL
REMARK 924 INTRA-LIGAND FREE ENERGY PREDICTED BY IDOCK:   -0.63 KCAL/MOL
REMARK 927      BINDING AFFINITY PREDICTED BY RF-SCORE:    0.00 PKD
ROOT
HETATM    1  C   UNL     1      -9.670   4.927  64.054  1.00  0.00     0.405 C  
HETATM    2  C   UNL     1     -10.037   5.687  65.328  1.00  0.00     0.734 C  
HETATM    3  C   UNL     1     -10.649   7.042  64.960  1.00  0.00     5.250 C  
HETATM    4  C   UNL     1     -11.029   4.913  66.215  1.00  0.00     0.129 C  
ENDROOT
BRANCH   4   5
HETATM    5  C   UNL     1     -10.492   3.591  66.764  1.00  0.00     1.656 C  
BRANCH   5   6
HETATM    6  C   UNL     1      -9.520   3.838  67.942  1.00  0.00    -0.224 C  
HETATM    7  C   UNL     1      -9.913   5.033  68.858  1.00  0.00    -0.236 C  
HETATM    8  C   UNL     1      -8.789   5.355  70.001  1.00  0.00    -0.141 C  
HETATM    9  C   UNL     1     -11.347   4.784  69.359  1.00  0.00     3.354 C  
HETATM   10  C   UNL     1      -7.510   5.832  69.307  1.00  0.00    -0.083 C  
HETATM   11  C   UNL     1      -7.712   7.327  69.105  1.00  0.00    -0.108 C  
HETATM   12  C   UNL     1      -8.968   7.745  69.926  1.00  0.00    -0.146 C  
HETATM   13  C   UNL     1      -8.820   9.189  70.404  1.00  0.00    -0.253 C  
HETATM   14  C   UNL     1      -9.379   9.410  71.785  1.00  0.00     0.483 C  
HETATM   15  C   UNL     1      -8.260  10.165  69.656  1.00  0.00    -0.176 C  
HETATM   16  C   UNL     1     -10.411   6.194  71.726  1.00  0.00    -0.250 C  
HETATM   17  C   UNL     1      -8.905   8.341  72.790  1.00  0.00    -0.310 C  
HETATM   18  C   UNL     1      -9.117   6.572  70.977  1.00  0.00    -0.150 C  
HETATM   19  C   UNL     1      -8.219   7.073  72.150  1.00  0.00    -0.101 C  
BRANCH  15  20
HETATM   20  C   UNL     1      -8.485  11.582  69.885  1.00  0.00     1.741 C  
HETATM   21  C   UNL     1      -7.847  12.684  69.453  1.00  0.00     0.728 C  
HETATM   22  C   UNL     1      -8.502  14.029  69.738  1.00  0.00     1.147 C  
HETATM   23  C   UNL     1      -7.553  15.014  70.421  1.00  0.00     0.674 C  
HETATM   24  C   UNL     1      -6.266  15.176  69.619  1.00  0.00    -0.135 C  
HETATM   25  O   UNL     1      -7.261  14.595  71.756  1.00  0.00     1.068 OA 
HETATM   26  C   UNL     1      -5.604  13.826  69.324  1.00  0.00    -0.080 C  
HETATM   27  H   UNL     1      -6.672  15.207  72.180  1.00  0.00     0.000 HD 
HETATM   28  C   UNL     1      -6.576  12.814  68.743  1.00  0.00    -0.090 C  
HETATM   29  C   UNL     1      -6.293  12.152  67.599  1.00  0.00    -0.109 C  
ENDBRANCH  15  20
ENDBRANCH   5   6
ENDBRANCH   4   5
TORSDOF 3
ENDMDL
MODEL      182
REMARK 921   NORMALIZED FREE ENERGY PREDICTED BY IDOCK:   14.62 KCAL/MOL
REMARK 922        TOTAL FREE ENERGY PREDICTED BY IDOCK:   16.37 KCAL/MOL
REMARK 923 INTER-LIGAND FREE ENERGY PREDICTED BY IDOCK:   14.60 KCAL/MOL
REMARK 924 INTRA-LIGAND FREE ENERGY PREDICTED BY IDOCK:    1.77 KCAL/MOL
REMARK 927      BINDING AFFINITY PREDICTED BY RF-SCORE:    0.00 PKD
ROOT
HETATM    1  C   UNL     1      -9.388  19.276  67.790  1.00  0.00    -0.376 C  
HETATM    2  C   UNL     1      -8.093  18.592  67.356  1.00  0.00    -0.248 C  
HETATM    3  C   UNL     1      -7.787  18.947  65.898  1.00  0.00    -0.114 C  
HETATM    4  C   UNL     1      -6.890  18.990  68.231  1.00  0.00    -0.272 C  
ENDROOT
BRANCH   4   5
HETATM    5  C   UNL     1      -7.006  18.573  69.698  1.00  0.00     0.058 C  
BRANCH   5   6
HETATM    6  C   UNL     1      -8.262  17.699  69.924  1.00  0.00     1.648 C  
HETATM    7  C   UNL     1      -7.995  16.167  69.874  1.00  0.00     0.630 C  
HETATM    8  C   UNL     1      -9.363  15.278  69.971  1.00  0.00     0.165 C  
HETATM    9  C   UNL     1      -6.899  15.851  70.908  1.00  0.00     1.608 C  
HETATM   10  C   UNL     1     -10.206  15.543  68.720  1.00  0.00    -0.212 C  
HETATM   11  C   UNL     1      -9.668  14.573  67.677  1.00  0.00    -0.215 C  
HETATM   12  C   UNL     1      -8.722  13.576  68.408  1.00  0.00    -0.140 C  
HETATM   13  C   UNL     1      -8.751  12.220  67.704  1.00  0.00    -0.175 C  
HETATM   14  C   UNL     1      -8.677  11.060  68.662  1.00  0.00    -0.161 C  
HETATM   15  C   UNL     1      -8.822  12.082  66.361  1.00  0.00    -0.126 C  
HETATM   16  C   UNL     1      -8.316  13.320  71.146  1.00  0.00     9.013 C  
HETATM   17  C   UNL     1      -9.664  11.204  69.838  1.00  0.00     0.918 C  
HETATM   18  C   UNL     1      -9.173  13.696  69.920  1.00  0.00     2.123 C  
HETATM   19  C   UNL     1     -10.311  12.633  70.003  1.00  0.00     1.836 C  
BRANCH  15  20
HETATM   20  C   UNL     1      -8.427  10.874  65.657  1.00  0.00    -0.139 C  
HETATM   21  C   UNL     1      -8.689   9.573  65.870  1.00  0.00    -0.168 C  
HETATM   22  C   UNL     1      -8.267   8.587  64.789  1.00  0.00    -0.164 C  
HETATM   23  C   UNL     1      -7.425   7.435  65.336  1.00  0.00    -0.090 C  
HETATM   24  C   UNL     1      -8.143   6.733  66.485  1.00  0.00    -0.108 C  
HETATM   25  O   UNL     1      -6.142   7.901  65.758  1.00  0.00    -0.038 OA 
HETATM   26  C   UNL     1      -8.574   7.720  67.575  1.00  0.00    -0.122 C  
HETATM   27  H   UNL     1      -5.618   7.185  66.098  1.00  0.00     0.000 HD 
HETATM   28  C   UNL     1      -9.320   8.918  67.015  1.00  0.00    -0.194 C  
HETATM   29  C   UNL     1     -10.524   9.283  67.509  1.00  0.00    -0.338 C  
ENDBRANCH  15  20
ENDBRANCH   5   6
ENDBRANCH   4   5
TORSDOF 3
ENDMDL
MODEL      183
REMARK 921   NORMALIZED FREE ENERGY PREDICTED BY IDOCK:   14.82 KCAL/MOL
REMARK 922        TOTAL FREE ENERGY PREDICTED BY IDOCK:   16.60 KCAL/MOL
REMARK 923 INTER-LIGAND FREE ENERGY PREDICTED BY IDOCK:   17.16 KCAL/MOL
REMARK 924 INTRA-LIGAND FREE ENERGY PREDICTED BY IDOCK:   -0.55 KCAL/MOL
REMARK 927      BINDING AFFINITY PREDICTED BY RF-SCORE:    0.00 PKD
ROOT
HETATM    1  C   UNL     1      -9.398  19.264  67.806  1.00  0.00    -0.376 C  
HETATM    2  C   UNL     1      -8.176  18.455  67.375  1.00  0.00    -0.248 C  
HETATM    3  C   UNL     1      -7.853  18.753  65.908  1.00  0.00    -0.101 C  
HETATM    4  C   UNL     1      -6.933  18.755  68.233  1.00  0.00    -0.266 C  
ENDROOT
BRANCH   4   5
HETATM    5  C   UNL     1      -7.073  18.379  69.708  1.00  0.00     0.303 C  
BRANCH   5   6
HETATM    6  C   UNL     1      -8.446  17.721  69.981  1.00  0.00     2.146 C  
HETATM    7  C   UNL     1      -8.434  16.165  69.926  1.00  0.00     0.689 C  
HETATM    8  C   UNL     1      -9.924  15.511  70.073  1.00  0.00    -0.178 C  
HETATM    9  C   UNL     1      -7.369  15.673  70.923  1.00  0.00     1.963 C  
HETATM   10  C   UNL     1     -10.756  15.912  68.851  1.00  0.00    -0.254 C  
HETATM   11  C   UNL     1     -10.419  14.871  67.793  1.00  0.00    -0.255 C  
HETATM   12  C   UNL     1      -9.624  13.731  68.494  1.00  0.00    -0.176 C  
HETATM   13  C   UNL     1      -9.898  12.399  67.796  1.00  0.00    -0.203 C  
HETATM   14  C   UNL     1      -9.980  11.241  68.754  1.00  0.00    -0.203 C  
HETATM   15  C   UNL     1     -10.036  12.278  66.457  1.00  0.00    -0.232 C  
HETATM   16  C   UNL     1      -9.170  13.406  71.217  1.00  0.00    10.542 C  
HETATM   17  C   UNL     1     -10.889  11.540  69.963  1.00  0.00     0.325 C  
HETATM   18  C   UNL     1      -9.996  13.919  70.020  1.00  0.00     1.433 C  
HETATM   19  C   UNL     1     -11.288  13.055  70.146  1.00  0.00     0.149 C  
BRANCH  15  20
HETATM   20  C   UNL     1      -9.868  11.024  65.743  1.00  0.00    -0.282 C  
HETATM   21  C   UNL     1      -8.854  10.521  65.018  1.00  0.00    -0.207 C  
HETATM   22  C   UNL     1      -8.958   9.065  64.583  1.00  0.00    -0.112 C  
HETATM   23  C   UNL     1      -8.747   8.882  63.081  1.00  0.00    -0.045 C  
HETATM   24  C   UNL     1      -7.428   9.506  62.636  1.00  0.00    -0.106 C  
HETATM   25  O   UNL     1      -9.837   9.437  62.344  1.00  0.00    -0.412 OA 
HETATM   26  C   UNL     1      -7.314  10.970  63.074  1.00  0.00     0.396 C  
HETATM   27  H   UNL     1      -9.706   9.323  61.410  1.00  0.00     0.000 HD 
HETATM   28  C   UNL     1      -7.629  11.165  64.547  1.00  0.00     0.848 C  
HETATM   29  C   UNL     1      -6.774  11.823  65.361  1.00  0.00     2.018 C  
ENDBRANCH  15  20
ENDBRANCH   5   6
ENDBRANCH   4   5
TORSDOF 3
ENDMDL
MODEL      184
REMARK 921   NORMALIZED FREE ENERGY PREDICTED BY IDOCK:   14.91 KCAL/MOL
REMARK 922        TOTAL FREE ENERGY PREDICTED BY IDOCK:   16.71 KCAL/MOL
REMARK 923 INTER-LIGAND FREE ENERGY PREDICTED BY IDOCK:   15.47 KCAL/MOL
REMARK 924 INTRA-LIGAND FREE ENERGY PREDICTED BY IDOCK:    1.25 KCAL/MOL
REMARK 927      BINDING AFFINITY PREDICTED BY RF-SCORE:    0.00 PKD
ROOT
HETATM    1  C   UNL     1      -9.875   8.835  64.826  1.00  0.00     1.373 C  
HETATM    2  C   UNL     1      -9.278   9.296  66.155  1.00  0.00    -0.249 C  
HETATM    3  C   UNL     1      -9.442   8.191  67.203  1.00  0.00    -0.207 C  
HETATM    4  C   UNL     1      -7.787   9.662  66.041  1.00  0.00    -0.102 C  
ENDROOT
BRANCH   4   5
HETATM    5  C   UNL     1      -7.492  10.846  65.120  1.00  0.00     0.258 C  
BRANCH   5   6
HETATM    6  C   UNL     1      -8.804  11.479  64.599  1.00  0.00     0.365 C  
HETATM    7  C   UNL     1      -9.331  12.664  65.460  1.00  0.00     0.183 C  
HETATM    8  C   UNL     1     -10.790  13.210  64.967  1.00  0.00    -0.331 C  
HETATM    9  C   UNL     1      -8.204  13.708  65.554  1.00  0.00     3.405 C  
HETATM   10  C   UNL     1     -11.827  12.106  65.192  1.00  0.00    -0.356 C  
HETATM   11  C   UNL     1     -12.269  12.277  66.638  1.00  0.00     0.177 C  
HETATM   12  C   UNL     1     -11.700  13.635  67.144  1.00  0.00    -0.418 C  
HETATM   13  C   UNL     1     -12.636  14.234  68.193  1.00  0.00     0.507 C  
HETATM   14  C   UNL     1     -12.742  15.733  68.097  1.00  0.00     1.718 C  
HETATM   15  C   UNL     1     -13.288  13.492  69.116  1.00  0.00     2.916 C  
HETATM   16  C   UNL     1     -10.415  15.598  65.652  1.00  0.00    -0.402 C  
HETATM   17  C   UNL     1     -12.989  16.215  66.653  1.00  0.00     4.427 C  
HETATM   18  C   UNL     1     -11.401  14.421  65.804  1.00  0.00    -0.330 C  
HETATM   19  C   UNL     1     -12.765  15.127  65.533  1.00  0.00     0.627 C  
BRANCH  15  20
HETATM   20  C   UNL     1     -13.821  14.037  70.352  1.00  0.00     1.130 C  
HETATM   21  C   UNL     1     -13.337  14.930  71.234  1.00  0.00    -0.490 C  
HETATM   22  C   UNL     1     -14.280  15.419  72.325  1.00  0.00    -0.639 C  
HETATM   23  C   UNL     1     -13.686  15.276  73.726  1.00  0.00     1.300 C  
HETATM   24  C   UNL     1     -12.325  15.961  73.813  1.00  0.00    -0.698 C  
HETATM   25  O   UNL     1     -13.578  13.900  74.094  1.00  0.00     2.271 OA 
HETATM   26  C   UNL     1     -11.372  15.477  72.715  1.00  0.00    -0.152 C  
HETATM   27  H   UNL     1     -13.208  13.811  74.964  1.00  0.00     0.000 HD 
HETATM   28  C   UNL     1     -12.003  15.520  71.334  1.00  0.00    -0.455 C  
HETATM   29  C   UNL     1     -11.386  16.141  70.305  1.00  0.00    -0.363 C  
ENDBRANCH  15  20
ENDBRANCH   5   6
ENDBRANCH   4   5
TORSDOF 3
ENDMDL
MODEL      185
REMARK 921   NORMALIZED FREE ENERGY PREDICTED BY IDOCK:   20.35 KCAL/MOL
REMARK 922        TOTAL FREE ENERGY PREDICTED BY IDOCK:   23.11 KCAL/MOL
REMARK 923 INTER-LIGAND FREE ENERGY PREDICTED BY IDOCK:    3.49 KCAL/MOL
REMARK 924 INTRA-LIGAND FREE ENERGY PREDICTED BY IDOCK:   19.62 KCAL/MOL
REMARK 927      BINDING AFFINITY PREDICTED BY RF-SCORE:    0.00 PKD
ROOT
HETATM    1  C   UNL     1      -7.815   5.985  67.220  1.00  0.00    -0.102 C  
HETATM    2  C   UNL     1      -7.832   4.489  66.909  1.00  0.00    -0.098 C  
HETATM    3  C   UNL     1      -6.403   3.939  66.951  1.00  0.00    -0.040 C  
HETATM    4  C   UNL     1      -8.707   3.689  67.892  1.00  0.00    -0.127 C  
ENDROOT
BRANCH   4   5
HETATM    5  C   UNL     1     -10.193   4.048  67.858  1.00  0.00     0.372 C  
BRANCH   5   6
HETATM    6  C   UNL     1     -10.504   4.993  66.674  1.00  0.00    -0.301 C  
HETATM    7  C   UNL     1      -9.334   5.945  66.289  1.00  0.00    -0.168 C  
HETATM    8  C   UNL     1      -9.746   7.027  65.135  1.00  0.00     1.672 C  
HETATM    9  C   UNL     1      -8.099   5.072  66.000  1.00  0.00    -0.108 C  
HETATM   10  C   UNL     1     -10.810   7.968  65.706  1.00  0.00     3.214 C  
HETATM   11  C   UNL     1     -10.022   9.056  66.422  1.00  0.00    -0.370 C  
HETATM   12  C   UNL     1      -8.526   8.889  66.024  1.00  0.00    -0.138 C  
HETATM   13  C   UNL     1      -7.830  10.250  66.030  1.00  0.00    -0.133 C  
HETATM   14  C   UNL     1      -6.820  10.398  64.923  1.00  0.00    -0.040 C  
HETATM   15  C   UNL     1      -8.089  11.211  66.945  1.00  0.00    -0.150 C  
HETATM   16  C   UNL     1      -7.461   7.185  64.103  1.00  0.00    -0.099 C  
HETATM   17  C   UNL     1      -7.379   9.960  63.554  1.00  0.00    -0.132 C  
HETATM   18  C   UNL     1      -8.601   8.043  64.689  1.00  0.00     0.085 C  
HETATM   19  C   UNL     1      -8.735   9.157  63.607  1.00  0.00    -0.148 C  
BRANCH  15  20
HETATM   20  C   UNL     1      -7.178  12.304  67.240  1.00  0.00    -0.138 C  
HETATM   21  C   UNL     1      -6.465  12.620  68.335  1.00  0.00    -0.078 C  
HETATM   22  C   UNL     1      -5.445  13.745  68.206  1.00  0.00    -0.109 C  
HETATM   23  C   UNL     1      -5.613  14.820  69.279  1.00  0.00    -0.092 C  
HETATM   24  C   UNL     1      -5.595  14.204  70.675  1.00  0.00    -0.158 C  
HETATM   25  O   UNL     1      -6.819  15.557  69.074  1.00  0.00    -0.123 OA 
HETATM   26  C   UNL     1      -6.615  13.069  70.811  1.00  0.00     1.204 C  
HETATM   27  H   UNL     1      -6.924  16.225  69.741  1.00  0.00     0.000 HD 
HETATM   28  C   UNL     1      -6.515  12.056  69.683  1.00  0.00    -0.088 C  
HETATM   29  C   UNL     1      -6.401  10.735  69.940  1.00  0.00    -0.118 C  
ENDBRANCH  15  20
ENDBRANCH   5   6
ENDBRANCH   4   5
TORSDOF 3
ENDMDL
MODEL      186
REMARK 921   NORMALIZED FREE ENERGY PREDICTED BY IDOCK:   21.32 KCAL/MOL
REMARK 922        TOTAL FREE ENERGY PREDICTED BY IDOCK:   24.24 KCAL/MOL
REMARK 923 INTER-LIGAND FREE ENERGY PREDICTED BY IDOCK:   24.43 KCAL/MOL
REMARK 924 INTRA-LIGAND FREE ENERGY PREDICTED BY IDOCK:   -0.19 KCAL/MOL
REMARK 927      BINDING AFFINITY PREDICTED BY RF-SCORE:    0.00 PKD
ROOT
HETATM    1  C   UNL     1     -13.285  11.745  68.182  1.00  0.00     4.994 C  
HETATM    2  C   UNL     1     -11.860  11.200  68.098  1.00  0.00    -0.238 C  
HETATM    3  C   UNL     1     -11.393  10.763  69.490  1.00  0.00    -0.355 C  
HETATM    4  C   UNL     1     -11.737  10.008  67.131  1.00  0.00     1.741 C  
ENDROOT
BRANCH   4   5
HETATM    5  C   UNL     1     -12.049  10.339  65.671  1.00  0.00     4.834 C  
BRANCH   5   6
HETATM    6  C   UNL     1     -12.512  11.808  65.527  1.00  0.00     1.131 C  
HETATM    7  C   UNL     1     -11.360  12.821  65.263  1.00  0.00    -0.338 C  
HETATM    8  C   UNL     1     -11.866  14.375  65.262  1.00  0.00    -0.373 C  
HETATM    9  C   UNL     1     -10.601  12.347  64.011  1.00  0.00    -0.444 C  
HETATM   10  C   UNL     1     -12.351  14.731  66.670  1.00  0.00     0.120 C  
HETATM   11  C   UNL     1     -11.095  15.157  67.418  1.00  0.00    -0.325 C  
HETATM   12  C   UNL     1      -9.955  15.310  66.368  1.00  0.00    -0.291 C  
HETATM   13  C   UNL     1      -8.971  16.388  66.821  1.00  0.00    -0.264 C  
HETATM   14  C   UNL     1      -8.442  17.217  65.680  1.00  0.00     0.530 C  
HETATM   15  C   UNL     1      -8.606  16.565  68.111  1.00  0.00    -0.193 C  
HETATM   16  C   UNL     1     -10.172  15.196  63.599  1.00  0.00     4.794 C  
HETATM   17  C   UNL     1      -9.562  17.711  64.743  1.00  0.00     3.707 C  
HETATM   18  C   UNL     1     -10.741  15.475  65.005  1.00  0.00    -0.463 C  
HETATM   19  C   UNL     1     -10.964  17.017  64.945  1.00  0.00     0.083 C  
BRANCH  15  20
HETATM   20  C   UNL     1      -7.396  17.259  68.514  1.00  0.00    -0.235 C  
HETATM   21  C   UNL     1      -7.182  18.333  69.294  1.00  0.00    -0.091 C  
HETATM   22  C   UNL     1      -5.740  18.656  69.662  1.00  0.00    -0.251 C  
HETATM   23  C   UNL     1      -5.363  20.104  69.354  1.00  0.00    -0.232 C  
HETATM   24  C   UNL     1      -6.340  21.074  70.012  1.00  0.00     1.195 C  
HETATM   25  O   UNL     1      -5.311  20.326  67.943  1.00  0.00    -0.189 OA 
HETATM   26  C   UNL     1      -7.793  20.752  69.649  1.00  0.00     1.907 C  
HETATM   27  H   UNL     1      -5.077  21.226  67.751  1.00  0.00     0.000 HD 
HETATM   28  C   UNL     1      -8.136  19.287  69.857  1.00  0.00     0.724 C  
HETATM   29  C   UNL     1      -9.212  18.920  70.587  1.00  0.00     2.946 C  
ENDBRANCH  15  20
ENDBRANCH   5   6
ENDBRANCH   4   5
TORSDOF 3
ENDMDL
MODEL      187
REMARK 921   NORMALIZED FREE ENERGY PREDICTED BY IDOCK:   23.67 KCAL/MOL
REMARK 922        TOTAL FREE ENERGY PREDICTED BY IDOCK:   27.00 KCAL/MOL
REMARK 923 INTER-LIGAND FREE ENERGY PREDICTED BY IDOCK:   12.61 KCAL/MOL
REMARK 924 INTRA-LIGAND FREE ENERGY PREDICTED BY IDOCK:   14.40 KCAL/MOL
REMARK 927      BINDING AFFINITY PREDICTED BY RF-SCORE:    0.00 PKD
ROOT
HETATM    1  C   UNL     1      -7.232  15.283  66.493  1.00  0.00     1.105 C  
HETATM    2  C   UNL     1      -7.426  16.751  66.873  1.00  0.00    -0.257 C  
HETATM    3  C   UNL     1      -6.755  17.026  68.223  1.00  0.00    -0.158 C  
HETATM    4  C   UNL     1      -6.850  17.717  65.821  1.00  0.00    -0.166 C  
ENDROOT
BRANCH   4   5
HETATM    5  C   UNL     1      -7.525  17.640  64.451  1.00  0.00     6.587 C  
BRANCH   5   6
HETATM    6  C   UNL     1      -8.676  16.607  64.462  1.00  0.00     6.481 C  
HETATM    7  C   UNL     1      -8.898  15.907  65.834  1.00  0.00    -0.168 C  
HETATM    8  C   UNL     1     -10.020  14.721  65.771  1.00  0.00    -0.375 C  
HETATM    9  C   UNL     1      -9.123  17.008  66.887  1.00  0.00    -0.253 C  
HETATM   10  C   UNL     1      -9.495  13.599  64.870  1.00  0.00     0.658 C  
HETATM   11  C   UNL     1      -8.648  12.728  65.787  1.00  0.00     1.018 C  
HETATM   12  C   UNL     1      -8.917  13.189  67.249  1.00  0.00    -0.216 C  
HETATM   13  C   UNL     1      -8.769  12.005  68.204  1.00  0.00    -0.177 C  
HETATM   14  C   UNL     1      -9.769  12.030  69.330  1.00  0.00     0.761 C  
HETATM   15  C   UNL     1      -7.827  11.046  68.057  1.00  0.00    -0.112 C  
HETATM   16  C   UNL     1     -10.829  15.005  68.132  1.00  0.00    -0.263 C  
HETATM   17  C   UNL     1     -11.206  12.290  68.835  1.00  0.00    -0.323 C  
HETATM   18  C   UNL     1     -10.300  13.951  67.138  1.00  0.00    -0.265 C  
HETATM   19  C   UNL     1     -11.324  12.793  67.345  1.00  0.00    -0.363 C  
BRANCH  15  20
HETATM   20  C   UNL     1      -7.388  10.180  69.137  1.00  0.00    -0.089 C  
HETATM   21  C   UNL     1      -7.431   8.847  69.306  1.00  0.00    -0.075 C  
HETATM   22  C   UNL     1      -6.678   8.267  70.496  1.00  0.00    -0.037 C  
HETATM   23  C   UNL     1      -7.551   7.359  71.361  1.00  0.00    -0.082 C  
HETATM   24  C   UNL     1      -8.198   6.263  70.520  1.00  0.00    -0.118 C  
HETATM   25  O   UNL     1      -8.548   8.117  72.048  1.00  0.00    -0.132 OA 
HETATM   26  C   UNL     1      -8.955   6.839  69.318  1.00  0.00    -0.137 C  
HETATM   27  H   UNL     1      -9.091   7.553  72.586  1.00  0.00     0.000 HD 
HETATM   28  C   UNL     1      -8.118   7.824  68.520  1.00  0.00    -0.123 C  
HETATM   29  C   UNL     1      -7.970   7.691  67.183  1.00  0.00    -0.117 C  
ENDBRANCH  15  20
ENDBRANCH   5   6
ENDBRANCH   4   5
TORSDOF 3
ENDMDL
MODEL      188
REMARK 921   NORMALIZED FREE ENERGY PREDICTED BY IDOCK:   24.18 KCAL/MOL
REMARK 922        TOTAL FREE ENERGY PREDICTED BY IDOCK:   27.61 KCAL/MOL
REMARK 923 INTER-LIGAND FREE ENERGY PREDICTED BY IDOCK:    9.08 KCAL/MOL
REMARK 924 INTRA-LIGAND FREE ENERGY PREDICTED BY IDOCK:   18.53 KCAL/MOL
REMARK 927      BINDING AFFINITY PREDICTED BY RF-SCORE:    0.00 PKD
ROOT
HETATM    1  C   UNL     1      -7.806   5.987  67.223  1.00  0.00    -0.102 C  
HETATM    2  C   UNL     1      -7.778   4.480  66.969  1.00  0.00    -0.090 C  
HETATM    3  C   UNL     1      -6.334   3.974  67.038  1.00  0.00    -0.040 C  
HETATM    4  C   UNL     1      -8.634   3.693  67.979  1.00  0.00    -0.116 C  
ENDROOT
BRANCH   4   5
HETATM    5  C   UNL     1     -10.129   4.007  67.925  1.00  0.00     0.162 C  
BRANCH   5   6
HETATM    6  C   UNL     1     -10.470   4.854  66.676  1.00  0.00    -0.270 C  
HETATM    7  C   UNL     1      -9.698   6.202  66.585  1.00  0.00    -0.196 C  
HETATM    8  C   UNL     1     -10.188   7.134  65.335  1.00  0.00     2.405 C  
HETATM    9  C   UNL     1      -8.193   5.883  66.653  1.00  0.00    -0.106 C  
HETATM   10  C   UNL     1     -11.638   7.559  65.582  1.00  0.00     7.056 C  
HETATM   11  C   UNL     1     -11.536   8.805  66.450  1.00  0.00     3.264 C  
HETATM   12  C   UNL     1     -10.042   9.245  66.463  1.00  0.00    -0.343 C  
HETATM   13  C   UNL     1      -9.948  10.763  66.615  1.00  0.00    -0.251 C  
HETATM   14  C   UNL     1      -8.828  11.365  65.807  1.00  0.00    -0.115 C  
HETATM   15  C   UNL     1     -10.776  11.482  67.404  1.00  0.00    -0.275 C  
HETATM   16  C   UNL     1      -7.959   8.220  64.934  1.00  0.00    -0.144 C  
HETATM   17  C   UNL     1      -8.811  10.855  64.352  1.00  0.00    -0.070 C  
HETATM   18  C   UNL     1      -9.448   8.537  65.178  1.00  0.00     0.436 C  
HETATM   19  C   UNL     1      -9.722   9.599  64.069  1.00  0.00     0.349 C  
BRANCH  15  20
HETATM   20  C   UNL     1     -10.460  12.812  67.898  1.00  0.00    -0.226 C  
HETATM   21  C   UNL     1     -10.872  13.500  68.976  1.00  0.00    -0.227 C  
HETATM   22  C   UNL     1     -10.159  14.810  69.285  1.00  0.00    -0.165 C  
HETATM   23  C   UNL     1     -11.125  15.981  69.462  1.00  0.00    -0.333 C  
HETATM   24  C   UNL     1     -12.185  15.659  70.511  1.00  0.00    -0.437 C  
HETATM   25  O   UNL     1     -11.740  16.323  68.219  1.00  0.00    -0.238 OA 
HETATM   26  C   UNL     1     -12.903  14.340  70.210  1.00  0.00    -0.207 C  
HETATM   27  H   UNL     1     -12.341  17.051  68.329  1.00  0.00     0.000 HD 
HETATM   28  C   UNL     1     -11.939  13.200  69.930  1.00  0.00    -0.387 C  
HETATM   29  C   UNL     1     -12.035  12.027  70.592  1.00  0.00    -0.257 C  
ENDBRANCH  15  20
ENDBRANCH   5   6
ENDBRANCH   4   5
TORSDOF 3
ENDMDL
MODEL      189
REMARK 921   NORMALIZED FREE ENERGY PREDICTED BY IDOCK:   24.54 KCAL/MOL
REMARK 922        TOTAL FREE ENERGY PREDICTED BY IDOCK:   28.03 KCAL/MOL
REMARK 923 INTER-LIGAND FREE ENERGY PREDICTED BY IDOCK:   28.69 KCAL/MOL
REMARK 924 INTRA-LIGAND FREE ENERGY PREDICTED BY IDOCK:   -0.66 KCAL/MOL
REMARK 927      BINDING AFFINITY PREDICTED BY RF-SCORE:    0.00 PKD
ROOT
HETATM    1  C   UNL     1     -12.740  14.591  72.146  1.00  0.00    -0.407 C  
HETATM    2  C   UNL     1     -13.050  13.129  71.826  1.00  0.00    -0.478 C  
HETATM    3  C   UNL     1     -14.349  13.044  71.019  1.00  0.00     2.625 C  
HETATM    4  C   UNL     1     -11.921  12.443  71.033  1.00  0.00     0.208 C  
ENDROOT
BRANCH   4   5
HETATM    5  C   UNL     1     -10.591  12.341  71.781  1.00  0.00     9.194 C  
BRANCH   5   6
HETATM    6  C   UNL     1     -10.415  10.936  72.402  1.00  0.00     9.196 C  
HETATM    7  C   UNL     1      -9.322  10.064  71.717  1.00  0.00     3.149 C  
HETATM    8  C   UNL     1      -9.265   8.539  72.302  1.00  0.00    -0.343 C  
HETATM    9  C   UNL     1      -8.005  10.860  71.748  1.00  0.00     7.543 C  
HETATM   10  C   UNL     1     -10.575   7.830  71.945  1.00  0.00    -0.270 C  
HETATM   11  C   UNL     1     -10.351   7.284  70.542  1.00  0.00    -0.215 C  
HETATM   12  C   UNL     1      -8.837   7.437  70.216  1.00  0.00    -0.147 C  
HETATM   13  C   UNL     1      -8.391   6.320  69.273  1.00  0.00    -0.117 C  
HETATM   14  C   UNL     1      -7.003   5.818  69.572  1.00  0.00    -0.063 C  
HETATM   15  C   UNL     1      -9.161   5.847  68.267  1.00  0.00    -0.118 C  
HETATM   16  C   UNL     1      -6.800   8.218  71.940  1.00  0.00    -0.084 C  
HETATM   17  C   UNL     1      -6.794   5.525  71.071  1.00  0.00    -0.053 C  
HETATM   18  C   UNL     1      -8.174   7.581  71.645  1.00  0.00    -0.108 C  
HETATM   19  C   UNL     1      -7.911   6.093  72.030  1.00  0.00    -0.105 C  
BRANCH  15  20
HETATM   20  C   UNL     1      -8.632   5.123  67.124  1.00  0.00    -0.105 C  
HETATM   21  C   UNL     1      -7.769   5.467  66.152  1.00  0.00    -0.095 C  
HETATM   22  C   UNL     1      -7.284   4.362  65.222  1.00  0.00    -0.068 C  
HETATM   23  C   UNL     1      -7.469   4.711  63.746  1.00  0.00    -0.059 C  
HETATM   24  C   UNL     1      -6.814   6.049  63.416  1.00  0.00    -0.040 C  
HETATM   25  O   UNL     1      -8.855   4.734  63.399  1.00  0.00    -0.141 OA 
HETATM   26  C   UNL     1      -7.294   7.164  64.351  1.00  0.00    -0.082 C  
HETATM   27  H   UNL     1      -8.970   4.950  62.482  1.00  0.00     0.000 HD 
HETATM   28  C   UNL     1      -7.208   6.775  65.816  1.00  0.00    -0.070 C  
HETATM   29  C   UNL     1      -6.578   7.566  66.712  1.00  0.00    -0.057 C  
ENDBRANCH  15  20
ENDBRANCH   5   6
ENDBRANCH   4   5
TORSDOF 3
ENDMDL
MODEL      190
REMARK 921   NORMALIZED FREE ENERGY PREDICTED BY IDOCK:   27.79 KCAL/MOL
REMARK 922        TOTAL FREE ENERGY PREDICTED BY IDOCK:   31.85 KCAL/MOL
REMARK 923 INTER-LIGAND FREE ENERGY PREDICTED BY IDOCK:   31.91 KCAL/MOL
REMARK 924 INTRA-LIGAND FREE ENERGY PREDICTED BY IDOCK:   -0.05 KCAL/MOL
REMARK 927      BINDING AFFINITY PREDICTED BY RF-SCORE:    0.00 PKD
ROOT
HETATM    1  C   UNL     1     -11.537   1.474  67.913  1.00  0.00     9.578 C  
HETATM    2  C   UNL     1     -11.475   2.144  69.285  1.00  0.00     9.150 C  
HETATM    3  C   UNL     1     -12.811   1.957  70.010  1.00  0.00    16.701 C  
HETATM    4  C   UNL     1     -10.342   1.587  70.167  1.00  0.00     0.808 C  
ENDROOT
BRANCH   4   5
HETATM    5  C   UNL     1      -8.935   1.825  69.620  1.00  0.00    -0.143 C  
BRANCH   5   6
HETATM    6  C   UNL     1      -8.978   2.139  68.106  1.00  0.00    -0.187 C  
HETATM    7  C   UNL     1      -8.366   3.517  67.719  1.00  0.00    -0.097 C  
HETATM    8  C   UNL     1      -8.561   3.879  66.137  1.00  0.00    -0.112 C  
HETATM    9  C   UNL     1      -6.925   3.555  68.258  1.00  0.00    -0.050 C  
HETATM   10  C   UNL     1     -10.057   4.051  65.856  1.00  0.00    -0.097 C  
HETATM   11  C   UNL     1     -10.354   5.502  66.208  1.00  0.00    -0.215 C  
HETATM   12  C   UNL     1      -8.989   6.222  66.418  1.00  0.00    -0.159 C  
HETATM   13  C   UNL     1      -9.110   7.693  66.025  1.00  0.00    -0.152 C  
HETATM   14  C   UNL     1      -7.874   8.224  65.349  1.00  0.00    -0.113 C  
HETATM   15  C   UNL     1     -10.210   8.440  66.275  1.00  0.00    -0.017 C  
HETATM   16  C   UNL     1      -6.446   5.216  65.917  1.00  0.00    -0.040 C  
HETATM   17  C   UNL     1      -7.369   7.292  64.230  1.00  0.00    -0.086 C  
HETATM   18  C   UNL     1      -7.966   5.280  65.663  1.00  0.00    -0.106 C  
HETATM   19  C   UNL     1      -8.011   5.851  64.213  1.00  0.00    -0.122 C  
BRANCH  15  20
HETATM   20  C   UNL     1     -10.202   9.892  66.311  1.00  0.00    -0.282 C  
HETATM   21  C   UNL     1     -10.464  10.776  67.289  1.00  0.00    -0.282 C  
HETATM   22  C   UNL     1     -10.151  12.241  67.012  1.00  0.00    -0.225 C  
HETATM   23  C   UNL     1     -11.339  13.161  67.287  1.00  0.00    -0.306 C  
HETATM   24  C   UNL     1     -11.867  12.960  68.705  1.00  0.00    -0.347 C  
HETATM   25  O   UNL     1     -12.379  12.947  66.332  1.00  0.00    -0.463 OA 
HETATM   26  C   UNL     1     -12.180  11.488  68.993  1.00  0.00    -0.186 C  
HETATM   27  H   UNL     1     -13.118  13.519  66.503  1.00  0.00     0.000 HD 
HETATM   28  C   UNL     1     -11.035  10.563  68.618  1.00  0.00    -0.294 C  
HETATM   29  C   UNL     1     -10.543   9.668  69.503  1.00  0.00    -0.247 C  
ENDBRANCH  15  20
ENDBRANCH   5   6
ENDBRANCH   4   5
TORSDOF 3
ENDMDL
MODEL      191
REMARK 921   NORMALIZED FREE ENERGY PREDICTED BY IDOCK:   29.68 KCAL/MOL
REMARK 922        TOTAL FREE ENERGY PREDICTED BY IDOCK:   34.07 KCAL/MOL
REMARK 923 INTER-LIGAND FREE ENERGY PREDICTED BY IDOCK:   33.31 KCAL/MOL
REMARK 924 INTRA-LIGAND FREE ENERGY PREDICTED BY IDOCK:    0.76 KCAL/MOL
REMARK 927      BINDING AFFINITY PREDICTED BY RF-SCORE:    0.00 PKD
ROOT
HETATM    1  C   UNL     1     -11.944   5.413  72.440  1.00  0.00     0.052 C  
HETATM    2  C   UNL     1     -13.200   5.944  71.751  1.00  0.00     1.174 C  
HETATM    3  C   UNL     1     -14.344   6.033  72.766  1.00  0.00     1.415 C  
HETATM    4  C   UNL     1     -12.987   7.328  71.112  1.00  0.00    -0.313 C  
ENDROOT
BRANCH   4   5
HETATM    5  C   UNL     1     -11.956   7.355  69.983  1.00  0.00     0.233 C  
BRANCH   5   6
HETATM    6  C   UNL     1     -12.524   8.074  68.737  1.00  0.00     4.491 C  
HETATM    7  C   UNL     1     -11.651   9.258  68.226  1.00  0.00     0.969 C  
HETATM    8  C   UNL     1     -12.352  10.084  67.002  1.00  0.00     5.773 C  
HETATM    9  C   UNL     1     -10.236   8.713  67.963  1.00  0.00    -0.261 C  
HETATM   10  C   UNL     1     -13.616  10.765  67.534  1.00  0.00    12.612 C  
HETATM   11  C   UNL     1     -13.130  12.082  68.124  1.00  0.00     4.029 C  
HETATM   12  C   UNL     1     -11.650  12.274  67.682  1.00  0.00    -0.421 C  
HETATM   13  C   UNL     1     -11.336  13.763  67.546  1.00  0.00    -0.334 C  
HETATM   14  C   UNL     1     -10.418  14.066  66.390  1.00  0.00    -0.284 C  
HETATM   15  C   UNL     1     -11.822  14.704  68.386  1.00  0.00    -0.330 C  
HETATM   16  C   UNL     1     -10.206  10.736  65.870  1.00  0.00    -0.319 C  
HETATM   17  C   UNL     1     -10.864  13.374  65.087  1.00  0.00    -0.322 C  
HETATM   18  C   UNL     1     -11.522  11.318  66.428  1.00  0.00     0.043 C  
HETATM   19  C   UNL     1     -11.961  12.254  65.261  1.00  0.00    -0.391 C  
BRANCH  15  20
HETATM   20  C   UNL     1     -11.225  16.018  68.551  1.00  0.00    -0.374 C  
HETATM   21  C   UNL     1      -9.951  16.427  68.675  1.00  0.00    -0.235 C  
HETATM   22  C   UNL     1      -9.688  17.926  68.623  1.00  0.00    -0.355 C  
HETATM   23  C   UNL     1      -8.868  18.422  69.814  1.00  0.00     1.163 C  
HETATM   24  C   UNL     1      -7.571  17.630  69.950  1.00  0.00     1.201 C  
HETATM   25  O   UNL     1      -9.629  18.347  71.021  1.00  0.00     3.607 OA 
HETATM   26  C   UNL     1      -7.827  16.120  69.997  1.00  0.00     0.853 C  
HETATM   27  H   UNL     1      -9.119  18.656  71.761  1.00  0.00     0.000 HD 
HETATM   28  C   UNL     1      -8.731  15.646  68.872  1.00  0.00    -0.215 C  
HETATM   29  C   UNL     1      -8.367  14.620  68.072  1.00  0.00    -0.146 C  
ENDBRANCH  15  20
ENDBRANCH   5   6
ENDBRANCH   4   5
TORSDOF 3
ENDMDL
MODEL      192
REMARK 921   NORMALIZED FREE ENERGY PREDICTED BY IDOCK:   30.36 KCAL/MOL
REMARK 922        TOTAL FREE ENERGY PREDICTED BY IDOCK:   34.87 KCAL/MOL
REMARK 923 INTER-LIGAND FREE ENERGY PREDICTED BY IDOCK:   30.86 KCAL/MOL
REMARK 924 INTRA-LIGAND FREE ENERGY PREDICTED BY IDOCK:    4.02 KCAL/MOL
REMARK 927      BINDING AFFINITY PREDICTED BY RF-SCORE:    0.00 PKD
ROOT
HETATM    1  C   UNL     1      -9.102   6.576  65.333  1.00  0.00     0.221 C  
HETATM    2  C   UNL     1      -9.237   8.009  65.845  1.00  0.00    -0.128 C  
HETATM    3  C   UNL     1     -10.681   8.264  66.287  1.00  0.00     0.925 C  
HETATM    4  C   UNL     1      -8.292   8.309  67.024  1.00  0.00    -0.122 C  
ENDROOT
BRANCH   4   5
HETATM    5  C   UNL     1      -6.804   8.220  66.684  1.00  0.00    -0.068 C  
BRANCH   5   6
HETATM    6  C   UNL     1      -6.365   9.423  65.816  1.00  0.00    -0.068 C  
HETATM    7  C   UNL     1      -6.459  10.801  66.535  1.00  0.00    -0.119 C  
HETATM    8  C   UNL     1      -6.128  12.059  65.545  1.00  0.00     2.683 C  
HETATM    9  C   UNL     1      -5.628  10.709  67.828  1.00  0.00    -0.043 C  
HETATM   10  C   UNL     1      -7.216  12.133  64.470  1.00  0.00     5.030 C  
HETATM   11  C   UNL     1      -8.335  12.946  65.105  1.00  0.00     3.045 C  
HETATM   12  C   UNL     1      -7.777  13.565  66.420  1.00  0.00     1.522 C  
HETATM   13  C   UNL     1      -8.464  14.901  66.700  1.00  0.00    -0.138 C  
HETATM   14  C   UNL     1      -7.532  15.929  67.286  1.00  0.00    -0.244 C  
HETATM   15  C   UNL     1      -9.774  15.126  66.458  1.00  0.00    -0.290 C  
HETATM   16  C   UNL     1      -5.148  13.535  67.326  1.00  0.00     0.409 C  
HETATM   17  C   UNL     1      -6.204  16.030  66.509  1.00  0.00     0.943 C  
HETATM   18  C   UNL     1      -6.210  13.507  66.207  1.00  0.00     4.202 C  
HETATM   19  C   UNL     1      -5.932  14.861  65.486  1.00  0.00    10.510 C  
BRANCH  15  20
HETATM   20  C   UNL     1     -10.535  16.192  67.088  1.00  0.00    -0.305 C  
HETATM   21  C   UNL     1     -10.193  17.418  67.519  1.00  0.00    -0.332 C  
HETATM   22  C   UNL     1     -11.320  18.349  67.948  1.00  0.00     0.645 C  
HETATM   23  C   UNL     1     -11.102  18.936  69.342  1.00  0.00     2.339 C  
HETATM   24  C   UNL     1      -9.742  19.620  69.439  1.00  0.00    -0.198 C  
HETATM   25  O   UNL     1     -11.225  17.924  70.343  1.00  0.00     1.071 OA 
HETATM   26  C   UNL     1      -8.604  18.691  69.004  1.00  0.00    -0.101 C  
HETATM   27  H   UNL     1     -11.090  18.289  71.210  1.00  0.00     0.000 HD 
HETATM   28  C   UNL     1      -8.872  18.026  67.665  1.00  0.00    -0.254 C  
HETATM   29  C   UNL     1      -7.964  18.080  66.666  1.00  0.00    -0.278 C  
ENDBRANCH  15  20
ENDBRANCH   5   6
ENDBRANCH   4   5
TORSDOF 3
ENDMDL
MODEL      193
REMARK 921   NORMALIZED FREE ENERGY PREDICTED BY IDOCK:   30.94 KCAL/MOL
REMARK 922        TOTAL FREE ENERGY PREDICTED BY IDOCK:   35.56 KCAL/MOL
REMARK 923 INTER-LIGAND FREE ENERGY PREDICTED BY IDOCK:   34.65 KCAL/MOL
REMARK 924 INTRA-LIGAND FREE ENERGY PREDICTED BY IDOCK:    0.91 KCAL/MOL
REMARK 927      BINDING AFFINITY PREDICTED BY RF-SCORE:    0.00 PKD
ROOT
HETATM    1  C   UNL     1     -13.436  13.021  68.648  1.00  0.00     5.046 C  
HETATM    2  C   UNL     1     -12.234  12.109  68.404  1.00  0.00     0.141 C  
HETATM    3  C   UNL     1     -11.696  11.597  69.744  1.00  0.00    -0.425 C  
HETATM    4  C   UNL     1     -12.574  10.905  67.507  1.00  0.00     3.572 C  
ENDROOT
BRANCH   4   5
HETATM    5  C   UNL     1     -13.002  11.272  66.086  1.00  0.00     6.043 C  
BRANCH   5   6
HETATM    6  C   UNL     1     -13.281  12.789  65.969  1.00  0.00     1.925 C  
HETATM    7  C   UNL     1     -12.003  13.668  65.839  1.00  0.00    -0.438 C  
HETATM    8  C   UNL     1     -12.327  15.270  65.865  1.00  0.00     0.666 C  
HETATM    9  C   UNL     1     -11.204  13.151  64.629  1.00  0.00    -0.366 C  
HETATM   10  C   UNL     1     -12.881  15.633  67.246  1.00  0.00     2.715 C  
HETATM   11  C   UNL     1     -11.650  15.883  68.106  1.00  0.00    -0.224 C  
HETATM   12  C   UNL     1     -10.418  15.937  67.155  1.00  0.00    -0.313 C  
HETATM   13  C   UNL     1      -9.358  16.876  67.727  1.00  0.00    -0.235 C  
HETATM   14  C   UNL     1      -8.647  17.675  66.667  1.00  0.00    -0.282 C  
HETATM   15  C   UNL     1      -9.082  16.966  69.048  1.00  0.00    -0.174 C  
HETATM   16  C   UNL     1     -10.421  15.942  64.374  1.00  0.00     0.863 C  
HETATM   17  C   UNL     1      -9.623  18.329  65.669  1.00  0.00     0.546 C  
HETATM   18  C   UNL     1     -11.067  16.239  65.743  1.00  0.00     0.059 C  
HETATM   19  C   UNL     1     -11.107  17.797  65.733  1.00  0.00     0.467 C  
BRANCH  15  20
HETATM   20  C   UNL     1      -7.837  17.499  69.573  1.00  0.00     0.492 C  
HETATM   21  C   UNL     1      -6.936  17.012  70.443  1.00  0.00     1.619 C  
HETATM   22  C   UNL     1      -5.628  17.777  70.600  1.00  0.00    -0.121 C  
HETATM   23  C   UNL     1      -5.309  18.106  72.058  1.00  0.00     0.569 C  
HETATM   24  C   UNL     1      -5.328  16.846  72.918  1.00  0.00     2.995 C  
HETATM   25  O   UNL     1      -6.224  19.075  72.571  1.00  0.00     0.695 OA 
HETATM   26  C   UNL     1      -6.639  16.068  72.761  1.00  0.00     4.966 C  
HETATM   27  H   UNL     1      -6.027  19.280  73.478  1.00  0.00     0.000 HD 
HETATM   28  C   UNL     1      -7.008  15.834  71.307  1.00  0.00     2.489 C  
HETATM   29  C   UNL     1      -7.301  14.596  70.852  1.00  0.00     1.355 C  
ENDBRANCH  15  20
ENDBRANCH   5   6
ENDBRANCH   4   5
TORSDOF 3
ENDMDL
MODEL      194
REMARK 921   NORMALIZED FREE ENERGY PREDICTED BY IDOCK:   31.96 KCAL/MOL
REMARK 922        TOTAL FREE ENERGY PREDICTED BY IDOCK:   36.76 KCAL/MOL
REMARK 923 INTER-LIGAND FREE ENERGY PREDICTED BY IDOCK:   37.11 KCAL/MOL
REMARK 924 INTRA-LIGAND FREE ENERGY PREDICTED BY IDOCK:   -0.36 KCAL/MOL
REMARK 927      BINDING AFFINITY PREDICTED BY RF-SCORE:    0.00 PKD
ROOT
HETATM    1  C   UNL     1      -9.629  20.563  67.954  1.00  0.00    -0.336 C  
HETATM    2  C   UNL     1      -8.567  19.519  67.611  1.00  0.00    -0.355 C  
HETATM    3  C   UNL     1      -8.334  19.502  66.097  1.00  0.00    -0.333 C  
HETATM    4  C   UNL     1      -7.226  19.781  68.321  1.00  0.00    -0.341 C  
ENDROOT
BRANCH   4   5
HETATM    5  C   UNL     1      -7.288  19.697  69.847  1.00  0.00     0.137 C  
BRANCH   5   6
HETATM    6  C   UNL     1      -8.744  19.497  70.328  1.00  0.00     1.439 C  
HETATM    7  C   UNL     1      -9.120  18.018  70.640  1.00  0.00     4.454 C  
HETATM    8  C   UNL     1     -10.702  17.826  71.003  1.00  0.00     2.192 C  
HETATM    9  C   UNL     1      -8.110  17.490  71.675  1.00  0.00    10.819 C  
HETATM   10  C   UNL     1     -11.532  18.159  69.760  1.00  0.00     3.683 C  
HETATM   11  C   UNL     1     -11.573  16.863  68.962  1.00  0.00     0.506 C  
HETATM   12  C   UNL     1     -11.012  15.733  69.874  1.00  0.00    -0.335 C  
HETATM   13  C   UNL     1     -11.675  14.402  69.522  1.00  0.00    -0.362 C  
HETATM   14  C   UNL     1     -11.939  13.540  70.728  1.00  0.00    -0.255 C  
HETATM   15  C   UNL     1     -11.978  14.036  68.256  1.00  0.00    -0.384 C  
HETATM   16  C   UNL     1     -10.371  15.894  72.574  1.00  0.00     3.492 C  
HETATM   17  C   UNL     1     -12.616  14.320  71.872  1.00  0.00    -0.396 C  
HETATM   18  C   UNL     1     -11.166  16.336  71.329  1.00  0.00    -0.140 C  
HETATM   19  C   UNL     1     -12.610  15.890  71.712  1.00  0.00    -0.489 C  
BRANCH  15  20
HETATM   20  C   UNL     1     -12.198  12.659  67.850  1.00  0.00     0.056 C  
HETATM   21  C   UNL     1     -11.436  11.778  67.178  1.00  0.00    -0.366 C  
HETATM   22  C   UNL     1     -11.922  10.336  67.114  1.00  0.00     2.427 C  
HETATM   23  C   UNL     1     -11.976   9.795  65.686  1.00  0.00     6.299 C  
HETATM   24  C   UNL     1     -10.629   9.963  64.989  1.00  0.00     0.801 C  
HETATM   25  O   UNL     1     -13.009  10.437  64.938  1.00  0.00     5.670 OA 
HETATM   26  C   UNL     1     -10.130  11.410  65.054  1.00  0.00    -0.323 C  
HETATM   27  H   UNL     1     -13.043  10.100  64.050  1.00  0.00     0.000 HD 
HETATM   28  C   UNL     1     -10.179  11.982  66.460  1.00  0.00    -0.232 C  
HETATM   29  C   UNL     1      -9.091  12.562  67.015  1.00  0.00    -0.213 C  
ENDBRANCH  15  20
ENDBRANCH   5   6
ENDBRANCH   4   5
TORSDOF 3
ENDMDL
MODEL      195
REMARK 921   NORMALIZED FREE ENERGY PREDICTED BY IDOCK:   33.81 KCAL/MOL
REMARK 922        TOTAL FREE ENERGY PREDICTED BY IDOCK:   38.93 KCAL/MOL
REMARK 923 INTER-LIGAND FREE ENERGY PREDICTED BY IDOCK:   39.07 KCAL/MOL
REMARK 924 INTRA-LIGAND FREE ENERGY PREDICTED BY IDOCK:   -0.14 KCAL/MOL
REMARK 927      BINDING AFFINITY PREDICTED BY RF-SCORE:    0.00 PKD
ROOT
HETATM    1  C   UNL     1     -11.584   1.515  67.895  1.00  0.00     9.578 C  
HETATM    2  C   UNL     1     -11.643   2.206  69.257  1.00  0.00    10.371 C  
HETATM    3  C   UNL     1     -13.042   2.041  69.857  1.00  0.00    19.585 C  
HETATM    4  C   UNL     1     -10.603   1.651  70.249  1.00  0.00     1.566 C  
ENDROOT
BRANCH   4   5
HETATM    5  C   UNL     1      -9.148   1.869  69.832  1.00  0.00    -0.159 C  
BRANCH   5   6
HETATM    6  C   UNL     1      -9.053   2.228  68.331  1.00  0.00    -0.215 C  
HETATM    7  C   UNL     1      -7.948   3.270  67.989  1.00  0.00    -0.071 C  
HETATM    8  C   UNL     1      -7.973   3.734  66.422  1.00  0.00    -0.089 C  
HETATM    9  C   UNL     1      -6.611   2.722  68.521  1.00  0.00    -0.033 C  
HETATM   10  C   UNL     1      -9.280   4.487  66.157  1.00  0.00    -0.139 C  
HETATM   11  C   UNL     1      -8.989   5.925  66.562  1.00  0.00    -0.133 C  
HETATM   12  C   UNL     1      -7.454   6.046  66.789  1.00  0.00    -0.087 C  
HETATM   13  C   UNL     1      -6.987   7.461  66.450  1.00  0.00    -0.069 C  
HETATM   14  C   UNL     1      -5.636   7.490  65.785  1.00  0.00    -0.033 C  
HETATM   15  C   UNL     1      -7.709   8.569  66.732  1.00  0.00    -0.091 C  
HETATM   16  C   UNL     1      -5.502   4.145  66.237  1.00  0.00    -0.013 C  
HETATM   17  C   UNL     1      -5.526   6.474  64.630  1.00  0.00    -0.026 C  
HETATM   18  C   UNL     1      -6.874   4.807  65.995  1.00  0.00    -0.058 C  
HETATM   19  C   UNL     1      -6.680   5.401  64.566  1.00  0.00    -0.047 C  
BRANCH  15  20
HETATM   20  C   UNL     1      -7.135   9.900  66.820  1.00  0.00    -0.090 C  
HETATM   21  C   UNL     1      -6.424  10.520  67.778  1.00  0.00    -0.060 C  
HETATM   22  C   UNL     1      -5.806  11.868  67.430  1.00  0.00    -0.115 C  
HETATM   23  C   UNL     1      -6.158  12.957  68.442  1.00  0.00    -0.074 C  
HETATM   24  C   UNL     1      -5.793  12.523  69.858  1.00  0.00    -0.134 C  
HETATM   25  O   UNL     1      -7.544  13.295  68.363  1.00  0.00    -0.124 OA 
HETATM   26  C   UNL     1      -6.408  11.165  70.214  1.00  0.00    -0.097 C  
HETATM   27  H   UNL     1      -7.763  13.972  68.993  1.00  0.00     0.000 HD 
HETATM   28  C   UNL     1      -6.146  10.110  69.153  1.00  0.00    -0.040 C  
HETATM   29  C   UNL     1      -5.616   8.911  69.479  1.00  0.00    -0.034 C  
ENDBRANCH  15  20
ENDBRANCH   5   6
ENDBRANCH   4   5
TORSDOF 3
ENDMDL
MODEL      196
REMARK 921   NORMALIZED FREE ENERGY PREDICTED BY IDOCK:   37.87 KCAL/MOL
REMARK 922        TOTAL FREE ENERGY PREDICTED BY IDOCK:   43.69 KCAL/MOL
REMARK 923 INTER-LIGAND FREE ENERGY PREDICTED BY IDOCK:   42.98 KCAL/MOL
REMARK 924 INTRA-LIGAND FREE ENERGY PREDICTED BY IDOCK:    0.71 KCAL/MOL
REMARK 927      BINDING AFFINITY PREDICTED BY RF-SCORE:    0.00 PKD
ROOT
HETATM    1  C   UNL     1      -7.986  13.118  71.258  1.00  0.00     8.539 C  
HETATM    2  C   UNL     1      -8.349  14.588  71.051  1.00  0.00     3.359 C  
HETATM    3  C   UNL     1      -9.362  15.022  72.115  1.00  0.00     5.418 C  
HETATM    4  C   UNL     1      -7.123  15.517  71.117  1.00  0.00     1.966 C  
ENDROOT
BRANCH   4   5
HETATM    5  C   UNL     1      -6.085  15.277  70.020  1.00  0.00    -0.150 C  
BRANCH   5   6
HETATM    6  C   UNL     1      -5.526  13.837  70.096  1.00  0.00    -0.110 C  
HETATM    7  C   UNL     1      -5.958  12.919  68.915  1.00  0.00    -0.079 C  
HETATM    8  C   UNL     1      -5.472  11.369  69.102  1.00  0.00    -0.043 C  
HETATM    9  C   UNL     1      -5.538  13.615  67.607  1.00  0.00    -0.015 C  
HETATM   10  C   UNL     1      -6.198  10.773  70.312  1.00  0.00    -0.146 C  
HETATM   11  C   UNL     1      -7.527  10.275  69.761  1.00  0.00    -0.169 C  
HETATM   12  C   UNL     1      -7.441  10.332  68.208  1.00  0.00    -0.086 C  
HETATM   13  C   UNL     1      -8.303   9.228  67.597  1.00  0.00    -0.116 C  
HETATM   14  C   UNL     1      -7.687   8.614  66.368  1.00  0.00    -0.095 C  
HETATM   15  C   UNL     1      -9.500   8.857  68.103  1.00  0.00    -0.155 C  
HETATM   16  C   UNL     1      -5.204  10.886  66.652  1.00  0.00    -0.075 C  
HETATM   17  C   UNL     1      -6.205   8.241  66.576  1.00  0.00    -0.054 C  
HETATM   18  C   UNL     1      -5.882  10.364  67.935  1.00  0.00    -0.044 C  
HETATM   19  C   UNL     1      -5.535   8.845  67.870  1.00  0.00    -0.035 C  
BRANCH  15  20
HETATM   20  C   UNL     1     -10.510   8.147  67.336  1.00  0.00    -0.356 C  
HETATM   21  C   UNL     1     -11.292   7.092  67.623  1.00  0.00     0.189 C  
HETATM   22  C   UNL     1     -12.396   6.747  66.631  1.00  0.00     5.503 C  
HETATM   23  C   UNL     1     -12.362   5.282  66.197  1.00  0.00     4.996 C  
HETATM   24  C   UNL     1     -12.387   4.355  67.408  1.00  0.00    13.294 C  
HETATM   25  O   UNL     1     -11.213   5.019  65.389  1.00  0.00    -0.785 OA 
HETATM   26  C   UNL     1     -11.283   4.699  68.413  1.00  0.00     2.990 C  
HETATM   27  H   UNL     1     -11.192   4.108  65.120  1.00  0.00     0.000 HD 
HETATM   28  C   UNL     1     -11.251   6.177  68.762  1.00  0.00    -0.307 C  
HETATM   29  C   UNL     1     -11.266   6.590  70.049  1.00  0.00    -0.453 C  
ENDBRANCH  15  20
ENDBRANCH   5   6
ENDBRANCH   4   5
TORSDOF 3
ENDMDL
MODEL      197
REMARK 921   NORMALIZED FREE ENERGY PREDICTED BY IDOCK:   39.54 KCAL/MOL
REMARK 922        TOTAL FREE ENERGY PREDICTED BY IDOCK:   45.66 KCAL/MOL
REMARK 923 INTER-LIGAND FREE ENERGY PREDICTED BY IDOCK:   45.84 KCAL/MOL
REMARK 924 INTRA-LIGAND FREE ENERGY PREDICTED BY IDOCK:   -0.18 KCAL/MOL
REMARK 927      BINDING AFFINITY PREDICTED BY RF-SCORE:    0.00 PKD
ROOT
HETATM    1  C   UNL     1     -11.607   1.535  67.884  1.00  0.00     9.578 C  
HETATM    2  C   UNL     1     -11.735   2.236  69.236  1.00  0.00    12.147 C  
HETATM    3  C   UNL     1     -13.159   2.062  69.772  1.00  0.00    20.450 C  
HETATM    4  C   UNL     1     -10.737   1.699  70.279  1.00  0.00     1.991 C  
ENDROOT
BRANCH   4   5
HETATM    5  C   UNL     1      -9.266   1.928  69.928  1.00  0.00    -0.172 C  
BRANCH   5   6
HETATM    6  C   UNL     1      -8.991   1.568  68.450  1.00  0.00    -0.157 C  
HETATM    7  C   UNL     1      -7.966   2.502  67.742  1.00  0.00    -0.064 C  
HETATM    8  C   UNL     1      -7.811   2.184  66.146  1.00  0.00    -0.076 C  
HETATM    9  C   UNL     1      -6.671   2.487  68.573  1.00  0.00    -0.036 C  
HETATM   10  C   UNL     1      -9.137   2.505  65.452  1.00  0.00    -0.123 C  
HETATM   11  C   UNL     1      -9.066   3.995  65.147  1.00  0.00    -0.139 C  
HETATM   12  C   UNL     1      -7.603   4.457  65.410  1.00  0.00    -0.085 C  
HETATM   13  C   UNL     1      -7.245   5.613  64.476  1.00  0.00    -0.058 C  
HETATM   14  C   UNL     1      -5.822   5.555  63.987  1.00  0.00    -0.021 C  
HETATM   15  C   UNL     1      -8.116   6.591  64.140  1.00  0.00    -0.042 C  
HETATM   16  C   UNL     1      -5.398   2.863  65.983  1.00  0.00    -0.012 C  
HETATM   17  C   UNL     1      -5.436   4.156  63.466  1.00  0.00    -0.013 C  
HETATM   18  C   UNL     1      -6.782   3.105  65.348  1.00  0.00    -0.041 C  
HETATM   19  C   UNL     1      -6.446   3.000  63.829  1.00  0.00    -0.030 C  
BRANCH  15  20
HETATM   20  C   UNL     1      -7.708   7.888  63.630  1.00  0.00    -0.136 C  
HETATM   21  C   UNL     1      -7.238   8.994  64.233  1.00  0.00    -0.091 C  
HETATM   22  C   UNL     1      -6.714  10.111  63.340  1.00  0.00    -0.128 C  
HETATM   23  C   UNL     1      -7.345  11.466  63.658  1.00  0.00     1.647 C  
HETATM   24  C   UNL     1      -7.183  11.808  65.136  1.00  0.00     2.202 C  
HETATM   25  O   UNL     1      -8.725  11.483  63.289  1.00  0.00    -0.455 OA 
HETATM   26  C   UNL     1      -7.704  10.687  66.042  1.00  0.00    -0.151 C  
HETATM   27  H   UNL     1      -9.117  12.325  63.487  1.00  0.00     0.000 HD 
HETATM   28  C   UNL     1      -7.157   9.324  65.655  1.00  0.00    -0.082 C  
HETATM   29  C   UNL     1      -6.567   8.524  66.571  1.00  0.00    -0.059 C  
ENDBRANCH  15  20
ENDBRANCH   5   6
ENDBRANCH   4   5
TORSDOF 3
ENDMDL
MODEL      198
REMARK 921   NORMALIZED FREE ENERGY PREDICTED BY IDOCK:   70.06 KCAL/MOL
REMARK 922        TOTAL FREE ENERGY PREDICTED BY IDOCK:   81.53 KCAL/MOL
REMARK 923 INTER-LIGAND FREE ENERGY PREDICTED BY IDOCK:   82.22 KCAL/MOL
REMARK 924 INTRA-LIGAND FREE ENERGY PREDICTED BY IDOCK:   -0.69 KCAL/MOL
REMARK 927      BINDING AFFINITY PREDICTED BY RF-SCORE:    0.00 PKD
ROOT
HETATM    1  C   UNL     1     -12.584  16.456  73.127  1.00  0.00    -0.396 C  
HETATM    2  C   UNL     1     -12.655  14.942  72.935  1.00  0.00    -0.503 C  
HETATM    3  C   UNL     1     -13.866  14.590  72.066  1.00  0.00    -0.561 C  
HETATM    4  C   UNL     1     -11.385  14.366  72.282  1.00  0.00     1.063 C  
ENDROOT
BRANCH   4   5
HETATM    5  C   UNL     1     -10.112  14.533  73.112  1.00  0.00     5.948 C  
BRANCH   5   6
HETATM    6  C   UNL     1      -9.776  13.229  73.873  1.00  0.00    14.615 C  
HETATM    7  C   UNL     1      -8.640  12.384  73.228  1.00  0.00    22.754 C  
HETATM    8  C   UNL     1      -8.413  10.947  73.973  1.00  0.00    13.488 C  
HETATM    9  C   UNL     1      -7.402  13.290  73.096  1.00  0.00     8.238 C  
HETATM   10  C   UNL     1      -9.665  10.089  73.771  1.00  0.00    10.606 C  
HETATM   11  C   UNL     1      -9.457   9.408  72.426  1.00  0.00     1.564 C  
HETATM   12  C   UNL     1      -7.981   9.655  72.000  1.00  0.00     1.700 C  
HETATM   13  C   UNL     1      -7.477   8.480  71.162  1.00  0.00    -0.097 C  
HETATM   14  C   UNL     1      -6.036   8.139  71.435  1.00  0.00    -0.036 C  
HETATM   15  C   UNL     1      -8.246   7.829  70.260  1.00  0.00    -0.125 C  
HETATM   16  C   UNL     1      -5.948  10.803  73.509  1.00  0.00     1.881 C  
HETATM   17  C   UNL     1      -5.731   8.039  72.943  1.00  0.00    -0.048 C  
HETATM   18  C   UNL     1      -7.268  10.019  73.365  1.00  0.00     3.387 C  
HETATM   19  C   UNL     1      -6.850   8.614  73.896  1.00  0.00    -0.059 C  
BRANCH  15  20
HETATM   20  C   UNL     1      -7.705   7.028  69.175  1.00  0.00    -0.105 C  
HETATM   21  C   UNL     1      -8.104   6.830  67.907  1.00  0.00    -0.114 C  
HETATM   22  C   UNL     1      -7.159   6.071  66.985  1.00  0.00    -0.070 C  
HETATM   23  C   UNL     1      -7.837   4.896  66.281  1.00  0.00    -0.096 C  
HETATM   24  C   UNL     1      -9.092   5.354  65.544  1.00  0.00    -0.126 C  
HETATM   25  O   UNL     1      -8.155   3.861  67.213  1.00  0.00    -0.091 OA 
HETATM   26  C   UNL     1     -10.046   6.122  66.464  1.00  0.00    -0.179 C  
HETATM   27  H   UNL     1      -8.576   3.131  66.776  1.00  0.00     0.000 HD 
HETATM   28  C   UNL     1      -9.346   7.223  67.243  1.00  0.00    -0.156 C  
HETATM   29  C   UNL     1      -9.818   8.489  67.237  1.00  0.00    -0.259 C  
ENDBRANCH  15  20
ENDBRANCH   5   6
ENDBRANCH   4   5
TORSDOF 3
ENDMDL
