MODEL        1
REMARK 921   NORMALIZED FREE ENERGY PREDICTED BY IDOCK:   -3.62 KCAL/MOL
REMARK 922        TOTAL FREE ENERGY PREDICTED BY IDOCK:   -4.07 KCAL/MOL
REMARK 923 INTER-LIGAND FREE ENERGY PREDICTED BY IDOCK:   -4.04 KCAL/MOL
REMARK 924 INTRA-LIGAND FREE ENERGY PREDICTED BY IDOCK:   -0.03 KCAL/MOL
REMARK 927      BINDING AFFINITY PREDICTED BY RF-SCORE:    0.00 PKD
ROOT
HETATM    1  C   UNL     1     -11.145  12.064  65.762  1.00  0.00    -0.324 C  
HETATM    2  N   UNL     1     -11.689  13.191  64.885  1.00  0.00    -0.326 N  
HETATM    3  C   UNL     1     -12.904  13.798  65.567  1.00  0.00    -0.419 C  
HETATM    4  C   UNL     1     -12.115  12.589  63.545  1.00  0.00    -0.562 C  
ENDROOT
BRANCH   2   5
HETATM    5  C   UNL     1     -10.559  14.237  64.706  1.00  0.00    -0.412 C  
BRANCH   5   6
HETATM    6  C   UNL     1     -10.957  15.686  65.032  1.00  0.00    -0.431 C  
HETATM    7  O   UNL     1     -11.421  16.354  63.865  1.00  0.00    -1.569 OA 
HETATM    8  H   UNL     1     -11.666  17.250  64.066  1.00  0.00     0.000 HD 
ENDBRANCH   5   6
ENDBRANCH   2   5
TORSDOF 2
ENDMDL
MODEL        2
REMARK 921   NORMALIZED FREE ENERGY PREDICTED BY IDOCK:   -3.59 KCAL/MOL
REMARK 922        TOTAL FREE ENERGY PREDICTED BY IDOCK:   -4.05 KCAL/MOL
REMARK 923 INTER-LIGAND FREE ENERGY PREDICTED BY IDOCK:   -4.02 KCAL/MOL
REMARK 924 INTRA-LIGAND FREE ENERGY PREDICTED BY IDOCK:   -0.03 KCAL/MOL
REMARK 927      BINDING AFFINITY PREDICTED BY RF-SCORE:    0.00 PKD
ROOT
HETATM    1  C   UNL     1     -11.907  12.281  65.936  1.00  0.00    -0.354 C  
HETATM    2  N   UNL     1     -11.718  12.937  64.569  1.00  0.00    -0.344 N  
HETATM    3  C   UNL     1     -12.452  12.112  63.525  1.00  0.00    -0.555 C  
HETATM    4  C   UNL     1     -10.223  12.940  64.245  1.00  0.00    -0.312 C  
ENDROOT
BRANCH   2   5
HETATM    5  C   UNL     1     -12.285  14.377  64.653  1.00  0.00    -0.464 C  
BRANCH   5   6
HETATM    6  C   UNL     1     -11.231  15.495  64.612  1.00  0.00    -0.371 C  
HETATM    7  O   UNL     1     -11.649  16.549  63.754  1.00  0.00    -1.617 OA 
HETATM    8  H   UNL     1     -10.997  17.240  63.728  1.00  0.00     0.000 HD 
ENDBRANCH   5   6
ENDBRANCH   2   5
TORSDOF 2
ENDMDL
MODEL        3
REMARK 921   NORMALIZED FREE ENERGY PREDICTED BY IDOCK:   -3.52 KCAL/MOL
REMARK 922        TOTAL FREE ENERGY PREDICTED BY IDOCK:   -3.96 KCAL/MOL
REMARK 923 INTER-LIGAND FREE ENERGY PREDICTED BY IDOCK:   -3.93 KCAL/MOL
REMARK 924 INTRA-LIGAND FREE ENERGY PREDICTED BY IDOCK:   -0.04 KCAL/MOL
REMARK 927      BINDING AFFINITY PREDICTED BY RF-SCORE:    0.00 PKD
ROOT
HETATM    1  C   UNL     1     -12.605  12.133  63.898  1.00  0.00    -0.438 C  
HETATM    2  N   UNL     1     -11.743  12.961  64.849  1.00  0.00    -0.331 N  
HETATM    3  C   UNL     1     -10.297  12.887  64.388  1.00  0.00    -0.369 C  
HETATM    4  C   UNL     1     -11.855  12.350  66.247  1.00  0.00    -0.364 C  
ENDROOT
BRANCH   2   5
HETATM    5  C   UNL     1     -12.272  14.417  64.820  1.00  0.00    -0.446 C  
BRANCH   5   6
HETATM    6  C   UNL     1     -11.185  15.504  64.795  1.00  0.00    -0.390 C  
HETATM    7  O   UNL     1     -11.437  16.444  63.758  1.00  0.00    -1.590 OA 
HETATM    8  H   UNL     1     -10.765  17.116  63.742  1.00  0.00     0.000 HD 
ENDBRANCH   5   6
ENDBRANCH   2   5
TORSDOF 2
ENDMDL
MODEL        4
REMARK 921   NORMALIZED FREE ENERGY PREDICTED BY IDOCK:   -3.44 KCAL/MOL
REMARK 922        TOTAL FREE ENERGY PREDICTED BY IDOCK:   -3.87 KCAL/MOL
REMARK 923 INTER-LIGAND FREE ENERGY PREDICTED BY IDOCK:   -3.82 KCAL/MOL
REMARK 924 INTRA-LIGAND FREE ENERGY PREDICTED BY IDOCK:   -0.06 KCAL/MOL
REMARK 927      BINDING AFFINITY PREDICTED BY RF-SCORE:    0.00 PKD
ROOT
HETATM    1  C   UNL     1     -12.160  13.899  66.445  1.00  0.00    -0.455 C  
HETATM    2  N   UNL     1     -11.348  13.199  65.356  1.00  0.00    -0.294 N  
HETATM    3  C   UNL     1     -12.302  12.453  64.438  1.00  0.00    -0.447 C  
HETATM    4  C   UNL     1     -10.413  12.194  66.030  1.00  0.00    -0.247 C  
ENDROOT
BRANCH   2   5
HETATM    5  C   UNL     1     -10.556  14.286  64.585  1.00  0.00    -0.340 C  
BRANCH   5   6
HETATM    6  C   UNL     1     -10.957  15.735  64.908  1.00  0.00    -0.427 C  
HETATM    7  O   UNL     1     -11.574  16.349  63.784  1.00  0.00    -1.605 OA 
HETATM    8  H   UNL     1     -11.822  17.244  63.983  1.00  0.00     0.000 HD 
ENDBRANCH   5   6
ENDBRANCH   2   5
TORSDOF 2
ENDMDL
MODEL        5
REMARK 921   NORMALIZED FREE ENERGY PREDICTED BY IDOCK:   -3.15 KCAL/MOL
REMARK 922        TOTAL FREE ENERGY PREDICTED BY IDOCK:   -3.55 KCAL/MOL
REMARK 923 INTER-LIGAND FREE ENERGY PREDICTED BY IDOCK:   -3.49 KCAL/MOL
REMARK 924 INTRA-LIGAND FREE ENERGY PREDICTED BY IDOCK:   -0.05 KCAL/MOL
REMARK 927      BINDING AFFINITY PREDICTED BY RF-SCORE:    0.00 PKD
ROOT
HETATM    1  C   UNL     1     -10.382  15.815  66.966  1.00  0.00    -0.292 C  
HETATM    2  N   UNL     1     -10.692  14.380  66.542  1.00  0.00    -0.301 N  
HETATM    3  C   UNL     1     -12.013  13.961  67.165  1.00  0.00    -0.420 C  
HETATM    4  C   UNL     1      -9.579  13.475  67.073  1.00  0.00    -0.248 C  
ENDROOT
BRANCH   2   5
HETATM    5  C   UNL     1     -10.761  14.349  64.994  1.00  0.00    -0.423 C  
BRANCH   5   6
HETATM    6  C   UNL     1     -12.067  14.890  64.390  1.00  0.00    -0.401 C  
HETATM    7  O   UNL     1     -11.847  16.145  63.758  1.00  0.00    -1.408 OA 
HETATM    8  H   UNL     1     -12.655  16.480  63.385  1.00  0.00     0.000 HD 
ENDBRANCH   5   6
ENDBRANCH   2   5
TORSDOF 2
ENDMDL
MODEL        6
REMARK 921   NORMALIZED FREE ENERGY PREDICTED BY IDOCK:   -3.07 KCAL/MOL
REMARK 922        TOTAL FREE ENERGY PREDICTED BY IDOCK:   -3.46 KCAL/MOL
REMARK 923 INTER-LIGAND FREE ENERGY PREDICTED BY IDOCK:   -3.45 KCAL/MOL
REMARK 924 INTRA-LIGAND FREE ENERGY PREDICTED BY IDOCK:   -0.02 KCAL/MOL
REMARK 927      BINDING AFFINITY PREDICTED BY RF-SCORE:    0.00 PKD
ROOT
HETATM    1  C   UNL     1     -10.082  13.105  66.081  1.00  0.00    -0.291 C  
HETATM    2  N   UNL     1     -11.425  13.797  65.855  1.00  0.00    -0.315 N  
HETATM    3  C   UNL     1     -11.185  15.098  65.106  1.00  0.00    -0.389 C  
HETATM    4  C   UNL     1     -12.035  14.112  67.223  1.00  0.00    -0.414 C  
ENDROOT
BRANCH   2   5
HETATM    5  C   UNL     1     -12.323  12.832  65.040  1.00  0.00    -0.499 C  
BRANCH   5   6
HETATM    6  C   UNL     1     -12.009  12.764  63.537  1.00  0.00    -0.555 C  
HETATM    7  O   UNL     1     -12.522  11.566  62.969  1.00  0.00    -0.982 OA 
HETATM    8  H   UNL     1     -12.327  11.524  62.039  1.00  0.00     0.000 HD 
ENDBRANCH   5   6
ENDBRANCH   2   5
TORSDOF 2
ENDMDL
MODEL        7
REMARK 921   NORMALIZED FREE ENERGY PREDICTED BY IDOCK:   -3.06 KCAL/MOL
REMARK 922        TOTAL FREE ENERGY PREDICTED BY IDOCK:   -3.45 KCAL/MOL
REMARK 923 INTER-LIGAND FREE ENERGY PREDICTED BY IDOCK:   -3.42 KCAL/MOL
REMARK 924 INTRA-LIGAND FREE ENERGY PREDICTED BY IDOCK:   -0.04 KCAL/MOL
REMARK 927      BINDING AFFINITY PREDICTED BY RF-SCORE:    0.00 PKD
ROOT
HETATM    1  C   UNL     1     -11.968  13.783  68.004  1.00  0.00    -0.355 C  
HETATM    2  N   UNL     1     -11.501  13.399  66.601  1.00  0.00    -0.330 N  
HETATM    3  C   UNL     1     -11.234  11.903  66.566  1.00  0.00    -0.327 C  
HETATM    4  C   UNL     1     -10.199  14.147  66.310  1.00  0.00    -0.295 C  
ENDROOT
BRANCH   2   5
HETATM    5  C   UNL     1     -12.621  13.796  65.605  1.00  0.00    -0.509 C  
BRANCH   5   6
HETATM    6  C   UNL     1     -12.161  14.663  64.422  1.00  0.00    -0.462 C  
HETATM    7  O   UNL     1     -12.491  14.043  63.186  1.00  0.00    -1.137 OA 
HETATM    8  H   UNL     1     -12.206  14.578  62.454  1.00  0.00     0.000 HD 
ENDBRANCH   5   6
ENDBRANCH   2   5
TORSDOF 2
ENDMDL
MODEL        8
REMARK 921   NORMALIZED FREE ENERGY PREDICTED BY IDOCK:   -3.05 KCAL/MOL
REMARK 922        TOTAL FREE ENERGY PREDICTED BY IDOCK:   -3.44 KCAL/MOL
REMARK 923 INTER-LIGAND FREE ENERGY PREDICTED BY IDOCK:   -3.42 KCAL/MOL
REMARK 924 INTRA-LIGAND FREE ENERGY PREDICTED BY IDOCK:   -0.02 KCAL/MOL
REMARK 927      BINDING AFFINITY PREDICTED BY RF-SCORE:    0.00 PKD
ROOT
HETATM    1  C   UNL     1     -11.581  12.353  67.417  1.00  0.00    -0.365 C  
HETATM    2  N   UNL     1     -11.446  13.731  66.773  1.00  0.00    -0.333 N  
HETATM    3  C   UNL     1     -10.006  13.923  66.324  1.00  0.00    -0.306 C  
HETATM    4  C   UNL     1     -11.786  14.786  67.827  1.00  0.00    -0.343 C  
ENDROOT
BRANCH   2   5
HETATM    5  C   UNL     1     -12.425  13.791  65.572  1.00  0.00    -0.512 C  
BRANCH   5   6
HETATM    6  C   UNL     1     -11.813  13.412  64.214  1.00  0.00    -0.423 C  
HETATM    7  O   UNL     1     -12.535  14.019  63.150  1.00  0.00    -1.137 OA 
HETATM    8  H   UNL     1     -12.156  13.784  62.310  1.00  0.00     0.000 HD 
ENDBRANCH   5   6
ENDBRANCH   2   5
TORSDOF 2
ENDMDL
MODEL        9
REMARK 921   NORMALIZED FREE ENERGY PREDICTED BY IDOCK:   -3.04 KCAL/MOL
REMARK 922        TOTAL FREE ENERGY PREDICTED BY IDOCK:   -3.43 KCAL/MOL
REMARK 923 INTER-LIGAND FREE ENERGY PREDICTED BY IDOCK:   -3.36 KCAL/MOL
REMARK 924 INTRA-LIGAND FREE ENERGY PREDICTED BY IDOCK:   -0.07 KCAL/MOL
REMARK 927      BINDING AFFINITY PREDICTED BY RF-SCORE:    0.00 PKD
ROOT
HETATM    1  C   UNL     1     -11.458  14.750  67.567  1.00  0.00    -0.354 C  
HETATM    2  N   UNL     1     -11.200  14.458  66.090  1.00  0.00    -0.330 N  
HETATM    3  C   UNL     1     -10.096  13.419  65.982  1.00  0.00    -0.304 C  
HETATM    4  C   UNL     1     -10.737  15.753  65.422  1.00  0.00    -0.404 C  
ENDROOT
BRANCH   2   5
HETATM    5  C   UNL     1     -12.525  13.941  65.473  1.00  0.00    -0.511 C  
BRANCH   5   6
HETATM    6  C   UNL     1     -12.357  12.996  64.271  1.00  0.00    -0.366 C  
HETATM    7  O   UNL     1     -12.410  13.722  63.050  1.00  0.00    -1.089 OA 
HETATM    8  H   UNL     1     -12.306  13.138  62.307  1.00  0.00     0.000 HD 
ENDBRANCH   5   6
ENDBRANCH   2   5
TORSDOF 2
ENDMDL
MODEL       10
REMARK 921   NORMALIZED FREE ENERGY PREDICTED BY IDOCK:   -3.00 KCAL/MOL
REMARK 922        TOTAL FREE ENERGY PREDICTED BY IDOCK:   -3.38 KCAL/MOL
REMARK 923 INTER-LIGAND FREE ENERGY PREDICTED BY IDOCK:   -3.37 KCAL/MOL
REMARK 924 INTRA-LIGAND FREE ENERGY PREDICTED BY IDOCK:   -0.02 KCAL/MOL
REMARK 927      BINDING AFFINITY PREDICTED BY RF-SCORE:    0.00 PKD
ROOT
HETATM    1  C   UNL     1     -11.276  14.949  64.928  1.00  0.00    -0.410 C  
HETATM    2  N   UNL     1     -11.541  13.645  65.678  1.00  0.00    -0.320 N  
HETATM    3  C   UNL     1     -12.156  13.973  67.028  1.00  0.00    -0.420 C  
HETATM    4  C   UNL     1     -10.201  12.939  65.896  1.00  0.00    -0.290 C  
ENDROOT
BRANCH   2   5
HETATM    5  C   UNL     1     -12.501  12.789  64.812  1.00  0.00    -0.472 C  
BRANCH   5   6
HETATM    6  C   UNL     1     -12.049  12.573  63.359  1.00  0.00    -0.529 C  
HETATM    7  O   UNL     1     -12.671  11.421  62.804  1.00  0.00    -0.927 OA 
HETATM    8  H   UNL     1     -12.391  11.288  61.906  1.00  0.00     0.000 HD 
ENDBRANCH   5   6
ENDBRANCH   2   5
TORSDOF 2
ENDMDL
MODEL       11
REMARK 921   NORMALIZED FREE ENERGY PREDICTED BY IDOCK:   -2.99 KCAL/MOL
REMARK 922        TOTAL FREE ENERGY PREDICTED BY IDOCK:   -3.37 KCAL/MOL
REMARK 923 INTER-LIGAND FREE ENERGY PREDICTED BY IDOCK:   -3.36 KCAL/MOL
REMARK 924 INTRA-LIGAND FREE ENERGY PREDICTED BY IDOCK:   -0.01 KCAL/MOL
REMARK 927      BINDING AFFINITY PREDICTED BY RF-SCORE:    0.00 PKD
ROOT
HETATM    1  C   UNL     1      -9.048  14.307  66.998  1.00  0.00    -0.233 C  
HETATM    2  N   UNL     1     -10.181  15.176  66.456  1.00  0.00    -0.268 N  
HETATM    3  C   UNL     1      -9.700  16.616  66.377  1.00  0.00    -0.286 C  
HETATM    4  C   UNL     1     -11.355  15.093  67.433  1.00  0.00    -0.306 C  
ENDROOT
BRANCH   2   5
HETATM    5  C   UNL     1     -10.565  14.631  65.056  1.00  0.00    -0.439 C  
BRANCH   5   6
HETATM    6  C   UNL     1     -11.925  15.111  64.522  1.00  0.00    -0.319 C  
HETATM    7  O   UNL     1     -11.773  16.293  63.747  1.00  0.00    -1.511 OA 
HETATM    8  H   UNL     1     -12.614  16.590  63.418  1.00  0.00     0.000 HD 
ENDBRANCH   5   6
ENDBRANCH   2   5
TORSDOF 2
ENDMDL
MODEL       12
REMARK 921   NORMALIZED FREE ENERGY PREDICTED BY IDOCK:   -2.95 KCAL/MOL
REMARK 922        TOTAL FREE ENERGY PREDICTED BY IDOCK:   -3.33 KCAL/MOL
REMARK 923 INTER-LIGAND FREE ENERGY PREDICTED BY IDOCK:   -3.30 KCAL/MOL
REMARK 924 INTRA-LIGAND FREE ENERGY PREDICTED BY IDOCK:   -0.03 KCAL/MOL
REMARK 927      BINDING AFFINITY PREDICTED BY RF-SCORE:    0.00 PKD
ROOT
HETATM    1  C   UNL     1     -10.171   8.551  70.820  1.00  0.00    -0.198 C  
HETATM    2  N   UNL     1     -11.385   8.011  71.573  1.00  0.00    -0.252 N  
HETATM    3  C   UNL     1     -10.953   7.605  72.972  1.00  0.00    -0.400 C  
HETATM    4  C   UNL     1     -11.897   6.776  70.828  1.00  0.00    -0.392 C  
ENDROOT
BRANCH   2   5
HETATM    5  C   UNL     1     -12.453   9.134  71.615  1.00  0.00    -0.359 C  
BRANCH   5   6
HETATM    6  C   UNL     1     -13.864   8.675  72.017  1.00  0.00    -0.440 C  
HETATM    7  O   UNL     1     -14.094   8.910  73.401  1.00  0.00    -1.256 OA 
HETATM    8  H   UNL     1     -14.966   8.626  73.650  1.00  0.00     0.000 HD 
ENDBRANCH   5   6
ENDBRANCH   2   5
TORSDOF 2
ENDMDL
MODEL       13
REMARK 921   NORMALIZED FREE ENERGY PREDICTED BY IDOCK:   -2.92 KCAL/MOL
REMARK 922        TOTAL FREE ENERGY PREDICTED BY IDOCK:   -3.29 KCAL/MOL
REMARK 923 INTER-LIGAND FREE ENERGY PREDICTED BY IDOCK:   -3.27 KCAL/MOL
REMARK 924 INTRA-LIGAND FREE ENERGY PREDICTED BY IDOCK:   -0.03 KCAL/MOL
REMARK 927      BINDING AFFINITY PREDICTED BY RF-SCORE:    0.00 PKD
ROOT
HETATM    1  C   UNL     1     -11.329  14.688  67.604  1.00  0.00    -0.336 C  
HETATM    2  N   UNL     1     -10.357  15.864  67.674  1.00  0.00    -0.274 N  
HETATM    3  C   UNL     1      -8.994  15.348  68.105  1.00  0.00    -0.176 C  
HETATM    4  C   UNL     1     -10.874  16.848  68.726  1.00  0.00    -0.289 C  
ENDROOT
BRANCH   2   5
HETATM    5  C   UNL     1     -10.297  16.513  66.268  1.00  0.00    -0.320 C  
BRANCH   5   6
HETATM    6  C   UNL     1     -10.919  15.677  65.138  1.00  0.00    -0.398 C  
HETATM    7  O   UNL     1     -11.333  16.511  64.063  1.00  0.00    -1.475 OA 
HETATM    8  H   UNL     1     -11.718  15.993  63.365  1.00  0.00     0.000 HD 
ENDBRANCH   5   6
ENDBRANCH   2   5
TORSDOF 2
ENDMDL
MODEL       14
REMARK 921   NORMALIZED FREE ENERGY PREDICTED BY IDOCK:   -2.91 KCAL/MOL
REMARK 922        TOTAL FREE ENERGY PREDICTED BY IDOCK:   -3.28 KCAL/MOL
REMARK 923 INTER-LIGAND FREE ENERGY PREDICTED BY IDOCK:   -3.21 KCAL/MOL
REMARK 924 INTRA-LIGAND FREE ENERGY PREDICTED BY IDOCK:   -0.07 KCAL/MOL
REMARK 927      BINDING AFFINITY PREDICTED BY RF-SCORE:    0.00 PKD
ROOT
HETATM    1  C   UNL     1     -11.260   6.480  70.507  1.00  0.00    -0.344 C  
HETATM    2  N   UNL     1     -11.869   7.560  71.400  1.00  0.00    -0.284 N  
HETATM    3  C   UNL     1     -11.660   8.914  70.744  1.00  0.00    -0.259 C  
HETATM    4  C   UNL     1     -11.138   7.536  72.744  1.00  0.00    -0.366 C  
ENDROOT
BRANCH   2   5
HETATM    5  C   UNL     1     -13.377   7.239  71.567  1.00  0.00    -0.369 C  
BRANCH   5   6
HETATM    6  C   UNL     1     -14.287   8.465  71.745  1.00  0.00    -0.472 C  
HETATM    7  O   UNL     1     -14.390   8.820  73.118  1.00  0.00    -1.119 OA 
HETATM    8  H   UNL     1     -14.952   9.578  73.229  1.00  0.00     0.000 HD 
ENDBRANCH   5   6
ENDBRANCH   2   5
TORSDOF 2
ENDMDL
MODEL       15
REMARK 921   NORMALIZED FREE ENERGY PREDICTED BY IDOCK:   -2.85 KCAL/MOL
REMARK 922        TOTAL FREE ENERGY PREDICTED BY IDOCK:   -3.21 KCAL/MOL
REMARK 923 INTER-LIGAND FREE ENERGY PREDICTED BY IDOCK:   -3.18 KCAL/MOL
REMARK 924 INTRA-LIGAND FREE ENERGY PREDICTED BY IDOCK:   -0.03 KCAL/MOL
REMARK 927      BINDING AFFINITY PREDICTED BY RF-SCORE:    0.00 PKD
ROOT
HETATM    1  C   UNL     1     -12.655  13.889  65.832  1.00  0.00    -0.456 C  
HETATM    2  N   UNL     1     -11.242  14.211  65.349  1.00  0.00    -0.315 N  
HETATM    3  C   UNL     1     -10.306  14.227  66.547  1.00  0.00    -0.278 C  
HETATM    4  C   UNL     1     -11.262  15.602  64.711  1.00  0.00    -0.382 C  
ENDROOT
BRANCH   2   5
HETATM    5  C   UNL     1     -10.832  13.121  64.326  1.00  0.00    -0.406 C  
BRANCH   5   6
HETATM    6  C   UNL     1     -11.911  12.760  63.292  1.00  0.00    -0.443 C  
HETATM    7  O   UNL     1     -11.847  11.380  62.958  1.00  0.00    -0.903 OA 
HETATM    8  H   UNL     1     -12.514  11.157  62.319  1.00  0.00     0.000 HD 
ENDBRANCH   5   6
ENDBRANCH   2   5
TORSDOF 2
ENDMDL
MODEL       16
REMARK 921   NORMALIZED FREE ENERGY PREDICTED BY IDOCK:   -2.82 KCAL/MOL
REMARK 922        TOTAL FREE ENERGY PREDICTED BY IDOCK:   -3.18 KCAL/MOL
REMARK 923 INTER-LIGAND FREE ENERGY PREDICTED BY IDOCK:   -3.16 KCAL/MOL
REMARK 924 INTRA-LIGAND FREE ENERGY PREDICTED BY IDOCK:   -0.02 KCAL/MOL
REMARK 927      BINDING AFFINITY PREDICTED BY RF-SCORE:    0.00 PKD
ROOT
HETATM    1  C   UNL     1     -12.751  14.072  65.349  1.00  0.00    -0.471 C  
HETATM    2  N   UNL     1     -11.401  13.366  65.236  1.00  0.00    -0.293 N  
HETATM    3  C   UNL     1     -11.305  12.315  66.330  1.00  0.00    -0.354 C  
HETATM    4  C   UNL     1     -10.299  14.407  65.443  1.00  0.00    -0.378 C  
ENDROOT
BRANCH   2   5
HETATM    5  C   UNL     1     -11.320  12.724  63.827  1.00  0.00    -0.461 C  
BRANCH   5   6
HETATM    6  C   UNL     1     -10.039  11.921  63.551  1.00  0.00    -0.441 C  
HETATM    7  O   UNL     1     -10.309  10.824  62.686  1.00  0.00    -0.761 OA 
HETATM    8  H   UNL     1      -9.517  10.328  62.515  1.00  0.00     0.000 HD 
ENDBRANCH   5   6
ENDBRANCH   2   5
TORSDOF 2
ENDMDL
MODEL       17
REMARK 921   NORMALIZED FREE ENERGY PREDICTED BY IDOCK:   -2.79 KCAL/MOL
REMARK 922        TOTAL FREE ENERGY PREDICTED BY IDOCK:   -3.15 KCAL/MOL
REMARK 923 INTER-LIGAND FREE ENERGY PREDICTED BY IDOCK:   -3.14 KCAL/MOL
REMARK 924 INTRA-LIGAND FREE ENERGY PREDICTED BY IDOCK:   -0.02 KCAL/MOL
REMARK 927      BINDING AFFINITY PREDICTED BY RF-SCORE:    0.00 PKD
ROOT
HETATM    1  C   UNL     1     -10.124  16.663  68.310  1.00  0.00    -0.268 C  
HETATM    2  N   UNL     1      -9.330  16.368  67.038  1.00  0.00    -0.223 N  
HETATM    3  C   UNL     1      -9.099  14.869  66.943  1.00  0.00    -0.250 C  
HETATM    4  C   UNL     1      -7.979  17.078  67.144  1.00  0.00    -0.188 C  
ENDROOT
BRANCH   2   5
HETATM    5  C   UNL     1     -10.155  16.890  65.834  1.00  0.00    -0.283 C  
BRANCH   5   6
HETATM    6  C   UNL     1     -10.682  15.802  64.885  1.00  0.00    -0.361 C  
HETATM    7  O   UNL     1     -11.564  16.360  63.919  1.00  0.00    -1.564 OA 
HETATM    8  H   UNL     1     -11.890  15.687  63.333  1.00  0.00     0.000 HD 
ENDBRANCH   5   6
ENDBRANCH   2   5
TORSDOF 2
ENDMDL
MODEL       18
REMARK 921   NORMALIZED FREE ENERGY PREDICTED BY IDOCK:   -2.78 KCAL/MOL
REMARK 922        TOTAL FREE ENERGY PREDICTED BY IDOCK:   -3.13 KCAL/MOL
REMARK 923 INTER-LIGAND FREE ENERGY PREDICTED BY IDOCK:   -3.11 KCAL/MOL
REMARK 924 INTRA-LIGAND FREE ENERGY PREDICTED BY IDOCK:   -0.02 KCAL/MOL
REMARK 927      BINDING AFFINITY PREDICTED BY RF-SCORE:    0.00 PKD
ROOT
HETATM    1  C   UNL     1     -12.757  13.926  65.514  1.00  0.00    -0.499 C  
HETATM    2  N   UNL     1     -11.545  13.111  65.066  1.00  0.00    -0.314 N  
HETATM    3  C   UNL     1     -10.302  13.977  65.187  1.00  0.00    -0.400 C  
HETATM    4  C   UNL     1     -11.746  12.726  63.599  1.00  0.00    -0.519 C  
ENDROOT
BRANCH   2   5
HETATM    5  C   UNL     1     -11.454  11.859  65.976  1.00  0.00    -0.281 C  
BRANCH   5   6
HETATM    6  C   UNL     1     -11.700  12.122  67.470  1.00  0.00    -0.315 C  
HETATM    7  O   UNL     1     -12.169  10.946  68.118  1.00  0.00    -0.781 OA 
HETATM    8  H   UNL     1     -12.322  11.109  69.041  1.00  0.00     0.000 HD 
ENDBRANCH   5   6
ENDBRANCH   2   5
TORSDOF 2
ENDMDL
MODEL       19
REMARK 921   NORMALIZED FREE ENERGY PREDICTED BY IDOCK:   -2.70 KCAL/MOL
REMARK 922        TOTAL FREE ENERGY PREDICTED BY IDOCK:   -3.05 KCAL/MOL
REMARK 923 INTER-LIGAND FREE ENERGY PREDICTED BY IDOCK:   -3.02 KCAL/MOL
REMARK 924 INTRA-LIGAND FREE ENERGY PREDICTED BY IDOCK:   -0.03 KCAL/MOL
REMARK 927      BINDING AFFINITY PREDICTED BY RF-SCORE:    0.00 PKD
ROOT
HETATM    1  C   UNL     1     -12.902  13.894  65.391  1.00  0.00    -0.427 C  
HETATM    2  N   UNL     1     -11.639  13.728  66.234  1.00  0.00    -0.336 N  
HETATM    3  C   UNL     1     -11.749  14.618  67.461  1.00  0.00    -0.379 C  
HETATM    4  C   UNL     1     -10.442  14.178  65.395  1.00  0.00    -0.357 C  
ENDROOT
BRANCH   2   5
HETATM    5  C   UNL     1     -11.528  12.232  66.629  1.00  0.00    -0.373 C  
BRANCH   5   6
HETATM    6  C   UNL     1     -11.510  11.958  68.141  1.00  0.00    -0.320 C  
HETATM    7  O   UNL     1     -12.266  10.794  68.451  1.00  0.00    -0.832 OA 
HETATM    8  H   UNL     1     -12.255  10.625  69.386  1.00  0.00     0.000 HD 
ENDBRANCH   5   6
ENDBRANCH   2   5
TORSDOF 2
ENDMDL
MODEL       20
REMARK 921   NORMALIZED FREE ENERGY PREDICTED BY IDOCK:   -2.67 KCAL/MOL
REMARK 922        TOTAL FREE ENERGY PREDICTED BY IDOCK:   -3.02 KCAL/MOL
REMARK 923 INTER-LIGAND FREE ENERGY PREDICTED BY IDOCK:   -2.98 KCAL/MOL
REMARK 924 INTRA-LIGAND FREE ENERGY PREDICTED BY IDOCK:   -0.04 KCAL/MOL
REMARK 927      BINDING AFFINITY PREDICTED BY RF-SCORE:    0.00 PKD
ROOT
HETATM    1  C   UNL     1      -9.419  19.672  66.341  1.00  0.00    -0.395 C  
HETATM    2  N   UNL     1      -9.464  18.199  66.745  1.00  0.00    -0.285 N  
HETATM    3  C   UNL     1      -9.453  18.108  68.263  1.00  0.00    -0.307 C  
HETATM    4  C   UNL     1      -8.212  17.515  66.193  1.00  0.00    -0.187 C  
ENDROOT
BRANCH   2   5
HETATM    5  C   UNL     1     -10.758  17.585  66.151  1.00  0.00    -0.098 C  
BRANCH   5   6
HETATM    6  C   UNL     1     -10.544  16.344  65.270  1.00  0.00    -0.299 C  
HETATM    7  O   UNL     1     -11.198  16.498  64.017  1.00  0.00    -1.409 OA 
HETATM    8  H   UNL     1     -11.066  15.730  63.473  1.00  0.00     0.000 HD 
ENDBRANCH   5   6
ENDBRANCH   2   5
TORSDOF 2
ENDMDL
MODEL       21
REMARK 921   NORMALIZED FREE ENERGY PREDICTED BY IDOCK:   -2.67 KCAL/MOL
REMARK 922        TOTAL FREE ENERGY PREDICTED BY IDOCK:   -3.01 KCAL/MOL
REMARK 923 INTER-LIGAND FREE ENERGY PREDICTED BY IDOCK:   -2.94 KCAL/MOL
REMARK 924 INTRA-LIGAND FREE ENERGY PREDICTED BY IDOCK:   -0.07 KCAL/MOL
REMARK 927      BINDING AFFINITY PREDICTED BY RF-SCORE:    0.00 PKD
ROOT
HETATM    1  C   UNL     1     -10.257  19.816  68.438  1.00  0.00    -0.449 C  
HETATM    2  N   UNL     1      -9.828  19.005  67.216  1.00  0.00    -0.315 N  
HETATM    3  C   UNL     1     -10.421  19.644  65.971  1.00  0.00    -0.523 C  
HETATM    4  C   UNL     1     -10.387  17.588  67.365  1.00  0.00    -0.351 C  
ENDROOT
BRANCH   2   5
HETATM    5  C   UNL     1      -8.279  19.004  67.169  1.00  0.00    -0.269 C  
BRANCH   5   6
HETATM    6  C   UNL     1      -7.656  20.062  66.244  1.00  0.00    -0.303 C  
HETATM    7  O   UNL     1      -7.400  21.265  66.956  1.00  0.00    -0.732 OA 
HETATM    8  H   UNL     1      -7.015  21.919  66.384  1.00  0.00     0.000 HD 
ENDBRANCH   5   6
ENDBRANCH   2   5
TORSDOF 2
ENDMDL
MODEL       22
REMARK 921   NORMALIZED FREE ENERGY PREDICTED BY IDOCK:   -2.64 KCAL/MOL
REMARK 922        TOTAL FREE ENERGY PREDICTED BY IDOCK:   -2.98 KCAL/MOL
REMARK 923 INTER-LIGAND FREE ENERGY PREDICTED BY IDOCK:   -2.97 KCAL/MOL
REMARK 924 INTRA-LIGAND FREE ENERGY PREDICTED BY IDOCK:   -0.02 KCAL/MOL
REMARK 927      BINDING AFFINITY PREDICTED BY RF-SCORE:    0.00 PKD
ROOT
HETATM    1  C   UNL     1     -12.063  14.412  64.231  1.00  0.00    -0.436 C  
HETATM    2  N   UNL     1     -11.807  12.940  64.552  1.00  0.00    -0.353 N  
HETATM    3  C   UNL     1     -12.718  12.085  63.686  1.00  0.00    -0.431 C  
HETATM    4  C   UNL     1     -12.153  12.707  66.024  1.00  0.00    -0.364 C  
ENDROOT
BRANCH   2   5
HETATM    5  C   UNL     1     -10.313  12.646  64.264  1.00  0.00    -0.374 C  
BRANCH   5   6
HETATM    6  C   UNL     1     -10.054  11.654  63.119  1.00  0.00    -0.376 C  
HETATM    7  O   UNL     1      -8.676  11.640  62.767  1.00  0.00    -0.634 OA 
HETATM    8  H   UNL     1      -8.516  11.027  62.059  1.00  0.00     0.000 HD 
ENDBRANCH   5   6
ENDBRANCH   2   5
TORSDOF 2
ENDMDL
MODEL       23
REMARK 921   NORMALIZED FREE ENERGY PREDICTED BY IDOCK:   -2.63 KCAL/MOL
REMARK 922        TOTAL FREE ENERGY PREDICTED BY IDOCK:   -2.97 KCAL/MOL
REMARK 923 INTER-LIGAND FREE ENERGY PREDICTED BY IDOCK:   -2.94 KCAL/MOL
REMARK 924 INTRA-LIGAND FREE ENERGY PREDICTED BY IDOCK:   -0.03 KCAL/MOL
REMARK 927      BINDING AFFINITY PREDICTED BY RF-SCORE:    0.00 PKD
ROOT
HETATM    1  C   UNL     1     -10.322  13.192  64.455  1.00  0.00    -0.368 C  
HETATM    2  N   UNL     1     -11.808  13.333  64.780  1.00  0.00    -0.354 N  
HETATM    3  C   UNL     1     -12.577  12.256  64.033  1.00  0.00    -0.420 C  
HETATM    4  C   UNL     1     -12.274  14.707  64.297  1.00  0.00    -0.408 C  
ENDROOT
BRANCH   2   5
HETATM    5  C   UNL     1     -11.972  13.183  66.315  1.00  0.00    -0.415 C  
BRANCH   5   6
HETATM    6  C   UNL     1     -11.603  14.431  67.133  1.00  0.00    -0.386 C  
HETATM    7  O   UNL     1     -12.516  14.615  68.208  1.00  0.00    -0.589 OA 
HETATM    8  H   UNL     1     -12.288  15.387  68.714  1.00  0.00     0.000 HD 
ENDBRANCH   5   6
ENDBRANCH   2   5
TORSDOF 2
ENDMDL
MODEL       24
REMARK 921   NORMALIZED FREE ENERGY PREDICTED BY IDOCK:   -2.62 KCAL/MOL
REMARK 922        TOTAL FREE ENERGY PREDICTED BY IDOCK:   -2.96 KCAL/MOL
REMARK 923 INTER-LIGAND FREE ENERGY PREDICTED BY IDOCK:   -2.90 KCAL/MOL
REMARK 924 INTRA-LIGAND FREE ENERGY PREDICTED BY IDOCK:   -0.06 KCAL/MOL
REMARK 927      BINDING AFFINITY PREDICTED BY RF-SCORE:    0.00 PKD
ROOT
HETATM    1  C   UNL     1     -13.200   8.949  72.271  1.00  0.00    -0.447 C  
HETATM    2  N   UNL     1     -11.915   8.325  71.728  1.00  0.00    -0.297 N  
HETATM    3  C   UNL     1     -12.276   7.092  70.916  1.00  0.00    -0.342 C  
HETATM    4  C   UNL     1     -11.049   7.906  72.917  1.00  0.00    -0.379 C  
ENDROOT
BRANCH   2   5
HETATM    5  C   UNL     1     -11.205   9.390  70.854  1.00  0.00    -0.325 C  
BRANCH   5   6
HETATM    6  C   UNL     1     -12.046  10.638  70.538  1.00  0.00    -0.355 C  
HETATM    7  O   UNL     1     -12.504  10.608  69.192  1.00  0.00    -0.752 OA 
HETATM    8  H   UNL     1     -13.024  11.380  68.997  1.00  0.00     0.000 HD 
ENDBRANCH   5   6
ENDBRANCH   2   5
TORSDOF 2
ENDMDL
MODEL       25
REMARK 921   NORMALIZED FREE ENERGY PREDICTED BY IDOCK:   -2.62 KCAL/MOL
REMARK 922        TOTAL FREE ENERGY PREDICTED BY IDOCK:   -2.95 KCAL/MOL
REMARK 923 INTER-LIGAND FREE ENERGY PREDICTED BY IDOCK:   -2.93 KCAL/MOL
REMARK 924 INTRA-LIGAND FREE ENERGY PREDICTED BY IDOCK:   -0.03 KCAL/MOL
REMARK 927      BINDING AFFINITY PREDICTED BY RF-SCORE:    0.00 PKD
ROOT
HETATM    1  C   UNL     1     -10.368  11.171  64.979  1.00  0.00    -0.301 C  
HETATM    2  N   UNL     1     -11.371  12.316  64.842  1.00  0.00    -0.317 N  
HETATM    3  C   UNL     1     -12.348  11.981  63.728  1.00  0.00    -0.496 C  
HETATM    4  C   UNL     1     -10.599  13.583  64.467  1.00  0.00    -0.424 C  
ENDROOT
BRANCH   2   5
HETATM    5  C   UNL     1     -12.097  12.474  66.203  1.00  0.00    -0.286 C  
BRANCH   5   6
HETATM    6  C   UNL     1     -11.353  11.880  67.410  1.00  0.00    -0.324 C  
HETATM    7  O   UNL     1     -12.092  10.806  67.977  1.00  0.00    -0.778 OA 
HETATM    8  H   UNL     1     -11.632  10.439  68.724  1.00  0.00     0.000 HD 
ENDBRANCH   5   6
ENDBRANCH   2   5
TORSDOF 2
ENDMDL
MODEL       26
REMARK 921   NORMALIZED FREE ENERGY PREDICTED BY IDOCK:   -2.59 KCAL/MOL
REMARK 922        TOTAL FREE ENERGY PREDICTED BY IDOCK:   -2.92 KCAL/MOL
REMARK 923 INTER-LIGAND FREE ENERGY PREDICTED BY IDOCK:   -2.89 KCAL/MOL
REMARK 924 INTRA-LIGAND FREE ENERGY PREDICTED BY IDOCK:   -0.04 KCAL/MOL
REMARK 927      BINDING AFFINITY PREDICTED BY RF-SCORE:    0.00 PKD
ROOT
HETATM    1  C   UNL     1     -10.597  13.650  64.633  1.00  0.00    -0.430 C  
HETATM    2  N   UNL     1     -11.407  12.430  65.069  1.00  0.00    -0.311 N  
HETATM    3  C   UNL     1     -10.525  11.196  64.967  1.00  0.00    -0.293 C  
HETATM    4  C   UNL     1     -12.592  12.279  64.113  1.00  0.00    -0.394 C  
ENDROOT
BRANCH   2   5
HETATM    5  C   UNL     1     -11.877  12.671  66.526  1.00  0.00    -0.396 C  
BRANCH   5   6
HETATM    6  C   UNL     1     -11.253  11.736  67.574  1.00  0.00    -0.291 C  
HETATM    7  O   UNL     1     -12.263  11.082  68.332  1.00  0.00    -0.770 OA 
HETATM    8  H   UNL     1     -11.877  10.505  68.980  1.00  0.00     0.000 HD 
ENDBRANCH   5   6
ENDBRANCH   2   5
TORSDOF 2
ENDMDL
MODEL       27
REMARK 921   NORMALIZED FREE ENERGY PREDICTED BY IDOCK:   -2.58 KCAL/MOL
REMARK 922        TOTAL FREE ENERGY PREDICTED BY IDOCK:   -2.91 KCAL/MOL
REMARK 923 INTER-LIGAND FREE ENERGY PREDICTED BY IDOCK:   -2.85 KCAL/MOL
REMARK 924 INTRA-LIGAND FREE ENERGY PREDICTED BY IDOCK:   -0.06 KCAL/MOL
REMARK 927      BINDING AFFINITY PREDICTED BY RF-SCORE:    0.00 PKD
ROOT
HETATM    1  C   UNL     1     -12.258   7.003  71.022  1.00  0.00    -0.374 C  
HETATM    2  N   UNL     1     -11.898   8.237  71.847  1.00  0.00    -0.302 N  
HETATM    3  C   UNL     1     -11.027   7.808  73.016  1.00  0.00    -0.381 C  
HETATM    4  C   UNL     1     -13.194   8.846  72.385  1.00  0.00    -0.430 C  
ENDROOT
BRANCH   2   5
HETATM    5  C   UNL     1     -11.148   9.225  70.917  1.00  0.00    -0.306 C  
BRANCH   5   6
HETATM    6  C   UNL     1     -11.915  10.515  70.584  1.00  0.00    -0.357 C  
HETATM    7  O   UNL     1     -12.534  10.417  69.307  1.00  0.00    -0.699 OA 
HETATM    8  H   UNL     1     -13.008  11.214  69.101  1.00  0.00     0.000 HD 
ENDBRANCH   5   6
ENDBRANCH   2   5
TORSDOF 2
ENDMDL
MODEL       28
REMARK 921   NORMALIZED FREE ENERGY PREDICTED BY IDOCK:   -2.56 KCAL/MOL
REMARK 922        TOTAL FREE ENERGY PREDICTED BY IDOCK:   -2.89 KCAL/MOL
REMARK 923 INTER-LIGAND FREE ENERGY PREDICTED BY IDOCK:   -2.83 KCAL/MOL
REMARK 924 INTRA-LIGAND FREE ENERGY PREDICTED BY IDOCK:   -0.06 KCAL/MOL
REMARK 927      BINDING AFFINITY PREDICTED BY RF-SCORE:    0.00 PKD
ROOT
HETATM    1  C   UNL     1     -12.689  13.716  65.321  1.00  0.00    -0.430 C  
HETATM    2  N   UNL     1     -11.209  14.085  65.402  1.00  0.00    -0.311 N  
HETATM    3  C   UNL     1     -11.035  15.518  64.926  1.00  0.00    -0.436 C  
HETATM    4  C   UNL     1     -10.432  13.151  64.472  1.00  0.00    -0.405 C  
ENDROOT
BRANCH   2   5
HETATM    5  C   UNL     1     -10.761  13.921  66.878  1.00  0.00    -0.284 C  
BRANCH   5   6
HETATM    6  C   UNL     1     -11.907  13.793  67.894  1.00  0.00    -0.378 C  
HETATM    7  O   UNL     1     -12.177  15.047  68.509  1.00  0.00    -0.585 OA 
HETATM    8  H   UNL     1     -12.885  14.968  69.138  1.00  0.00     0.000 HD 
ENDBRANCH   5   6
ENDBRANCH   2   5
TORSDOF 2
ENDMDL
MODEL       29
REMARK 921   NORMALIZED FREE ENERGY PREDICTED BY IDOCK:   -2.54 KCAL/MOL
REMARK 922        TOTAL FREE ENERGY PREDICTED BY IDOCK:   -2.87 KCAL/MOL
REMARK 923 INTER-LIGAND FREE ENERGY PREDICTED BY IDOCK:   -2.84 KCAL/MOL
REMARK 924 INTRA-LIGAND FREE ENERGY PREDICTED BY IDOCK:   -0.03 KCAL/MOL
REMARK 927      BINDING AFFINITY PREDICTED BY RF-SCORE:    0.00 PKD
ROOT
HETATM    1  C   UNL     1     -10.869  15.555  64.975  1.00  0.00    -0.450 C  
HETATM    2  N   UNL     1     -11.116  14.147  65.515  1.00  0.00    -0.302 N  
HETATM    3  C   UNL     1     -10.296  13.160  64.702  1.00  0.00    -0.361 C  
HETATM    4  C   UNL     1     -12.602  13.825  65.344  1.00  0.00    -0.497 C  
ENDROOT
BRANCH   2   5
HETATM    5  C   UNL     1     -10.699  14.133  67.008  1.00  0.00    -0.285 C  
BRANCH   5   6
HETATM    6  C   UNL     1     -11.761  13.584  67.975  1.00  0.00    -0.359 C  
HETATM    7  O   UNL     1     -12.377  14.641  68.700  1.00  0.00    -0.583 OA 
HETATM    8  H   UNL     1     -13.033  14.302  69.298  1.00  0.00     0.000 HD 
ENDBRANCH   5   6
ENDBRANCH   2   5
TORSDOF 2
ENDMDL
MODEL       30
REMARK 921   NORMALIZED FREE ENERGY PREDICTED BY IDOCK:   -2.51 KCAL/MOL
REMARK 922        TOTAL FREE ENERGY PREDICTED BY IDOCK:   -2.84 KCAL/MOL
REMARK 923 INTER-LIGAND FREE ENERGY PREDICTED BY IDOCK:   -2.80 KCAL/MOL
REMARK 924 INTRA-LIGAND FREE ENERGY PREDICTED BY IDOCK:   -0.04 KCAL/MOL
REMARK 927      BINDING AFFINITY PREDICTED BY RF-SCORE:    0.00 PKD
ROOT
HETATM    1  C   UNL     1     -12.067  14.772  69.157  1.00  0.00    -0.243 C  
HETATM    2  N   UNL     1     -12.350  14.638  70.652  1.00  0.00    -0.309 N  
HETATM    3  C   UNL     1     -11.163  15.189  71.426  1.00  0.00    -0.264 C  
HETATM    4  C   UNL     1     -12.512  13.152  70.976  1.00  0.00    -0.318 C  
ENDROOT
BRANCH   2   5
HETATM    5  C   UNL     1     -13.645  15.433  70.961  1.00  0.00    -0.395 C  
BRANCH   5   6
HETATM    6  C   UNL     1     -14.280  15.134  72.328  1.00  0.00    -0.517 C  
HETATM    7  O   UNL     1     -13.919  16.129  73.279  1.00  0.00    -0.756 OA 
HETATM    8  H   UNL     1     -14.311  15.944  74.124  1.00  0.00     0.000 HD 
ENDBRANCH   5   6
ENDBRANCH   2   5
TORSDOF 2
ENDMDL
MODEL       31
REMARK 921   NORMALIZED FREE ENERGY PREDICTED BY IDOCK:   -2.51 KCAL/MOL
REMARK 922        TOTAL FREE ENERGY PREDICTED BY IDOCK:   -2.84 KCAL/MOL
REMARK 923 INTER-LIGAND FREE ENERGY PREDICTED BY IDOCK:   -2.82 KCAL/MOL
REMARK 924 INTRA-LIGAND FREE ENERGY PREDICTED BY IDOCK:   -0.01 KCAL/MOL
REMARK 927      BINDING AFFINITY PREDICTED BY RF-SCORE:    0.00 PKD
ROOT
HETATM    1  C   UNL     1      -8.234  18.377  66.874  1.00  0.00    -0.247 C  
HETATM    2  N   UNL     1      -9.693  17.952  66.710  1.00  0.00    -0.300 N  
HETATM    3  C   UNL     1     -10.419  19.005  65.889  1.00  0.00    -0.399 C  
HETATM    4  C   UNL     1     -10.326  17.878  68.101  1.00  0.00    -0.389 C  
ENDROOT
BRANCH   2   5
HETATM    5  C   UNL     1      -9.708  16.573  66.003  1.00  0.00    -0.301 C  
BRANCH   5   6
HETATM    6  C   UNL     1     -11.099  16.071  65.586  1.00  0.00    -0.063 C  
HETATM    7  O   UNL     1     -11.263  16.155  64.176  1.00  0.00    -1.120 OA 
HETATM    8  H   UNL     1     -12.123  15.845  63.918  1.00  0.00     0.000 HD 
ENDBRANCH   5   6
ENDBRANCH   2   5
TORSDOF 2
ENDMDL
MODEL       32
REMARK 921   NORMALIZED FREE ENERGY PREDICTED BY IDOCK:   -2.46 KCAL/MOL
REMARK 922        TOTAL FREE ENERGY PREDICTED BY IDOCK:   -2.78 KCAL/MOL
REMARK 923 INTER-LIGAND FREE ENERGY PREDICTED BY IDOCK:   -2.77 KCAL/MOL
REMARK 924 INTRA-LIGAND FREE ENERGY PREDICTED BY IDOCK:   -0.01 KCAL/MOL
REMARK 927      BINDING AFFINITY PREDICTED BY RF-SCORE:    0.00 PKD
ROOT
HETATM    1  C   UNL     1     -11.775  15.456  70.475  1.00  0.00    -0.325 C  
HETATM    2  N   UNL     1     -12.625  14.810  71.568  1.00  0.00    -0.314 N  
HETATM    3  C   UNL     1     -14.050  15.323  71.447  1.00  0.00    -0.495 C  
HETATM    4  C   UNL     1     -12.055  15.228  72.925  1.00  0.00    -0.414 C  
ENDROOT
BRANCH   2   5
HETATM    5  C   UNL     1     -12.558  13.273  71.371  1.00  0.00    -0.271 C  
BRANCH   5   6
HETATM    6  C   UNL     1     -13.597  12.470  72.170  1.00  0.00    -0.360 C  
HETATM    7  O   UNL     1     -13.272  11.085  72.169  1.00  0.00    -0.591 OA 
HETATM    8  H   UNL     1     -13.914  10.589  72.662  1.00  0.00     0.000 HD 
ENDBRANCH   5   6
ENDBRANCH   2   5
TORSDOF 2
ENDMDL
MODEL       33
REMARK 921   NORMALIZED FREE ENERGY PREDICTED BY IDOCK:   -2.46 KCAL/MOL
REMARK 922        TOTAL FREE ENERGY PREDICTED BY IDOCK:   -2.78 KCAL/MOL
REMARK 923 INTER-LIGAND FREE ENERGY PREDICTED BY IDOCK:   -2.72 KCAL/MOL
REMARK 924 INTRA-LIGAND FREE ENERGY PREDICTED BY IDOCK:   -0.06 KCAL/MOL
REMARK 927      BINDING AFFINITY PREDICTED BY RF-SCORE:    0.00 PKD
ROOT
HETATM    1  C   UNL     1      -9.841  14.081  68.266  1.00  0.00    -0.233 C  
HETATM    2  N   UNL     1     -11.356  14.272  68.325  1.00  0.00    -0.274 N  
HETATM    3  C   UNL     1     -11.917  14.174  66.916  1.00  0.00    -0.449 C  
HETATM    4  C   UNL     1     -11.639  15.668  68.882  1.00  0.00    -0.383 C  
ENDROOT
BRANCH   2   5
HETATM    5  C   UNL     1     -11.937  13.165  69.243  1.00  0.00    -0.292 C  
BRANCH   5   6
HETATM    6  C   UNL     1     -11.331  11.767  69.039  1.00  0.00    -0.278 C  
HETATM    7  O   UNL     1     -12.248  10.915  68.363  1.00  0.00    -0.813 OA 
HETATM    8  H   UNL     1     -11.874  10.051  68.238  1.00  0.00     0.000 HD 
ENDBRANCH   5   6
ENDBRANCH   2   5
TORSDOF 2
ENDMDL
MODEL       34
REMARK 921   NORMALIZED FREE ENERGY PREDICTED BY IDOCK:   -2.45 KCAL/MOL
REMARK 922        TOTAL FREE ENERGY PREDICTED BY IDOCK:   -2.77 KCAL/MOL
REMARK 923 INTER-LIGAND FREE ENERGY PREDICTED BY IDOCK:   -2.72 KCAL/MOL
REMARK 924 INTRA-LIGAND FREE ENERGY PREDICTED BY IDOCK:   -0.05 KCAL/MOL
REMARK 927      BINDING AFFINITY PREDICTED BY RF-SCORE:    0.00 PKD
ROOT
HETATM    1  C   UNL     1     -10.125  13.473  65.959  1.00  0.00    -0.310 C  
HETATM    2  N   UNL     1     -11.237  14.518  66.038  1.00  0.00    -0.332 N  
HETATM    3  C   UNL     1     -12.573  13.829  65.810  1.00  0.00    -0.480 C  
HETATM    4  C   UNL     1     -11.007  15.544  64.927  1.00  0.00    -0.436 C  
ENDROOT
BRANCH   2   5
HETATM    5  C   UNL     1     -11.171  15.173  67.441  1.00  0.00    -0.323 C  
BRANCH   5   6
HETATM    6  C   UNL     1     -11.344  14.204  68.621  1.00  0.00    -0.277 C  
HETATM    7  O   UNL     1     -12.549  14.477  69.325  1.00  0.00    -0.566 OA 
HETATM    8  H   UNL     1     -12.655  13.877  70.055  1.00  0.00     0.000 HD 
ENDBRANCH   5   6
ENDBRANCH   2   5
TORSDOF 2
ENDMDL
MODEL       35
REMARK 921   NORMALIZED FREE ENERGY PREDICTED BY IDOCK:   -2.44 KCAL/MOL
REMARK 922        TOTAL FREE ENERGY PREDICTED BY IDOCK:   -2.76 KCAL/MOL
REMARK 923 INTER-LIGAND FREE ENERGY PREDICTED BY IDOCK:   -2.72 KCAL/MOL
REMARK 924 INTRA-LIGAND FREE ENERGY PREDICTED BY IDOCK:   -0.04 KCAL/MOL
REMARK 927      BINDING AFFINITY PREDICTED BY RF-SCORE:    0.00 PKD
ROOT
HETATM    1  C   UNL     1     -10.628  15.211  66.020  1.00  0.00    -0.322 C  
HETATM    2  N   UNL     1     -11.049  14.459  67.281  1.00  0.00    -0.301 N  
HETATM    3  C   UNL     1     -11.495  15.467  68.327  1.00  0.00    -0.353 C  
HETATM    4  C   UNL     1      -9.833  13.695  67.809  1.00  0.00    -0.232 C  
ENDROOT
BRANCH   2   5
HETATM    5  C   UNL     1     -12.202  13.497  66.894  1.00  0.00    -0.327 C  
BRANCH   5   6
HETATM    6  C   UNL     1     -11.948  12.648  65.639  1.00  0.00    -0.452 C  
HETATM    7  O   UNL     1     -12.934  12.907  64.648  1.00  0.00    -0.734 OA 
HETATM    8  H   UNL     1     -12.777  12.382  63.872  1.00  0.00     0.000 HD 
ENDBRANCH   5   6
ENDBRANCH   2   5
TORSDOF 2
ENDMDL
MODEL       36
REMARK 921   NORMALIZED FREE ENERGY PREDICTED BY IDOCK:   -2.42 KCAL/MOL
REMARK 922        TOTAL FREE ENERGY PREDICTED BY IDOCK:   -2.73 KCAL/MOL
REMARK 923 INTER-LIGAND FREE ENERGY PREDICTED BY IDOCK:   -2.68 KCAL/MOL
REMARK 924 INTRA-LIGAND FREE ENERGY PREDICTED BY IDOCK:   -0.05 KCAL/MOL
REMARK 927      BINDING AFFINITY PREDICTED BY RF-SCORE:    0.00 PKD
ROOT
HETATM    1  C   UNL     1     -12.885   7.197  71.521  1.00  0.00    -0.391 C  
HETATM    2  N   UNL     1     -11.592   8.010  71.568  1.00  0.00    -0.266 N  
HETATM    3  C   UNL     1     -10.912   7.772  72.906  1.00  0.00    -0.407 C  
HETATM    4  C   UNL     1     -11.956   9.491  71.447  1.00  0.00    -0.386 C  
ENDROOT
BRANCH   2   5
HETATM    5  C   UNL     1     -10.699   7.545  70.389  1.00  0.00    -0.239 C  
BRANCH   5   6
HETATM    6  C   UNL     1     -11.238   6.341  69.600  1.00  0.00    -0.437 C  
HETATM    7  O   UNL     1     -11.509   6.704  68.252  1.00  0.00    -0.560 OA 
HETATM    8  H   UNL     1     -11.843   5.960  67.764  1.00  0.00     0.000 HD 
ENDBRANCH   5   6
ENDBRANCH   2   5
TORSDOF 2
ENDMDL
MODEL       37
REMARK 921   NORMALIZED FREE ENERGY PREDICTED BY IDOCK:   -2.40 KCAL/MOL
REMARK 922        TOTAL FREE ENERGY PREDICTED BY IDOCK:   -2.71 KCAL/MOL
REMARK 923 INTER-LIGAND FREE ENERGY PREDICTED BY IDOCK:   -2.66 KCAL/MOL
REMARK 924 INTRA-LIGAND FREE ENERGY PREDICTED BY IDOCK:   -0.05 KCAL/MOL
REMARK 927      BINDING AFFINITY PREDICTED BY RF-SCORE:    0.00 PKD
ROOT
HETATM    1  C   UNL     1     -12.225  12.977  66.145  1.00  0.00    -0.360 C  
HETATM    2  N   UNL     1     -11.522  14.052  65.317  1.00  0.00    -0.313 N  
HETATM    3  C   UNL     1     -12.468  14.528  64.227  1.00  0.00    -0.264 C  
HETATM    4  C   UNL     1     -10.287  13.422  64.668  1.00  0.00    -0.381 C  
ENDROOT
BRANCH   2   5
HETATM    5  C   UNL     1     -11.134  15.208  66.274  1.00  0.00    -0.309 C  
BRANCH   5   6
HETATM    6  C   UNL     1     -10.062  16.168  65.734  1.00  0.00    -0.363 C  
HETATM    7  O   UNL     1     -10.655  17.374  65.270  1.00  0.00    -0.667 OA 
HETATM    8  H   UNL     1      -9.993  17.968  64.935  1.00  0.00     0.000 HD 
ENDBRANCH   5   6
ENDBRANCH   2   5
TORSDOF 2
ENDMDL
MODEL       38
REMARK 921   NORMALIZED FREE ENERGY PREDICTED BY IDOCK:   -2.37 KCAL/MOL
REMARK 922        TOTAL FREE ENERGY PREDICTED BY IDOCK:   -2.68 KCAL/MOL
REMARK 923 INTER-LIGAND FREE ENERGY PREDICTED BY IDOCK:   -2.64 KCAL/MOL
REMARK 924 INTRA-LIGAND FREE ENERGY PREDICTED BY IDOCK:   -0.04 KCAL/MOL
REMARK 927      BINDING AFFINITY PREDICTED BY RF-SCORE:    0.00 PKD
ROOT
HETATM    1  C   UNL     1     -11.668  11.918  68.087  1.00  0.00    -0.320 C  
HETATM    2  N   UNL     1     -11.235  13.372  68.270  1.00  0.00    -0.263 N  
HETATM    3  C   UNL     1     -11.902  14.219  67.199  1.00  0.00    -0.425 C  
HETATM    4  C   UNL     1      -9.717  13.443  68.093  1.00  0.00    -0.226 C  
ENDROOT
BRANCH   2   5
HETATM    5  C   UNL     1     -11.665  13.817  69.692  1.00  0.00    -0.318 C  
BRANCH   5   6
HETATM    6  C   UNL     1     -12.012  15.308  69.829  1.00  0.00    -0.347 C  
HETATM    7  O   UNL     1     -13.346  15.473  70.292  1.00  0.00    -0.740 OA 
HETATM    8  H   UNL     1     -13.561  16.395  70.377  1.00  0.00     0.000 HD 
ENDBRANCH   5   6
ENDBRANCH   2   5
TORSDOF 2
ENDMDL
MODEL       39
REMARK 921   NORMALIZED FREE ENERGY PREDICTED BY IDOCK:   -2.36 KCAL/MOL
REMARK 922        TOTAL FREE ENERGY PREDICTED BY IDOCK:   -2.67 KCAL/MOL
REMARK 923 INTER-LIGAND FREE ENERGY PREDICTED BY IDOCK:   -2.66 KCAL/MOL
REMARK 924 INTRA-LIGAND FREE ENERGY PREDICTED BY IDOCK:   -0.01 KCAL/MOL
REMARK 927      BINDING AFFINITY PREDICTED BY RF-SCORE:    0.00 PKD
ROOT
HETATM    1  C   UNL     1      -8.134  16.555  68.023  1.00  0.00    -0.167 C  
HETATM    2  N   UNL     1      -9.309  15.788  67.419  1.00  0.00    -0.209 N  
HETATM    3  C   UNL     1     -10.494  15.884  68.366  1.00  0.00    -0.254 C  
HETATM    4  C   UNL     1      -8.899  14.321  67.277  1.00  0.00    -0.214 C  
ENDROOT
BRANCH   2   5
HETATM    5  C   UNL     1      -9.632  16.425  66.043  1.00  0.00    -0.319 C  
BRANCH   5   6
HETATM    6  C   UNL     1     -10.382  15.509  65.063  1.00  0.00    -0.293 C  
HETATM    7  O   UNL     1     -11.053  16.276  64.071  1.00  0.00    -1.204 OA 
HETATM    8  H   UNL     1     -11.517  15.710  63.465  1.00  0.00     0.000 HD 
ENDBRANCH   5   6
ENDBRANCH   2   5
TORSDOF 2
ENDMDL
MODEL       40
REMARK 921   NORMALIZED FREE ENERGY PREDICTED BY IDOCK:   -2.34 KCAL/MOL
REMARK 922        TOTAL FREE ENERGY PREDICTED BY IDOCK:   -2.65 KCAL/MOL
REMARK 923 INTER-LIGAND FREE ENERGY PREDICTED BY IDOCK:   -2.59 KCAL/MOL
REMARK 924 INTRA-LIGAND FREE ENERGY PREDICTED BY IDOCK:   -0.06 KCAL/MOL
REMARK 927      BINDING AFFINITY PREDICTED BY RF-SCORE:    0.00 PKD
ROOT
HETATM    1  C   UNL     1     -10.339  19.390  66.077  1.00  0.00    -0.497 C  
HETATM    2  N   UNL     1      -9.745  18.849  67.377  1.00  0.00    -0.305 N  
HETATM    3  C   UNL     1     -10.203  17.412  67.562  1.00  0.00    -0.332 C  
HETATM    4  C   UNL     1     -10.278  19.697  68.533  1.00  0.00    -0.421 C  
ENDROOT
BRANCH   2   5
HETATM    5  C   UNL     1      -8.202  18.942  67.266  1.00  0.00    -0.270 C  
BRANCH   5   6
HETATM    6  C   UNL     1      -7.533  17.781  66.514  1.00  0.00    -0.249 C  
HETATM    7  O   UNL     1      -7.016  18.222  65.265  1.00  0.00    -0.516 OA 
HETATM    8  H   UNL     1      -6.603  17.503  64.800  1.00  0.00     0.000 HD 
ENDBRANCH   5   6
ENDBRANCH   2   5
TORSDOF 2
ENDMDL
MODEL       41
REMARK 921   NORMALIZED FREE ENERGY PREDICTED BY IDOCK:   -2.34 KCAL/MOL
REMARK 922        TOTAL FREE ENERGY PREDICTED BY IDOCK:   -2.64 KCAL/MOL
REMARK 923 INTER-LIGAND FREE ENERGY PREDICTED BY IDOCK:   -2.61 KCAL/MOL
REMARK 924 INTRA-LIGAND FREE ENERGY PREDICTED BY IDOCK:   -0.04 KCAL/MOL
REMARK 927      BINDING AFFINITY PREDICTED BY RF-SCORE:    0.00 PKD
ROOT
HETATM    1  C   UNL     1     -12.664  13.889  65.529  1.00  0.00    -0.499 C  
HETATM    2  N   UNL     1     -11.601  12.998  64.888  1.00  0.00    -0.314 N  
HETATM    3  C   UNL     1     -10.369  13.838  64.595  1.00  0.00    -0.368 C  
HETATM    4  C   UNL     1     -12.163  12.456  63.572  1.00  0.00    -0.563 C  
ENDROOT
BRANCH   2   5
HETATM    5  C   UNL     1     -11.281  11.854  65.884  1.00  0.00    -0.322 C  
BRANCH   5   6
HETATM    6  C   UNL     1      -9.896  11.211  65.714  1.00  0.00    -0.235 C  
HETATM    7  O   UNL     1     -10.011   9.805  65.534  1.00  0.00    -0.307 OA 
HETATM    8  H   UNL     1      -9.154   9.408  65.429  1.00  0.00     0.000 HD 
ENDBRANCH   5   6
ENDBRANCH   2   5
TORSDOF 2
ENDMDL
MODEL       42
REMARK 921   NORMALIZED FREE ENERGY PREDICTED BY IDOCK:   -2.31 KCAL/MOL
REMARK 922        TOTAL FREE ENERGY PREDICTED BY IDOCK:   -2.62 KCAL/MOL
REMARK 923 INTER-LIGAND FREE ENERGY PREDICTED BY IDOCK:   -2.60 KCAL/MOL
REMARK 924 INTRA-LIGAND FREE ENERGY PREDICTED BY IDOCK:   -0.02 KCAL/MOL
REMARK 927      BINDING AFFINITY PREDICTED BY RF-SCORE:    0.00 PKD
ROOT
HETATM    1  C   UNL     1     -10.947  10.754  67.211  1.00  0.00    -0.297 C  
HETATM    2  N   UNL     1     -10.434  11.366  65.908  1.00  0.00    -0.252 N  
HETATM    3  C   UNL     1      -9.734  10.285  65.102  1.00  0.00    -0.300 C  
HETATM    4  C   UNL     1      -9.424  12.460  66.261  1.00  0.00    -0.220 C  
ENDROOT
BRANCH   2   5
HETATM    5  C   UNL     1     -11.654  11.942  65.143  1.00  0.00    -0.215 C  
BRANCH   5   6
HETATM    6  C   UNL     1     -11.381  12.328  63.681  1.00  0.00    -0.470 C  
HETATM    7  O   UNL     1     -12.218  13.406  63.281  1.00  0.00    -0.847 OA 
HETATM    8  H   UNL     1     -12.050  13.644  62.376  1.00  0.00     0.000 HD 
ENDBRANCH   5   6
ENDBRANCH   2   5
TORSDOF 2
ENDMDL
MODEL       43
REMARK 921   NORMALIZED FREE ENERGY PREDICTED BY IDOCK:   -2.31 KCAL/MOL
REMARK 922        TOTAL FREE ENERGY PREDICTED BY IDOCK:   -2.61 KCAL/MOL
REMARK 923 INTER-LIGAND FREE ENERGY PREDICTED BY IDOCK:   -2.55 KCAL/MOL
REMARK 924 INTRA-LIGAND FREE ENERGY PREDICTED BY IDOCK:   -0.06 KCAL/MOL
REMARK 927      BINDING AFFINITY PREDICTED BY RF-SCORE:    0.00 PKD
ROOT
HETATM    1  C   UNL     1      -8.683  16.479  66.454  1.00  0.00    -0.322 C  
HETATM    2  N   UNL     1      -8.321  17.915  66.830  1.00  0.00    -0.243 N  
HETATM    3  C   UNL     1      -7.125  18.351  66.000  1.00  0.00    -0.272 C  
HETATM    4  C   UNL     1      -7.939  17.939  68.311  1.00  0.00    -0.291 C  
ENDROOT
BRANCH   2   5
HETATM    5  C   UNL     1      -9.560  18.804  66.547  1.00  0.00    -0.348 C  
BRANCH   5   6
HETATM    6  C   UNL     1      -9.809  19.919  67.575  1.00  0.00    -0.406 C  
HETATM    7  O   UNL     1      -9.502  21.192  67.021  1.00  0.00    -0.668 OA 
HETATM    8  H   UNL     1      -9.656  21.881  67.657  1.00  0.00     0.000 HD 
ENDBRANCH   5   6
ENDBRANCH   2   5
TORSDOF 2
ENDMDL
MODEL       44
REMARK 921   NORMALIZED FREE ENERGY PREDICTED BY IDOCK:   -2.31 KCAL/MOL
REMARK 922        TOTAL FREE ENERGY PREDICTED BY IDOCK:   -2.61 KCAL/MOL
REMARK 923 INTER-LIGAND FREE ENERGY PREDICTED BY IDOCK:   -2.59 KCAL/MOL
REMARK 924 INTRA-LIGAND FREE ENERGY PREDICTED BY IDOCK:   -0.02 KCAL/MOL
REMARK 927      BINDING AFFINITY PREDICTED BY RF-SCORE:    0.00 PKD
ROOT
HETATM    1  C   UNL     1      -8.851  17.718  66.600  1.00  0.00    -0.264 C  
HETATM    2  N   UNL     1      -9.651  18.377  67.722  1.00  0.00    -0.281 N  
HETATM    3  C   UNL     1     -10.771  19.199  67.107  1.00  0.00    -0.471 C  
HETATM    4  C   UNL     1      -8.712  19.307  68.494  1.00  0.00    -0.367 C  
ENDROOT
BRANCH   2   5
HETATM    5  C   UNL     1     -10.208  17.250  68.630  1.00  0.00    -0.351 C  
BRANCH   5   6
HETATM    6  C   UNL     1     -11.056  16.192  67.906  1.00  0.00    -0.293 C  
HETATM    7  O   UNL     1     -12.095  15.715  68.752  1.00  0.00    -0.559 OA 
HETATM    8  H   UNL     1     -12.619  15.060  68.305  1.00  0.00     0.000 HD 
ENDBRANCH   5   6
ENDBRANCH   2   5
TORSDOF 2
ENDMDL
MODEL       45
REMARK 921   NORMALIZED FREE ENERGY PREDICTED BY IDOCK:   -2.30 KCAL/MOL
REMARK 922        TOTAL FREE ENERGY PREDICTED BY IDOCK:   -2.61 KCAL/MOL
REMARK 923 INTER-LIGAND FREE ENERGY PREDICTED BY IDOCK:   -2.58 KCAL/MOL
REMARK 924 INTRA-LIGAND FREE ENERGY PREDICTED BY IDOCK:   -0.03 KCAL/MOL
REMARK 927      BINDING AFFINITY PREDICTED BY RF-SCORE:    0.00 PKD
ROOT
HETATM    1  C   UNL     1     -11.174   7.788  72.821  1.00  0.00    -0.398 C  
HETATM    2  N   UNL     1     -11.993   8.086  71.566  1.00  0.00    -0.288 N  
HETATM    3  C   UNL     1     -12.367   9.559  71.565  1.00  0.00    -0.380 C  
HETATM    4  C   UNL     1     -13.270   7.245  71.620  1.00  0.00    -0.366 C  
ENDROOT
BRANCH   2   5
HETATM    5  C   UNL     1     -11.122   7.723  70.336  1.00  0.00    -0.251 C  
BRANCH   5   6
HETATM    6  C   UNL     1     -11.430   6.357  69.703  1.00  0.00    -0.378 C  
HETATM    7  O   UNL     1     -11.299   6.417  68.288  1.00  0.00    -0.517 OA 
HETATM    8  H   UNL     1     -11.489   5.572  67.896  1.00  0.00     0.000 HD 
ENDBRANCH   5   6
ENDBRANCH   2   5
TORSDOF 2
ENDMDL
MODEL       46
REMARK 921   NORMALIZED FREE ENERGY PREDICTED BY IDOCK:   -2.29 KCAL/MOL
REMARK 922        TOTAL FREE ENERGY PREDICTED BY IDOCK:   -2.59 KCAL/MOL
REMARK 923 INTER-LIGAND FREE ENERGY PREDICTED BY IDOCK:   -2.53 KCAL/MOL
REMARK 924 INTRA-LIGAND FREE ENERGY PREDICTED BY IDOCK:   -0.06 KCAL/MOL
REMARK 927      BINDING AFFINITY PREDICTED BY RF-SCORE:    0.00 PKD
ROOT
HETATM    1  C   UNL     1     -10.629  14.314  64.832  1.00  0.00    -0.431 C  
HETATM    2  N   UNL     1     -10.985  12.828  64.831  1.00  0.00    -0.284 N  
HETATM    3  C   UNL     1     -10.500  12.210  63.530  1.00  0.00    -0.454 C  
HETATM    4  C   UNL     1     -12.508  12.704  64.907  1.00  0.00    -0.494 C  
ENDROOT
BRANCH   2   5
HETATM    5  C   UNL     1     -10.298  12.176  66.058  1.00  0.00    -0.237 C  
BRANCH   5   6
HETATM    6  C   UNL     1      -9.249  13.054  66.758  1.00  0.00    -0.228 C  
HETATM    7  O   UNL     1      -7.949  12.496  66.612  1.00  0.00    -0.401 OA 
HETATM    8  H   UNL     1      -7.299  13.039  67.045  1.00  0.00     0.000 HD 
ENDBRANCH   5   6
ENDBRANCH   2   5
TORSDOF 2
ENDMDL
MODEL       47
REMARK 921   NORMALIZED FREE ENERGY PREDICTED BY IDOCK:   -2.28 KCAL/MOL
REMARK 922        TOTAL FREE ENERGY PREDICTED BY IDOCK:   -2.58 KCAL/MOL
REMARK 923 INTER-LIGAND FREE ENERGY PREDICTED BY IDOCK:   -2.55 KCAL/MOL
REMARK 924 INTRA-LIGAND FREE ENERGY PREDICTED BY IDOCK:   -0.04 KCAL/MOL
REMARK 927      BINDING AFFINITY PREDICTED BY RF-SCORE:    0.00 PKD
ROOT
HETATM    1  C   UNL     1     -10.771  11.413  66.295  1.00  0.00    -0.270 C  
HETATM    2  N   UNL     1     -11.333  12.834  66.269  1.00  0.00    -0.304 N  
HETATM    3  C   UNL     1     -12.460  12.895  65.252  1.00  0.00    -0.493 C  
HETATM    4  C   UNL     1     -10.213  13.781  65.833  1.00  0.00    -0.313 C  
ENDROOT
BRANCH   2   5
HETATM    5  C   UNL     1     -11.839  13.168  67.695  1.00  0.00    -0.359 C  
BRANCH   5   6
HETATM    6  C   UNL     1     -11.869  11.980  68.670  1.00  0.00    -0.311 C  
HETATM    7  O   UNL     1     -11.381  12.365  69.948  1.00  0.00    -0.497 OA 
HETATM    8  H   UNL     1     -11.400  11.630  70.551  1.00  0.00     0.000 HD 
ENDBRANCH   5   6
ENDBRANCH   2   5
TORSDOF 2
ENDMDL
MODEL       48
REMARK 921   NORMALIZED FREE ENERGY PREDICTED BY IDOCK:   -2.27 KCAL/MOL
REMARK 922        TOTAL FREE ENERGY PREDICTED BY IDOCK:   -2.57 KCAL/MOL
REMARK 923 INTER-LIGAND FREE ENERGY PREDICTED BY IDOCK:   -2.54 KCAL/MOL
REMARK 924 INTRA-LIGAND FREE ENERGY PREDICTED BY IDOCK:   -0.03 KCAL/MOL
REMARK 927      BINDING AFFINITY PREDICTED BY RF-SCORE:    0.00 PKD
ROOT
HETATM    1  C   UNL     1     -12.249  13.772  66.699  1.00  0.00    -0.409 C  
HETATM    2  N   UNL     1     -10.834  14.105  66.232  1.00  0.00    -0.297 N  
HETATM    3  C   UNL     1     -10.770  13.961  64.720  1.00  0.00    -0.423 C  
HETATM    4  C   UNL     1      -9.872  13.102  66.871  1.00  0.00    -0.249 C  
ENDROOT
BRANCH   2   5
HETATM    5  C   UNL     1     -10.519  15.557  66.675  1.00  0.00    -0.299 C  
BRANCH   5   6
HETATM    6  C   UNL     1      -9.135  16.079  66.260  1.00  0.00    -0.344 C  
HETATM    7  O   UNL     1      -9.231  17.395  65.730  1.00  0.00    -0.517 OA 
HETATM    8  H   UNL     1      -8.375  17.718  65.473  1.00  0.00     0.000 HD 
ENDBRANCH   5   6
ENDBRANCH   2   5
TORSDOF 2
ENDMDL
MODEL       49
REMARK 921   NORMALIZED FREE ENERGY PREDICTED BY IDOCK:   -2.25 KCAL/MOL
REMARK 922        TOTAL FREE ENERGY PREDICTED BY IDOCK:   -2.55 KCAL/MOL
REMARK 923 INTER-LIGAND FREE ENERGY PREDICTED BY IDOCK:   -2.49 KCAL/MOL
REMARK 924 INTRA-LIGAND FREE ENERGY PREDICTED BY IDOCK:   -0.06 KCAL/MOL
REMARK 927      BINDING AFFINITY PREDICTED BY RF-SCORE:    0.00 PKD
ROOT
HETATM    1  C   UNL     1      -8.571  16.265  66.800  1.00  0.00    -0.237 C  
HETATM    2  N   UNL     1      -9.671  17.201  67.297  1.00  0.00    -0.249 N  
HETATM    3  C   UNL     1     -10.740  16.374  67.992  1.00  0.00    -0.334 C  
HETATM    4  C   UNL     1     -10.288  17.899  66.084  1.00  0.00    -0.352 C  
ENDROOT
BRANCH   2   5
HETATM    5  C   UNL     1      -9.021  18.219  68.270  1.00  0.00    -0.305 C  
BRANCH   5   6
HETATM    6  C   UNL     1      -9.639  19.626  68.248  1.00  0.00    -0.385 C  
HETATM    7  O   UNL     1     -10.334  19.889  69.460  1.00  0.00    -0.631 OA 
HETATM    8  H   UNL     1     -10.717  20.759  69.446  1.00  0.00     0.000 HD 
ENDBRANCH   5   6
ENDBRANCH   2   5
TORSDOF 2
ENDMDL
MODEL       50
REMARK 921   NORMALIZED FREE ENERGY PREDICTED BY IDOCK:   -2.24 KCAL/MOL
REMARK 922        TOTAL FREE ENERGY PREDICTED BY IDOCK:   -2.54 KCAL/MOL
REMARK 923 INTER-LIGAND FREE ENERGY PREDICTED BY IDOCK:   -2.47 KCAL/MOL
REMARK 924 INTRA-LIGAND FREE ENERGY PREDICTED BY IDOCK:   -0.07 KCAL/MOL
REMARK 927      BINDING AFFINITY PREDICTED BY RF-SCORE:    0.00 PKD
ROOT
HETATM    1  C   UNL     1      -9.571  12.829  66.415  1.00  0.00    -0.254 C  
HETATM    2  N   UNL     1     -10.936  12.189  66.172  1.00  0.00    -0.285 N  
HETATM    3  C   UNL     1     -11.225  11.210  67.299  1.00  0.00    -0.277 C  
HETATM    4  C   UNL     1     -10.876  11.424  64.849  1.00  0.00    -0.257 C  
ENDROOT
BRANCH   2   5
HETATM    5  C   UNL     1     -11.990  13.325  66.126  1.00  0.00    -0.418 C  
BRANCH   5   6
HETATM    6  C   UNL     1     -11.711  14.509  67.065  1.00  0.00    -0.393 C  
HETATM    7  O   UNL     1     -12.518  14.427  68.233  1.00  0.00    -0.587 OA 
HETATM    8  H   UNL     1     -12.345  15.160  68.813  1.00  0.00     0.000 HD 
ENDBRANCH   5   6
ENDBRANCH   2   5
TORSDOF 2
ENDMDL
MODEL       51
REMARK 921   NORMALIZED FREE ENERGY PREDICTED BY IDOCK:   -2.24 KCAL/MOL
REMARK 922        TOTAL FREE ENERGY PREDICTED BY IDOCK:   -2.54 KCAL/MOL
REMARK 923 INTER-LIGAND FREE ENERGY PREDICTED BY IDOCK:   -2.50 KCAL/MOL
REMARK 924 INTRA-LIGAND FREE ENERGY PREDICTED BY IDOCK:   -0.04 KCAL/MOL
REMARK 927      BINDING AFFINITY PREDICTED BY RF-SCORE:    0.00 PKD
ROOT
HETATM    1  C   UNL     1     -10.030  19.542  68.587  1.00  0.00    -0.449 C  
HETATM    2  N   UNL     1      -9.374  19.436  67.211  1.00  0.00    -0.307 N  
HETATM    3  C   UNL     1      -8.300  20.505  67.097  1.00  0.00    -0.276 C  
HETATM    4  C   UNL     1     -10.447  19.688  66.150  1.00  0.00    -0.524 C  
ENDROOT
BRANCH   2   5
HETATM    5  C   UNL     1      -8.771  18.013  67.083  1.00  0.00    -0.243 C  
BRANCH   5   6
HETATM    6  C   UNL     1      -9.787  16.902  66.777  1.00  0.00    -0.279 C  
HETATM    7  O   UNL     1      -9.380  16.148  65.641  1.00  0.00    -0.420 OA 
HETATM    8  H   UNL     1     -10.008  15.460  65.451  1.00  0.00     0.000 HD 
ENDBRANCH   5   6
ENDBRANCH   2   5
TORSDOF 2
ENDMDL
MODEL       52
REMARK 921   NORMALIZED FREE ENERGY PREDICTED BY IDOCK:   -2.23 KCAL/MOL
REMARK 922        TOTAL FREE ENERGY PREDICTED BY IDOCK:   -2.53 KCAL/MOL
REMARK 923 INTER-LIGAND FREE ENERGY PREDICTED BY IDOCK:   -2.49 KCAL/MOL
REMARK 924 INTRA-LIGAND FREE ENERGY PREDICTED BY IDOCK:   -0.04 KCAL/MOL
REMARK 927      BINDING AFFINITY PREDICTED BY RF-SCORE:    0.00 PKD
ROOT
HETATM    1  C   UNL     1     -10.706  14.359  67.360  1.00  0.00    -0.280 C  
HETATM    2  N   UNL     1     -10.530  12.994  66.697  1.00  0.00    -0.262 N  
HETATM    3  C   UNL     1     -11.567  12.037  67.261  1.00  0.00    -0.313 C  
HETATM    4  C   UNL     1      -9.132  12.475  67.038  1.00  0.00    -0.213 C  
ENDROOT
BRANCH   2   5
HETATM    5  C   UNL     1     -10.709  13.184  65.169  1.00  0.00    -0.315 C  
BRANCH   5   6
HETATM    6  C   UNL     1     -12.094  12.802  64.623  1.00  0.00    -0.423 C  
HETATM    7  O   UNL     1     -13.005  13.885  64.759  1.00  0.00    -0.686 OA 
HETATM    8  H   UNL     1     -13.862  13.648  64.422  1.00  0.00     0.000 HD 
ENDBRANCH   5   6
ENDBRANCH   2   5
TORSDOF 2
ENDMDL
MODEL       53
REMARK 921   NORMALIZED FREE ENERGY PREDICTED BY IDOCK:   -2.23 KCAL/MOL
REMARK 922        TOTAL FREE ENERGY PREDICTED BY IDOCK:   -2.52 KCAL/MOL
REMARK 923 INTER-LIGAND FREE ENERGY PREDICTED BY IDOCK:   -2.49 KCAL/MOL
REMARK 924 INTRA-LIGAND FREE ENERGY PREDICTED BY IDOCK:   -0.04 KCAL/MOL
REMARK 927      BINDING AFFINITY PREDICTED BY RF-SCORE:    0.00 PKD
ROOT
HETATM    1  C   UNL     1     -10.520  18.340  67.020  1.00  0.00    -0.385 C  
HETATM    2  N   UNL     1      -9.920  16.987  67.398  1.00  0.00    -0.270 N  
HETATM    3  C   UNL     1      -8.793  17.211  68.392  1.00  0.00    -0.255 C  
HETATM    4  C   UNL     1      -9.350  16.348  66.130  1.00  0.00    -0.325 C  
ENDROOT
BRANCH   2   5
HETATM    5  C   UNL     1     -11.052  16.123  68.011  1.00  0.00    -0.317 C  
BRANCH   5   6
HETATM    6  C   UNL     1     -11.169  14.702  67.437  1.00  0.00    -0.342 C  
HETATM    7  O   UNL     1     -12.519  14.403  67.106  1.00  0.00    -0.590 OA 
HETATM    8  H   UNL     1     -12.592  13.524  66.752  1.00  0.00     0.000 HD 
ENDBRANCH   5   6
ENDBRANCH   2   5
TORSDOF 2
ENDMDL
MODEL       54
REMARK 921   NORMALIZED FREE ENERGY PREDICTED BY IDOCK:   -2.23 KCAL/MOL
REMARK 922        TOTAL FREE ENERGY PREDICTED BY IDOCK:   -2.52 KCAL/MOL
REMARK 923 INTER-LIGAND FREE ENERGY PREDICTED BY IDOCK:   -2.47 KCAL/MOL
REMARK 924 INTRA-LIGAND FREE ENERGY PREDICTED BY IDOCK:   -0.05 KCAL/MOL
REMARK 927      BINDING AFFINITY PREDICTED BY RF-SCORE:    0.00 PKD
ROOT
HETATM    1  C   UNL     1     -10.158  18.094  68.534  1.00  0.00    -0.400 C  
HETATM    2  N   UNL     1     -10.239  16.621  68.137  1.00  0.00    -0.267 N  
HETATM    3  C   UNL     1      -8.926  15.944  68.497  1.00  0.00    -0.199 C  
HETATM    4  C   UNL     1     -10.442  16.545  66.623  1.00  0.00    -0.266 C  
ENDROOT
BRANCH   2   5
HETATM    5  C   UNL     1     -11.429  15.989  68.904  1.00  0.00    -0.362 C  
BRANCH   5   6
HETATM    6  C   UNL     1     -11.148  15.650  70.376  1.00  0.00    -0.352 C  
HETATM    7  O   UNL     1     -11.957  16.442  71.238  1.00  0.00    -0.621 OA 
HETATM    8  H   UNL     1     -11.783  16.233  72.148  1.00  0.00     0.000 HD 
ENDBRANCH   5   6
ENDBRANCH   2   5
TORSDOF 2
ENDMDL
MODEL       55
REMARK 921   NORMALIZED FREE ENERGY PREDICTED BY IDOCK:   -2.22 KCAL/MOL
REMARK 922        TOTAL FREE ENERGY PREDICTED BY IDOCK:   -2.52 KCAL/MOL
REMARK 923 INTER-LIGAND FREE ENERGY PREDICTED BY IDOCK:   -2.48 KCAL/MOL
REMARK 924 INTRA-LIGAND FREE ENERGY PREDICTED BY IDOCK:   -0.03 KCAL/MOL
REMARK 927      BINDING AFFINITY PREDICTED BY RF-SCORE:    0.00 PKD
ROOT
HETATM    1  C   UNL     1     -11.462   5.890  72.369  1.00  0.00    -0.306 C  
HETATM    2  N   UNL     1     -11.862   7.002  71.401  1.00  0.00    -0.300 N  
HETATM    3  C   UNL     1     -13.363   7.218  71.496  1.00  0.00    -0.369 C  
HETATM    4  C   UNL     1     -11.510   6.549  69.982  1.00  0.00    -0.412 C  
ENDROOT
BRANCH   2   5
HETATM    5  C   UNL     1     -11.080   8.281  71.800  1.00  0.00    -0.278 C  
BRANCH   5   6
HETATM    6  C   UNL     1     -11.744   9.604  71.386  1.00  0.00    -0.404 C  
HETATM    7  O   UNL     1     -10.832  10.418  70.660  1.00  0.00    -0.412 OA 
HETATM    8  H   UNL     1     -11.242  11.237  70.404  1.00  0.00     0.000 HD 
ENDBRANCH   5   6
ENDBRANCH   2   5
TORSDOF 2
ENDMDL
MODEL       56
REMARK 921   NORMALIZED FREE ENERGY PREDICTED BY IDOCK:   -2.22 KCAL/MOL
REMARK 922        TOTAL FREE ENERGY PREDICTED BY IDOCK:   -2.51 KCAL/MOL
REMARK 923 INTER-LIGAND FREE ENERGY PREDICTED BY IDOCK:   -2.44 KCAL/MOL
REMARK 924 INTRA-LIGAND FREE ENERGY PREDICTED BY IDOCK:   -0.07 KCAL/MOL
REMARK 927      BINDING AFFINITY PREDICTED BY RF-SCORE:    0.00 PKD
ROOT
HETATM    1  C   UNL     1     -11.614   9.098  71.096  1.00  0.00    -0.317 C  
HETATM    2  N   UNL     1     -10.972   7.752  71.426  1.00  0.00    -0.233 N  
HETATM    3  C   UNL     1     -11.022   7.541  72.930  1.00  0.00    -0.383 C  
HETATM    4  C   UNL     1      -9.511   7.797  70.975  1.00  0.00    -0.155 C  
ENDROOT
BRANCH   2   5
HETATM    5  C   UNL     1     -11.766   6.653  70.674  1.00  0.00    -0.394 C  
BRANCH   5   6
HETATM    6  C   UNL     1     -11.042   6.040  69.465  1.00  0.00    -0.398 C  
HETATM    7  O   UNL     1     -11.533   6.595  68.251  1.00  0.00    -0.560 OA 
HETATM    8  H   UNL     1     -11.085   6.215  67.503  1.00  0.00     0.000 HD 
ENDBRANCH   5   6
ENDBRANCH   2   5
TORSDOF 2
ENDMDL
MODEL       57
REMARK 921   NORMALIZED FREE ENERGY PREDICTED BY IDOCK:   -2.19 KCAL/MOL
REMARK 922        TOTAL FREE ENERGY PREDICTED BY IDOCK:   -2.47 KCAL/MOL
REMARK 923 INTER-LIGAND FREE ENERGY PREDICTED BY IDOCK:   -2.41 KCAL/MOL
REMARK 924 INTRA-LIGAND FREE ENERGY PREDICTED BY IDOCK:   -0.07 KCAL/MOL
REMARK 927      BINDING AFFINITY PREDICTED BY RF-SCORE:    0.00 PKD
ROOT
HETATM    1  C   UNL     1      -8.364  16.766  68.429  1.00  0.00    -0.222 C  
HETATM    2  N   UNL     1      -8.449  18.034  67.582  1.00  0.00    -0.237 N  
HETATM    3  C   UNL     1      -9.877  18.200  67.090  1.00  0.00    -0.317 C  
HETATM    4  C   UNL     1      -7.521  17.866  66.377  1.00  0.00    -0.273 C  
ENDROOT
BRANCH   2   5
HETATM    5  C   UNL     1      -8.016  19.227  68.472  1.00  0.00    -0.361 C  
BRANCH   5   6
HETATM    6  C   UNL     1      -7.150  20.284  67.767  1.00  0.00    -0.304 C  
HETATM    7  O   UNL     1      -7.965  21.269  67.144  1.00  0.00    -0.693 OA 
HETATM    8  H   UNL     1      -7.430  21.921  66.708  1.00  0.00     0.000 HD 
ENDBRANCH   5   6
ENDBRANCH   2   5
TORSDOF 2
ENDMDL
MODEL       58
REMARK 921   NORMALIZED FREE ENERGY PREDICTED BY IDOCK:   -2.18 KCAL/MOL
REMARK 922        TOTAL FREE ENERGY PREDICTED BY IDOCK:   -2.47 KCAL/MOL
REMARK 923 INTER-LIGAND FREE ENERGY PREDICTED BY IDOCK:   -2.44 KCAL/MOL
REMARK 924 INTRA-LIGAND FREE ENERGY PREDICTED BY IDOCK:   -0.03 KCAL/MOL
REMARK 927      BINDING AFFINITY PREDICTED BY RF-SCORE:    0.00 PKD
ROOT
HETATM    1  C   UNL     1     -10.879  15.852  67.575  1.00  0.00    -0.305 C  
HETATM    2  N   UNL     1     -10.695  14.785  68.653  1.00  0.00    -0.245 N  
HETATM    3  C   UNL     1      -9.463  13.959  68.318  1.00  0.00    -0.217 C  
HETATM    4  C   UNL     1     -11.925  13.876  68.639  1.00  0.00    -0.366 C  
ENDROOT
BRANCH   2   5
HETATM    5  C   UNL     1     -10.538  15.509  70.014  1.00  0.00    -0.324 C  
BRANCH   5   6
HETATM    6  C   UNL     1     -11.623  15.184  71.053  1.00  0.00    -0.347 C  
HETATM    7  O   UNL     1     -12.111  16.374  71.660  1.00  0.00    -0.632 OA 
HETATM    8  H   UNL     1     -12.782  16.173  72.302  1.00  0.00     0.000 HD 
ENDBRANCH   5   6
ENDBRANCH   2   5
TORSDOF 2
ENDMDL
MODEL       59
REMARK 921   NORMALIZED FREE ENERGY PREDICTED BY IDOCK:   -2.18 KCAL/MOL
REMARK 922        TOTAL FREE ENERGY PREDICTED BY IDOCK:   -2.47 KCAL/MOL
REMARK 923 INTER-LIGAND FREE ENERGY PREDICTED BY IDOCK:   -2.43 KCAL/MOL
REMARK 924 INTRA-LIGAND FREE ENERGY PREDICTED BY IDOCK:   -0.04 KCAL/MOL
REMARK 927      BINDING AFFINITY PREDICTED BY RF-SCORE:    0.00 PKD
ROOT
HETATM    1  C   UNL     1     -12.486  13.919  64.125  1.00  0.00    -0.237 C  
HETATM    2  N   UNL     1     -11.442  14.236  65.194  1.00  0.00    -0.337 N  
HETATM    3  C   UNL     1     -12.070  14.045  66.564  1.00  0.00    -0.459 C  
HETATM    4  C   UNL     1     -11.025  15.700  65.034  1.00  0.00    -0.431 C  
ENDROOT
BRANCH   2   5
HETATM    5  C   UNL     1     -10.242  13.277  64.982  1.00  0.00    -0.297 C  
BRANCH   5   6
HETATM    6  C   UNL     1      -9.801  12.502  66.234  1.00  0.00    -0.252 C  
HETATM    7  O   UNL     1      -8.423  12.724  66.504  1.00  0.00    -0.415 OA 
HETATM    8  H   UNL     1      -8.150  12.245  67.278  1.00  0.00     0.000 HD 
ENDBRANCH   5   6
ENDBRANCH   2   5
TORSDOF 2
ENDMDL
MODEL       60
REMARK 921   NORMALIZED FREE ENERGY PREDICTED BY IDOCK:   -2.16 KCAL/MOL
REMARK 922        TOTAL FREE ENERGY PREDICTED BY IDOCK:   -2.45 KCAL/MOL
REMARK 923 INTER-LIGAND FREE ENERGY PREDICTED BY IDOCK:   -2.43 KCAL/MOL
REMARK 924 INTRA-LIGAND FREE ENERGY PREDICTED BY IDOCK:   -0.02 KCAL/MOL
REMARK 927      BINDING AFFINITY PREDICTED BY RF-SCORE:    0.00 PKD
ROOT
HETATM    1  C   UNL     1     -10.089  13.764  67.761  1.00  0.00    -0.245 C  
HETATM    2  N   UNL     1     -10.917  14.893  67.149  1.00  0.00    -0.315 N  
HETATM    3  C   UNL     1     -12.234  14.320  66.653  1.00  0.00    -0.381 C  
HETATM    4  C   UNL     1     -10.140  15.463  65.960  1.00  0.00    -0.324 C  
ENDROOT
BRANCH   2   5
HETATM    5  C   UNL     1     -11.142  15.963  68.247  1.00  0.00    -0.345 C  
BRANCH   5   6
HETATM    6  C   UNL     1     -10.434  17.305  68.003  1.00  0.00    -0.375 C  
HETATM    7  O   UNL     1     -10.426  18.093  69.187  1.00  0.00    -0.445 OA 
HETATM    8  H   UNL     1      -9.988  18.922  69.036  1.00  0.00     0.000 HD 
ENDBRANCH   5   6
ENDBRANCH   2   5
TORSDOF 2
ENDMDL
MODEL       61
REMARK 921   NORMALIZED FREE ENERGY PREDICTED BY IDOCK:   -2.15 KCAL/MOL
REMARK 922        TOTAL FREE ENERGY PREDICTED BY IDOCK:   -2.44 KCAL/MOL
REMARK 923 INTER-LIGAND FREE ENERGY PREDICTED BY IDOCK:   -2.37 KCAL/MOL
REMARK 924 INTRA-LIGAND FREE ENERGY PREDICTED BY IDOCK:   -0.06 KCAL/MOL
REMARK 927      BINDING AFFINITY PREDICTED BY RF-SCORE:    0.00 PKD
ROOT
HETATM    1  C   UNL     1      -9.364  14.765  66.954  1.00  0.00    -0.240 C  
HETATM    2  N   UNL     1     -10.438  13.678  66.972  1.00  0.00    -0.268 N  
HETATM    3  C   UNL     1     -11.725  14.252  66.403  1.00  0.00    -0.391 C  
HETATM    4  C   UNL     1     -10.674  13.265  68.426  1.00  0.00    -0.257 C  
ENDROOT
BRANCH   2   5
HETATM    5  C   UNL     1      -9.923  12.490  66.119  1.00  0.00    -0.255 C  
BRANCH   5   6
HETATM    6  C   UNL     1     -10.680  12.259  64.801  1.00  0.00    -0.300 C  
HETATM    7  O   UNL     1      -9.914  12.718  63.694  1.00  0.00    -0.661 OA 
HETATM    8  H   UNL     1     -10.383  12.576  62.879  1.00  0.00     0.000 HD 
ENDBRANCH   5   6
ENDBRANCH   2   5
TORSDOF 2
ENDMDL
MODEL       62
REMARK 921   NORMALIZED FREE ENERGY PREDICTED BY IDOCK:   -2.14 KCAL/MOL
REMARK 922        TOTAL FREE ENERGY PREDICTED BY IDOCK:   -2.43 KCAL/MOL
REMARK 923 INTER-LIGAND FREE ENERGY PREDICTED BY IDOCK:   -2.39 KCAL/MOL
REMARK 924 INTRA-LIGAND FREE ENERGY PREDICTED BY IDOCK:   -0.03 KCAL/MOL
REMARK 927      BINDING AFFINITY PREDICTED BY RF-SCORE:    0.00 PKD
ROOT
HETATM    1  C   UNL     1      -9.988   7.616  72.926  1.00  0.00    -0.261 C  
HETATM    2  N   UNL     1     -10.927   8.014  71.789  1.00  0.00    -0.240 N  
HETATM    3  C   UNL     1     -11.162   6.803  70.901  1.00  0.00    -0.292 C  
HETATM    4  C   UNL     1     -10.245   9.111  70.969  1.00  0.00    -0.302 C  
ENDROOT
BRANCH   2   5
HETATM    5  C   UNL     1     -12.250   8.517  72.422  1.00  0.00    -0.366 C  
BRANCH   5   6
HETATM    6  C   UNL     1     -13.520   8.190  71.621  1.00  0.00    -0.332 C  
HETATM    7  O   UNL     1     -14.327   7.249  72.317  1.00  0.00    -0.602 OA 
HETATM    8  H   UNL     1     -15.112   7.047  71.821  1.00  0.00     0.000 HD 
ENDBRANCH   5   6
ENDBRANCH   2   5
TORSDOF 2
ENDMDL
MODEL       63
REMARK 921   NORMALIZED FREE ENERGY PREDICTED BY IDOCK:   -2.14 KCAL/MOL
REMARK 922        TOTAL FREE ENERGY PREDICTED BY IDOCK:   -2.42 KCAL/MOL
REMARK 923 INTER-LIGAND FREE ENERGY PREDICTED BY IDOCK:   -2.41 KCAL/MOL
REMARK 924 INTRA-LIGAND FREE ENERGY PREDICTED BY IDOCK:   -0.01 KCAL/MOL
REMARK 927      BINDING AFFINITY PREDICTED BY RF-SCORE:    0.00 PKD
ROOT
HETATM    1  C   UNL     1      -8.731  17.616  66.500  1.00  0.00    -0.263 C  
HETATM    2  N   UNL     1      -9.517  18.729  67.190  1.00  0.00    -0.299 N  
HETATM    3  C   UNL     1     -10.340  18.123  68.315  1.00  0.00    -0.363 C  
HETATM    4  C   UNL     1     -10.460  19.355  66.161  1.00  0.00    -0.508 C  
ENDROOT
BRANCH   2   5
HETATM    5  C   UNL     1      -8.497  19.763  67.730  1.00  0.00    -0.317 C  
BRANCH   5   6
HETATM    6  C   UNL     1      -7.459  19.200  68.714  1.00  0.00    -0.344 C  
HETATM    7  O   UNL     1      -6.524  20.204  69.088  1.00  0.00    -0.315 OA 
HETATM    8  H   UNL     1      -5.882  19.856  69.696  1.00  0.00     0.000 HD 
ENDBRANCH   5   6
ENDBRANCH   2   5
TORSDOF 2
ENDMDL
MODEL       64
REMARK 921   NORMALIZED FREE ENERGY PREDICTED BY IDOCK:   -2.14 KCAL/MOL
REMARK 922        TOTAL FREE ENERGY PREDICTED BY IDOCK:   -2.42 KCAL/MOL
REMARK 923 INTER-LIGAND FREE ENERGY PREDICTED BY IDOCK:   -2.37 KCAL/MOL
REMARK 924 INTRA-LIGAND FREE ENERGY PREDICTED BY IDOCK:   -0.05 KCAL/MOL
REMARK 927      BINDING AFFINITY PREDICTED BY RF-SCORE:    0.00 PKD
ROOT
HETATM    1  C   UNL     1     -12.148   9.376  71.124  1.00  0.00    -0.328 C  
HETATM    2  N   UNL     1     -12.085   7.883  71.443  1.00  0.00    -0.302 N  
HETATM    3  C   UNL     1     -11.354   7.171  70.316  1.00  0.00    -0.269 C  
HETATM    4  C   UNL     1     -13.517   7.352  71.526  1.00  0.00    -0.372 C  
ENDROOT
BRANCH   2   5
HETATM    5  C   UNL     1     -11.339   7.720  72.793  1.00  0.00    -0.389 C  
BRANCH   5   6
HETATM    6  C   UNL     1     -10.610   6.379  72.975  1.00  0.00    -0.242 C  
HETATM    7  O   UNL     1     -11.498   5.389  73.480  1.00  0.00    -0.473 OA 
HETATM    8  H   UNL     1     -11.047   4.559  73.593  1.00  0.00     0.000 HD 
ENDBRANCH   5   6
ENDBRANCH   2   5
TORSDOF 2
ENDMDL
MODEL       65
REMARK 921   NORMALIZED FREE ENERGY PREDICTED BY IDOCK:   -2.13 KCAL/MOL
REMARK 922        TOTAL FREE ENERGY PREDICTED BY IDOCK:   -2.41 KCAL/MOL
REMARK 923 INTER-LIGAND FREE ENERGY PREDICTED BY IDOCK:   -2.37 KCAL/MOL
REMARK 924 INTRA-LIGAND FREE ENERGY PREDICTED BY IDOCK:   -0.04 KCAL/MOL
REMARK 927      BINDING AFFINITY PREDICTED BY RF-SCORE:    0.00 PKD
ROOT
HETATM    1  C   UNL     1      -7.929  17.481  67.766  1.00  0.00    -0.208 C  
HETATM    2  N   UNL     1      -8.365  18.942  67.864  1.00  0.00    -0.275 N  
HETATM    3  C   UNL     1      -7.341  19.704  68.689  1.00  0.00    -0.340 C  
HETATM    4  C   UNL     1      -9.717  18.989  68.578  1.00  0.00    -0.400 C  
ENDROOT
BRANCH   2   5
HETATM    5  C   UNL     1      -8.462  19.504  66.423  1.00  0.00    -0.352 C  
BRANCH   5   6
HETATM    6  C   UNL     1      -7.122  19.913  65.792  1.00  0.00    -0.303 C  
HETATM    7  O   UNL     1      -6.661  18.911  64.895  1.00  0.00    -0.496 OA 
HETATM    8  H   UNL     1      -5.832  19.163  64.505  1.00  0.00     0.000 HD 
ENDBRANCH   5   6
ENDBRANCH   2   5
TORSDOF 2
ENDMDL
MODEL       66
REMARK 921   NORMALIZED FREE ENERGY PREDICTED BY IDOCK:   -2.12 KCAL/MOL
REMARK 922        TOTAL FREE ENERGY PREDICTED BY IDOCK:   -2.40 KCAL/MOL
REMARK 923 INTER-LIGAND FREE ENERGY PREDICTED BY IDOCK:   -2.36 KCAL/MOL
REMARK 924 INTRA-LIGAND FREE ENERGY PREDICTED BY IDOCK:   -0.05 KCAL/MOL
REMARK 927      BINDING AFFINITY PREDICTED BY RF-SCORE:    0.00 PKD
ROOT
HETATM    1  C   UNL     1     -12.432  13.302  65.543  1.00  0.00    -0.474 C  
HETATM    2  N   UNL     1     -11.255  13.259  66.518  1.00  0.00    -0.298 N  
HETATM    3  C   UNL     1      -9.960  13.331  65.725  1.00  0.00    -0.251 C  
HETATM    4  C   UNL     1     -11.308  11.928  67.270  1.00  0.00    -0.329 C  
ENDROOT
BRANCH   2   5
HETATM    5  C   UNL     1     -11.396  14.464  67.482  1.00  0.00    -0.328 C  
BRANCH   5   6
HETATM    6  C   UNL     1     -10.202  14.687  68.424  1.00  0.00    -0.235 C  
HETATM    7  O   UNL     1     -10.550  14.361  69.764  1.00  0.00    -0.442 OA 
HETATM    8  H   UNL     1      -9.812  14.499  70.346  1.00  0.00     0.000 HD 
ENDBRANCH   5   6
ENDBRANCH   2   5
TORSDOF 2
ENDMDL
MODEL       67
REMARK 921   NORMALIZED FREE ENERGY PREDICTED BY IDOCK:   -2.11 KCAL/MOL
REMARK 922        TOTAL FREE ENERGY PREDICTED BY IDOCK:   -2.39 KCAL/MOL
REMARK 923 INTER-LIGAND FREE ENERGY PREDICTED BY IDOCK:   -2.35 KCAL/MOL
REMARK 924 INTRA-LIGAND FREE ENERGY PREDICTED BY IDOCK:   -0.04 KCAL/MOL
REMARK 927      BINDING AFFINITY PREDICTED BY RF-SCORE:    0.00 PKD
ROOT
HETATM    1  C   UNL     1      -8.241  17.958  68.482  1.00  0.00    -0.295 C  
HETATM    2  N   UNL     1      -8.053  19.250  67.688  1.00  0.00    -0.272 N  
HETATM    3  C   UNL     1      -9.358  20.029  67.705  1.00  0.00    -0.360 C  
HETATM    4  C   UNL     1      -7.711  18.877  66.245  1.00  0.00    -0.276 C  
ENDROOT
BRANCH   2   5
HETATM    5  C   UNL     1      -6.907  20.053  68.356  1.00  0.00    -0.302 C  
BRANCH   5   6
HETATM    6  C   UNL     1      -6.390  19.469  69.681  1.00  0.00    -0.316 C  
HETATM    7  O   UNL     1      -6.408  20.455  70.706  1.00  0.00    -0.529 OA 
HETATM    8  H   UNL     1      -6.089  20.095  71.525  1.00  0.00     0.000 HD 
ENDBRANCH   5   6
ENDBRANCH   2   5
TORSDOF 2
ENDMDL
MODEL       68
REMARK 921   NORMALIZED FREE ENERGY PREDICTED BY IDOCK:   -2.11 KCAL/MOL
REMARK 922        TOTAL FREE ENERGY PREDICTED BY IDOCK:   -2.39 KCAL/MOL
REMARK 923 INTER-LIGAND FREE ENERGY PREDICTED BY IDOCK:   -2.32 KCAL/MOL
REMARK 924 INTRA-LIGAND FREE ENERGY PREDICTED BY IDOCK:   -0.07 KCAL/MOL
REMARK 927      BINDING AFFINITY PREDICTED BY RF-SCORE:    0.00 PKD
ROOT
HETATM    1  C   UNL     1     -10.230  19.817  68.513  1.00  0.00    -0.433 C  
HETATM    2  N   UNL     1      -9.334  18.853  67.737  1.00  0.00    -0.289 N  
HETATM    3  C   UNL     1      -8.035  18.667  68.505  1.00  0.00    -0.337 C  
HETATM    4  C   UNL     1      -9.025  19.479  66.376  1.00  0.00    -0.370 C  
ENDROOT
BRANCH   2   5
HETATM    5  C   UNL     1     -10.099  17.513  67.587  1.00  0.00    -0.328 C  
BRANCH   5   6
HETATM    6  C   UNL     1      -9.742  16.441  68.629  1.00  0.00    -0.239 C  
HETATM    7  O   UNL     1     -10.671  16.457  69.706  1.00  0.00    -0.322 OA 
HETATM    8  H   UNL     1     -10.451  15.794  70.350  1.00  0.00     0.000 HD 
ENDBRANCH   5   6
ENDBRANCH   2   5
TORSDOF 2
ENDMDL
MODEL       69
REMARK 921   NORMALIZED FREE ENERGY PREDICTED BY IDOCK:   -2.10 KCAL/MOL
REMARK 922        TOTAL FREE ENERGY PREDICTED BY IDOCK:   -2.38 KCAL/MOL
REMARK 923 INTER-LIGAND FREE ENERGY PREDICTED BY IDOCK:   -2.34 KCAL/MOL
REMARK 924 INTRA-LIGAND FREE ENERGY PREDICTED BY IDOCK:   -0.04 KCAL/MOL
REMARK 927      BINDING AFFINITY PREDICTED BY RF-SCORE:    0.00 PKD
ROOT
HETATM    1  C   UNL     1      -8.000  17.163  68.386  1.00  0.00    -0.250 C  
HETATM    2  N   UNL     1      -8.214  18.446  67.584  1.00  0.00    -0.251 N  
HETATM    3  C   UNL     1      -7.254  18.452  66.406  1.00  0.00    -0.243 C  
HETATM    4  C   UNL     1      -7.898  19.635  68.494  1.00  0.00    -0.323 C  
ENDROOT
BRANCH   2   5
HETATM    5  C   UNL     1      -9.691  18.467  67.112  1.00  0.00    -0.304 C  
BRANCH   5   6
HETATM    6  C   UNL     1     -10.168  17.185  66.411  1.00  0.00    -0.328 C  
HETATM    7  O   UNL     1     -10.800  17.493  65.175  1.00  0.00    -0.642 OA 
HETATM    8  H   UNL     1     -11.096  16.701  64.742  1.00  0.00     0.000 HD 
ENDBRANCH   5   6
ENDBRANCH   2   5
TORSDOF 2
ENDMDL
MODEL       70
REMARK 921   NORMALIZED FREE ENERGY PREDICTED BY IDOCK:   -2.09 KCAL/MOL
REMARK 922        TOTAL FREE ENERGY PREDICTED BY IDOCK:   -2.37 KCAL/MOL
REMARK 923 INTER-LIGAND FREE ENERGY PREDICTED BY IDOCK:   -2.30 KCAL/MOL
REMARK 924 INTRA-LIGAND FREE ENERGY PREDICTED BY IDOCK:   -0.07 KCAL/MOL
REMARK 927      BINDING AFFINITY PREDICTED BY RF-SCORE:    0.00 PKD
ROOT
HETATM    1  C   UNL     1     -11.104   6.874  70.455  1.00  0.00    -0.288 C  
HETATM    2  N   UNL     1     -11.812   7.759  71.480  1.00  0.00    -0.283 N  
HETATM    3  C   UNL     1     -13.282   7.376  71.525  1.00  0.00    -0.372 C  
HETATM    4  C   UNL     1     -11.687   9.213  71.020  1.00  0.00    -0.301 C  
ENDROOT
BRANCH   2   5
HETATM    5  C   UNL     1     -11.126   7.535  72.852  1.00  0.00    -0.375 C  
BRANCH   5   6
HETATM    6  C   UNL     1     -10.477   6.154  73.037  1.00  0.00    -0.226 C  
HETATM    7  O   UNL     1     -11.390   5.246  73.640  1.00  0.00    -0.455 OA 
HETATM    8  H   UNL     1     -10.989   4.392  73.755  1.00  0.00     0.000 HD 
ENDBRANCH   5   6
ENDBRANCH   2   5
TORSDOF 2
ENDMDL
MODEL       71
REMARK 921   NORMALIZED FREE ENERGY PREDICTED BY IDOCK:   -2.09 KCAL/MOL
REMARK 922        TOTAL FREE ENERGY PREDICTED BY IDOCK:   -2.37 KCAL/MOL
REMARK 923 INTER-LIGAND FREE ENERGY PREDICTED BY IDOCK:   -2.35 KCAL/MOL
REMARK 924 INTRA-LIGAND FREE ENERGY PREDICTED BY IDOCK:   -0.02 KCAL/MOL
REMARK 927      BINDING AFFINITY PREDICTED BY RF-SCORE:    0.00 PKD
ROOT
HETATM    1  C   UNL     1      -8.030  16.722  68.667  1.00  0.00    -0.246 C  
HETATM    2  N   UNL     1      -9.364  16.962  67.962  1.00  0.00    -0.234 N  
HETATM    3  C   UNL     1      -9.091  17.350  66.517  1.00  0.00    -0.266 C  
HETATM    4  C   UNL     1     -10.073  18.121  68.665  1.00  0.00    -0.392 C  
ENDROOT
BRANCH   2   5
HETATM    5  C   UNL     1     -10.188  15.652  68.050  1.00  0.00    -0.227 C  
BRANCH   5   6
HETATM    6  C   UNL     1     -11.608  15.814  68.616  1.00  0.00    -0.386 C  
HETATM    7  O   UNL     1     -12.393  14.660  68.344  1.00  0.00    -0.603 OA 
HETATM    8  H   UNL     1     -13.271  14.760  68.694  1.00  0.00     0.000 HD 
ENDBRANCH   5   6
ENDBRANCH   2   5
TORSDOF 2
ENDMDL
MODEL       72
REMARK 921   NORMALIZED FREE ENERGY PREDICTED BY IDOCK:   -2.09 KCAL/MOL
REMARK 922        TOTAL FREE ENERGY PREDICTED BY IDOCK:   -2.37 KCAL/MOL
REMARK 923 INTER-LIGAND FREE ENERGY PREDICTED BY IDOCK:   -2.32 KCAL/MOL
REMARK 924 INTRA-LIGAND FREE ENERGY PREDICTED BY IDOCK:   -0.05 KCAL/MOL
REMARK 927      BINDING AFFINITY PREDICTED BY RF-SCORE:    0.00 PKD
ROOT
HETATM    1  C   UNL     1      -9.309  15.200  68.187  1.00  0.00    -0.192 C  
HETATM    2  N   UNL     1      -9.622  15.975  66.908  1.00  0.00    -0.221 N  
HETATM    3  C   UNL     1     -10.392  15.067  65.963  1.00  0.00    -0.312 C  
HETATM    4  C   UNL     1      -8.297  16.372  66.255  1.00  0.00    -0.327 C  
ENDROOT
BRANCH   2   5
HETATM    5  C   UNL     1     -10.458  17.219  67.303  1.00  0.00    -0.319 C  
BRANCH   5   6
HETATM    6  C   UNL     1     -10.023  18.533  66.634  1.00  0.00    -0.372 C  
HETATM    7  O   UNL     1     -10.693  18.711  65.392  1.00  0.00    -0.572 OA 
HETATM    8  H   UNL     1     -10.424  19.524  64.978  1.00  0.00     0.000 HD 
ENDBRANCH   5   6
ENDBRANCH   2   5
TORSDOF 2
ENDMDL
MODEL       73
REMARK 921   NORMALIZED FREE ENERGY PREDICTED BY IDOCK:   -2.09 KCAL/MOL
REMARK 922        TOTAL FREE ENERGY PREDICTED BY IDOCK:   -2.36 KCAL/MOL
REMARK 923 INTER-LIGAND FREE ENERGY PREDICTED BY IDOCK:   -2.33 KCAL/MOL
REMARK 924 INTRA-LIGAND FREE ENERGY PREDICTED BY IDOCK:   -0.03 KCAL/MOL
REMARK 927      BINDING AFFINITY PREDICTED BY RF-SCORE:    0.00 PKD
ROOT
HETATM    1  C   UNL     1      -9.486   8.433  69.906  1.00  0.00    -0.166 C  
HETATM    2  N   UNL     1     -10.534   8.474  71.016  1.00  0.00    -0.204 N  
HETATM    3  C   UNL     1     -11.328   9.764  70.892  1.00  0.00    -0.365 C  
HETATM    4  C   UNL     1      -9.805   8.462  72.361  1.00  0.00    -0.308 C  
ENDROOT
BRANCH   2   5
HETATM    5  C   UNL     1     -11.446   7.231  70.851  1.00  0.00    -0.292 C  
BRANCH   5   6
HETATM    6  C   UNL     1     -12.724   7.244  71.705  1.00  0.00    -0.375 C  
HETATM    7  O   UNL     1     -13.877   7.373  70.882  1.00  0.00    -0.623 OA 
HETATM    8  H   UNL     1     -14.667   7.382  71.410  1.00  0.00     0.000 HD 
ENDBRANCH   5   6
ENDBRANCH   2   5
TORSDOF 2
ENDMDL
MODEL       74
REMARK 921   NORMALIZED FREE ENERGY PREDICTED BY IDOCK:   -2.08 KCAL/MOL
REMARK 922        TOTAL FREE ENERGY PREDICTED BY IDOCK:   -2.36 KCAL/MOL
REMARK 923 INTER-LIGAND FREE ENERGY PREDICTED BY IDOCK:   -2.34 KCAL/MOL
REMARK 924 INTRA-LIGAND FREE ENERGY PREDICTED BY IDOCK:   -0.02 KCAL/MOL
REMARK 927      BINDING AFFINITY PREDICTED BY RF-SCORE:    0.00 PKD
ROOT
HETATM    1  C   UNL     1     -12.450  13.585  64.952  1.00  0.00    -0.384 C  
HETATM    2  N   UNL     1     -11.300  13.626  65.956  1.00  0.00    -0.308 N  
HETATM    3  C   UNL     1     -11.876  13.602  67.362  1.00  0.00    -0.393 C  
HETATM    4  C   UNL     1     -10.535  14.935  65.751  1.00  0.00    -0.330 C  
ENDROOT
BRANCH   2   5
HETATM    5  C   UNL     1     -10.398  12.393  65.692  1.00  0.00    -0.258 C  
BRANCH   5   6
HETATM    6  C   UNL     1     -10.859  11.485  64.541  1.00  0.00    -0.327 C  
HETATM    7  O   UNL     1     -10.110  10.276  64.523  1.00  0.00    -0.338 OA 
HETATM    8  H   UNL     1     -10.394   9.714  63.811  1.00  0.00     0.000 HD 
ENDBRANCH   5   6
ENDBRANCH   2   5
TORSDOF 2
ENDMDL
MODEL       75
REMARK 921   NORMALIZED FREE ENERGY PREDICTED BY IDOCK:   -2.08 KCAL/MOL
REMARK 922        TOTAL FREE ENERGY PREDICTED BY IDOCK:   -2.36 KCAL/MOL
REMARK 923 INTER-LIGAND FREE ENERGY PREDICTED BY IDOCK:   -2.42 KCAL/MOL
REMARK 924 INTRA-LIGAND FREE ENERGY PREDICTED BY IDOCK:    0.06 KCAL/MOL
REMARK 927      BINDING AFFINITY PREDICTED BY RF-SCORE:    0.00 PKD
ROOT
HETATM    1  C   UNL     1      -9.560  11.761  66.438  1.00  0.00    -0.218 C  
HETATM    2  N   UNL     1     -10.866  12.509  66.705  1.00  0.00    -0.240 N  
HETATM    3  C   UNL     1     -10.538  13.886  67.258  1.00  0.00    -0.276 C  
HETATM    4  C   UNL     1     -11.659  11.724  67.752  1.00  0.00    -0.304 C  
ENDROOT
BRANCH   2   5
HETATM    5  C   UNL     1     -11.636  12.607  65.363  1.00  0.00    -0.363 C  
BRANCH   5   6
HETATM    6  C   UNL     1     -10.925  11.974  64.157  1.00  0.00    -0.360 C  
HETATM    7  O   UNL     1     -10.129  12.938  63.479  1.00  0.00    -0.661 OA 
HETATM    8  H   UNL     1      -9.689  12.547  62.733  1.00  0.00     0.000 HD 
ENDBRANCH   5   6
ENDBRANCH   2   5
TORSDOF 2
ENDMDL
MODEL       76
REMARK 921   NORMALIZED FREE ENERGY PREDICTED BY IDOCK:   -2.06 KCAL/MOL
REMARK 922        TOTAL FREE ENERGY PREDICTED BY IDOCK:   -2.33 KCAL/MOL
REMARK 923 INTER-LIGAND FREE ENERGY PREDICTED BY IDOCK:   -2.26 KCAL/MOL
REMARK 924 INTRA-LIGAND FREE ENERGY PREDICTED BY IDOCK:   -0.07 KCAL/MOL
REMARK 927      BINDING AFFINITY PREDICTED BY RF-SCORE:    0.00 PKD
ROOT
HETATM    1  C   UNL     1     -11.808  14.301  66.377  1.00  0.00    -0.411 C  
HETATM    2  N   UNL     1     -10.729  15.052  67.155  1.00  0.00    -0.296 N  
HETATM    3  C   UNL     1     -11.383  15.782  68.317  1.00  0.00    -0.354 C  
HETATM    4  C   UNL     1     -10.090  16.077  66.216  1.00  0.00    -0.313 C  
ENDROOT
BRANCH   2   5
HETATM    5  C   UNL     1      -9.694  14.011  67.653  1.00  0.00    -0.228 C  
BRANCH   5   6
HETATM    6  C   UNL     1     -10.261  12.609  67.927  1.00  0.00    -0.220 C  
HETATM    7  O   UNL     1     -10.640  12.477  69.291  1.00  0.00    -0.438 OA 
HETATM    8  H   UNL     1     -10.991  11.610  69.460  1.00  0.00     0.000 HD 
ENDBRANCH   5   6
ENDBRANCH   2   5
TORSDOF 2
ENDMDL
MODEL       77
REMARK 921   NORMALIZED FREE ENERGY PREDICTED BY IDOCK:   -2.05 KCAL/MOL
REMARK 922        TOTAL FREE ENERGY PREDICTED BY IDOCK:   -2.33 KCAL/MOL
REMARK 923 INTER-LIGAND FREE ENERGY PREDICTED BY IDOCK:   -2.28 KCAL/MOL
REMARK 924 INTRA-LIGAND FREE ENERGY PREDICTED BY IDOCK:   -0.04 KCAL/MOL
REMARK 927      BINDING AFFINITY PREDICTED BY RF-SCORE:    0.00 PKD
ROOT
HETATM    1  C   UNL     1     -10.845  10.544  67.014  1.00  0.00    -0.225 C  
HETATM    2  N   UNL     1     -10.601  11.677  66.019  1.00  0.00    -0.250 N  
HETATM    3  C   UNL     1     -11.847  12.545  65.951  1.00  0.00    -0.430 C  
HETATM    4  C   UNL     1     -10.347  11.057  64.644  1.00  0.00    -0.345 C  
ENDROOT
BRANCH   2   5
HETATM    5  C   UNL     1      -9.375  12.486  66.514  1.00  0.00    -0.233 C  
BRANCH   5   6
HETATM    6  C   UNL     1      -9.647  13.973  66.793  1.00  0.00    -0.286 C  
HETATM    7  O   UNL     1      -9.168  14.781  65.725  1.00  0.00    -0.513 OA 
HETATM    8  H   UNL     1      -9.336  15.700  65.897  1.00  0.00     0.000 HD 
ENDBRANCH   5   6
ENDBRANCH   2   5
TORSDOF 2
ENDMDL
MODEL       78
REMARK 921   NORMALIZED FREE ENERGY PREDICTED BY IDOCK:   -2.05 KCAL/MOL
REMARK 922        TOTAL FREE ENERGY PREDICTED BY IDOCK:   -2.32 KCAL/MOL
REMARK 923 INTER-LIGAND FREE ENERGY PREDICTED BY IDOCK:   -2.28 KCAL/MOL
REMARK 924 INTRA-LIGAND FREE ENERGY PREDICTED BY IDOCK:   -0.04 KCAL/MOL
REMARK 927      BINDING AFFINITY PREDICTED BY RF-SCORE:    0.00 PKD
ROOT
HETATM    1  C   UNL     1     -11.803  13.620  64.937  1.00  0.00    -0.375 C  
HETATM    2  N   UNL     1     -11.240  13.405  66.341  1.00  0.00    -0.299 N  
HETATM    3  C   UNL     1     -11.431  11.948  66.727  1.00  0.00    -0.316 C  
HETATM    4  C   UNL     1     -12.029  14.287  67.311  1.00  0.00    -0.405 C  
ENDROOT
BRANCH   2   5
HETATM    5  C   UNL     1      -9.739  13.791  66.313  1.00  0.00    -0.284 C  
BRANCH   5   6
HETATM    6  C   UNL     1      -8.843  12.990  67.271  1.00  0.00    -0.208 C  
HETATM    7  O   UNL     1      -7.852  12.269  66.549  1.00  0.00    -0.389 OA 
HETATM    8  H   UNL     1      -7.299  11.773  67.142  1.00  0.00     0.000 HD 
ENDBRANCH   5   6
ENDBRANCH   2   5
TORSDOF 2
ENDMDL
MODEL       79
REMARK 921   NORMALIZED FREE ENERGY PREDICTED BY IDOCK:   -2.01 KCAL/MOL
REMARK 922        TOTAL FREE ENERGY PREDICTED BY IDOCK:   -2.28 KCAL/MOL
REMARK 923 INTER-LIGAND FREE ENERGY PREDICTED BY IDOCK:   -2.24 KCAL/MOL
REMARK 924 INTRA-LIGAND FREE ENERGY PREDICTED BY IDOCK:   -0.04 KCAL/MOL
REMARK 927      BINDING AFFINITY PREDICTED BY RF-SCORE:    0.00 PKD
ROOT
HETATM    1  C   UNL     1     -12.033  14.083  66.999  1.00  0.00    -0.438 C  
HETATM    2  N   UNL     1     -11.313  14.427  68.301  1.00  0.00    -0.273 N  
HETATM    3  C   UNL     1      -9.857  14.007  68.182  1.00  0.00    -0.235 C  
HETATM    4  C   UNL     1     -11.971  13.636  69.433  1.00  0.00    -0.342 C  
ENDROOT
BRANCH   2   5
HETATM    5  C   UNL     1     -11.445  15.956  68.524  1.00  0.00    -0.377 C  
BRANCH   5   6
HETATM    6  C   UNL     1     -10.153  16.662  68.967  1.00  0.00    -0.293 C  
HETATM    7  O   UNL     1      -9.729  17.598  67.985  1.00  0.00    -0.280 OA 
HETATM    8  H   UNL     1      -8.931  18.035  68.259  1.00  0.00     0.000 HD 
ENDBRANCH   5   6
ENDBRANCH   2   5
TORSDOF 2
ENDMDL
MODEL       80
REMARK 921   NORMALIZED FREE ENERGY PREDICTED BY IDOCK:   -2.01 KCAL/MOL
REMARK 922        TOTAL FREE ENERGY PREDICTED BY IDOCK:   -2.28 KCAL/MOL
REMARK 923 INTER-LIGAND FREE ENERGY PREDICTED BY IDOCK:   -2.23 KCAL/MOL
REMARK 924 INTRA-LIGAND FREE ENERGY PREDICTED BY IDOCK:   -0.04 KCAL/MOL
REMARK 927      BINDING AFFINITY PREDICTED BY RF-SCORE:    0.00 PKD
ROOT
HETATM    1  C   UNL     1     -12.389   6.931  71.095  1.00  0.00    -0.370 C  
HETATM    2  N   UNL     1     -11.789   8.212  71.671  1.00  0.00    -0.278 N  
HETATM    3  C   UNL     1     -10.968   7.859  72.901  1.00  0.00    -0.388 C  
HETATM    4  C   UNL     1     -12.938   9.134  72.083  1.00  0.00    -0.425 C  
ENDROOT
BRANCH   2   5
HETATM    5  C   UNL     1     -10.908   8.858  70.570  1.00  0.00    -0.236 C  
BRANCH   5   6
HETATM    6  C   UNL     1      -9.406   8.547  70.673  1.00  0.00    -0.174 C  
HETATM    7  O   UNL     1      -8.655   9.741  70.847  1.00  0.00    -0.363 OA 
HETATM    8  H   UNL     1      -7.727   9.549  70.911  1.00  0.00     0.000 HD 
ENDBRANCH   5   6
ENDBRANCH   2   5
TORSDOF 2
ENDMDL
MODEL       81
REMARK 921   NORMALIZED FREE ENERGY PREDICTED BY IDOCK:   -1.98 KCAL/MOL
REMARK 922        TOTAL FREE ENERGY PREDICTED BY IDOCK:   -2.24 KCAL/MOL
REMARK 923 INTER-LIGAND FREE ENERGY PREDICTED BY IDOCK:   -2.22 KCAL/MOL
REMARK 924 INTRA-LIGAND FREE ENERGY PREDICTED BY IDOCK:   -0.02 KCAL/MOL
REMARK 927      BINDING AFFINITY PREDICTED BY RF-SCORE:    0.00 PKD
ROOT
HETATM    1  C   UNL     1     -11.778   9.890  70.381  1.00  0.00    -0.258 C  
HETATM    2  N   UNL     1     -11.045   8.602  70.754  1.00  0.00    -0.250 N  
HETATM    3  C   UNL     1      -9.908   8.944  71.704  1.00  0.00    -0.317 C  
HETATM    4  C   UNL     1     -10.464   7.997  69.475  1.00  0.00    -0.226 C  
ENDROOT
BRANCH   2   5
HETATM    5  C   UNL     1     -12.071   7.650  71.420  1.00  0.00    -0.316 C  
BRANCH   5   6
HETATM    6  C   UNL     1     -11.546   6.237  71.723  1.00  0.00    -0.304 C  
HETATM    7  O   UNL     1     -12.152   5.716  72.899  1.00  0.00    -0.550 OA 
HETATM    8  H   UNL     1     -11.827   4.843  73.086  1.00  0.00     0.000 HD 
ENDBRANCH   5   6
ENDBRANCH   2   5
TORSDOF 2
ENDMDL
MODEL       82
REMARK 921   NORMALIZED FREE ENERGY PREDICTED BY IDOCK:   -1.98 KCAL/MOL
REMARK 922        TOTAL FREE ENERGY PREDICTED BY IDOCK:   -2.24 KCAL/MOL
REMARK 923 INTER-LIGAND FREE ENERGY PREDICTED BY IDOCK:   -2.23 KCAL/MOL
REMARK 924 INTRA-LIGAND FREE ENERGY PREDICTED BY IDOCK:   -0.01 KCAL/MOL
REMARK 927      BINDING AFFINITY PREDICTED BY RF-SCORE:    0.00 PKD
ROOT
HETATM    1  C   UNL     1     -10.402   5.280  69.925  1.00  0.00    -0.304 C  
HETATM    2  N   UNL     1     -10.704   6.716  70.350  1.00  0.00    -0.236 N  
HETATM    3  C   UNL     1      -9.672   7.151  71.377  1.00  0.00    -0.168 C  
HETATM    4  C   UNL     1     -12.092   6.741  70.993  1.00  0.00    -0.372 C  
ENDROOT
BRANCH   2   5
HETATM    5  C   UNL     1     -10.649   7.606  69.081  1.00  0.00    -0.186 C  
BRANCH   5   6
HETATM    6  C   UNL     1     -10.336   6.858  67.775  1.00  0.00    -0.203 C  
HETATM    7  O   UNL     1     -11.527   6.614  67.037  1.00  0.00    -0.763 OA 
HETATM    8  H   UNL     1     -11.333   6.151  66.230  1.00  0.00     0.000 HD 
ENDBRANCH   5   6
ENDBRANCH   2   5
TORSDOF 2
ENDMDL
MODEL       83
REMARK 921   NORMALIZED FREE ENERGY PREDICTED BY IDOCK:   -1.96 KCAL/MOL
REMARK 922        TOTAL FREE ENERGY PREDICTED BY IDOCK:   -2.22 KCAL/MOL
REMARK 923 INTER-LIGAND FREE ENERGY PREDICTED BY IDOCK:   -2.17 KCAL/MOL
REMARK 924 INTRA-LIGAND FREE ENERGY PREDICTED BY IDOCK:   -0.05 KCAL/MOL
REMARK 927      BINDING AFFINITY PREDICTED BY RF-SCORE:    0.00 PKD
ROOT
HETATM    1  C   UNL     1      -7.587  19.939  67.828  1.00  0.00    -0.287 C  
HETATM    2  N   UNL     1      -8.906  19.194  67.631  1.00  0.00    -0.291 N  
HETATM    3  C   UNL     1      -9.592  19.734  66.387  1.00  0.00    -0.411 C  
HETATM    4  C   UNL     1      -9.792  19.464  68.849  1.00  0.00    -0.453 C  
ENDROOT
BRANCH   2   5
HETATM    5  C   UNL     1      -8.579  17.685  67.487  1.00  0.00    -0.222 C  
BRANCH   5   6
HETATM    6  C   UNL     1      -7.815  17.070  68.670  1.00  0.00    -0.257 C  
HETATM    7  O   UNL     1      -8.598  16.069  69.309  1.00  0.00    -0.251 OA 
HETATM    8  H   UNL     1      -8.126  15.688  70.040  1.00  0.00     0.000 HD 
ENDBRANCH   5   6
ENDBRANCH   2   5
TORSDOF 2
ENDMDL
MODEL       84
REMARK 921   NORMALIZED FREE ENERGY PREDICTED BY IDOCK:   -1.95 KCAL/MOL
REMARK 922        TOTAL FREE ENERGY PREDICTED BY IDOCK:   -2.21 KCAL/MOL
REMARK 923 INTER-LIGAND FREE ENERGY PREDICTED BY IDOCK:   -2.14 KCAL/MOL
REMARK 924 INTRA-LIGAND FREE ENERGY PREDICTED BY IDOCK:   -0.07 KCAL/MOL
REMARK 927      BINDING AFFINITY PREDICTED BY RF-SCORE:    0.00 PKD
ROOT
HETATM    1  C   UNL     1      -9.048   7.473  69.743  1.00  0.00    -0.140 C  
HETATM    2  N   UNL     1     -10.311   6.930  70.409  1.00  0.00    -0.199 N  
HETATM    3  C   UNL     1     -11.270   8.083  70.653  1.00  0.00    -0.261 C  
HETATM    4  C   UNL     1      -9.915   6.314  71.752  1.00  0.00    -0.171 C  
ENDROOT
BRANCH   2   5
HETATM    5  C   UNL     1     -10.929   5.872  69.458  1.00  0.00    -0.368 C  
BRANCH   5   6
HETATM    6  C   UNL     1     -10.515   6.002  67.984  1.00  0.00    -0.233 C  
HETATM    7  O   UNL     1     -11.510   6.693  67.240  1.00  0.00    -0.766 OA 
HETATM    8  H   UNL     1     -11.254   6.773  66.329  1.00  0.00     0.000 HD 
ENDBRANCH   5   6
ENDBRANCH   2   5
TORSDOF 2
ENDMDL
MODEL       85
REMARK 921   NORMALIZED FREE ENERGY PREDICTED BY IDOCK:   -1.95 KCAL/MOL
REMARK 922        TOTAL FREE ENERGY PREDICTED BY IDOCK:   -2.21 KCAL/MOL
REMARK 923 INTER-LIGAND FREE ENERGY PREDICTED BY IDOCK:   -2.17 KCAL/MOL
REMARK 924 INTRA-LIGAND FREE ENERGY PREDICTED BY IDOCK:   -0.04 KCAL/MOL
REMARK 927      BINDING AFFINITY PREDICTED BY RF-SCORE:    0.00 PKD
ROOT
HETATM    1  C   UNL     1     -10.679  13.569  67.732  1.00  0.00    -0.252 C  
HETATM    2  N   UNL     1     -10.893  12.310  66.894  1.00  0.00    -0.243 N  
HETATM    3  C   UNL     1      -9.580  11.939  66.224  1.00  0.00    -0.229 C  
HETATM    4  C   UNL     1     -11.933  12.625  65.817  1.00  0.00    -0.446 C  
ENDROOT
BRANCH   2   5
HETATM    5  C   UNL     1     -11.380  11.186  67.845  1.00  0.00    -0.309 C  
BRANCH   5   6
HETATM    6  C   UNL     1     -10.446  10.884  69.027  1.00  0.00    -0.219 C  
HETATM    7  O   UNL     1     -11.098  11.148  70.263  1.00  0.00    -0.474 OA 
HETATM    8  H   UNL     1     -10.520  10.962  70.995  1.00  0.00     0.000 HD 
ENDBRANCH   5   6
ENDBRANCH   2   5
TORSDOF 2
ENDMDL
MODEL       86
REMARK 921   NORMALIZED FREE ENERGY PREDICTED BY IDOCK:   -1.94 KCAL/MOL
REMARK 922        TOTAL FREE ENERGY PREDICTED BY IDOCK:   -2.20 KCAL/MOL
REMARK 923 INTER-LIGAND FREE ENERGY PREDICTED BY IDOCK:   -2.17 KCAL/MOL
REMARK 924 INTRA-LIGAND FREE ENERGY PREDICTED BY IDOCK:   -0.04 KCAL/MOL
REMARK 927      BINDING AFFINITY PREDICTED BY RF-SCORE:    0.00 PKD
ROOT
HETATM    1  C   UNL     1     -10.270  17.897  68.811  1.00  0.00    -0.360 C  
HETATM    2  N   UNL     1      -9.320  16.967  68.058  1.00  0.00    -0.234 N  
HETATM    3  C   UNL     1     -10.011  16.481  66.794  1.00  0.00    -0.276 C  
HETATM    4  C   UNL     1      -9.018  15.766  68.956  1.00  0.00    -0.246 C  
ENDROOT
BRANCH   2   5
HETATM    5  C   UNL     1      -8.036  17.769  67.728  1.00  0.00    -0.225 C  
BRANCH   5   6
HETATM    6  C   UNL     1      -8.173  18.769  66.569  1.00  0.00    -0.291 C  
HETATM    7  O   UNL     1      -7.343  18.391  65.478  1.00  0.00    -0.534 OA 
HETATM    8  H   UNL     1      -7.428  19.010  64.761  1.00  0.00     0.000 HD 
ENDBRANCH   5   6
ENDBRANCH   2   5
TORSDOF 2
ENDMDL
MODEL       87
REMARK 921   NORMALIZED FREE ENERGY PREDICTED BY IDOCK:   -1.94 KCAL/MOL
REMARK 922        TOTAL FREE ENERGY PREDICTED BY IDOCK:   -2.19 KCAL/MOL
REMARK 923 INTER-LIGAND FREE ENERGY PREDICTED BY IDOCK:   -2.17 KCAL/MOL
REMARK 924 INTRA-LIGAND FREE ENERGY PREDICTED BY IDOCK:   -0.02 KCAL/MOL
REMARK 927      BINDING AFFINITY PREDICTED BY RF-SCORE:    0.00 PKD
ROOT
HETATM    1  C   UNL     1      -9.635   7.961  71.210  1.00  0.00    -0.157 C  
HETATM    2  N   UNL     1      -9.712   7.261  72.566  1.00  0.00    -0.150 N  
HETATM    3  C   UNL     1      -8.702   7.900  73.505  1.00  0.00    -0.261 C  
HETATM    4  C   UNL     1      -9.348   5.789  72.364  1.00  0.00    -0.143 C  
ENDROOT
BRANCH   2   5
HETATM    5  C   UNL     1     -11.159   7.421  73.099  1.00  0.00    -0.309 C  
BRANCH   5   6
HETATM    6  C   UNL     1     -12.057   8.357  72.273  1.00  0.00    -0.392 C  
HETATM    7  O   UNL     1     -13.130   8.852  73.064  1.00  0.00    -0.759 OA 
HETATM    8  H   UNL     1     -13.685   9.431  72.553  1.00  0.00     0.000 HD 
ENDBRANCH   5   6
ENDBRANCH   2   5
TORSDOF 2
ENDMDL
MODEL       88
REMARK 921   NORMALIZED FREE ENERGY PREDICTED BY IDOCK:   -1.91 KCAL/MOL
REMARK 922        TOTAL FREE ENERGY PREDICTED BY IDOCK:   -2.16 KCAL/MOL
REMARK 923 INTER-LIGAND FREE ENERGY PREDICTED BY IDOCK:   -2.13 KCAL/MOL
REMARK 924 INTRA-LIGAND FREE ENERGY PREDICTED BY IDOCK:   -0.03 KCAL/MOL
REMARK 927      BINDING AFFINITY PREDICTED BY RF-SCORE:    0.00 PKD
ROOT
HETATM    1  C   UNL     1     -10.763   6.440  71.104  1.00  0.00    -0.244 C  
HETATM    2  N   UNL     1     -10.954   7.650  72.017  1.00  0.00    -0.236 N  
HETATM    3  C   UNL     1     -10.601   7.251  73.440  1.00  0.00    -0.389 C  
HETATM    4  C   UNL     1     -12.427   8.060  71.962  1.00  0.00    -0.320 C  
ENDROOT
BRANCH   2   5
HETATM    5  C   UNL     1     -10.029   8.782  71.501  1.00  0.00    -0.300 C  
BRANCH   5   6
HETATM    6  C   UNL     1     -10.356   9.299  70.091  1.00  0.00    -0.222 C  
HETATM    7  O   UNL     1     -10.277  10.718  70.044  1.00  0.00    -0.422 OA 
HETATM    8  H   UNL     1     -10.480  11.037  69.172  1.00  0.00     0.000 HD 
ENDBRANCH   5   6
ENDBRANCH   2   5
TORSDOF 2
ENDMDL
MODEL       89
REMARK 921   NORMALIZED FREE ENERGY PREDICTED BY IDOCK:   -1.90 KCAL/MOL
REMARK 922        TOTAL FREE ENERGY PREDICTED BY IDOCK:   -2.15 KCAL/MOL
REMARK 923 INTER-LIGAND FREE ENERGY PREDICTED BY IDOCK:   -2.13 KCAL/MOL
REMARK 924 INTRA-LIGAND FREE ENERGY PREDICTED BY IDOCK:   -0.02 KCAL/MOL
REMARK 927      BINDING AFFINITY PREDICTED BY RF-SCORE:    0.00 PKD
ROOT
HETATM    1  C   UNL     1     -10.939  10.255  67.600  1.00  0.00    -0.294 C  
HETATM    2  N   UNL     1     -10.497  11.502  66.835  1.00  0.00    -0.226 N  
HETATM    3  C   UNL     1     -10.103  11.096  65.424  1.00  0.00    -0.264 C  
HETATM    4  C   UNL     1      -9.276  12.089  67.546  1.00  0.00    -0.180 C  
ENDROOT
BRANCH   2   5
HETATM    5  C   UNL     1     -11.684  12.498  66.826  1.00  0.00    -0.384 C  
BRANCH   5   6
HETATM    6  C   UNL     1     -11.383  13.875  67.438  1.00  0.00    -0.326 C  
HETATM    7  O   UNL     1     -12.458  14.776  67.206  1.00  0.00    -0.460 OA 
HETATM    8  H   UNL     1     -12.272  15.627  67.584  1.00  0.00     0.000 HD 
ENDBRANCH   5   6
ENDBRANCH   2   5
TORSDOF 2
ENDMDL
MODEL       90
REMARK 921   NORMALIZED FREE ENERGY PREDICTED BY IDOCK:   -1.88 KCAL/MOL
REMARK 922        TOTAL FREE ENERGY PREDICTED BY IDOCK:   -2.13 KCAL/MOL
REMARK 923 INTER-LIGAND FREE ENERGY PREDICTED BY IDOCK:   -2.06 KCAL/MOL
REMARK 924 INTRA-LIGAND FREE ENERGY PREDICTED BY IDOCK:   -0.06 KCAL/MOL
REMARK 927      BINDING AFFINITY PREDICTED BY RF-SCORE:    0.00 PKD
ROOT
HETATM    1  C   UNL     1      -7.161  19.145  65.845  1.00  0.00    -0.273 C  
HETATM    2  N   UNL     1      -7.963  19.131  67.145  1.00  0.00    -0.256 N  
HETATM    3  C   UNL     1      -8.428  20.546  67.448  1.00  0.00    -0.275 C  
HETATM    4  C   UNL     1      -7.041  18.655  68.270  1.00  0.00    -0.253 C  
ENDROOT
BRANCH   2   5
HETATM    5  C   UNL     1      -9.165  18.171  66.950  1.00  0.00    -0.278 C  
BRANCH   5   6
HETATM    6  C   UNL     1      -9.592  17.400  68.208  1.00  0.00    -0.292 C  
HETATM    7  O   UNL     1     -10.500  18.170  68.986  1.00  0.00    -0.438 OA 
HETATM    8  H   UNL     1     -10.764  17.693  69.765  1.00  0.00     0.000 HD 
ENDBRANCH   5   6
ENDBRANCH   2   5
TORSDOF 2
ENDMDL
MODEL       91
REMARK 921   NORMALIZED FREE ENERGY PREDICTED BY IDOCK:   -1.84 KCAL/MOL
REMARK 922        TOTAL FREE ENERGY PREDICTED BY IDOCK:   -2.09 KCAL/MOL
REMARK 923 INTER-LIGAND FREE ENERGY PREDICTED BY IDOCK:   -2.08 KCAL/MOL
REMARK 924 INTRA-LIGAND FREE ENERGY PREDICTED BY IDOCK:   -0.01 KCAL/MOL
REMARK 927      BINDING AFFINITY PREDICTED BY RF-SCORE:    0.00 PKD
ROOT
HETATM    1  C   UNL     1     -12.660   6.946  71.327  1.00  0.00    -0.345 C  
HETATM    2  N   UNL     1     -11.352   6.529  71.998  1.00  0.00    -0.271 N  
HETATM    3  C   UNL     1     -10.349   6.149  70.922  1.00  0.00    -0.215 C  
HETATM    4  C   UNL     1     -11.635   5.306  72.873  1.00  0.00    -0.219 C  
ENDROOT
BRANCH   2   5
HETATM    5  C   UNL     1     -10.851   7.729  72.842  1.00  0.00    -0.392 C  
BRANCH   5   6
HETATM    6  C   UNL     1      -9.324   7.826  72.990  1.00  0.00    -0.239 C  
HETATM    7  O   UNL     1      -8.813   8.914  72.230  1.00  0.00    -0.397 OA 
HETATM    8  H   UNL     1      -7.869   8.974  72.321  1.00  0.00     0.000 HD 
ENDBRANCH   5   6
ENDBRANCH   2   5
TORSDOF 2
ENDMDL
MODEL       92
REMARK 921   NORMALIZED FREE ENERGY PREDICTED BY IDOCK:   -1.82 KCAL/MOL
REMARK 922        TOTAL FREE ENERGY PREDICTED BY IDOCK:   -2.07 KCAL/MOL
REMARK 923 INTER-LIGAND FREE ENERGY PREDICTED BY IDOCK:   -2.03 KCAL/MOL
REMARK 924 INTRA-LIGAND FREE ENERGY PREDICTED BY IDOCK:   -0.04 KCAL/MOL
REMARK 927      BINDING AFFINITY PREDICTED BY RF-SCORE:    0.00 PKD
ROOT
HETATM    1  C   UNL     1     -11.047  11.032  69.171  1.00  0.00    -0.243 C  
HETATM    2  N   UNL     1     -10.426   9.659  69.421  1.00  0.00    -0.209 N  
HETATM    3  C   UNL     1      -8.958   9.841  69.772  1.00  0.00    -0.221 C  
HETATM    4  C   UNL     1     -10.535   8.844  68.131  1.00  0.00    -0.202 C  
ENDROOT
BRANCH   2   5
HETATM    5  C   UNL     1     -11.206   8.992  70.584  1.00  0.00    -0.270 C  
BRANCH   5   6
HETATM    6  C   UNL     1     -11.206   7.455  70.570  1.00  0.00    -0.274 C  
HETATM    7  O   UNL     1     -12.524   6.954  70.383  1.00  0.00    -0.611 OA 
HETATM    8  H   UNL     1     -12.524   6.003  70.375  1.00  0.00     0.000 HD 
ENDBRANCH   5   6
ENDBRANCH   2   5
TORSDOF 2
ENDMDL
MODEL       93
REMARK 921   NORMALIZED FREE ENERGY PREDICTED BY IDOCK:   -1.82 KCAL/MOL
REMARK 922        TOTAL FREE ENERGY PREDICTED BY IDOCK:   -2.07 KCAL/MOL
REMARK 923 INTER-LIGAND FREE ENERGY PREDICTED BY IDOCK:   -1.99 KCAL/MOL
REMARK 924 INTRA-LIGAND FREE ENERGY PREDICTED BY IDOCK:   -0.07 KCAL/MOL
REMARK 927      BINDING AFFINITY PREDICTED BY RF-SCORE:    0.00 PKD
ROOT
HETATM    1  C   UNL     1     -10.402  19.595  68.021  1.00  0.00    -0.453 C  
HETATM    2  N   UNL     1      -9.075  19.080  67.467  1.00  0.00    -0.286 N  
HETATM    3  C   UNL     1      -8.208  20.269  67.088  1.00  0.00    -0.334 C  
HETATM    4  C   UNL     1      -9.370  18.255  66.213  1.00  0.00    -0.213 C  
ENDROOT
BRANCH   2   5
HETATM    5  C   UNL     1      -8.405  18.220  68.569  1.00  0.00    -0.310 C  
BRANCH   5   6
HETATM    6  C   UNL     1      -6.869  18.286  68.601  1.00  0.00    -0.254 C  
HETATM    7  O   UNL     1      -6.304  17.248  67.810  1.00  0.00    -0.142 OA 
HETATM    8  H   UNL     1      -5.355  17.289  67.830  1.00  0.00     0.000 HD 
ENDBRANCH   5   6
ENDBRANCH   2   5
TORSDOF 2
ENDMDL
MODEL       94
REMARK 921   NORMALIZED FREE ENERGY PREDICTED BY IDOCK:   -1.81 KCAL/MOL
REMARK 922        TOTAL FREE ENERGY PREDICTED BY IDOCK:   -2.05 KCAL/MOL
REMARK 923 INTER-LIGAND FREE ENERGY PREDICTED BY IDOCK:   -2.01 KCAL/MOL
REMARK 924 INTRA-LIGAND FREE ENERGY PREDICTED BY IDOCK:   -0.04 KCAL/MOL
REMARK 927      BINDING AFFINITY PREDICTED BY RF-SCORE:    0.00 PKD
ROOT
HETATM    1  C   UNL     1      -9.616  11.991  68.285  1.00  0.00    -0.204 C  
HETATM    2  N   UNL     1     -11.021  11.464  67.997  1.00  0.00    -0.219 N  
HETATM    3  C   UNL     1     -11.622  12.270  66.858  1.00  0.00    -0.361 C  
HETATM    4  C   UNL     1     -11.871  11.661  69.254  1.00  0.00    -0.331 C  
ENDROOT
BRANCH   2   5
HETATM    5  C   UNL     1     -10.895   9.964  67.624  1.00  0.00    -0.257 C  
BRANCH   5   6
HETATM    6  C   UNL     1     -10.223   9.083  68.689  1.00  0.00    -0.205 C  
HETATM    7  O   UNL     1     -11.170   8.208  69.289  1.00  0.00    -0.434 OA 
HETATM    8  H   UNL     1     -10.755   7.664  69.948  1.00  0.00     0.000 HD 
ENDBRANCH   5   6
ENDBRANCH   2   5
TORSDOF 2
ENDMDL
MODEL       95
REMARK 921   NORMALIZED FREE ENERGY PREDICTED BY IDOCK:   -1.81 KCAL/MOL
REMARK 922        TOTAL FREE ENERGY PREDICTED BY IDOCK:   -2.05 KCAL/MOL
REMARK 923 INTER-LIGAND FREE ENERGY PREDICTED BY IDOCK:   -2.01 KCAL/MOL
REMARK 924 INTRA-LIGAND FREE ENERGY PREDICTED BY IDOCK:   -0.04 KCAL/MOL
REMARK 927      BINDING AFFINITY PREDICTED BY RF-SCORE:    0.00 PKD
ROOT
HETATM    1  C   UNL     1     -11.589  13.887  67.090  1.00  0.00    -0.364 C  
HETATM    2  N   UNL     1     -10.587  14.733  67.875  1.00  0.00    -0.246 N  
HETATM    3  C   UNL     1     -10.288  14.040  69.194  1.00  0.00    -0.049 C  
HETATM    4  C   UNL     1     -11.230  16.093  68.157  1.00  0.00    -0.311 C  
ENDROOT
BRANCH   2   5
HETATM    5  C   UNL     1      -9.309  14.877  67.008  1.00  0.00    -0.227 C  
BRANCH   5   6
HETATM    6  C   UNL     1      -9.443  15.820  65.803  1.00  0.00    -0.299 C  
HETATM    7  O   UNL     1      -8.543  16.916  65.918  1.00  0.00    -0.514 OA 
HETATM    8  H   UNL     1      -8.627  17.499  65.173  1.00  0.00     0.000 HD 
ENDBRANCH   5   6
ENDBRANCH   2   5
TORSDOF 2
ENDMDL
MODEL       96
REMARK 921   NORMALIZED FREE ENERGY PREDICTED BY IDOCK:   -1.81 KCAL/MOL
REMARK 922        TOTAL FREE ENERGY PREDICTED BY IDOCK:   -2.05 KCAL/MOL
REMARK 923 INTER-LIGAND FREE ENERGY PREDICTED BY IDOCK:   -2.01 KCAL/MOL
REMARK 924 INTRA-LIGAND FREE ENERGY PREDICTED BY IDOCK:   -0.04 KCAL/MOL
REMARK 927      BINDING AFFINITY PREDICTED BY RF-SCORE:    0.00 PKD
ROOT
HETATM    1  C   UNL     1      -7.620   6.226  67.231  1.00  0.00    -0.093 C  
HETATM    2  N   UNL     1      -8.754   6.535  66.254  1.00  0.00    -0.140 N  
HETATM    3  C   UNL     1      -8.237   6.367  64.835  1.00  0.00    -0.110 C  
HETATM    4  C   UNL     1      -9.179   7.990  66.463  1.00  0.00    -0.188 C  
ENDROOT
BRANCH   2   5
HETATM    5  C   UNL     1      -9.916   5.553  66.553  1.00  0.00    -0.185 C  
BRANCH   5   6
HETATM    6  C   UNL     1     -10.128   4.457  65.497  1.00  0.00    -0.236 C  
HETATM    7  O   UNL     1     -11.430   4.548  64.932  1.00  0.00    -1.056 OA 
HETATM    8  H   UNL     1     -11.562   3.869  64.279  1.00  0.00     0.000 HD 
ENDBRANCH   5   6
ENDBRANCH   2   5
TORSDOF 2
ENDMDL
MODEL       97
REMARK 921   NORMALIZED FREE ENERGY PREDICTED BY IDOCK:   -1.80 KCAL/MOL
REMARK 922        TOTAL FREE ENERGY PREDICTED BY IDOCK:   -2.05 KCAL/MOL
REMARK 923 INTER-LIGAND FREE ENERGY PREDICTED BY IDOCK:   -1.98 KCAL/MOL
REMARK 924 INTRA-LIGAND FREE ENERGY PREDICTED BY IDOCK:   -0.06 KCAL/MOL
REMARK 927      BINDING AFFINITY PREDICTED BY RF-SCORE:    0.00 PKD
ROOT
HETATM    1  C   UNL     1     -10.140  17.908  68.489  1.00  0.00    -0.391 C  
HETATM    2  N   UNL     1      -8.840  17.427  67.845  1.00  0.00    -0.233 N  
HETATM    3  C   UNL     1      -9.157  16.851  66.475  1.00  0.00    -0.273 C  
HETATM    4  C   UNL     1      -8.251  16.325  68.728  1.00  0.00    -0.227 C  
ENDROOT
BRANCH   2   5
HETATM    5  C   UNL     1      -7.886  18.644  67.740  1.00  0.00    -0.245 C  
BRANCH   5   6
HETATM    6  C   UNL     1      -6.795  18.711  68.821  1.00  0.00    -0.278 C  
HETATM    7  O   UNL     1      -7.023  19.806  69.699  1.00  0.00    -0.337 OA 
HETATM    8  H   UNL     1      -6.349  19.848  70.367  1.00  0.00     0.000 HD 
ENDBRANCH   5   6
ENDBRANCH   2   5
TORSDOF 2
ENDMDL
MODEL       98
REMARK 921   NORMALIZED FREE ENERGY PREDICTED BY IDOCK:   -1.80 KCAL/MOL
REMARK 922        TOTAL FREE ENERGY PREDICTED BY IDOCK:   -2.04 KCAL/MOL
REMARK 923 INTER-LIGAND FREE ENERGY PREDICTED BY IDOCK:   -2.00 KCAL/MOL
REMARK 924 INTRA-LIGAND FREE ENERGY PREDICTED BY IDOCK:   -0.04 KCAL/MOL
REMARK 927      BINDING AFFINITY PREDICTED BY RF-SCORE:    0.00 PKD
ROOT
HETATM    1  C   UNL     1     -10.371   5.451  69.717  1.00  0.00    -0.305 C  
HETATM    2  N   UNL     1     -10.076   5.651  71.202  1.00  0.00    -0.196 N  
HETATM    3  C   UNL     1      -8.989   6.703  71.348  1.00  0.00    -0.139 C  
HETATM    4  C   UNL     1      -9.568   4.324  71.771  1.00  0.00    -0.154 C  
ENDROOT
BRANCH   2   5
HETATM    5  C   UNL     1     -11.392   6.099  71.889  1.00  0.00    -0.296 C  
BRANCH   5   6
HETATM    6  C   UNL     1     -11.975   7.424  71.376  1.00  0.00    -0.310 C  
HETATM    7  O   UNL     1     -13.274   7.225  70.831  1.00  0.00    -0.598 OA 
HETATM    8  H   UNL     1     -13.634   8.045  70.513  1.00  0.00     0.000 HD 
ENDBRANCH   5   6
ENDBRANCH   2   5
TORSDOF 2
ENDMDL
MODEL       99
REMARK 921   NORMALIZED FREE ENERGY PREDICTED BY IDOCK:   -1.80 KCAL/MOL
REMARK 922        TOTAL FREE ENERGY PREDICTED BY IDOCK:   -2.04 KCAL/MOL
REMARK 923 INTER-LIGAND FREE ENERGY PREDICTED BY IDOCK:   -2.00 KCAL/MOL
REMARK 924 INTRA-LIGAND FREE ENERGY PREDICTED BY IDOCK:   -0.04 KCAL/MOL
REMARK 927      BINDING AFFINITY PREDICTED BY RF-SCORE:    0.00 PKD
ROOT
HETATM    1  C   UNL     1     -11.660   8.742  71.749  1.00  0.00    -0.346 C  
HETATM    2  N   UNL     1     -10.794   7.775  70.942  1.00  0.00    -0.233 N  
HETATM    3  C   UNL     1     -10.270   8.498  69.712  1.00  0.00    -0.206 C  
HETATM    4  C   UNL     1     -11.674   6.605  70.499  1.00  0.00    -0.394 C  
ENDROOT
BRANCH   2   5
HETATM    5  C   UNL     1      -9.635   7.303  71.857  1.00  0.00    -0.148 C  
BRANCH   5   6
HETATM    6  C   UNL     1      -9.519   8.048  73.196  1.00  0.00    -0.280 C  
HETATM    7  O   UNL     1      -9.715   7.156  74.287  1.00  0.00    -0.388 OA 
HETATM    8  H   UNL     1      -9.643   7.617  75.115  1.00  0.00     0.000 HD 
ENDBRANCH   5   6
ENDBRANCH   2   5
TORSDOF 2
ENDMDL
MODEL      100
REMARK 921   NORMALIZED FREE ENERGY PREDICTED BY IDOCK:   -1.80 KCAL/MOL
REMARK 922        TOTAL FREE ENERGY PREDICTED BY IDOCK:   -2.04 KCAL/MOL
REMARK 923 INTER-LIGAND FREE ENERGY PREDICTED BY IDOCK:   -2.00 KCAL/MOL
REMARK 924 INTRA-LIGAND FREE ENERGY PREDICTED BY IDOCK:   -0.04 KCAL/MOL
REMARK 927      BINDING AFFINITY PREDICTED BY RF-SCORE:    0.00 PKD
ROOT
HETATM    1  C   UNL     1     -11.471  13.559  69.184  1.00  0.00    -0.295 C  
HETATM    2  N   UNL     1     -11.274  14.458  67.965  1.00  0.00    -0.268 N  
HETATM    3  C   UNL     1     -11.606  15.889  68.354  1.00  0.00    -0.315 C  
HETATM    4  C   UNL     1     -12.242  13.999  66.872  1.00  0.00    -0.380 C  
ENDROOT
BRANCH   2   5
HETATM    5  C   UNL     1      -9.798  14.323  67.511  1.00  0.00    -0.231 C  
BRANCH   5   6
HETATM    6  C   UNL     1      -8.964  13.305  68.305  1.00  0.00    -0.176 C  
HETATM    7  O   UNL     1      -7.994  13.966  69.108  1.00  0.00    -0.333 OA 
HETATM    8  H   UNL     1      -7.478  13.337  69.598  1.00  0.00     0.000 HD 
ENDBRANCH   5   6
ENDBRANCH   2   5
TORSDOF 2
ENDMDL
MODEL      101
REMARK 921   NORMALIZED FREE ENERGY PREDICTED BY IDOCK:   -1.78 KCAL/MOL
REMARK 922        TOTAL FREE ENERGY PREDICTED BY IDOCK:   -2.02 KCAL/MOL
REMARK 923 INTER-LIGAND FREE ENERGY PREDICTED BY IDOCK:   -1.99 KCAL/MOL
REMARK 924 INTRA-LIGAND FREE ENERGY PREDICTED BY IDOCK:   -0.04 KCAL/MOL
REMARK 927      BINDING AFFINITY PREDICTED BY RF-SCORE:    0.00 PKD
ROOT
HETATM    1  C   UNL     1      -9.046   7.071  70.481  1.00  0.00    -0.156 C  
HETATM    2  N   UNL     1     -10.390   6.536  69.990  1.00  0.00    -0.190 N  
HETATM    3  C   UNL     1     -10.411   5.027  70.171  1.00  0.00    -0.236 C  
HETATM    4  C   UNL     1     -10.519   6.864  68.502  1.00  0.00    -0.203 C  
ENDROOT
BRANCH   2   5
HETATM    5  C   UNL     1     -11.504   7.220  70.823  1.00  0.00    -0.299 C  
BRANCH   5   6
HETATM    6  C   UNL     1     -11.017   7.958  72.080  1.00  0.00    -0.274 C  
HETATM    7  O   UNL     1     -11.815   7.616  73.206  1.00  0.00    -0.631 OA 
HETATM    8  H   UNL     1     -11.513   8.073  73.983  1.00  0.00     0.000 HD 
ENDBRANCH   5   6
ENDBRANCH   2   5
TORSDOF 2
ENDMDL
MODEL      102
REMARK 921   NORMALIZED FREE ENERGY PREDICTED BY IDOCK:   -1.76 KCAL/MOL
REMARK 922        TOTAL FREE ENERGY PREDICTED BY IDOCK:   -2.00 KCAL/MOL
REMARK 923 INTER-LIGAND FREE ENERGY PREDICTED BY IDOCK:   -1.96 KCAL/MOL
REMARK 924 INTRA-LIGAND FREE ENERGY PREDICTED BY IDOCK:   -0.04 KCAL/MOL
REMARK 927      BINDING AFFINITY PREDICTED BY RF-SCORE:    0.00 PKD
ROOT
HETATM    1  C   UNL     1     -10.847  10.291  69.190  1.00  0.00    -0.233 C  
HETATM    2  N   UNL     1     -10.684  11.587  68.398  1.00  0.00    -0.197 N  
HETATM    3  C   UNL     1     -11.147  11.348  66.970  1.00  0.00    -0.303 C  
HETATM    4  C   UNL     1      -9.199  11.956  68.388  1.00  0.00    -0.173 C  
ENDROOT
BRANCH   2   5
HETATM    5  C   UNL     1     -11.537  12.677  69.094  1.00  0.00    -0.320 C  
BRANCH   5   6
HETATM    6  C   UNL     1     -10.976  14.105  68.994  1.00  0.00    -0.261 C  
HETATM    7  O   UNL     1     -10.743  14.646  70.289  1.00  0.00    -0.471 OA 
HETATM    8  H   UNL     1     -10.397  15.528  70.227  1.00  0.00     0.000 HD 
ENDBRANCH   5   6
ENDBRANCH   2   5
TORSDOF 2
ENDMDL
MODEL      103
REMARK 921   NORMALIZED FREE ENERGY PREDICTED BY IDOCK:   -1.76 KCAL/MOL
REMARK 922        TOTAL FREE ENERGY PREDICTED BY IDOCK:   -2.00 KCAL/MOL
REMARK 923 INTER-LIGAND FREE ENERGY PREDICTED BY IDOCK:   -1.94 KCAL/MOL
REMARK 924 INTRA-LIGAND FREE ENERGY PREDICTED BY IDOCK:   -0.06 KCAL/MOL
REMARK 927      BINDING AFFINITY PREDICTED BY RF-SCORE:    0.00 PKD
ROOT
HETATM    1  C   UNL     1     -10.410  14.485  68.177  1.00  0.00    -0.232 C  
HETATM    2  N   UNL     1     -10.865  13.029  68.259  1.00  0.00    -0.237 N  
HETATM    3  C   UNL     1     -11.729  12.717  67.048  1.00  0.00    -0.374 C  
HETATM    4  C   UNL     1     -11.702  12.862  69.528  1.00  0.00    -0.323 C  
ENDROOT
BRANCH   2   5
HETATM    5  C   UNL     1      -9.596  12.138  68.292  1.00  0.00    -0.210 C  
BRANCH   5   6
HETATM    6  C   UNL     1      -8.981  11.831  66.918  1.00  0.00    -0.195 C  
HETATM    7  O   UNL     1      -7.705  12.445  66.789  1.00  0.00    -0.371 OA 
HETATM    8  H   UNL     1      -7.324  12.256  65.939  1.00  0.00     0.000 HD 
ENDBRANCH   5   6
ENDBRANCH   2   5
TORSDOF 2
ENDMDL
MODEL      104
REMARK 921   NORMALIZED FREE ENERGY PREDICTED BY IDOCK:   -1.76 KCAL/MOL
REMARK 922        TOTAL FREE ENERGY PREDICTED BY IDOCK:   -1.99 KCAL/MOL
REMARK 923 INTER-LIGAND FREE ENERGY PREDICTED BY IDOCK:   -1.92 KCAL/MOL
REMARK 924 INTRA-LIGAND FREE ENERGY PREDICTED BY IDOCK:   -0.07 KCAL/MOL
REMARK 927      BINDING AFFINITY PREDICTED BY RF-SCORE:    0.00 PKD
ROOT
HETATM    1  C   UNL     1     -10.926   7.912  72.585  1.00  0.00    -0.378 C  
HETATM    2  N   UNL     1     -11.723   6.827  71.862  1.00  0.00    -0.295 N  
HETATM    3  C   UNL     1     -13.171   7.276  71.750  1.00  0.00    -0.312 C  
HETATM    4  C   UNL     1     -11.658   5.550  72.701  1.00  0.00    -0.232 C  
ENDROOT
BRANCH   2   5
HETATM    5  C   UNL     1     -11.084   6.623  70.465  1.00  0.00    -0.307 C  
BRANCH   5   6
HETATM    6  C   UNL     1     -10.228   5.355  70.320  1.00  0.00    -0.267 C  
HETATM    7  O   UNL     1      -8.856   5.645  70.554  1.00  0.00    -0.134 OA 
HETATM    8  H   UNL     1      -8.326   4.861  70.463  1.00  0.00     0.000 HD 
ENDBRANCH   5   6
ENDBRANCH   2   5
TORSDOF 2
ENDMDL
MODEL      105
REMARK 921   NORMALIZED FREE ENERGY PREDICTED BY IDOCK:   -1.74 KCAL/MOL
REMARK 922        TOTAL FREE ENERGY PREDICTED BY IDOCK:   -1.98 KCAL/MOL
REMARK 923 INTER-LIGAND FREE ENERGY PREDICTED BY IDOCK:   -2.04 KCAL/MOL
REMARK 924 INTRA-LIGAND FREE ENERGY PREDICTED BY IDOCK:    0.06 KCAL/MOL
REMARK 927      BINDING AFFINITY PREDICTED BY RF-SCORE:    0.00 PKD
ROOT
HETATM    1  C   UNL     1      -8.811   7.665  69.484  1.00  0.00    -0.139 C  
HETATM    2  N   UNL     1     -10.309   7.937  69.361  1.00  0.00    -0.217 N  
HETATM    3  C   UNL     1     -10.777   8.668  70.609  1.00  0.00    -0.222 C  
HETATM    4  C   UNL     1     -11.032   6.592  69.267  1.00  0.00    -0.295 C  
ENDROOT
BRANCH   2   5
HETATM    5  C   UNL     1     -10.531   8.793  68.088  1.00  0.00    -0.191 C  
BRANCH   5   6
HETATM    6  C   UNL     1     -10.577  10.311  68.325  1.00  0.00    -0.221 C  
HETATM    7  O   UNL     1     -11.921  10.772  68.381  1.00  0.00    -0.752 OA 
HETATM    8  H   UNL     1     -11.950  11.710  68.527  1.00  0.00     0.000 HD 
ENDBRANCH   5   6
ENDBRANCH   2   5
TORSDOF 2
ENDMDL
MODEL      106
REMARK 921   NORMALIZED FREE ENERGY PREDICTED BY IDOCK:   -1.73 KCAL/MOL
REMARK 922        TOTAL FREE ENERGY PREDICTED BY IDOCK:   -1.97 KCAL/MOL
REMARK 923 INTER-LIGAND FREE ENERGY PREDICTED BY IDOCK:   -1.91 KCAL/MOL
REMARK 924 INTRA-LIGAND FREE ENERGY PREDICTED BY IDOCK:   -0.05 KCAL/MOL
REMARK 927      BINDING AFFINITY PREDICTED BY RF-SCORE:    0.00 PKD
ROOT
HETATM    1  C   UNL     1      -7.284  20.003  65.553  1.00  0.00    -0.282 C  
HETATM    2  N   UNL     1      -6.739  19.258  66.770  1.00  0.00    -0.196 N  
HETATM    3  C   UNL     1      -7.434  19.781  68.017  1.00  0.00    -0.294 C  
HETATM    4  C   UNL     1      -5.240  19.546  66.874  1.00  0.00    -0.161 C  
ENDROOT
BRANCH   2   5
HETATM    5  C   UNL     1      -7.015  17.747  66.562  1.00  0.00    -0.230 C  
BRANCH   5   6
HETATM    6  C   UNL     1      -8.448  17.296  66.888  1.00  0.00    -0.226 C  
HETATM    7  O   UNL     1      -9.130  16.895  65.707  1.00  0.00    -0.523 OA 
HETATM    8  H   UNL     1     -10.016  16.616  65.909  1.00  0.00     0.000 HD 
ENDBRANCH   5   6
ENDBRANCH   2   5
TORSDOF 2
ENDMDL
MODEL      107
REMARK 921   NORMALIZED FREE ENERGY PREDICTED BY IDOCK:   -1.72 KCAL/MOL
REMARK 922        TOTAL FREE ENERGY PREDICTED BY IDOCK:   -1.95 KCAL/MOL
REMARK 923 INTER-LIGAND FREE ENERGY PREDICTED BY IDOCK:   -1.91 KCAL/MOL
REMARK 924 INTRA-LIGAND FREE ENERGY PREDICTED BY IDOCK:   -0.04 KCAL/MOL
REMARK 927      BINDING AFFINITY PREDICTED BY RF-SCORE:    0.00 PKD
ROOT
HETATM    1  C   UNL     1      -8.684  15.531  66.538  1.00  0.00    -0.305 C  
HETATM    2  N   UNL     1      -8.289  16.913  67.055  1.00  0.00    -0.189 N  
HETATM    3  C   UNL     1      -7.363  17.568  66.044  1.00  0.00    -0.253 C  
HETATM    4  C   UNL     1      -7.539  16.730  68.376  1.00  0.00    -0.205 C  
ENDROOT
BRANCH   2   5
HETATM    5  C   UNL     1      -9.589  17.734  67.248  1.00  0.00    -0.272 C  
BRANCH   5   6
HETATM    6  C   UNL     1      -9.968  18.020  68.710  1.00  0.00    -0.374 C  
HETATM    7  O   UNL     1     -10.852  17.022  69.205  1.00  0.00    -0.310 OA 
HETATM    8  H   UNL     1     -11.086  17.198  70.109  1.00  0.00     0.000 HD 
ENDBRANCH   5   6
ENDBRANCH   2   5
TORSDOF 2
ENDMDL
MODEL      108
REMARK 921   NORMALIZED FREE ENERGY PREDICTED BY IDOCK:   -1.70 KCAL/MOL
REMARK 922        TOTAL FREE ENERGY PREDICTED BY IDOCK:   -1.94 KCAL/MOL
REMARK 923 INTER-LIGAND FREE ENERGY PREDICTED BY IDOCK:   -1.90 KCAL/MOL
REMARK 924 INTRA-LIGAND FREE ENERGY PREDICTED BY IDOCK:   -0.04 KCAL/MOL
REMARK 927      BINDING AFFINITY PREDICTED BY RF-SCORE:    0.00 PKD
ROOT
HETATM    1  C   UNL     1      -9.458  14.261  68.729  1.00  0.00    -0.131 C  
HETATM    2  N   UNL     1     -10.470  15.347  68.368  1.00  0.00    -0.235 N  
HETATM    3  C   UNL     1     -10.401  15.601  66.871  1.00  0.00    -0.293 C  
HETATM    4  C   UNL     1     -10.082  16.627  69.111  1.00  0.00    -0.285 C  
ENDROOT
BRANCH   2   5
HETATM    5  C   UNL     1     -11.874  14.846  68.792  1.00  0.00    -0.296 C  
BRANCH   5   6
HETATM    6  C   UNL     1     -11.876  13.571  69.652  1.00  0.00    -0.336 C  
HETATM    7  O   UNL     1     -12.699  13.739  70.799  1.00  0.00    -0.322 OA 
HETATM    8  H   UNL     1     -12.700  12.952  71.331  1.00  0.00     0.000 HD 
ENDBRANCH   5   6
ENDBRANCH   2   5
TORSDOF 2
ENDMDL
MODEL      109
REMARK 921   NORMALIZED FREE ENERGY PREDICTED BY IDOCK:   -1.69 KCAL/MOL
REMARK 922        TOTAL FREE ENERGY PREDICTED BY IDOCK:   -1.92 KCAL/MOL
REMARK 923 INTER-LIGAND FREE ENERGY PREDICTED BY IDOCK:   -1.85 KCAL/MOL
REMARK 924 INTRA-LIGAND FREE ENERGY PREDICTED BY IDOCK:   -0.07 KCAL/MOL
REMARK 927      BINDING AFFINITY PREDICTED BY RF-SCORE:    0.00 PKD
ROOT
HETATM    1  C   UNL     1     -10.493  16.082  66.473  1.00  0.00    -0.302 C  
HETATM    2  N   UNL     1      -9.884  15.317  67.647  1.00  0.00    -0.217 N  
HETATM    3  C   UNL     1     -10.988  14.552  68.359  1.00  0.00    -0.245 C  
HETATM    4  C   UNL     1      -9.277  16.335  68.615  1.00  0.00    -0.227 C  
ENDROOT
BRANCH   2   5
HETATM    5  C   UNL     1      -8.807  14.358  67.079  1.00  0.00    -0.237 C  
BRANCH   5   6
HETATM    6  C   UNL     1      -9.236  12.886  66.976  1.00  0.00    -0.226 C  
HETATM    7  O   UNL     1      -9.538  12.542  65.630  1.00  0.00    -0.398 OA 
HETATM    8  H   UNL     1      -9.804  11.632  65.566  1.00  0.00     0.000 HD 
ENDBRANCH   5   6
ENDBRANCH   2   5
TORSDOF 2
ENDMDL
MODEL      110
REMARK 921   NORMALIZED FREE ENERGY PREDICTED BY IDOCK:   -1.69 KCAL/MOL
REMARK 922        TOTAL FREE ENERGY PREDICTED BY IDOCK:   -1.92 KCAL/MOL
REMARK 923 INTER-LIGAND FREE ENERGY PREDICTED BY IDOCK:   -1.89 KCAL/MOL
REMARK 924 INTRA-LIGAND FREE ENERGY PREDICTED BY IDOCK:   -0.04 KCAL/MOL
REMARK 927      BINDING AFFINITY PREDICTED BY RF-SCORE:    0.00 PKD
ROOT
HETATM    1  C   UNL     1     -10.270  16.192  66.826  1.00  0.00    -0.281 C  
HETATM    2  N   UNL     1     -10.321  16.440  68.332  1.00  0.00    -0.268 N  
HETATM    3  C   UNL     1     -11.636  15.904  68.873  1.00  0.00    -0.388 C  
HETATM    4  C   UNL     1     -10.261  17.951  68.569  1.00  0.00    -0.390 C  
ENDROOT
BRANCH   2   5
HETATM    5  C   UNL     1      -9.109  15.715  68.972  1.00  0.00    -0.241 C  
BRANCH   5   6
HETATM    6  C   UNL     1      -8.730  14.378  68.315  1.00  0.00    -0.180 C  
HETATM    7  O   UNL     1      -7.396  14.418  67.825  1.00  0.00    -0.138 OA 
HETATM    8  H   UNL     1      -7.162  13.592  67.418  1.00  0.00     0.000 HD 
ENDBRANCH   5   6
ENDBRANCH   2   5
TORSDOF 2
ENDMDL
MODEL      111
REMARK 921   NORMALIZED FREE ENERGY PREDICTED BY IDOCK:   -1.69 KCAL/MOL
REMARK 922        TOTAL FREE ENERGY PREDICTED BY IDOCK:   -1.91 KCAL/MOL
REMARK 923 INTER-LIGAND FREE ENERGY PREDICTED BY IDOCK:   -1.88 KCAL/MOL
REMARK 924 INTRA-LIGAND FREE ENERGY PREDICTED BY IDOCK:   -0.03 KCAL/MOL
REMARK 927      BINDING AFFINITY PREDICTED BY RF-SCORE:    0.00 PKD
ROOT
HETATM    1  C   UNL     1      -9.378   3.628  72.431  1.00  0.00    -0.119 C  
HETATM    2  N   UNL     1      -9.894   5.058  72.279  1.00  0.00    -0.161 N  
HETATM    3  C   UNL     1      -8.823   6.020  72.766  1.00  0.00    -0.123 C  
HETATM    4  C   UNL     1     -11.139   5.211  73.155  1.00  0.00    -0.326 C  
ENDROOT
BRANCH   2   5
HETATM    5  C   UNL     1     -10.220   5.287  70.781  1.00  0.00    -0.246 C  
BRANCH   5   6
HETATM    6  C   UNL     1     -10.710   6.701  70.430  1.00  0.00    -0.250 C  
HETATM    7  O   UNL     1     -11.844   6.643  69.575  1.00  0.00    -0.658 OA 
HETATM    8  H   UNL     1     -12.146   7.518  69.358  1.00  0.00     0.000 HD 
ENDBRANCH   5   6
ENDBRANCH   2   5
TORSDOF 2
ENDMDL
MODEL      112
REMARK 921   NORMALIZED FREE ENERGY PREDICTED BY IDOCK:   -1.66 KCAL/MOL
REMARK 922        TOTAL FREE ENERGY PREDICTED BY IDOCK:   -1.89 KCAL/MOL
REMARK 923 INTER-LIGAND FREE ENERGY PREDICTED BY IDOCK:   -1.87 KCAL/MOL
REMARK 924 INTRA-LIGAND FREE ENERGY PREDICTED BY IDOCK:   -0.02 KCAL/MOL
REMARK 927      BINDING AFFINITY PREDICTED BY RF-SCORE:    0.00 PKD
ROOT
HETATM    1  C   UNL     1      -9.298  10.937  66.466  1.00  0.00    -0.173 C  
HETATM    2  N   UNL     1     -10.059  12.254  66.319  1.00  0.00    -0.229 N  
HETATM    3  C   UNL     1     -11.362  12.155  67.095  1.00  0.00    -0.331 C  
HETATM    4  C   UNL     1     -10.374  12.459  64.836  1.00  0.00    -0.293 C  
ENDROOT
BRANCH   2   5
HETATM    5  C   UNL     1      -9.155  13.386  66.871  1.00  0.00    -0.231 C  
BRANCH   5   6
HETATM    6  C   UNL     1      -7.938  12.910  67.680  1.00  0.00    -0.167 C  
HETATM    7  O   UNL     1      -6.730  13.190  66.982  1.00  0.00    -0.443 OA 
HETATM    8  H   UNL     1      -5.978  12.895  67.482  1.00  0.00     0.000 HD 
ENDBRANCH   5   6
ENDBRANCH   2   5
TORSDOF 2
ENDMDL
MODEL      113
REMARK 921   NORMALIZED FREE ENERGY PREDICTED BY IDOCK:   -1.61 KCAL/MOL
REMARK 922        TOTAL FREE ENERGY PREDICTED BY IDOCK:   -1.83 KCAL/MOL
REMARK 923 INTER-LIGAND FREE ENERGY PREDICTED BY IDOCK:   -1.79 KCAL/MOL
REMARK 924 INTRA-LIGAND FREE ENERGY PREDICTED BY IDOCK:   -0.04 KCAL/MOL
REMARK 927      BINDING AFFINITY PREDICTED BY RF-SCORE:    0.00 PKD
ROOT
HETATM    1  C   UNL     1      -8.644   8.276  67.840  1.00  0.00    -0.132 C  
HETATM    2  N   UNL     1     -10.012   8.619  67.254  1.00  0.00    -0.198 N  
HETATM    3  C   UNL     1     -10.763   9.496  68.243  1.00  0.00    -0.194 C  
HETATM    4  C   UNL     1     -10.786   7.314  67.055  1.00  0.00    -0.336 C  
ENDROOT
BRANCH   2   5
HETATM    5  C   UNL     1      -9.780   9.354  65.909  1.00  0.00    -0.285 C  
BRANCH   5   6
HETATM    6  C   UNL     1     -10.148  10.847  65.912  1.00  0.00    -0.252 C  
HETATM    7  O   UNL     1      -9.069  11.632  65.421  1.00  0.00    -0.390 OA 
HETATM    8  H   UNL     1      -9.296  12.555  65.423  1.00  0.00     0.000 HD 
ENDBRANCH   5   6
ENDBRANCH   2   5
TORSDOF 2
ENDMDL
MODEL      114
REMARK 921   NORMALIZED FREE ENERGY PREDICTED BY IDOCK:   -1.60 KCAL/MOL
REMARK 922        TOTAL FREE ENERGY PREDICTED BY IDOCK:   -1.82 KCAL/MOL
REMARK 923 INTER-LIGAND FREE ENERGY PREDICTED BY IDOCK:   -1.77 KCAL/MOL
REMARK 924 INTRA-LIGAND FREE ENERGY PREDICTED BY IDOCK:   -0.04 KCAL/MOL
REMARK 927      BINDING AFFINITY PREDICTED BY RF-SCORE:    0.00 PKD
ROOT
HETATM    1  C   UNL     1     -11.988  10.301  68.811  1.00  0.00     0.347 C  
HETATM    2  N   UNL     1     -11.774  10.217  70.321  1.00  0.00    -0.287 N  
HETATM    3  C   UNL     1     -12.105  11.567  70.938  1.00  0.00    -0.247 C  
HETATM    4  C   UNL     1     -10.299   9.899  70.577  1.00  0.00    -0.232 C  
ENDROOT
BRANCH   2   5
HETATM    5  C   UNL     1     -12.700   9.102  70.869  1.00  0.00    -0.026 C  
BRANCH   5   6
HETATM    6  C   UNL     1     -13.758   9.574  71.879  1.00  0.00    -0.333 C  
HETATM    7  O   UNL     1     -13.625   8.875  73.111  1.00  0.00    -0.997 OA 
HETATM    8  H   UNL     1     -14.280   9.166  73.735  1.00  0.00     0.000 HD 
ENDBRANCH   5   6
ENDBRANCH   2   5
TORSDOF 2
ENDMDL
MODEL      115
REMARK 921   NORMALIZED FREE ENERGY PREDICTED BY IDOCK:   -1.59 KCAL/MOL
REMARK 922        TOTAL FREE ENERGY PREDICTED BY IDOCK:   -1.81 KCAL/MOL
REMARK 923 INTER-LIGAND FREE ENERGY PREDICTED BY IDOCK:   -1.75 KCAL/MOL
REMARK 924 INTRA-LIGAND FREE ENERGY PREDICTED BY IDOCK:   -0.06 KCAL/MOL
REMARK 927      BINDING AFFINITY PREDICTED BY RF-SCORE:    0.00 PKD
ROOT
HETATM    1  C   UNL     1     -11.628  10.863  68.298  1.00  0.00    -0.262 C  
HETATM    2  N   UNL     1     -10.538  10.975  67.233  1.00  0.00    -0.231 N  
HETATM    3  C   UNL     1     -11.011  11.925  66.146  1.00  0.00    -0.308 C  
HETATM    4  C   UNL     1     -10.320   9.588  66.626  1.00  0.00    -0.210 C  
ENDROOT
BRANCH   2   5
HETATM    5  C   UNL     1      -9.254  11.502  67.925  1.00  0.00    -0.168 C  
BRANCH   5   6
HETATM    6  C   UNL     1      -8.547  12.654  67.193  1.00  0.00    -0.199 C  
HETATM    7  O   UNL     1      -7.355  12.196  66.568  1.00  0.00    -0.372 OA 
HETATM    8  H   UNL     1      -6.917  12.908  66.116  1.00  0.00     0.000 HD 
ENDBRANCH   5   6
ENDBRANCH   2   5
TORSDOF 2
ENDMDL
MODEL      116
REMARK 921   NORMALIZED FREE ENERGY PREDICTED BY IDOCK:   -1.58 KCAL/MOL
REMARK 922        TOTAL FREE ENERGY PREDICTED BY IDOCK:   -1.80 KCAL/MOL
REMARK 923 INTER-LIGAND FREE ENERGY PREDICTED BY IDOCK:   -1.76 KCAL/MOL
REMARK 924 INTRA-LIGAND FREE ENERGY PREDICTED BY IDOCK:   -0.04 KCAL/MOL
REMARK 927      BINDING AFFINITY PREDICTED BY RF-SCORE:    0.00 PKD
ROOT
HETATM    1  C   UNL     1      -8.672   5.947  69.317  1.00  0.00    -0.119 C  
HETATM    2  N   UNL     1      -8.735   7.421  68.918  1.00  0.00    -0.132 N  
HETATM    3  C   UNL     1      -7.740   7.667  67.796  1.00  0.00    -0.122 C  
HETATM    4  C   UNL     1      -8.336   8.261  70.134  1.00  0.00    -0.124 C  
ENDROOT
BRANCH   2   5
HETATM    5  C   UNL     1     -10.185   7.726  68.465  1.00  0.00    -0.204 C  
BRANCH   5   6
HETATM    6  C   UNL     1     -10.510   7.336  67.015  1.00  0.00    -0.328 C  
HETATM    7  O   UNL     1     -11.638   6.472  66.966  1.00  0.00    -0.729 OA 
HETATM    8  H   UNL     1     -11.838   6.230  66.069  1.00  0.00     0.000 HD 
ENDBRANCH   5   6
ENDBRANCH   2   5
TORSDOF 2
ENDMDL
MODEL      117
REMARK 921   NORMALIZED FREE ENERGY PREDICTED BY IDOCK:   -1.58 KCAL/MOL
REMARK 922        TOTAL FREE ENERGY PREDICTED BY IDOCK:   -1.79 KCAL/MOL
REMARK 923 INTER-LIGAND FREE ENERGY PREDICTED BY IDOCK:   -1.75 KCAL/MOL
REMARK 924 INTRA-LIGAND FREE ENERGY PREDICTED BY IDOCK:   -0.04 KCAL/MOL
REMARK 927      BINDING AFFINITY PREDICTED BY RF-SCORE:    0.00 PKD
ROOT
HETATM    1  C   UNL     1     -10.424   7.402  72.671  1.00  0.00    -0.255 C  
HETATM    2  N   UNL     1     -11.289   6.321  72.025  1.00  0.00    -0.285 N  
HETATM    3  C   UNL     1     -10.595   5.825  70.767  1.00  0.00    -0.269 C  
HETATM    4  C   UNL     1     -12.630   6.950  71.641  1.00  0.00    -0.367 C  
ENDROOT
BRANCH   2   5
HETATM    5  C   UNL     1     -11.470   5.179  73.058  1.00  0.00    -0.274 C  
BRANCH   5   6
HETATM    6  C   UNL     1     -10.183   4.741  73.774  1.00  0.00    -0.194 C  
HETATM    7  O   UNL     1      -9.970   3.344  73.616  1.00  0.00    -0.106 OA 
HETATM    8  H   UNL     1      -9.175   3.072  74.059  1.00  0.00     0.000 HD 
ENDBRANCH   5   6
ENDBRANCH   2   5
TORSDOF 2
ENDMDL
MODEL      118
REMARK 921   NORMALIZED FREE ENERGY PREDICTED BY IDOCK:   -1.57 KCAL/MOL
REMARK 922        TOTAL FREE ENERGY PREDICTED BY IDOCK:   -1.78 KCAL/MOL
REMARK 923 INTER-LIGAND FREE ENERGY PREDICTED BY IDOCK:   -1.77 KCAL/MOL
REMARK 924 INTRA-LIGAND FREE ENERGY PREDICTED BY IDOCK:   -0.01 KCAL/MOL
REMARK 927      BINDING AFFINITY PREDICTED BY RF-SCORE:    0.00 PKD
ROOT
HETATM    1  C   UNL     1     -10.975  11.575  66.601  1.00  0.00    -0.296 C  
HETATM    2  N   UNL     1     -10.042  10.418  66.245  1.00  0.00    -0.224 N  
HETATM    3  C   UNL     1      -8.638  10.758  66.719  1.00  0.00    -0.136 C  
HETATM    4  C   UNL     1     -10.033  10.265  64.723  1.00  0.00    -0.321 C  
ENDROOT
BRANCH   2   5
HETATM    5  C   UNL     1     -10.582   9.143  66.943  1.00  0.00    -0.167 C  
BRANCH   5   6
HETATM    6  C   UNL     1     -10.513   9.164  68.478  1.00  0.00    -0.204 C  
HETATM    7  O   UNL     1     -10.944   7.921  69.018  1.00  0.00    -0.423 OA 
HETATM    8  H   UNL     1     -10.902   7.933  69.967  1.00  0.00     0.000 HD 
ENDBRANCH   5   6
ENDBRANCH   2   5
TORSDOF 2
ENDMDL
MODEL      119
REMARK 921   NORMALIZED FREE ENERGY PREDICTED BY IDOCK:   -1.57 KCAL/MOL
REMARK 922        TOTAL FREE ENERGY PREDICTED BY IDOCK:   -1.78 KCAL/MOL
REMARK 923 INTER-LIGAND FREE ENERGY PREDICTED BY IDOCK:   -1.74 KCAL/MOL
REMARK 924 INTRA-LIGAND FREE ENERGY PREDICTED BY IDOCK:   -0.04 KCAL/MOL
REMARK 927      BINDING AFFINITY PREDICTED BY RF-SCORE:    0.00 PKD
ROOT
HETATM    1  C   UNL     1     -11.594  12.145  69.400  1.00  0.00    -0.317 C  
HETATM    2  N   UNL     1     -10.475  11.724  68.449  1.00  0.00    -0.208 N  
HETATM    3  C   UNL     1      -9.690  12.959  68.040  1.00  0.00    -0.224 C  
HETATM    4  C   UNL     1     -11.115  11.103  67.206  1.00  0.00    -0.302 C  
ENDROOT
BRANCH   2   5
HETATM    5  C   UNL     1      -9.577  10.705  69.197  1.00  0.00    -0.177 C  
BRANCH   5   6
HETATM    6  C   UNL     1      -8.089  10.748  68.816  1.00  0.00    -0.143 C  
HETATM    7  O   UNL     1      -7.282  10.970  69.966  1.00  0.00    -0.370 OA 
HETATM    8  H   UNL     1      -6.361  10.997  69.730  1.00  0.00     0.000 HD 
ENDBRANCH   5   6
ENDBRANCH   2   5
TORSDOF 2
ENDMDL
MODEL      120
REMARK 921   NORMALIZED FREE ENERGY PREDICTED BY IDOCK:   -1.56 KCAL/MOL
REMARK 922        TOTAL FREE ENERGY PREDICTED BY IDOCK:   -1.77 KCAL/MOL
REMARK 923 INTER-LIGAND FREE ENERGY PREDICTED BY IDOCK:   -1.76 KCAL/MOL
REMARK 924 INTRA-LIGAND FREE ENERGY PREDICTED BY IDOCK:   -0.01 KCAL/MOL
REMARK 927      BINDING AFFINITY PREDICTED BY RF-SCORE:    0.00 PKD
ROOT
HETATM    1  C   UNL     1     -11.367  10.404  70.046  1.00  0.00    -0.313 C  
HETATM    2  N   UNL     1     -10.209  10.224  69.065  1.00  0.00    -0.197 N  
HETATM    3  C   UNL     1      -8.976   9.788  69.840  1.00  0.00    -0.229 C  
HETATM    4  C   UNL     1      -9.933  11.574  68.401  1.00  0.00    -0.206 C  
ENDROOT
BRANCH   2   5
HETATM    5  C   UNL     1     -10.632   9.154  68.026  1.00  0.00    -0.197 C  
BRANCH   5   6
HETATM    6  C   UNL     1      -9.473   8.512  67.246  1.00  0.00    -0.157 C  
HETATM    7  O   UNL     1      -9.964   7.760  66.143  1.00  0.00    -0.463 OA 
HETATM    8  H   UNL     1      -9.248   7.363  65.661  1.00  0.00     0.000 HD 
ENDBRANCH   5   6
ENDBRANCH   2   5
TORSDOF 2
ENDMDL
MODEL      121
REMARK 921   NORMALIZED FREE ENERGY PREDICTED BY IDOCK:   -1.56 KCAL/MOL
REMARK 922        TOTAL FREE ENERGY PREDICTED BY IDOCK:   -1.77 KCAL/MOL
REMARK 923 INTER-LIGAND FREE ENERGY PREDICTED BY IDOCK:   -1.73 KCAL/MOL
REMARK 924 INTRA-LIGAND FREE ENERGY PREDICTED BY IDOCK:   -0.04 KCAL/MOL
REMARK 927      BINDING AFFINITY PREDICTED BY RF-SCORE:    0.00 PKD
ROOT
HETATM    1  C   UNL     1      -8.813   6.601  68.388  1.00  0.00    -0.121 C  
HETATM    2  N   UNL     1     -10.124   5.831  68.234  1.00  0.00    -0.153 N  
HETATM    3  C   UNL     1     -10.985   6.533  67.196  1.00  0.00    -0.408 C  
HETATM    4  C   UNL     1     -10.849   5.849  69.581  1.00  0.00    -0.374 C  
ENDROOT
BRANCH   2   5
HETATM    5  C   UNL     1      -9.775   4.386  67.794  1.00  0.00    -0.137 C  
BRANCH   5   6
HETATM    6  C   UNL     1      -9.169   4.263  66.387  1.00  0.00    -0.147 C  
HETATM    7  O   UNL     1      -9.990   3.452  65.555  1.00  0.00    -0.388 OA 
HETATM    8  H   UNL     1      -9.615   3.376  64.685  1.00  0.00     0.000 HD 
ENDBRANCH   5   6
ENDBRANCH   2   5
TORSDOF 2
ENDMDL
MODEL      122
REMARK 921   NORMALIZED FREE ENERGY PREDICTED BY IDOCK:   -1.55 KCAL/MOL
REMARK 922        TOTAL FREE ENERGY PREDICTED BY IDOCK:   -1.76 KCAL/MOL
REMARK 923 INTER-LIGAND FREE ENERGY PREDICTED BY IDOCK:   -1.70 KCAL/MOL
REMARK 924 INTRA-LIGAND FREE ENERGY PREDICTED BY IDOCK:   -0.07 KCAL/MOL
REMARK 927      BINDING AFFINITY PREDICTED BY RF-SCORE:    0.00 PKD
ROOT
HETATM    1  C   UNL     1     -11.404   6.266  69.699  1.00  0.00    -0.422 C  
HETATM    2  N   UNL     1     -11.071   6.954  71.022  1.00  0.00    -0.254 N  
HETATM    3  C   UNL     1     -11.754   6.199  72.151  1.00  0.00    -0.309 C  
HETATM    4  C   UNL     1     -11.621   8.380  70.970  1.00  0.00    -0.275 C  
ENDROOT
BRANCH   2   5
HETATM    5  C   UNL     1      -9.530   6.943  71.186  1.00  0.00    -0.166 C  
BRANCH   5   6
HETATM    6  C   UNL     1      -8.739   6.725  69.886  1.00  0.00    -0.141 C  
HETATM    7  O   UNL     1      -8.365   7.970  69.309  1.00  0.00    -0.130 OA 
HETATM    8  H   UNL     1      -7.877   7.835  68.505  1.00  0.00     0.000 HD 
ENDBRANCH   5   6
ENDBRANCH   2   5
TORSDOF 2
ENDMDL
MODEL      123
REMARK 921   NORMALIZED FREE ENERGY PREDICTED BY IDOCK:   -1.54 KCAL/MOL
REMARK 922        TOTAL FREE ENERGY PREDICTED BY IDOCK:   -1.75 KCAL/MOL
REMARK 923 INTER-LIGAND FREE ENERGY PREDICTED BY IDOCK:   -1.72 KCAL/MOL
REMARK 924 INTRA-LIGAND FREE ENERGY PREDICTED BY IDOCK:   -0.03 KCAL/MOL
REMARK 927      BINDING AFFINITY PREDICTED BY RF-SCORE:    0.00 PKD
ROOT
HETATM    1  C   UNL     1      -9.514  11.195  68.331  1.00  0.00    -0.189 C  
HETATM    2  N   UNL     1      -9.050  11.489  66.905  1.00  0.00    -0.174 N  
HETATM    3  C   UNL     1      -9.784  10.561  65.951  1.00  0.00    -0.217 C  
HETATM    4  C   UNL     1      -7.549  11.204  66.824  1.00  0.00    -0.146 C  
ENDROOT
BRANCH   2   5
HETATM    5  C   UNL     1      -9.365  12.976  66.602  1.00  0.00    -0.241 C  
BRANCH   5   6
HETATM    6  C   UNL     1     -10.502  13.208  65.595  1.00  0.00    -0.282 C  
HETATM    7  O   UNL     1     -10.178  14.270  64.706  1.00  0.00    -0.471 OA 
HETATM    8  H   UNL     1     -10.882  14.413  64.083  1.00  0.00     0.000 HD 
ENDBRANCH   5   6
ENDBRANCH   2   5
TORSDOF 2
ENDMDL
MODEL      124
REMARK 921   NORMALIZED FREE ENERGY PREDICTED BY IDOCK:   -1.53 KCAL/MOL
REMARK 922        TOTAL FREE ENERGY PREDICTED BY IDOCK:   -1.75 KCAL/MOL
REMARK 923 INTER-LIGAND FREE ENERGY PREDICTED BY IDOCK:   -1.69 KCAL/MOL
REMARK 924 INTRA-LIGAND FREE ENERGY PREDICTED BY IDOCK:   -0.05 KCAL/MOL
REMARK 927      BINDING AFFINITY PREDICTED BY RF-SCORE:    0.00 PKD
ROOT
HETATM    1  C   UNL     1     -10.768   8.087  72.736  1.00  0.00    -0.362 C  
HETATM    2  N   UNL     1     -10.401   7.102  71.627  1.00  0.00    -0.198 N  
HETATM    3  C   UNL     1     -11.070   7.547  70.337  1.00  0.00    -0.261 C  
HETATM    4  C   UNL     1     -10.936   5.723  72.019  1.00  0.00    -0.260 C  
ENDROOT
BRANCH   2   5
HETATM    5  C   UNL     1      -8.857   7.097  71.491  1.00  0.00    -0.127 C  
BRANCH   5   6
HETATM    6  C   UNL     1      -8.134   8.228  72.240  1.00  0.00    -0.149 C  
HETATM    7  O   UNL     1      -7.808   9.291  71.353  1.00  0.00    -0.335 OA 
HETATM    8  H   UNL     1      -7.361   9.990  71.817  1.00  0.00     0.000 HD 
ENDBRANCH   5   6
ENDBRANCH   2   5
TORSDOF 2
ENDMDL
MODEL      125
REMARK 921   NORMALIZED FREE ENERGY PREDICTED BY IDOCK:   -1.53 KCAL/MOL
REMARK 922        TOTAL FREE ENERGY PREDICTED BY IDOCK:   -1.74 KCAL/MOL
REMARK 923 INTER-LIGAND FREE ENERGY PREDICTED BY IDOCK:   -1.69 KCAL/MOL
REMARK 924 INTRA-LIGAND FREE ENERGY PREDICTED BY IDOCK:   -0.05 KCAL/MOL
REMARK 927      BINDING AFFINITY PREDICTED BY RF-SCORE:    0.00 PKD
ROOT
HETATM    1  C   UNL     1      -8.355  13.401  68.060  1.00  0.00    -0.165 C  
HETATM    2  N   UNL     1      -9.833  13.223  67.716  1.00  0.00    -0.218 N  
HETATM    3  C   UNL     1     -10.364  12.005  68.455  1.00  0.00    -0.217 C  
HETATM    4  C   UNL     1      -9.947  12.983  66.210  1.00  0.00    -0.283 C  
ENDROOT
BRANCH   2   5
HETATM    5  C   UNL     1     -10.577  14.513  68.145  1.00  0.00    -0.238 C  
BRANCH   5   6
HETATM    6  C   UNL     1     -11.279  15.268  67.005  1.00  0.00    -0.275 C  
HETATM    7  O   UNL     1     -10.523  16.409  66.616  1.00  0.00    -0.295 OA 
HETATM    8  H   UNL     1     -10.957  16.876  65.912  1.00  0.00     0.000 HD 
ENDBRANCH   5   6
ENDBRANCH   2   5
TORSDOF 2
ENDMDL
MODEL      126
REMARK 921   NORMALIZED FREE ENERGY PREDICTED BY IDOCK:   -1.52 KCAL/MOL
REMARK 922        TOTAL FREE ENERGY PREDICTED BY IDOCK:   -1.73 KCAL/MOL
REMARK 923 INTER-LIGAND FREE ENERGY PREDICTED BY IDOCK:   -1.71 KCAL/MOL
REMARK 924 INTRA-LIGAND FREE ENERGY PREDICTED BY IDOCK:   -0.03 KCAL/MOL
REMARK 927      BINDING AFFINITY PREDICTED BY RF-SCORE:    0.00 PKD
ROOT
HETATM    1  C   UNL     1      -8.575   5.974  66.106  1.00  0.00    -0.142 C  
HETATM    2  N   UNL     1      -9.833   5.335  66.691  1.00  0.00    -0.161 N  
HETATM    3  C   UNL     1      -9.422   4.325  67.750  1.00  0.00    -0.168 C  
HETATM    4  C   UNL     1     -10.567   4.607  65.563  1.00  0.00    -0.172 C  
ENDROOT
BRANCH   2   5
HETATM    5  C   UNL     1     -10.701   6.468  67.297  1.00  0.00    -0.356 C  
BRANCH   5   6
HETATM    6  C   UNL     1     -10.365   6.838  68.750  1.00  0.00    -0.196 C  
HETATM    7  O   UNL     1     -11.546   7.158  69.474  1.00  0.00    -0.512 OA 
HETATM    8  H   UNL     1     -11.339   7.387  70.373  1.00  0.00     0.000 HD 
ENDBRANCH   5   6
ENDBRANCH   2   5
TORSDOF 2
ENDMDL
MODEL      127
REMARK 921   NORMALIZED FREE ENERGY PREDICTED BY IDOCK:   -1.51 KCAL/MOL
REMARK 922        TOTAL FREE ENERGY PREDICTED BY IDOCK:   -1.72 KCAL/MOL
REMARK 923 INTER-LIGAND FREE ENERGY PREDICTED BY IDOCK:   -1.64 KCAL/MOL
REMARK 924 INTRA-LIGAND FREE ENERGY PREDICTED BY IDOCK:   -0.07 KCAL/MOL
REMARK 927      BINDING AFFINITY PREDICTED BY RF-SCORE:    0.00 PKD
ROOT
HETATM    1  C   UNL     1      -8.856   5.971  70.558  1.00  0.00    -0.145 C  
HETATM    2  N   UNL     1      -9.442   7.379  70.475  1.00  0.00    -0.162 N  
HETATM    3  C   UNL     1      -9.095   7.975  69.120  1.00  0.00    -0.145 C  
HETATM    4  C   UNL     1      -8.801   8.228  71.574  1.00  0.00    -0.168 C  
ENDROOT
BRANCH   2   5
HETATM    5  C   UNL     1     -10.976   7.265  70.666  1.00  0.00    -0.256 C  
BRANCH   5   6
HETATM    6  C   UNL     1     -11.490   7.670  72.056  1.00  0.00    -0.283 C  
HETATM    7  O   UNL     1     -11.688   6.523  72.874  1.00  0.00    -0.484 OA 
HETATM    8  H   UNL     1     -12.006   6.774  73.733  1.00  0.00     0.000 HD 
ENDBRANCH   5   6
ENDBRANCH   2   5
TORSDOF 2
ENDMDL
MODEL      128
REMARK 921   NORMALIZED FREE ENERGY PREDICTED BY IDOCK:   -1.49 KCAL/MOL
REMARK 922        TOTAL FREE ENERGY PREDICTED BY IDOCK:   -1.70 KCAL/MOL
REMARK 923 INTER-LIGAND FREE ENERGY PREDICTED BY IDOCK:   -1.68 KCAL/MOL
REMARK 924 INTRA-LIGAND FREE ENERGY PREDICTED BY IDOCK:   -0.01 KCAL/MOL
REMARK 927      BINDING AFFINITY PREDICTED BY RF-SCORE:    0.00 PKD
ROOT
HETATM    1  C   UNL     1      -6.921  15.817  67.168  1.00  0.00    -0.169 C  
HETATM    2  N   UNL     1      -8.407  15.752  67.515  1.00  0.00    -0.159 N  
HETATM    3  C   UNL     1      -8.581  16.088  68.987  1.00  0.00    -0.244 C  
HETATM    4  C   UNL     1      -8.892  14.322  67.268  1.00  0.00    -0.214 C  
ENDROOT
BRANCH   2   5
HETATM    5  C   UNL     1      -9.149  16.769  66.611  1.00  0.00    -0.249 C  
BRANCH   5   6
HETATM    6  C   UNL     1      -8.642  18.217  66.709  1.00  0.00    -0.259 C  
HETATM    7  O   UNL     1      -9.342  19.057  65.800  1.00  0.00    -0.388 OA 
HETATM    8  H   UNL     1      -9.028  19.952  65.860  1.00  0.00     0.000 HD 
ENDBRANCH   5   6
ENDBRANCH   2   5
TORSDOF 2
ENDMDL
MODEL      129
REMARK 921   NORMALIZED FREE ENERGY PREDICTED BY IDOCK:   -1.48 KCAL/MOL
REMARK 922        TOTAL FREE ENERGY PREDICTED BY IDOCK:   -1.69 KCAL/MOL
REMARK 923 INTER-LIGAND FREE ENERGY PREDICTED BY IDOCK:   -1.63 KCAL/MOL
REMARK 924 INTRA-LIGAND FREE ENERGY PREDICTED BY IDOCK:   -0.05 KCAL/MOL
REMARK 927      BINDING AFFINITY PREDICTED BY RF-SCORE:    0.00 PKD
ROOT
HETATM    1  C   UNL     1     -10.741   6.699  68.113  1.00  0.00    -0.258 C  
HETATM    2  N   UNL     1     -10.431   6.744  69.609  1.00  0.00    -0.204 N  
HETATM    3  C   UNL     1      -9.522   5.577  69.956  1.00  0.00    -0.159 C  
HETATM    4  C   UNL     1     -11.749   6.597  70.373  1.00  0.00    -0.386 C  
ENDROOT
BRANCH   2   5
HETATM    5  C   UNL     1      -9.747   8.102  69.909  1.00  0.00    -0.176 C  
BRANCH   5   6
HETATM    6  C   UNL     1      -9.010   8.175  71.255  1.00  0.00    -0.146 C  
HETATM    7  O   UNL     1      -9.762   8.925  72.201  1.00  0.00    -0.306 OA 
HETATM    8  H   UNL     1      -9.306   8.970  73.034  1.00  0.00     0.000 HD 
ENDBRANCH   5   6
ENDBRANCH   2   5
TORSDOF 2
ENDMDL
MODEL      130
REMARK 921   NORMALIZED FREE ENERGY PREDICTED BY IDOCK:   -1.47 KCAL/MOL
REMARK 922        TOTAL FREE ENERGY PREDICTED BY IDOCK:   -1.68 KCAL/MOL
REMARK 923 INTER-LIGAND FREE ENERGY PREDICTED BY IDOCK:   -1.66 KCAL/MOL
REMARK 924 INTRA-LIGAND FREE ENERGY PREDICTED BY IDOCK:   -0.01 KCAL/MOL
REMARK 927      BINDING AFFINITY PREDICTED BY RF-SCORE:    0.00 PKD
ROOT
HETATM    1  C   UNL     1      -7.656  10.807  66.057  1.00  0.00    -0.130 C  
HETATM    2  N   UNL     1      -8.940  10.267  66.686  1.00  0.00    -0.140 N  
HETATM    3  C   UNL     1      -8.770  10.233  68.196  1.00  0.00    -0.123 C  
HETATM    4  C   UNL     1      -9.159   8.842  66.175  1.00  0.00    -0.202 C  
ENDROOT
BRANCH   2   5
HETATM    5  C   UNL     1     -10.101  11.206  66.269  1.00  0.00    -0.232 C  
BRANCH   5   6
HETATM    6  C   UNL     1     -11.225  11.352  67.307  1.00  0.00    -0.304 C  
HETATM    7  O   UNL     1     -12.174  12.325  66.889  1.00  0.00    -0.530 OA 
HETATM    8  H   UNL     1     -12.868  12.415  67.532  1.00  0.00     0.000 HD 
ENDBRANCH   5   6
ENDBRANCH   2   5
TORSDOF 2
ENDMDL
MODEL      131
REMARK 921   NORMALIZED FREE ENERGY PREDICTED BY IDOCK:   -1.47 KCAL/MOL
REMARK 922        TOTAL FREE ENERGY PREDICTED BY IDOCK:   -1.67 KCAL/MOL
REMARK 923 INTER-LIGAND FREE ENERGY PREDICTED BY IDOCK:   -1.64 KCAL/MOL
REMARK 924 INTRA-LIGAND FREE ENERGY PREDICTED BY IDOCK:   -0.03 KCAL/MOL
REMARK 927      BINDING AFFINITY PREDICTED BY RF-SCORE:    0.00 PKD
ROOT
HETATM    1  C   UNL     1      -9.204  15.701  66.237  1.00  0.00    -0.330 C  
HETATM    2  N   UNL     1      -9.930  14.903  67.319  1.00  0.00    -0.229 N  
HETATM    3  C   UNL     1      -9.548  13.438  67.187  1.00  0.00    -0.241 C  
HETATM    4  C   UNL     1     -11.436  15.050  67.089  1.00  0.00    -0.297 C  
ENDROOT
BRANCH   2   5
HETATM    5  C   UNL     1      -9.506  15.477  68.695  1.00  0.00    -0.204 C  
BRANCH   5   6
HETATM    6  C   UNL     1      -8.021  15.291  69.047  1.00  0.00    -0.195 C  
HETATM    7  O   UNL     1      -7.873  14.870  70.397  1.00  0.00    -0.145 OA 
HETATM    8  H   UNL     1      -6.956  14.755  70.615  1.00  0.00     0.000 HD 
ENDBRANCH   5   6
ENDBRANCH   2   5
TORSDOF 2
ENDMDL
MODEL      132
REMARK 921   NORMALIZED FREE ENERGY PREDICTED BY IDOCK:   -1.45 KCAL/MOL
REMARK 922        TOTAL FREE ENERGY PREDICTED BY IDOCK:   -1.65 KCAL/MOL
REMARK 923 INTER-LIGAND FREE ENERGY PREDICTED BY IDOCK:   -1.62 KCAL/MOL
REMARK 924 INTRA-LIGAND FREE ENERGY PREDICTED BY IDOCK:   -0.03 KCAL/MOL
REMARK 927      BINDING AFFINITY PREDICTED BY RF-SCORE:    0.00 PKD
ROOT
HETATM    1  C   UNL     1     -11.227   9.607  70.801  1.00  0.00    -0.336 C  
HETATM    2  N   UNL     1     -10.170   9.434  69.712  1.00  0.00    -0.206 N  
HETATM    3  C   UNL     1     -10.420   8.119  68.992  1.00  0.00    -0.198 C  
HETATM    4  C   UNL     1      -8.796   9.384  70.383  1.00  0.00    -0.249 C  
ENDROOT
BRANCH   2   5
HETATM    5  C   UNL     1     -10.287  10.639  68.744  1.00  0.00    -0.193 C  
BRANCH   5   6
HETATM    6  C   UNL     1     -10.493  10.269  67.266  1.00  0.00    -0.253 C  
HETATM    7  O   UNL     1      -9.595  10.994  66.436  1.00  0.00    -0.189 OA 
HETATM    8  H   UNL     1      -9.723  10.766  65.522  1.00  0.00     0.000 HD 
ENDBRANCH   5   6
ENDBRANCH   2   5
TORSDOF 2
ENDMDL
MODEL      133
REMARK 921   NORMALIZED FREE ENERGY PREDICTED BY IDOCK:   -1.44 KCAL/MOL
REMARK 922        TOTAL FREE ENERGY PREDICTED BY IDOCK:   -1.64 KCAL/MOL
REMARK 923 INTER-LIGAND FREE ENERGY PREDICTED BY IDOCK:   -1.60 KCAL/MOL
REMARK 924 INTRA-LIGAND FREE ENERGY PREDICTED BY IDOCK:   -0.04 KCAL/MOL
REMARK 927      BINDING AFFINITY PREDICTED BY RF-SCORE:    0.00 PKD
ROOT
HETATM    1  C   UNL     1      -8.119   6.815  68.188  1.00  0.00    -0.115 C  
HETATM    2  N   UNL     1      -9.478   7.505  68.077  1.00  0.00    -0.142 N  
HETATM    3  C   UNL     1      -9.686   7.949  66.638  1.00  0.00    -0.235 C  
HETATM    4  C   UNL     1      -9.464   8.737  68.984  1.00  0.00    -0.160 C  
ENDROOT
BRANCH   2   5
HETATM    5  C   UNL     1     -10.562   6.487  68.517  1.00  0.00    -0.244 C  
BRANCH   5   6
HETATM    6  C   UNL     1     -10.694   6.293  70.036  1.00  0.00    -0.285 C  
HETATM    7  O   UNL     1     -11.996   6.656  70.478  1.00  0.00    -0.422 OA 
HETATM    8  H   UNL     1     -12.078   6.536  71.417  1.00  0.00     0.000 HD 
ENDBRANCH   5   6
ENDBRANCH   2   5
TORSDOF 2
ENDMDL
MODEL      134
REMARK 921   NORMALIZED FREE ENERGY PREDICTED BY IDOCK:   -1.42 KCAL/MOL
REMARK 922        TOTAL FREE ENERGY PREDICTED BY IDOCK:   -1.62 KCAL/MOL
REMARK 923 INTER-LIGAND FREE ENERGY PREDICTED BY IDOCK:   -1.57 KCAL/MOL
REMARK 924 INTRA-LIGAND FREE ENERGY PREDICTED BY IDOCK:   -0.05 KCAL/MOL
REMARK 927      BINDING AFFINITY PREDICTED BY RF-SCORE:    0.00 PKD
ROOT
HETATM    1  C   UNL     1     -13.958   8.904  70.995  1.00  0.00     0.077 C  
HETATM    2  N   UNL     1     -12.710   9.725  71.315  1.00  0.00    -0.346 N  
HETATM    3  C   UNL     1     -13.140  11.058  71.907  1.00  0.00    -0.419 C  
HETATM    4  C   UNL     1     -11.956   9.977  70.008  1.00  0.00    -0.074 C  
ENDROOT
BRANCH   2   5
HETATM    5  C   UNL     1     -11.854   8.911  72.319  1.00  0.00    -0.295 C  
BRANCH   5   6
HETATM    6  C   UNL     1     -11.004   7.795  71.692  1.00  0.00    -0.235 C  
HETATM    7  O   UNL     1     -11.575   6.519  71.957  1.00  0.00    -0.281 OA 
HETATM    8  H   UNL     1     -11.049   5.829  71.570  1.00  0.00     0.000 HD 
ENDBRANCH   5   6
ENDBRANCH   2   5
TORSDOF 2
ENDMDL
MODEL      135
REMARK 921   NORMALIZED FREE ENERGY PREDICTED BY IDOCK:   -1.42 KCAL/MOL
REMARK 922        TOTAL FREE ENERGY PREDICTED BY IDOCK:   -1.62 KCAL/MOL
REMARK 923 INTER-LIGAND FREE ENERGY PREDICTED BY IDOCK:   -1.58 KCAL/MOL
REMARK 924 INTRA-LIGAND FREE ENERGY PREDICTED BY IDOCK:   -0.05 KCAL/MOL
REMARK 927      BINDING AFFINITY PREDICTED BY RF-SCORE:    0.00 PKD
ROOT
HETATM    1  C   UNL     1      -8.457   7.993  71.449  1.00  0.00    -0.121 C  
HETATM    2  N   UNL     1      -9.387   7.504  72.559  1.00  0.00    -0.145 N  
HETATM    3  C   UNL     1     -10.710   8.244  72.450  1.00  0.00    -0.341 C  
HETATM    4  C   UNL     1      -8.738   7.833  73.904  1.00  0.00    -0.267 C  
ENDROOT
BRANCH   2   5
HETATM    5  C   UNL     1      -9.577   5.976  72.377  1.00  0.00    -0.151 C  
BRANCH   5   6
HETATM    6  C   UNL     1     -11.033   5.520  72.188  1.00  0.00    -0.231 C  
HETATM    7  O   UNL     1     -11.444   4.690  73.266  1.00  0.00    -0.320 OA 
HETATM    8  H   UNL     1     -12.344   4.408  73.149  1.00  0.00     0.000 HD 
ENDBRANCH   5   6
ENDBRANCH   2   5
TORSDOF 2
ENDMDL
MODEL      136
REMARK 921   NORMALIZED FREE ENERGY PREDICTED BY IDOCK:   -1.42 KCAL/MOL
REMARK 922        TOTAL FREE ENERGY PREDICTED BY IDOCK:   -1.62 KCAL/MOL
REMARK 923 INTER-LIGAND FREE ENERGY PREDICTED BY IDOCK:   -1.58 KCAL/MOL
REMARK 924 INTRA-LIGAND FREE ENERGY PREDICTED BY IDOCK:   -0.04 KCAL/MOL
REMARK 927      BINDING AFFINITY PREDICTED BY RF-SCORE:    0.00 PKD
ROOT
HETATM    1  C   UNL     1      -9.185   4.570  68.976  1.00  0.00    -0.134 C  
HETATM    2  N   UNL     1      -8.844   5.741  69.895  1.00  0.00    -0.126 N  
HETATM    3  C   UNL     1      -8.429   6.929  69.042  1.00  0.00    -0.128 C  
HETATM    4  C   UNL     1      -7.668   5.326  70.781  1.00  0.00    -0.088 C  
ENDROOT
BRANCH   2   5
HETATM    5  C   UNL     1     -10.105   6.064  70.737  1.00  0.00    -0.197 C  
BRANCH   5   6
HETATM    6  C   UNL     1     -11.374   6.355  69.922  1.00  0.00    -0.434 C  
HETATM    7  O   UNL     1     -11.697   7.739  69.970  1.00  0.00    -0.473 OA 
HETATM    8  H   UNL     1     -12.482   7.919  69.466  1.00  0.00     0.000 HD 
ENDBRANCH   5   6
ENDBRANCH   2   5
TORSDOF 2
ENDMDL
MODEL      137
REMARK 921   NORMALIZED FREE ENERGY PREDICTED BY IDOCK:   -1.39 KCAL/MOL
REMARK 922        TOTAL FREE ENERGY PREDICTED BY IDOCK:   -1.58 KCAL/MOL
REMARK 923 INTER-LIGAND FREE ENERGY PREDICTED BY IDOCK:   -1.55 KCAL/MOL
REMARK 924 INTRA-LIGAND FREE ENERGY PREDICTED BY IDOCK:   -0.04 KCAL/MOL
REMARK 927      BINDING AFFINITY PREDICTED BY RF-SCORE:    0.00 PKD
ROOT
HETATM    1  C   UNL     1     -10.282   8.496  66.826  1.00  0.00    -0.300 C  
HETATM    2  N   UNL     1      -9.864   9.955  67.004  1.00  0.00    -0.181 N  
HETATM    3  C   UNL     1     -10.361  10.755  65.811  1.00  0.00    -0.230 C  
HETATM    4  C   UNL     1      -8.335  10.011  67.043  1.00  0.00    -0.121 C  
ENDROOT
BRANCH   2   5
HETATM    5  C   UNL     1     -10.487  10.467  68.328  1.00  0.00    -0.183 C  
BRANCH   5   6
HETATM    6  C   UNL     1     -10.589  11.996  68.450  1.00  0.00    -0.217 C  
HETATM    7  O   UNL     1     -11.949  12.408  68.487  1.00  0.00    -0.318 OA 
HETATM    8  H   UNL     1     -12.012  13.353  68.562  1.00  0.00     0.000 HD 
ENDBRANCH   5   6
ENDBRANCH   2   5
TORSDOF 2
ENDMDL
MODEL      138
REMARK 921   NORMALIZED FREE ENERGY PREDICTED BY IDOCK:   -1.39 KCAL/MOL
REMARK 922        TOTAL FREE ENERGY PREDICTED BY IDOCK:   -1.58 KCAL/MOL
REMARK 923 INTER-LIGAND FREE ENERGY PREDICTED BY IDOCK:   -1.55 KCAL/MOL
REMARK 924 INTRA-LIGAND FREE ENERGY PREDICTED BY IDOCK:   -0.03 KCAL/MOL
REMARK 927      BINDING AFFINITY PREDICTED BY RF-SCORE:    0.00 PKD
ROOT
HETATM    1  C   UNL     1     -13.613   9.791  70.443  1.00  0.00     0.505 C  
HETATM    2  N   UNL     1     -12.434  10.672  70.855  1.00  0.00    -0.362 N  
HETATM    3  C   UNL     1     -11.341   9.788  71.432  1.00  0.00    -0.337 C  
HETATM    4  C   UNL     1     -12.918  11.640  71.936  1.00  0.00    -0.337 C  
ENDROOT
BRANCH   2   5
HETATM    5  C   UNL     1     -11.945  11.426  69.592  1.00  0.00    -0.348 C  
BRANCH   5   6
HETATM    6  C   UNL     1     -11.811  12.949  69.756  1.00  0.00    -0.310 C  
HETATM    7  O   UNL     1     -12.371  13.626  68.638  1.00  0.00    -0.365 OA 
HETATM    8  H   UNL     1     -12.288  14.568  68.739  1.00  0.00     0.000 HD 
ENDBRANCH   5   6
ENDBRANCH   2   5
TORSDOF 2
ENDMDL
MODEL      139
REMARK 921   NORMALIZED FREE ENERGY PREDICTED BY IDOCK:   -1.39 KCAL/MOL
REMARK 922        TOTAL FREE ENERGY PREDICTED BY IDOCK:   -1.58 KCAL/MOL
REMARK 923 INTER-LIGAND FREE ENERGY PREDICTED BY IDOCK:   -1.55 KCAL/MOL
REMARK 924 INTRA-LIGAND FREE ENERGY PREDICTED BY IDOCK:   -0.04 KCAL/MOL
REMARK 927      BINDING AFFINITY PREDICTED BY RF-SCORE:    0.00 PKD
ROOT
HETATM    1  C   UNL     1      -9.437  10.902  68.882  1.00  0.00    -0.172 C  
HETATM    2  N   UNL     1      -9.417  11.355  67.423  1.00  0.00    -0.166 N  
HETATM    3  C   UNL     1      -7.973  11.463  66.963  1.00  0.00    -0.158 C  
HETATM    4  C   UNL     1     -10.073  12.735  67.343  1.00  0.00    -0.219 C  
ENDROOT
BRANCH   2   5
HETATM    5  C   UNL     1     -10.198  10.305  66.591  1.00  0.00    -0.233 C  
BRANCH   5   6
HETATM    6  C   UNL     1     -10.689   9.082  67.384  1.00  0.00    -0.161 C  
HETATM    7  O   UNL     1     -10.414   7.880  66.676  1.00  0.00    -0.439 OA 
HETATM    8  H   UNL     1     -10.718   7.124  67.165  1.00  0.00     0.000 HD 
ENDBRANCH   5   6
ENDBRANCH   2   5
TORSDOF 2
ENDMDL
MODEL      140
REMARK 921   NORMALIZED FREE ENERGY PREDICTED BY IDOCK:   -1.39 KCAL/MOL
REMARK 922        TOTAL FREE ENERGY PREDICTED BY IDOCK:   -1.58 KCAL/MOL
REMARK 923 INTER-LIGAND FREE ENERGY PREDICTED BY IDOCK:   -1.51 KCAL/MOL
REMARK 924 INTRA-LIGAND FREE ENERGY PREDICTED BY IDOCK:   -0.07 KCAL/MOL
REMARK 927      BINDING AFFINITY PREDICTED BY RF-SCORE:    0.00 PKD
ROOT
HETATM    1  C   UNL     1      -7.793   8.000  72.330  1.00  0.00    -0.124 C  
HETATM    2  N   UNL     1      -9.124   7.269  72.163  1.00  0.00    -0.132 N  
HETATM    3  C   UNL     1     -10.003   7.570  73.366  1.00  0.00    -0.323 C  
HETATM    4  C   UNL     1      -8.839   5.766  72.114  1.00  0.00    -0.137 C  
ENDROOT
BRANCH   2   5
HETATM    5  C   UNL     1      -9.776   7.767  70.847  1.00  0.00    -0.168 C  
BRANCH   5   6
HETATM    6  C   UNL     1     -10.767   8.930  71.013  1.00  0.00    -0.247 C  
HETATM    7  O   UNL     1     -10.168  10.161  70.628  1.00  0.00    -0.382 OA 
HETATM    8  H   UNL     1     -10.781  10.880  70.731  1.00  0.00     0.000 HD 
ENDBRANCH   5   6
ENDBRANCH   2   5
TORSDOF 2
ENDMDL
MODEL      141
REMARK 921   NORMALIZED FREE ENERGY PREDICTED BY IDOCK:   -1.39 KCAL/MOL
REMARK 922        TOTAL FREE ENERGY PREDICTED BY IDOCK:   -1.58 KCAL/MOL
REMARK 923 INTER-LIGAND FREE ENERGY PREDICTED BY IDOCK:   -1.54 KCAL/MOL
REMARK 924 INTRA-LIGAND FREE ENERGY PREDICTED BY IDOCK:   -0.04 KCAL/MOL
REMARK 927      BINDING AFFINITY PREDICTED BY RF-SCORE:    0.00 PKD
ROOT
HETATM    1  C   UNL     1      -7.666  12.155  67.880  1.00  0.00    -0.134 C  
HETATM    2  N   UNL     1      -8.858  11.285  67.489  1.00  0.00    -0.139 N  
HETATM    3  C   UNL     1      -8.369   9.868  67.238  1.00  0.00    -0.121 C  
HETATM    4  C   UNL     1      -9.453  11.845  66.195  1.00  0.00    -0.231 C  
ENDROOT
BRANCH   2   5
HETATM    5  C   UNL     1      -9.881  11.332  68.653  1.00  0.00    -0.202 C  
BRANCH   5   6
HETATM    6  C   UNL     1     -11.171  10.530  68.419  1.00  0.00    -0.279 C  
HETATM    7  O   UNL     1     -11.299   9.490  69.381  1.00  0.00    -0.431 OA 
HETATM    8  H   UNL     1     -12.096   8.994  69.236  1.00  0.00     0.000 HD 
ENDBRANCH   5   6
ENDBRANCH   2   5
TORSDOF 2
ENDMDL
MODEL      142
REMARK 921   NORMALIZED FREE ENERGY PREDICTED BY IDOCK:   -1.36 KCAL/MOL
REMARK 922        TOTAL FREE ENERGY PREDICTED BY IDOCK:   -1.56 KCAL/MOL
REMARK 923 INTER-LIGAND FREE ENERGY PREDICTED BY IDOCK:   -1.52 KCAL/MOL
REMARK 924 INTRA-LIGAND FREE ENERGY PREDICTED BY IDOCK:   -0.04 KCAL/MOL
REMARK 927      BINDING AFFINITY PREDICTED BY RF-SCORE:    0.00 PKD
ROOT
HETATM    1  C   UNL     1     -11.442  11.290  68.803  1.00  0.00    -0.293 C  
HETATM    2  N   UNL     1     -10.046  10.983  68.263  1.00  0.00    -0.171 N  
HETATM    3  C   UNL     1      -9.229  12.264  68.262  1.00  0.00    -0.189 C  
HETATM    4  C   UNL     1     -10.191  10.480  66.825  1.00  0.00    -0.234 C  
ENDROOT
BRANCH   2   5
HETATM    5  C   UNL     1      -9.410   9.907  69.181  1.00  0.00    -0.193 C  
BRANCH   5   6
HETATM    6  C   UNL     1      -9.972   8.488  69.005  1.00  0.00    -0.193 C  
HETATM    7  O   UNL     1     -10.789   8.129  70.113  1.00  0.00    -0.243 OA 
HETATM    8  H   UNL     1     -11.137   7.252  70.005  1.00  0.00     0.000 HD 
ENDBRANCH   5   6
ENDBRANCH   2   5
TORSDOF 2
ENDMDL
MODEL      143
REMARK 921   NORMALIZED FREE ENERGY PREDICTED BY IDOCK:   -1.36 KCAL/MOL
REMARK 922        TOTAL FREE ENERGY PREDICTED BY IDOCK:   -1.55 KCAL/MOL
REMARK 923 INTER-LIGAND FREE ENERGY PREDICTED BY IDOCK:   -1.49 KCAL/MOL
REMARK 924 INTRA-LIGAND FREE ENERGY PREDICTED BY IDOCK:   -0.05 KCAL/MOL
REMARK 927      BINDING AFFINITY PREDICTED BY RF-SCORE:    0.00 PKD
ROOT
HETATM    1  C   UNL     1     -10.601   5.790  68.397  1.00  0.00    -0.220 C  
HETATM    2  N   UNL     1      -9.513   6.849  68.566  1.00  0.00    -0.133 N  
HETATM    3  C   UNL     1      -8.422   6.600  67.537  1.00  0.00    -0.121 C  
HETATM    4  C   UNL     1      -8.921   6.706  69.969  1.00  0.00    -0.144 C  
ENDROOT
BRANCH   2   5
HETATM    5  C   UNL     1     -10.172   8.238  68.365  1.00  0.00    -0.209 C  
BRANCH   5   6
HETATM    6  C   UNL     1     -10.371   9.056  69.651  1.00  0.00    -0.212 C  
HETATM    7  O   UNL     1     -11.752   9.303  69.882  1.00  0.00    -0.455 OA 
HETATM    8  H   UNL     1     -11.875   9.809  70.677  1.00  0.00     0.000 HD 
ENDBRANCH   5   6
ENDBRANCH   2   5
TORSDOF 2
ENDMDL
MODEL      144
REMARK 921   NORMALIZED FREE ENERGY PREDICTED BY IDOCK:   -1.35 KCAL/MOL
REMARK 922        TOTAL FREE ENERGY PREDICTED BY IDOCK:   -1.54 KCAL/MOL
REMARK 923 INTER-LIGAND FREE ENERGY PREDICTED BY IDOCK:   -1.49 KCAL/MOL
REMARK 924 INTRA-LIGAND FREE ENERGY PREDICTED BY IDOCK:   -0.04 KCAL/MOL
REMARK 927      BINDING AFFINITY PREDICTED BY RF-SCORE:    0.00 PKD
ROOT
HETATM    1  C   UNL     1     -11.429  12.241  67.203  1.00  0.00    -0.352 C  
HETATM    2  N   UNL     1     -10.004  11.979  66.720  1.00  0.00    -0.199 N  
HETATM    3  C   UNL     1      -9.201  13.263  66.844  1.00  0.00    -0.241 C  
HETATM    4  C   UNL     1     -10.067  11.568  65.247  1.00  0.00    -0.269 C  
ENDROOT
BRANCH   2   5
HETATM    5  C   UNL     1      -9.406  10.851  67.600  1.00  0.00    -0.156 C  
BRANCH   5   6
HETATM    6  C   UNL     1      -8.684   9.736  66.827  1.00  0.00    -0.131 C  
HETATM    7  O   UNL     1      -9.307   8.479  67.057  1.00  0.00    -0.147 OA 
HETATM    8  H   UNL     1      -8.860   7.789  66.580  1.00  0.00     0.000 HD 
ENDBRANCH   5   6
ENDBRANCH   2   5
TORSDOF 2
ENDMDL
MODEL      145
REMARK 921   NORMALIZED FREE ENERGY PREDICTED BY IDOCK:   -1.24 KCAL/MOL
REMARK 922        TOTAL FREE ENERGY PREDICTED BY IDOCK:   -1.42 KCAL/MOL
REMARK 923 INTER-LIGAND FREE ENERGY PREDICTED BY IDOCK:   -1.35 KCAL/MOL
REMARK 924 INTRA-LIGAND FREE ENERGY PREDICTED BY IDOCK:   -0.07 KCAL/MOL
REMARK 927      BINDING AFFINITY PREDICTED BY RF-SCORE:    0.00 PKD
ROOT
HETATM    1  C   UNL     1      -8.167   5.529  69.514  1.00  0.00    -0.101 C  
HETATM    2  N   UNL     1      -9.433   4.899  70.093  1.00  0.00    -0.156 N  
HETATM    3  C   UNL     1     -10.640   5.669  69.582  1.00  0.00    -0.331 C  
HETATM    4  C   UNL     1      -9.370   5.019  71.617  1.00  0.00    -0.148 C  
ENDROOT
BRANCH   2   5
HETATM    5  C   UNL     1      -9.473   3.417  69.640  1.00  0.00    -0.153 C  
BRANCH   5   6
HETATM    6  C   UNL     1      -8.850   3.141  68.262  1.00  0.00    -0.121 C  
HETATM    7  O   UNL     1      -9.852   3.119  67.252  1.00  0.00    -0.342 OA 
HETATM    8  H   UNL     1      -9.467   2.948  66.400  1.00  0.00     0.000 HD 
ENDBRANCH   5   6
ENDBRANCH   2   5
TORSDOF 2
ENDMDL
MODEL      146
REMARK 921   NORMALIZED FREE ENERGY PREDICTED BY IDOCK:   -1.23 KCAL/MOL
REMARK 922        TOTAL FREE ENERGY PREDICTED BY IDOCK:   -1.40 KCAL/MOL
REMARK 923 INTER-LIGAND FREE ENERGY PREDICTED BY IDOCK:   -1.35 KCAL/MOL
REMARK 924 INTRA-LIGAND FREE ENERGY PREDICTED BY IDOCK:   -0.05 KCAL/MOL
REMARK 927      BINDING AFFINITY PREDICTED BY RF-SCORE:    0.00 PKD
ROOT
HETATM    1  C   UNL     1      -8.699   6.008  70.536  1.00  0.00    -0.138 C  
HETATM    2  N   UNL     1      -8.840   7.527  70.456  1.00  0.00    -0.146 N  
HETATM    3  C   UNL     1      -8.619   7.964  69.017  1.00  0.00    -0.135 C  
HETATM    4  C   UNL     1      -7.760   8.153  71.340  1.00  0.00    -0.092 C  
ENDROOT
BRANCH   2   5
HETATM    5  C   UNL     1     -10.263   7.897  70.946  1.00  0.00    -0.198 C  
BRANCH   5   6
HETATM    6  C   UNL     1     -10.955   9.016  70.152  1.00  0.00    -0.233 C  
HETATM    7  O   UNL     1     -10.563  10.294  70.637  1.00  0.00    -0.410 OA 
HETATM    8  H   UNL     1     -10.991  10.986  70.146  1.00  0.00     0.000 HD 
ENDBRANCH   5   6
ENDBRANCH   2   5
TORSDOF 2
ENDMDL
MODEL      147
REMARK 921   NORMALIZED FREE ENERGY PREDICTED BY IDOCK:   -1.22 KCAL/MOL
REMARK 922        TOTAL FREE ENERGY PREDICTED BY IDOCK:   -1.39 KCAL/MOL
REMARK 923 INTER-LIGAND FREE ENERGY PREDICTED BY IDOCK:   -1.37 KCAL/MOL
REMARK 924 INTRA-LIGAND FREE ENERGY PREDICTED BY IDOCK:   -0.02 KCAL/MOL
REMARK 927      BINDING AFFINITY PREDICTED BY RF-SCORE:    0.00 PKD
ROOT
HETATM    1  C   UNL     1      -7.912   8.237  74.112  1.00  0.00    -0.222 C  
HETATM    2  N   UNL     1      -8.232   7.332  72.923  1.00  0.00    -0.104 N  
HETATM    3  C   UNL     1      -7.708   5.935  73.216  1.00  0.00    -0.098 C  
HETATM    4  C   UNL     1      -7.513   7.889  71.693  1.00  0.00    -0.072 C  
ENDROOT
BRANCH   2   5
HETATM    5  C   UNL     1      -9.770   7.329  72.731  1.00  0.00    -0.162 C  
BRANCH   5   6
HETATM    6  C   UNL     1     -10.414   5.936  72.654  1.00  0.00    -0.206 C  
HETATM    7  O   UNL     1     -11.804   6.006  72.949  1.00  0.00    -0.509 OA 
HETATM    8  H   UNL     1     -12.202   5.145  72.902  1.00  0.00     0.000 HD 
ENDBRANCH   5   6
ENDBRANCH   2   5
TORSDOF 2
ENDMDL
MODEL      148
REMARK 921   NORMALIZED FREE ENERGY PREDICTED BY IDOCK:   -1.21 KCAL/MOL
REMARK 922        TOTAL FREE ENERGY PREDICTED BY IDOCK:   -1.38 KCAL/MOL
REMARK 923 INTER-LIGAND FREE ENERGY PREDICTED BY IDOCK:   -1.36 KCAL/MOL
REMARK 924 INTRA-LIGAND FREE ENERGY PREDICTED BY IDOCK:   -0.01 KCAL/MOL
REMARK 927      BINDING AFFINITY PREDICTED BY RF-SCORE:    0.00 PKD
ROOT
HETATM    1  C   UNL     1     -11.267  10.722  67.782  1.00  0.00    -0.316 C  
HETATM    2  N   UNL     1     -10.144   9.982  67.058  1.00  0.00    -0.208 N  
HETATM    3  C   UNL     1     -10.118  10.431  65.606  1.00  0.00    -0.269 C  
HETATM    4  C   UNL     1     -10.448   8.484  67.112  1.00  0.00    -0.299 C  
ENDROOT
BRANCH   2   5
HETATM    5  C   UNL     1      -8.813  10.320  67.778  1.00  0.00    -0.125 C  
BRANCH   5   6
HETATM    6  C   UNL     1      -7.641   9.381  67.452  1.00  0.00    -0.095 C  
HETATM    7  O   UNL     1      -6.593   9.537  68.401  1.00  0.00    -0.053 OA 
HETATM    8  H   UNL     1      -5.867   8.957  68.199  1.00  0.00     0.000 HD 
ENDBRANCH   5   6
ENDBRANCH   2   5
TORSDOF 2
ENDMDL
MODEL      149
REMARK 921   NORMALIZED FREE ENERGY PREDICTED BY IDOCK:   -1.20 KCAL/MOL
REMARK 922        TOTAL FREE ENERGY PREDICTED BY IDOCK:   -1.37 KCAL/MOL
REMARK 923 INTER-LIGAND FREE ENERGY PREDICTED BY IDOCK:   -1.36 KCAL/MOL
REMARK 924 INTRA-LIGAND FREE ENERGY PREDICTED BY IDOCK:   -0.02 KCAL/MOL
REMARK 927      BINDING AFFINITY PREDICTED BY RF-SCORE:    0.00 PKD
ROOT
HETATM    1  C   UNL     1     -11.157   6.000  69.165  1.00  0.00    -0.335 C  
HETATM    2  N   UNL     1     -10.418   6.731  70.284  1.00  0.00    -0.202 N  
HETATM    3  C   UNL     1     -10.954   6.248  71.622  1.00  0.00    -0.261 C  
HETATM    4  C   UNL     1     -10.699   8.228  70.143  1.00  0.00    -0.239 C  
ENDROOT
BRANCH   2   5
HETATM    5  C   UNL     1      -8.907   6.419  70.135  1.00  0.00    -0.150 C  
BRANCH   5   6
HETATM    6  C   UNL     1      -8.155   6.197  71.457  1.00  0.00    -0.114 C  
HETATM    7  O   UNL     1      -6.816   5.784  71.211  1.00  0.00    -0.058 OA 
HETATM    8  H   UNL     1      -6.351   5.646  72.028  1.00  0.00     0.000 HD 
ENDBRANCH   5   6
ENDBRANCH   2   5
TORSDOF 2
ENDMDL
MODEL      150
REMARK 921   NORMALIZED FREE ENERGY PREDICTED BY IDOCK:   -1.20 KCAL/MOL
REMARK 922        TOTAL FREE ENERGY PREDICTED BY IDOCK:   -1.37 KCAL/MOL
REMARK 923 INTER-LIGAND FREE ENERGY PREDICTED BY IDOCK:   -1.38 KCAL/MOL
REMARK 924 INTRA-LIGAND FREE ENERGY PREDICTED BY IDOCK:    0.01 KCAL/MOL
REMARK 927      BINDING AFFINITY PREDICTED BY RF-SCORE:    0.00 PKD
ROOT
HETATM    1  C   UNL     1      -8.701  11.034  68.200  1.00  0.00    -0.141 C  
HETATM    2  N   UNL     1      -9.006  12.430  67.659  1.00  0.00    -0.174 N  
HETATM    3  C   UNL     1      -7.824  13.339  67.954  1.00  0.00    -0.152 C  
HETATM    4  C   UNL     1     -10.242  12.964  68.387  1.00  0.00    -0.237 C  
ENDROOT
BRANCH   2   5
HETATM    5  C   UNL     1      -9.255  12.303  66.134  1.00  0.00    -0.132 C  
BRANCH   5   6
HETATM    6  C   UNL     1      -9.042  10.895  65.556  1.00  0.00    -0.201 C  
HETATM    7  O   UNL     1      -7.725  10.757  65.038  1.00  0.00    -0.343 OA 
HETATM    8  H   UNL     1      -7.594   9.886  64.680  1.00  0.00     0.000 HD 
ENDBRANCH   5   6
ENDBRANCH   2   5
TORSDOF 2
ENDMDL
MODEL      151
REMARK 921   NORMALIZED FREE ENERGY PREDICTED BY IDOCK:   -1.19 KCAL/MOL
REMARK 922        TOTAL FREE ENERGY PREDICTED BY IDOCK:   -1.36 KCAL/MOL
REMARK 923 INTER-LIGAND FREE ENERGY PREDICTED BY IDOCK:   -1.32 KCAL/MOL
REMARK 924 INTRA-LIGAND FREE ENERGY PREDICTED BY IDOCK:   -0.04 KCAL/MOL
REMARK 927      BINDING AFFINITY PREDICTED BY RF-SCORE:    0.00 PKD
ROOT
HETATM    1  C   UNL     1      -7.572   6.565  70.916  1.00  0.00    -0.089 C  
HETATM    2  N   UNL     1      -9.099   6.535  70.924  1.00  0.00    -0.154 N  
HETATM    3  C   UNL     1      -9.577   6.291  72.346  1.00  0.00    -0.150 C  
HETATM    4  C   UNL     1      -9.557   5.376  70.036  1.00  0.00    -0.169 C  
ENDROOT
BRANCH   2   5
HETATM    5  C   UNL     1      -9.602   7.899  70.384  1.00  0.00    -0.171 C  
BRANCH   5   6
HETATM    6  C   UNL     1      -9.654   8.013  68.852  1.00  0.00    -0.152 C  
HETATM    7  O   UNL     1     -10.986   8.241  68.410  1.00  0.00    -0.433 OA 
HETATM    8  H   UNL     1     -11.019   8.311  67.463  1.00  0.00     0.000 HD 
ENDBRANCH   5   6
ENDBRANCH   2   5
TORSDOF 2
ENDMDL
MODEL      152
REMARK 921   NORMALIZED FREE ENERGY PREDICTED BY IDOCK:   -1.18 KCAL/MOL
REMARK 922        TOTAL FREE ENERGY PREDICTED BY IDOCK:   -1.35 KCAL/MOL
REMARK 923 INTER-LIGAND FREE ENERGY PREDICTED BY IDOCK:   -1.31 KCAL/MOL
REMARK 924 INTRA-LIGAND FREE ENERGY PREDICTED BY IDOCK:   -0.04 KCAL/MOL
REMARK 927      BINDING AFFINITY PREDICTED BY RF-SCORE:    0.00 PKD
ROOT
HETATM    1  C   UNL     1     -10.514   7.406  70.605  1.00  0.00    -0.215 C  
HETATM    2  N   UNL     1      -9.299   6.486  70.503  1.00  0.00    -0.162 N  
HETATM    3  C   UNL     1      -8.346   7.048  69.461  1.00  0.00    -0.133 C  
HETATM    4  C   UNL     1      -9.781   5.107  70.048  1.00  0.00    -0.205 C  
ENDROOT
BRANCH   2   5
HETATM    5  C   UNL     1      -8.634   6.424  71.902  1.00  0.00    -0.127 C  
BRANCH   5   6
HETATM    6  C   UNL     1      -7.594   7.521  72.177  1.00  0.00    -0.082 C  
HETATM    7  O   UNL     1      -8.200   8.645  72.803  1.00  0.00    -0.385 OA 
HETATM    8  H   UNL     1      -7.557   9.323  72.973  1.00  0.00     0.000 HD 
ENDBRANCH   5   6
ENDBRANCH   2   5
TORSDOF 2
ENDMDL
MODEL      153
REMARK 921   NORMALIZED FREE ENERGY PREDICTED BY IDOCK:   -1.17 KCAL/MOL
REMARK 922        TOTAL FREE ENERGY PREDICTED BY IDOCK:   -1.34 KCAL/MOL
REMARK 923 INTER-LIGAND FREE ENERGY PREDICTED BY IDOCK:   -1.30 KCAL/MOL
REMARK 924 INTRA-LIGAND FREE ENERGY PREDICTED BY IDOCK:   -0.04 KCAL/MOL
REMARK 927      BINDING AFFINITY PREDICTED BY RF-SCORE:    0.00 PKD
ROOT
HETATM    1  C   UNL     1     -10.057   7.213  70.689  1.00  0.00    -0.191 C  
HETATM    2  N   UNL     1     -10.040   6.711  72.132  1.00  0.00    -0.179 N  
HETATM    3  C   UNL     1     -10.571   5.287  72.161  1.00  0.00    -0.221 C  
HETATM    4  C   UNL     1     -10.963   7.607  72.960  1.00  0.00    -0.400 C  
ENDROOT
BRANCH   2   5
HETATM    5  C   UNL     1      -8.576   6.779  72.638  1.00  0.00    -0.122 C  
BRANCH   5   6
HETATM    6  C   UNL     1      -7.887   5.417  72.820  1.00  0.00    -0.099 C  
HETATM    7  O   UNL     1      -7.551   5.201  74.184  1.00  0.00    -0.089 OA 
HETATM    8  H   UNL     1      -7.124   4.359  74.296  1.00  0.00     0.000 HD 
ENDBRANCH   5   6
ENDBRANCH   2   5
TORSDOF 2
ENDMDL
MODEL      154
REMARK 921   NORMALIZED FREE ENERGY PREDICTED BY IDOCK:   -1.17 KCAL/MOL
REMARK 922        TOTAL FREE ENERGY PREDICTED BY IDOCK:   -1.34 KCAL/MOL
REMARK 923 INTER-LIGAND FREE ENERGY PREDICTED BY IDOCK:   -1.27 KCAL/MOL
REMARK 924 INTRA-LIGAND FREE ENERGY PREDICTED BY IDOCK:   -0.07 KCAL/MOL
REMARK 927      BINDING AFFINITY PREDICTED BY RF-SCORE:    0.00 PKD
ROOT
HETATM    1  C   UNL     1      -9.328  11.728  68.448  1.00  0.00    -0.185 C  
HETATM    2  N   UNL     1      -9.714  10.277  68.728  1.00  0.00    -0.169 N  
HETATM    3  C   UNL     1      -9.537   9.468  67.453  1.00  0.00    -0.141 C  
HETATM    4  C   UNL     1     -11.187  10.246  69.140  1.00  0.00    -0.215 C  
ENDROOT
BRANCH   2   5
HETATM    5  C   UNL     1      -8.795   9.753  69.861  1.00  0.00    -0.225 C  
BRANCH   5   6
HETATM    6  C   UNL     1      -9.428   8.690  70.773  1.00  0.00    -0.190 C  
HETATM    7  O   UNL     1      -8.981   7.388  70.414  1.00  0.00    -0.149 OA 
HETATM    8  H   UNL     1      -9.373   6.731  70.978  1.00  0.00     0.000 HD 
ENDBRANCH   5   6
ENDBRANCH   2   5
TORSDOF 2
ENDMDL
MODEL      155
REMARK 921   NORMALIZED FREE ENERGY PREDICTED BY IDOCK:   -1.16 KCAL/MOL
REMARK 922        TOTAL FREE ENERGY PREDICTED BY IDOCK:   -1.32 KCAL/MOL
REMARK 923 INTER-LIGAND FREE ENERGY PREDICTED BY IDOCK:   -1.28 KCAL/MOL
REMARK 924 INTRA-LIGAND FREE ENERGY PREDICTED BY IDOCK:   -0.04 KCAL/MOL
REMARK 927      BINDING AFFINITY PREDICTED BY RF-SCORE:    0.00 PKD
ROOT
HETATM    1  C   UNL     1     -11.000   6.241  68.158  1.00  0.00    -0.323 C  
HETATM    2  N   UNL     1     -10.060   6.506  69.333  1.00  0.00    -0.167 N  
HETATM    3  C   UNL     1     -10.605   5.801  70.564  1.00  0.00    -0.289 C  
HETATM    4  C   UNL     1     -10.032   8.014  69.590  1.00  0.00    -0.188 C  
ENDROOT
BRANCH   2   5
HETATM    5  C   UNL     1      -8.658   5.968  68.948  1.00  0.00    -0.116 C  
BRANCH   5   6
HETATM    6  C   UNL     1      -8.664   4.691  68.092  1.00  0.00    -0.103 C  
HETATM    7  O   UNL     1      -7.892   4.873  66.912  1.00  0.00    -0.097 OA 
HETATM    8  H   UNL     1      -7.896   4.083  66.383  1.00  0.00     0.000 HD 
ENDBRANCH   5   6
ENDBRANCH   2   5
TORSDOF 2
ENDMDL
MODEL      156
REMARK 921   NORMALIZED FREE ENERGY PREDICTED BY IDOCK:   -1.11 KCAL/MOL
REMARK 922        TOTAL FREE ENERGY PREDICTED BY IDOCK:   -1.28 KCAL/MOL
REMARK 923 INTER-LIGAND FREE ENERGY PREDICTED BY IDOCK:   -1.23 KCAL/MOL
REMARK 924 INTRA-LIGAND FREE ENERGY PREDICTED BY IDOCK:   -0.04 KCAL/MOL
REMARK 927      BINDING AFFINITY PREDICTED BY RF-SCORE:    0.00 PKD
ROOT
HETATM    1  C   UNL     1     -11.091   6.227  68.641  1.00  0.00    -0.325 C  
HETATM    2  N   UNL     1      -9.783   7.007  68.767  1.00  0.00    -0.143 N  
HETATM    3  C   UNL     1     -10.079   8.489  68.605  1.00  0.00    -0.190 C  
HETATM    4  C   UNL     1      -8.849   6.556  67.642  1.00  0.00    -0.112 C  
ENDROOT
BRANCH   2   5
HETATM    5  C   UNL     1      -9.183   6.700  70.163  1.00  0.00    -0.155 C  
BRANCH   5   6
HETATM    6  C   UNL     1      -8.873   7.935  71.024  1.00  0.00    -0.141 C  
HETATM    7  O   UNL     1      -9.590   7.886  72.251  1.00  0.00    -0.165 OA 
HETATM    8  H   UNL     1      -9.398   8.650  72.783  1.00  0.00     0.000 HD 
ENDBRANCH   5   6
ENDBRANCH   2   5
TORSDOF 2
ENDMDL
MODEL      157
REMARK 921   NORMALIZED FREE ENERGY PREDICTED BY IDOCK:   -1.11 KCAL/MOL
REMARK 922        TOTAL FREE ENERGY PREDICTED BY IDOCK:   -1.27 KCAL/MOL
REMARK 923 INTER-LIGAND FREE ENERGY PREDICTED BY IDOCK:   -1.22 KCAL/MOL
REMARK 924 INTRA-LIGAND FREE ENERGY PREDICTED BY IDOCK:   -0.05 KCAL/MOL
REMARK 927      BINDING AFFINITY PREDICTED BY RF-SCORE:    0.00 PKD
ROOT
HETATM    1  C   UNL     1      -9.328   8.584  71.603  1.00  0.00    -0.241 C  
HETATM    2  N   UNL     1      -9.880   7.169  71.764  1.00  0.00    -0.162 N  
HETATM    3  C   UNL     1     -11.388   7.208  71.579  1.00  0.00    -0.255 C  
HETATM    4  C   UNL     1      -9.562   6.691  73.182  1.00  0.00    -0.152 C  
ENDROOT
BRANCH   2   5
HETATM    5  C   UNL     1      -9.202   6.272  70.696  1.00  0.00    -0.158 C  
BRANCH   5   6
HETATM    6  C   UNL     1      -8.388   7.028  69.634  1.00  0.00    -0.133 C  
HETATM    7  O   UNL     1      -8.903   6.779  68.333  1.00  0.00    -0.123 OA 
HETATM    8  H   UNL     1      -8.399   7.246  67.676  1.00  0.00     0.000 HD 
ENDBRANCH   5   6
ENDBRANCH   2   5
TORSDOF 2
ENDMDL
MODEL      158
REMARK 921   NORMALIZED FREE ENERGY PREDICTED BY IDOCK:   -1.02 KCAL/MOL
REMARK 922        TOTAL FREE ENERGY PREDICTED BY IDOCK:   -1.17 KCAL/MOL
REMARK 923 INTER-LIGAND FREE ENERGY PREDICTED BY IDOCK:   -1.11 KCAL/MOL
REMARK 924 INTRA-LIGAND FREE ENERGY PREDICTED BY IDOCK:   -0.06 KCAL/MOL
REMARK 927      BINDING AFFINITY PREDICTED BY RF-SCORE:    0.00 PKD
ROOT
HETATM    1  C   UNL     1      -8.930   6.532  70.915  1.00  0.00    -0.147 C  
HETATM    2  N   UNL     1      -9.186   7.996  70.561  1.00  0.00    -0.153 N  
HETATM    3  C   UNL     1      -7.910   8.787  70.796  1.00  0.00    -0.109 C  
HETATM    4  C   UNL     1     -10.282   8.526  71.487  1.00  0.00    -0.250 C  
ENDROOT
BRANCH   2   5
HETATM    5  C   UNL     1      -9.620   8.053  69.073  1.00  0.00    -0.156 C  
BRANCH   5   6
HETATM    6  C   UNL     1      -9.181   9.316  68.316  1.00  0.00    -0.131 C  
HETATM    7  O   UNL     1     -10.305  10.123  67.987  1.00  0.00    -0.168 OA 
HETATM    8  H   UNL     1     -10.033  10.904  67.519  1.00  0.00     0.000 HD 
ENDBRANCH   5   6
ENDBRANCH   2   5
TORSDOF 2
ENDMDL
MODEL      159
REMARK 921   NORMALIZED FREE ENERGY PREDICTED BY IDOCK:   -1.00 KCAL/MOL
REMARK 922        TOTAL FREE ENERGY PREDICTED BY IDOCK:   -1.15 KCAL/MOL
REMARK 923 INTER-LIGAND FREE ENERGY PREDICTED BY IDOCK:   -1.11 KCAL/MOL
REMARK 924 INTRA-LIGAND FREE ENERGY PREDICTED BY IDOCK:   -0.04 KCAL/MOL
REMARK 927      BINDING AFFINITY PREDICTED BY RF-SCORE:    0.00 PKD
ROOT
HETATM    1  C   UNL     1      -9.680   4.906  69.500  1.00  0.00    -0.195 C  
HETATM    2  N   UNL     1      -9.663   5.288  68.021  1.00  0.00    -0.135 N  
HETATM    3  C   UNL     1     -10.865   6.173  67.730  1.00  0.00    -0.325 C  
HETATM    4  C   UNL     1      -9.776   4.005  67.195  1.00  0.00    -0.166 C  
ENDROOT
BRANCH   2   5
HETATM    5  C   UNL     1      -8.332   6.032  67.740  1.00  0.00    -0.112 C  
BRANCH   5   6
HETATM    6  C   UNL     1      -8.086   7.276  68.608  1.00  0.00    -0.125 C  
HETATM    7  O   UNL     1      -6.883   7.139  69.354  1.00  0.00    -0.048 OA 
HETATM    8  H   UNL     1      -6.731   7.908  69.891  1.00  0.00     0.000 HD 
ENDBRANCH   5   6
ENDBRANCH   2   5
TORSDOF 2
ENDMDL
MODEL      160
REMARK 921   NORMALIZED FREE ENERGY PREDICTED BY IDOCK:   -0.96 KCAL/MOL
REMARK 922        TOTAL FREE ENERGY PREDICTED BY IDOCK:   -1.10 KCAL/MOL
REMARK 923 INTER-LIGAND FREE ENERGY PREDICTED BY IDOCK:   -1.05 KCAL/MOL
REMARK 924 INTRA-LIGAND FREE ENERGY PREDICTED BY IDOCK:   -0.06 KCAL/MOL
REMARK 927      BINDING AFFINITY PREDICTED BY RF-SCORE:    0.00 PKD
ROOT
HETATM    1  C   UNL     1     -10.363   6.171  69.589  1.00  0.00    -0.218 C  
HETATM    2  N   UNL     1      -8.978   6.815  69.597  1.00  0.00    -0.143 N  
HETATM    3  C   UNL     1      -8.053   6.000  68.708  1.00  0.00    -0.104 C  
HETATM    4  C   UNL     1      -8.447   6.786  71.032  1.00  0.00    -0.132 C  
ENDROOT
BRANCH   2   5
HETATM    5  C   UNL     1      -9.129   8.267  69.075  1.00  0.00    -0.147 C  
BRANCH   5   6
HETATM    6  C   UNL     1      -8.598   8.506  67.653  1.00  0.00    -0.133 C  
HETATM    7  O   UNL     1      -9.660   8.843  66.769  1.00  0.00    -0.169 OA 
HETATM    8  H   UNL     1      -9.332   8.990  65.890  1.00  0.00     0.000 HD 
ENDBRANCH   5   6
ENDBRANCH   2   5
TORSDOF 2
ENDMDL
MODEL      161
REMARK 921   NORMALIZED FREE ENERGY PREDICTED BY IDOCK:   -0.91 KCAL/MOL
REMARK 922        TOTAL FREE ENERGY PREDICTED BY IDOCK:   -1.04 KCAL/MOL
REMARK 923 INTER-LIGAND FREE ENERGY PREDICTED BY IDOCK:   -1.00 KCAL/MOL
REMARK 924 INTRA-LIGAND FREE ENERGY PREDICTED BY IDOCK:   -0.04 KCAL/MOL
REMARK 927      BINDING AFFINITY PREDICTED BY RF-SCORE:    0.00 PKD
ROOT
HETATM    1  C   UNL     1      -7.706  10.185  68.598  1.00  0.00    -0.092 C  
HETATM    2  N   UNL     1      -8.958   9.452  69.076  1.00  0.00    -0.138 N  
HETATM    3  C   UNL     1     -10.168  10.337  68.828  1.00  0.00    -0.192 C  
HETATM    4  C   UNL     1      -8.820   9.202  70.579  1.00  0.00    -0.224 C  
ENDROOT
BRANCH   2   5
HETATM    5  C   UNL     1      -9.059   8.122  68.285  1.00  0.00    -0.135 C  
BRANCH   5   6
HETATM    6  C   UNL     1      -8.668   6.864  69.076  1.00  0.00    -0.131 C  
HETATM    7  O   UNL     1      -7.623   6.159  68.417  1.00  0.00    -0.088 OA 
HETATM    8  H   UNL     1      -7.382   5.381  68.905  1.00  0.00     0.000 HD 
ENDBRANCH   5   6
ENDBRANCH   2   5
TORSDOF 2
ENDMDL
MODEL      162
REMARK 921   NORMALIZED FREE ENERGY PREDICTED BY IDOCK:   -0.87 KCAL/MOL
REMARK 922        TOTAL FREE ENERGY PREDICTED BY IDOCK:   -1.01 KCAL/MOL
REMARK 923 INTER-LIGAND FREE ENERGY PREDICTED BY IDOCK:   -0.99 KCAL/MOL
REMARK 924 INTRA-LIGAND FREE ENERGY PREDICTED BY IDOCK:   -0.02 KCAL/MOL
REMARK 927      BINDING AFFINITY PREDICTED BY RF-SCORE:    0.00 PKD
ROOT
HETATM    1  C   UNL     1      -9.341  11.271  68.654  1.00  0.00    -0.164 C  
HETATM    2  N   UNL     1      -8.349  12.125  67.866  1.00  0.00    -0.151 N  
HETATM    3  C   UNL     1      -8.678  12.016  66.386  1.00  0.00    -0.088 C  
HETATM    4  C   UNL     1      -6.944  11.569  68.108  1.00  0.00    -0.070 C  
ENDROOT
BRANCH   2   5
HETATM    5  C   UNL     1      -8.478  13.586  68.368  1.00  0.00    -0.143 C  
BRANCH   5   6
HETATM    6  C   UNL     1      -9.160  14.553  67.388  1.00  0.00    -0.196 C  
HETATM    7  O   UNL     1      -8.664  15.875  67.557  1.00  0.00    -0.173 OA 
HETATM    8  H   UNL     1      -9.086  16.473  66.951  1.00  0.00     0.000 HD 
ENDBRANCH   5   6
ENDBRANCH   2   5
TORSDOF 2
ENDMDL
MODEL      163
REMARK 921   NORMALIZED FREE ENERGY PREDICTED BY IDOCK:   -0.87 KCAL/MOL
REMARK 922        TOTAL FREE ENERGY PREDICTED BY IDOCK:   -1.00 KCAL/MOL
REMARK 923 INTER-LIGAND FREE ENERGY PREDICTED BY IDOCK:   -0.96 KCAL/MOL
REMARK 924 INTRA-LIGAND FREE ENERGY PREDICTED BY IDOCK:   -0.04 KCAL/MOL
REMARK 927      BINDING AFFINITY PREDICTED BY RF-SCORE:    0.00 PKD
ROOT
HETATM    1  C   UNL     1     -10.331   4.801  66.527  1.00  0.00    -0.244 C  
HETATM    2  N   UNL     1      -9.674   6.098  66.994  1.00  0.00    -0.135 N  
HETATM    3  C   UNL     1     -10.273   7.258  66.216  1.00  0.00     0.246 C  
HETATM    4  C   UNL     1      -8.177   6.011  66.690  1.00  0.00    -0.106 C  
ENDROOT
BRANCH   2   5
HETATM    5  C   UNL     1      -9.938   6.241  68.515  1.00  0.00    -0.144 C  
BRANCH   5   6
HETATM    6  C   UNL     1     -11.351   6.716  68.888  1.00  0.00    -0.128 C  
HETATM    7  O   UNL     1     -11.292   7.837  69.761  1.00  0.00    -0.451 OA 
HETATM    8  H   UNL     1     -12.165   8.130  69.992  1.00  0.00     0.000 HD 
ENDBRANCH   5   6
ENDBRANCH   2   5
TORSDOF 2
ENDMDL
MODEL      164
REMARK 921   NORMALIZED FREE ENERGY PREDICTED BY IDOCK:   -0.86 KCAL/MOL
REMARK 922        TOTAL FREE ENERGY PREDICTED BY IDOCK:   -0.99 KCAL/MOL
REMARK 923 INTER-LIGAND FREE ENERGY PREDICTED BY IDOCK:   -0.96 KCAL/MOL
REMARK 924 INTRA-LIGAND FREE ENERGY PREDICTED BY IDOCK:   -0.03 KCAL/MOL
REMARK 927      BINDING AFFINITY PREDICTED BY RF-SCORE:    0.00 PKD
ROOT
HETATM    1  C   UNL     1      -9.351   9.810  68.089  1.00  0.00    -0.128 C  
HETATM    2  N   UNL     1      -8.920   8.783  67.044  1.00  0.00    -0.130 N  
HETATM    3  C   UNL     1      -7.417   8.583  67.145  1.00  0.00    -0.085 C  
HETATM    4  C   UNL     1      -9.259   9.339  65.660  1.00  0.00    -0.231 C  
ENDROOT
BRANCH   2   5
HETATM    5  C   UNL     1      -9.686   7.466  67.332  1.00  0.00    -0.153 C  
BRANCH   5   6
HETATM    6  C   UNL     1      -9.020   6.537  68.360  1.00  0.00    -0.125 C  
HETATM    7  O   UNL     1      -9.063   5.186  67.920  1.00  0.00    -0.109 OA 
HETATM    8  H   UNL     1      -8.651   4.612  68.555  1.00  0.00     0.000 HD 
ENDBRANCH   5   6
ENDBRANCH   2   5
TORSDOF 2
ENDMDL
MODEL      165
REMARK 921   NORMALIZED FREE ENERGY PREDICTED BY IDOCK:   -0.86 KCAL/MOL
REMARK 922        TOTAL FREE ENERGY PREDICTED BY IDOCK:   -0.99 KCAL/MOL
REMARK 923 INTER-LIGAND FREE ENERGY PREDICTED BY IDOCK:   -0.92 KCAL/MOL
REMARK 924 INTRA-LIGAND FREE ENERGY PREDICTED BY IDOCK:   -0.07 KCAL/MOL
REMARK 927      BINDING AFFINITY PREDICTED BY RF-SCORE:    0.00 PKD
ROOT
HETATM    1  C   UNL     1      -7.619   4.787  67.890  1.00  0.00    -0.082 C  
HETATM    2  N   UNL     1      -7.380   6.290  68.025  1.00  0.00    -0.087 N  
HETATM    3  C   UNL     1      -6.060   6.638  67.357  1.00  0.00    -0.028 C  
HETATM    4  C   UNL     1      -7.290   6.626  69.515  1.00  0.00    -0.091 C  
ENDROOT
BRANCH   2   5
HETATM    5  C   UNL     1      -8.567   7.021  67.347  1.00  0.00    -0.121 C  
BRANCH   5   6
HETATM    6  C   UNL     1      -9.392   6.160  66.377  1.00  0.00    -0.152 C  
HETATM    7  O   UNL     1      -8.990   6.391  65.033  1.00  0.00    -0.361 OA 
HETATM    8  H   UNL     1      -9.500   5.859  64.433  1.00  0.00     0.000 HD 
ENDBRANCH   5   6
ENDBRANCH   2   5
TORSDOF 2
ENDMDL
MODEL      166
REMARK 921   NORMALIZED FREE ENERGY PREDICTED BY IDOCK:   -0.80 KCAL/MOL
REMARK 922        TOTAL FREE ENERGY PREDICTED BY IDOCK:   -0.92 KCAL/MOL
REMARK 923 INTER-LIGAND FREE ENERGY PREDICTED BY IDOCK:   -0.88 KCAL/MOL
REMARK 924 INTRA-LIGAND FREE ENERGY PREDICTED BY IDOCK:   -0.04 KCAL/MOL
REMARK 927      BINDING AFFINITY PREDICTED BY RF-SCORE:    0.00 PKD
ROOT
HETATM    1  C   UNL     1      -8.436  10.530  68.899  1.00  0.00    -0.152 C  
HETATM    2  N   UNL     1      -7.011  11.062  68.752  1.00  0.00    -0.074 N  
HETATM    3  C   UNL     1      -6.479  10.663  67.385  1.00  0.00    -0.059 C  
HETATM    4  C   UNL     1      -6.146  10.413  69.835  1.00  0.00    -0.068 C  
ENDROOT
BRANCH   2   5
HETATM    5  C   UNL     1      -7.063  12.603  68.912  1.00  0.00    -0.069 C  
BRANCH   5   6
HETATM    6  C   UNL     1      -6.108  13.384  67.995  1.00  0.00    -0.129 C  
HETATM    7  O   UNL     1      -6.818  14.359  67.242  1.00  0.00    -0.329 OA 
HETATM    8  H   UNL     1      -6.228  14.841  66.675  1.00  0.00     0.000 HD 
ENDBRANCH   5   6
ENDBRANCH   2   5
TORSDOF 2
ENDMDL
MODEL      167
REMARK 921   NORMALIZED FREE ENERGY PREDICTED BY IDOCK:   -0.78 KCAL/MOL
REMARK 922        TOTAL FREE ENERGY PREDICTED BY IDOCK:   -0.91 KCAL/MOL
REMARK 923 INTER-LIGAND FREE ENERGY PREDICTED BY IDOCK:   -0.90 KCAL/MOL
REMARK 924 INTRA-LIGAND FREE ENERGY PREDICTED BY IDOCK:   -0.01 KCAL/MOL
REMARK 927      BINDING AFFINITY PREDICTED BY RF-SCORE:    0.00 PKD
ROOT
HETATM    1  C   UNL     1      -9.299   3.773  69.542  1.00  0.00    -0.179 C  
HETATM    2  N   UNL     1      -9.037   5.200  70.023  1.00  0.00    -0.120 N  
HETATM    3  C   UNL     1      -9.661   6.172  69.035  1.00  0.00    -0.127 C  
HETATM    4  C   UNL     1      -7.523   5.421  70.055  1.00  0.00    -0.069 C  
ENDROOT
BRANCH   2   5
HETATM    5  C   UNL     1      -9.664   5.346  71.433  1.00  0.00    -0.161 C  
BRANCH   5   6
HETATM    6  C   UNL     1      -8.892   4.647  72.563  1.00  0.00    -0.118 C  
HETATM    7  O   UNL     1      -9.655   4.639  73.764  1.00  0.00    -0.122 OA 
HETATM    8  H   UNL     1      -9.177   4.207  74.463  1.00  0.00     0.000 HD 
ENDBRANCH   5   6
ENDBRANCH   2   5
TORSDOF 2
ENDMDL
MODEL      168
REMARK 921   NORMALIZED FREE ENERGY PREDICTED BY IDOCK:   -0.76 KCAL/MOL
REMARK 922        TOTAL FREE ENERGY PREDICTED BY IDOCK:   -0.88 KCAL/MOL
REMARK 923 INTER-LIGAND FREE ENERGY PREDICTED BY IDOCK:   -0.88 KCAL/MOL
REMARK 924 INTRA-LIGAND FREE ENERGY PREDICTED BY IDOCK:   -0.00 KCAL/MOL
REMARK 927      BINDING AFFINITY PREDICTED BY RF-SCORE:    0.00 PKD
ROOT
HETATM    1  C   UNL     1      -8.143   7.037  68.518  1.00  0.00    -0.124 C  
HETATM    2  N   UNL     1      -9.291   6.171  69.033  1.00  0.00    -0.128 N  
HETATM    3  C   UNL     1     -10.606   6.874  68.735  1.00  0.00    -0.220 C  
HETATM    4  C   UNL     1      -9.135   6.023  70.548  1.00  0.00    -0.149 C  
ENDROOT
BRANCH   2   5
HETATM    5  C   UNL     1      -9.208   4.800  68.315  1.00  0.00    -0.124 C  
BRANCH   5   6
HETATM    6  C   UNL     1      -7.818   4.434  67.771  1.00  0.00    -0.084 C  
HETATM    7  O   UNL     1      -6.999   3.897  68.802  1.00  0.00    -0.046 OA 
HETATM    8  H   UNL     1      -6.139   3.671  68.466  1.00  0.00     0.000 HD 
ENDBRANCH   5   6
ENDBRANCH   2   5
TORSDOF 2
ENDMDL
MODEL      169
REMARK 921   NORMALIZED FREE ENERGY PREDICTED BY IDOCK:   -0.72 KCAL/MOL
REMARK 922        TOTAL FREE ENERGY PREDICTED BY IDOCK:   -0.84 KCAL/MOL
REMARK 923 INTER-LIGAND FREE ENERGY PREDICTED BY IDOCK:   -0.81 KCAL/MOL
REMARK 924 INTRA-LIGAND FREE ENERGY PREDICTED BY IDOCK:   -0.03 KCAL/MOL
REMARK 927      BINDING AFFINITY PREDICTED BY RF-SCORE:    0.00 PKD
ROOT
HETATM    1  C   UNL     1      -9.294   6.008  66.676  1.00  0.00    -0.144 C  
HETATM    2  N   UNL     1      -8.824   5.973  68.129  1.00  0.00    -0.112 N  
HETATM    3  C   UNL     1      -7.367   5.541  68.162  1.00  0.00    -0.073 C  
HETATM    4  C   UNL     1      -9.669   4.942  68.879  1.00  0.00    -0.173 C  
ENDROOT
BRANCH   2   5
HETATM    5  C   UNL     1      -9.005   7.395  68.719  1.00  0.00    -0.129 C  
BRANCH   5   6
HETATM    6  C   UNL     1      -7.838   7.893  69.586  1.00  0.00    -0.105 C  
HETATM    7  O   UNL     1      -7.667   9.297  69.441  1.00  0.00    -0.076 OA 
HETATM    8  H   UNL     1      -6.945   9.605  69.977  1.00  0.00     0.000 HD 
ENDBRANCH   5   6
ENDBRANCH   2   5
TORSDOF 2
ENDMDL
MODEL      170
REMARK 921   NORMALIZED FREE ENERGY PREDICTED BY IDOCK:   -0.70 KCAL/MOL
REMARK 922        TOTAL FREE ENERGY PREDICTED BY IDOCK:   -0.82 KCAL/MOL
REMARK 923 INTER-LIGAND FREE ENERGY PREDICTED BY IDOCK:   -0.78 KCAL/MOL
REMARK 924 INTRA-LIGAND FREE ENERGY PREDICTED BY IDOCK:   -0.04 KCAL/MOL
REMARK 927      BINDING AFFINITY PREDICTED BY RF-SCORE:    0.00 PKD
ROOT
HETATM    1  C   UNL     1      -9.412   5.289  71.978  1.00  0.00    -0.145 C  
HETATM    2  N   UNL     1      -9.011   5.342  70.505  1.00  0.00    -0.134 N  
HETATM    3  C   UNL     1      -9.477   6.664  69.918  1.00  0.00    -0.156 C  
HETATM    4  C   UNL     1      -9.716   4.195  69.778  1.00  0.00    -0.208 C  
ENDROOT
BRANCH   2   5
HETATM    5  C   UNL     1      -7.469   5.201  70.429  1.00  0.00    -0.067 C  
BRANCH   5   6
HETATM    6  C   UNL     1      -6.750   6.326  69.667  1.00  0.00    -0.053 C  
HETATM    7  O   UNL     1      -5.946   5.792  68.623  1.00  0.00    -0.018 OA 
HETATM    8  H   UNL     1      -5.501   6.487  68.152  1.00  0.00     0.000 HD 
ENDBRANCH   5   6
ENDBRANCH   2   5
TORSDOF 2
ENDMDL
MODEL      171
REMARK 921   NORMALIZED FREE ENERGY PREDICTED BY IDOCK:   -0.58 KCAL/MOL
REMARK 922        TOTAL FREE ENERGY PREDICTED BY IDOCK:   -0.68 KCAL/MOL
REMARK 923 INTER-LIGAND FREE ENERGY PREDICTED BY IDOCK:   -0.62 KCAL/MOL
REMARK 924 INTRA-LIGAND FREE ENERGY PREDICTED BY IDOCK:   -0.06 KCAL/MOL
REMARK 927      BINDING AFFINITY PREDICTED BY RF-SCORE:    0.00 PKD
ROOT
HETATM    1  C   UNL     1      -9.299   3.890  72.991  1.00  0.00    -0.110 C  
HETATM    2  N   UNL     1      -8.534   4.304  71.735  1.00  0.00    -0.103 N  
HETATM    3  C   UNL     1      -9.138   5.591  71.196  1.00  0.00    -0.142 C  
HETATM    4  C   UNL     1      -8.697   3.199  70.690  1.00  0.00    -0.075 C  
ENDROOT
BRANCH   2   5
HETATM    5  C   UNL     1      -7.047   4.499  72.130  1.00  0.00    -0.061 C  
BRANCH   5   6
HETATM    6  C   UNL     1      -6.772   4.508  73.642  1.00  0.00    -0.063 C  
HETATM    7  O   UNL     1      -6.354   5.799  74.070  1.00  0.00    -0.066 OA 
HETATM    8  H   UNL     1      -6.184   5.804  75.005  1.00  0.00     0.000 HD 
ENDBRANCH   5   6
ENDBRANCH   2   5
TORSDOF 2
ENDMDL
MODEL      172
REMARK 921   NORMALIZED FREE ENERGY PREDICTED BY IDOCK:   -0.46 KCAL/MOL
REMARK 922        TOTAL FREE ENERGY PREDICTED BY IDOCK:   -0.55 KCAL/MOL
REMARK 923 INTER-LIGAND FREE ENERGY PREDICTED BY IDOCK:   -0.96 KCAL/MOL
REMARK 924 INTRA-LIGAND FREE ENERGY PREDICTED BY IDOCK:    0.41 KCAL/MOL
REMARK 927      BINDING AFFINITY PREDICTED BY RF-SCORE:    0.00 PKD
ROOT
HETATM    1  C   UNL     1     -10.412  11.154  66.406  1.00  0.00    -0.260 C  
HETATM    2  N   UNL     1      -9.784  12.459  66.893  1.00  0.00    -0.210 N  
HETATM    3  C   UNL     1     -10.445  13.621  66.170  1.00  0.00    -0.297 C  
HETATM    4  C   UNL     1      -8.295  12.431  66.539  1.00  0.00     0.112 C  
ENDROOT
BRANCH   2   5
HETATM    5  C   UNL     1     -10.004  12.547  68.425  1.00  0.00    -0.212 C  
BRANCH   5   6
HETATM    6  C   UNL     1      -9.612  13.889  69.062  1.00  0.00     0.139 C  
HETATM    7  O   UNL     1     -10.570  14.893  68.749  1.00  0.00    -0.232 OA 
HETATM    8  H   UNL     1     -10.328  15.723  69.143  1.00  0.00     0.000 HD 
ENDBRANCH   5   6
ENDBRANCH   2   5
TORSDOF 2
ENDMDL
