MODEL        1
REMARK 921   NORMALIZED FREE ENERGY PREDICTED BY IDOCK:   -6.54 KCAL/MOL
REMARK 922        TOTAL FREE ENERGY PREDICTED BY IDOCK:   -7.50 KCAL/MOL
REMARK 923 INTER-LIGAND FREE ENERGY PREDICTED BY IDOCK:   -7.31 KCAL/MOL
REMARK 924 INTRA-LIGAND FREE ENERGY PREDICTED BY IDOCK:   -0.19 KCAL/MOL
REMARK 927      BINDING AFFINITY PREDICTED BY RF-SCORE:    0.00 PKD
ROOT
HETATM    1  C   UNL     1     -10.906  12.520  63.528  1.00  0.00    -0.397 C  
HETATM    2  O   UNL     2      -9.807  13.773  68.290  1.00  0.00    -0.222 OA 
HETATM    3  N   UNL     1     -10.919  13.097  64.912  1.00  0.00    -0.304 N  
HETATM    4  O   UNL     2     -12.110  11.390  67.597  1.00  0.00    -0.630 OA 
HETATM    5  H   UNL     2      -9.515  12.871  68.243  1.00  0.00     0.000 HD 
HETATM    6  C   UNL     1     -10.120  12.110  65.783  1.00  0.00    -0.247 C  
HETATM    7  C   UNL     1     -12.387  13.112  65.390  1.00  0.00    -0.481 C  
HETATM    8  C   UNL     2     -11.166  13.974  68.525  1.00  0.00    -0.265 A  
HETATM    9  O   UNL     2     -12.016  10.666  69.730  1.00  0.00    -0.291 OA 
HETATM   10  C   UNL     2     -11.588  15.278  68.594  1.00  0.00    -0.370 A  
HETATM   11  C   UNL     2     -11.936  11.559  68.846  1.00  0.00    -0.299 C  
HETATM   12  C   UNL     2     -12.093  15.706  69.812  1.00  0.00    -0.346 A  
HETATM   13  C   UNL     2     -12.251  14.784  70.843  1.00  0.00    -0.384 A  
HETATM   14  C   UNL     2     -11.735  12.991  69.333  1.00  0.00    -0.386 A  
HETATM   15  C   UNL     2     -12.165  13.420  70.569  1.00  0.00    -0.425 A  
ENDROOT
BRANCH   3  16
HETATM   16  C   UNL     1     -10.416  14.537  64.973  1.00  0.00    -0.429 C  
BRANCH  16  17
HETATM   17  C   UNL     1     -11.487  15.645  64.954  1.00  0.00    -0.245 C  
HETATM   18  O   UNL     1     -11.460  16.352  63.724  1.00  0.00    -1.590 OA 
HETATM   19  H   UNL     1     -12.120  17.035  63.711  1.00  0.00     0.000 HD 
ENDBRANCH  16  17
ENDBRANCH   3  16
TORSDOF 2
ENDMDL
MODEL        2
REMARK 921   NORMALIZED FREE ENERGY PREDICTED BY IDOCK:   -6.04 KCAL/MOL
REMARK 922        TOTAL FREE ENERGY PREDICTED BY IDOCK:   -6.93 KCAL/MOL
REMARK 923 INTER-LIGAND FREE ENERGY PREDICTED BY IDOCK:   -6.88 KCAL/MOL
REMARK 924 INTRA-LIGAND FREE ENERGY PREDICTED BY IDOCK:   -0.05 KCAL/MOL
REMARK 927      BINDING AFFINITY PREDICTED BY RF-SCORE:    0.00 PKD
ROOT
HETATM    1  C   UNL     1     -10.624  13.810  64.618  1.00  0.00    -0.425 C  
HETATM    2  O   UNL     2     -10.367  14.304  69.633  1.00  0.00    -0.435 OA 
HETATM    3  N   UNL     1     -10.918  14.094  66.061  1.00  0.00    -0.301 N  
HETATM    4  O   UNL     2     -11.996  11.696  68.214  1.00  0.00    -0.516 OA 
HETATM    5  H   UNL     2      -9.880  13.503  69.480  1.00  0.00     0.000 HD 
HETATM    6  C   UNL     1     -10.024  13.132  66.866  1.00  0.00    -0.245 C  
HETATM    7  C   UNL     1     -12.397  13.726  66.308  1.00  0.00    -0.433 C  
HETATM    8  C   UNL     2     -11.754  14.185  69.691  1.00  0.00    -0.316 A  
HETATM    9  O   UNL     2     -11.983  10.604  70.186  1.00  0.00    -0.283 OA 
HETATM   10  C   UNL     2     -12.459  15.341  69.911  1.00  0.00    -0.275 A  
HETATM   11  C   UNL     2     -12.003  11.650  69.486  1.00  0.00    -0.317 C  
HETATM   12  C   UNL     2     -13.179  15.416  71.094  1.00  0.00    -0.583 A  
HETATM   13  C   UNL     2     -13.244  14.298  71.921  1.00  0.00    -0.456 A  
HETATM   14  C   UNL     2     -12.179  12.970  70.229  1.00  0.00    -0.368 A  
HETATM   15  C   UNL     2     -12.829  13.058  71.440  1.00  0.00    -0.385 A  
ENDROOT
BRANCH   3  16
HETATM   16  C   UNL     1     -10.756  15.564  66.436  1.00  0.00    -0.303 C  
BRANCH  16  17
HETATM   17  C   UNL     1     -10.170  16.493  65.356  1.00  0.00    -0.148 C  
HETATM   18  O   UNL     1     -11.203  17.071  64.573  1.00  0.00    -1.091 OA 
HETATM   19  H   UNL     1     -10.843  17.643  63.906  1.00  0.00     0.000 HD 
ENDBRANCH  16  17
ENDBRANCH   3  16
TORSDOF 2
ENDMDL
MODEL        3
REMARK 921   NORMALIZED FREE ENERGY PREDICTED BY IDOCK:   -6.02 KCAL/MOL
REMARK 922        TOTAL FREE ENERGY PREDICTED BY IDOCK:   -6.91 KCAL/MOL
REMARK 923 INTER-LIGAND FREE ENERGY PREDICTED BY IDOCK:   -6.74 KCAL/MOL
REMARK 924 INTRA-LIGAND FREE ENERGY PREDICTED BY IDOCK:   -0.17 KCAL/MOL
REMARK 927      BINDING AFFINITY PREDICTED BY RF-SCORE:    0.00 PKD
ROOT
HETATM    1  C   UNL     1     -10.520  16.679  67.173  1.00  0.00    -0.300 C  
HETATM    2  O   UNL     2     -12.045  11.989  66.103  1.00  0.00    -0.582 OA 
HETATM    3  N   UNL     1     -10.581  15.221  66.824  1.00  0.00    -0.299 N  
HETATM    4  O   UNL     2     -10.868  12.786  69.176  1.00  0.00    -0.185 OA 
HETATM    5  H   UNL     2     -12.671  12.263  66.763  1.00  0.00     0.000 HD 
HETATM    6  C   UNL     1     -11.897  14.702  67.433  1.00  0.00    -0.348 C  
HETATM    7  C   UNL     1      -9.396  14.529  67.530  1.00  0.00    -0.193 C  
HETATM    8  C   UNL     2     -10.821  11.512  66.568  1.00  0.00    -0.288 A  
HETATM    9  O   UNL     2     -11.743  10.885  70.014  1.00  0.00    -0.283 OA 
HETATM   10  C   UNL     2      -9.918  11.116  65.614  1.00  0.00    -0.297 A  
HETATM   11  C   UNL     2     -11.236  11.571  69.088  1.00  0.00    -0.274 C  
HETATM   12  C   UNL     2      -9.572   9.773  65.602  1.00  0.00    -0.329 A  
HETATM   13  C   UNL     2     -10.057   8.939  66.605  1.00  0.00    -0.357 A  
HETATM   14  C   UNL     2     -10.920  10.842  67.787  1.00  0.00    -0.354 A  
HETATM   15  C   UNL     2     -10.645   9.493  67.742  1.00  0.00    -0.318 A  
ENDROOT
BRANCH   3  16
HETATM   16  C   UNL     1     -10.431  14.948  65.329  1.00  0.00    -0.404 C  
BRANCH  16  17
HETATM   17  C   UNL     1     -11.685  15.155  64.459  1.00  0.00    -0.328 C  
HETATM   18  O   UNL     1     -11.606  16.378  63.743  1.00  0.00    -1.605 OA 
HETATM   19  H   UNL     1     -12.380  16.506  63.207  1.00  0.00     0.000 HD 
ENDBRANCH  16  17
ENDBRANCH   3  16
TORSDOF 2
ENDMDL
MODEL        4
REMARK 921   NORMALIZED FREE ENERGY PREDICTED BY IDOCK:   -5.96 KCAL/MOL
REMARK 922        TOTAL FREE ENERGY PREDICTED BY IDOCK:   -6.84 KCAL/MOL
REMARK 923 INTER-LIGAND FREE ENERGY PREDICTED BY IDOCK:   -6.57 KCAL/MOL
REMARK 924 INTRA-LIGAND FREE ENERGY PREDICTED BY IDOCK:   -0.27 KCAL/MOL
REMARK 927      BINDING AFFINITY PREDICTED BY RF-SCORE:    0.00 PKD
ROOT
HETATM    1  C   UNL     1     -11.771  12.989  67.408  1.00  0.00    -0.374 C  
HETATM    2  O   UNL     2      -9.171  16.993  65.773  1.00  0.00    -0.526 OA 
HETATM    3  N   UNL     1     -11.279  14.377  67.122  1.00  0.00    -0.316 N  
HETATM    4  O   UNL     2      -8.826  15.862  68.946  1.00  0.00    -0.195 OA 
HETATM    5  H   UNL     2      -8.485  16.361  65.949  1.00  0.00     0.000 HD 
HETATM    6  C   UNL     1      -9.764  14.242  66.881  1.00  0.00    -0.264 C  
HETATM    7  C   UNL     1     -11.509  15.217  68.397  1.00  0.00    -0.345 C  
HETATM    8  C   UNL     2      -9.645  17.716  66.866  1.00  0.00    -0.286 A  
HETATM    9  O   UNL     2      -6.933  17.064  69.179  1.00  0.00    -0.227 OA 
HETATM   10  C   UNL     2     -10.636  18.630  66.612  1.00  0.00    -0.410 A  
HETATM   11  C   UNL     2      -8.077  16.859  68.693  1.00  0.00    -0.253 C  
HETATM   12  C   UNL     2     -10.326  19.963  66.833  1.00  0.00    -0.596 A  
HETATM   13  C   UNL     2      -9.096  20.289  67.398  1.00  0.00    -0.483 A  
HETATM   14  C   UNL     2      -8.664  17.967  67.825  1.00  0.00    -0.251 A  
HETATM   15  C   UNL     2      -8.316  19.291  67.979  1.00  0.00    -0.350 A  
ENDROOT
BRANCH   3  16
HETATM   16  C   UNL     1     -12.035  15.068  65.991  1.00  0.00     0.060 C  
BRANCH  16  17
HETATM   17  C   UNL     1     -11.414  14.971  64.584  1.00  0.00    -0.381 C  
HETATM   18  O   UNL     1     -11.594  16.183  63.868  1.00  0.00    -1.369 OA 
HETATM   19  H   UNL     1     -11.211  16.123  63.000  1.00  0.00     0.000 HD 
ENDBRANCH  16  17
ENDBRANCH   3  16
TORSDOF 2
ENDMDL
MODEL        5
REMARK 921   NORMALIZED FREE ENERGY PREDICTED BY IDOCK:   -5.86 KCAL/MOL
REMARK 922        TOTAL FREE ENERGY PREDICTED BY IDOCK:   -6.73 KCAL/MOL
REMARK 923 INTER-LIGAND FREE ENERGY PREDICTED BY IDOCK:   -6.73 KCAL/MOL
REMARK 924 INTRA-LIGAND FREE ENERGY PREDICTED BY IDOCK:   -0.00 KCAL/MOL
REMARK 927      BINDING AFFINITY PREDICTED BY RF-SCORE:    0.00 PKD
ROOT
HETATM    1  C   UNL     1      -8.787  17.735  66.358  1.00  0.00    -0.231 C  
HETATM    2  O   UNL     2     -12.512  14.685  67.866  1.00  0.00    -0.586 OA 
HETATM    3  N   UNL     1      -9.590  16.589  66.897  1.00  0.00    -0.235 N  
HETATM    4  O   UNL     2     -10.717  16.488  70.101  1.00  0.00    -0.285 OA 
HETATM    5  H   UNL     2     -12.838  15.543  68.111  1.00  0.00     0.000 HD 
HETATM    6  C   UNL     1     -10.903  17.205  67.414  1.00  0.00    -0.164 C  
HETATM    7  C   UNL     1      -8.808  16.002  68.092  1.00  0.00    -0.178 C  
HETATM    8  C   UNL     2     -11.625  14.081  68.754  1.00  0.00    -0.331 A  
HETATM    9  O   UNL     2     -12.288  16.119  71.675  1.00  0.00    -0.442 OA 
HETATM   10  C   UNL     2     -11.155  12.841  68.401  1.00  0.00    -0.293 A  
HETATM   11  C   UNL     2     -11.635  15.797  70.648  1.00  0.00    -0.390 C  
HETATM   12  C   UNL     2     -11.508  11.783  69.224  1.00  0.00    -0.369 A  
HETATM   13  C   UNL     2     -12.204  12.042  70.402  1.00  0.00    -0.379 A  
HETATM   14  C   UNL     2     -11.880  14.399  70.088  1.00  0.00    -0.380 A  
HETATM   15  C   UNL     2     -12.300  13.350  70.874  1.00  0.00    -0.436 A  
ENDROOT
BRANCH   3  16
HETATM   16  C   UNL     1      -9.782  15.457  65.891  1.00  0.00    -0.357 C  
BRANCH  16  17
HETATM   17  C   UNL     1     -11.100  15.456  65.095  1.00  0.00    -0.394 C  
HETATM   18  O   UNL     1     -11.115  16.506  64.140  1.00  0.00    -1.280 OA 
HETATM   19  H   UNL     1     -11.929  16.506  63.649  1.00  0.00     0.000 HD 
ENDBRANCH  16  17
ENDBRANCH   3  16
TORSDOF 2
ENDMDL
MODEL        6
REMARK 921   NORMALIZED FREE ENERGY PREDICTED BY IDOCK:   -5.71 KCAL/MOL
REMARK 922        TOTAL FREE ENERGY PREDICTED BY IDOCK:   -6.56 KCAL/MOL
REMARK 923 INTER-LIGAND FREE ENERGY PREDICTED BY IDOCK:   -6.44 KCAL/MOL
REMARK 924 INTRA-LIGAND FREE ENERGY PREDICTED BY IDOCK:   -0.13 KCAL/MOL
REMARK 927      BINDING AFFINITY PREDICTED BY RF-SCORE:    0.00 PKD
ROOT
HETATM    1  C   UNL     1      -8.500  16.391  66.548  1.00  0.00    -0.301 C  
HETATM    2  O   UNL     2     -12.633  14.119  68.339  1.00  0.00    -0.443 OA 
HETATM    3  N   UNL     1      -9.460  15.462  67.229  1.00  0.00    -0.208 N  
HETATM    4  O   UNL     2     -10.714  16.075  70.327  1.00  0.00    -0.311 OA 
HETATM    5  H   UNL     2     -12.858  15.039  68.410  1.00  0.00     0.000 HD 
HETATM    6  C   UNL     1     -10.704  16.311  67.550  1.00  0.00    -0.300 C  
HETATM    7  C   UNL     1      -8.805  15.014  68.553  1.00  0.00    -0.181 C  
HETATM    8  C   UNL     2     -11.864  13.586  69.371  1.00  0.00    -0.335 A  
HETATM    9  O   UNL     2     -12.377  16.182  71.845  1.00  0.00    -0.465 OA 
HETATM   10  C   UNL     2     -11.540  12.257  69.269  1.00  0.00    -0.383 A  
HETATM   11  C   UNL     2     -11.730  15.606  70.931  1.00  0.00    -0.387 C  
HETATM   12  C   UNL     2     -12.053  11.414  70.242  1.00  0.00    -0.459 A  
HETATM   13  C   UNL     2     -12.756  11.961  71.312  1.00  0.00    -0.401 A  
HETATM   14  C   UNL     2     -12.128  14.168  70.610  1.00  0.00    -0.421 A  
HETATM   15  C   UNL     2     -12.705  13.335  71.542  1.00  0.00    -0.376 A  
ENDROOT
BRANCH   3  16
HETATM   16  C   UNL     1      -9.754  14.197  66.427  1.00  0.00    -0.298 C  
BRANCH  16  17
HETATM   17  C   UNL     1     -10.554  14.376  65.123  1.00  0.00    -0.410 C  
HETATM   18  O   UNL     1     -10.105  13.470  64.127  1.00  0.00    -0.760 OA 
HETATM   19  H   UNL     1     -10.598  13.580  63.322  1.00  0.00     0.000 HD 
ENDBRANCH  16  17
ENDBRANCH   3  16
TORSDOF 2
ENDMDL
MODEL        7
REMARK 921   NORMALIZED FREE ENERGY PREDICTED BY IDOCK:   -5.64 KCAL/MOL
REMARK 922        TOTAL FREE ENERGY PREDICTED BY IDOCK:   -6.49 KCAL/MOL
REMARK 923 INTER-LIGAND FREE ENERGY PREDICTED BY IDOCK:   -6.09 KCAL/MOL
REMARK 924 INTRA-LIGAND FREE ENERGY PREDICTED BY IDOCK:   -0.40 KCAL/MOL
REMARK 927      BINDING AFFINITY PREDICTED BY RF-SCORE:    0.00 PKD
ROOT
HETATM    1  C   UNL     1     -10.532  10.804  66.607  1.00  0.00    -0.246 C  
HETATM    2  O   UNL     2     -11.701  15.504  68.022  1.00  0.00    -0.324 OA 
HETATM    3  N   UNL     1     -10.484  12.233  67.060  1.00  0.00    -0.215 N  
HETATM    4  O   UNL     2     -10.598  14.845  64.889  1.00  0.00    -0.414 OA 
HETATM    5  H   UNL     2     -12.348  15.326  67.350  1.00  0.00     0.000 HD 
HETATM    6  C   UNL     1     -11.760  12.891  66.501  1.00  0.00    -0.393 C  
HETATM    7  C   UNL     1      -9.253  12.885  66.394  1.00  0.00    -0.137 C  
HETATM    8  C   UNL     2     -10.447  15.922  67.582  1.00  0.00    -0.289 A  
HETATM    9  O   UNL     2     -11.331  16.861  64.197  1.00  0.00    -1.208 OA 
HETATM   10  C   UNL     2      -9.513  16.181  68.553  1.00  0.00    -0.216 A  
HETATM   11  C   UNL     2     -10.873  16.075  65.067  1.00  0.00    -0.404 C  
HETATM   12  C   UNL     2      -9.069  17.490  68.658  1.00  0.00    -0.263 A  
HETATM   13  C   UNL     2      -9.494  18.428  67.721  1.00  0.00    -0.291 A  
HETATM   14  C   UNL     2     -10.500  16.684  66.415  1.00  0.00    -0.266 A  
HETATM   15  C   UNL     2     -10.125  18.001  66.553  1.00  0.00    -0.379 A  
ENDROOT
BRANCH   3  16
HETATM   16  C   UNL     1     -10.309  12.387  68.568  1.00  0.00    -0.221 C  
BRANCH  16  17
HETATM   17  C   UNL     1     -11.590  12.338  69.422  1.00  0.00    -0.314 C  
HETATM   18  O   UNL     1     -11.658  13.455  70.295  1.00  0.00    -0.506 OA 
HETATM   19  H   UNL     1     -12.449  13.426  70.821  1.00  0.00     0.000 HD 
ENDBRANCH  16  17
ENDBRANCH   3  16
TORSDOF 2
ENDMDL
MODEL        8
REMARK 921   NORMALIZED FREE ENERGY PREDICTED BY IDOCK:   -5.60 KCAL/MOL
REMARK 922        TOTAL FREE ENERGY PREDICTED BY IDOCK:   -6.44 KCAL/MOL
REMARK 923 INTER-LIGAND FREE ENERGY PREDICTED BY IDOCK:   -6.13 KCAL/MOL
REMARK 924 INTRA-LIGAND FREE ENERGY PREDICTED BY IDOCK:   -0.31 KCAL/MOL
REMARK 927      BINDING AFFINITY PREDICTED BY RF-SCORE:    0.00 PKD
ROOT
HETATM    1  C   UNL     1      -7.378  18.760  68.638  1.00  0.00    -0.307 C  
HETATM    2  O   UNL     2      -8.802  14.592  66.176  1.00  0.00    -0.480 OA 
HETATM    3  N   UNL     1      -8.077  17.510  68.192  1.00  0.00    -0.240 N  
HETATM    4  O   UNL     2     -10.471  17.512  65.780  1.00  0.00    -0.535 OA 
HETATM    5  H   UNL     2      -8.534  15.167  65.469  1.00  0.00     0.000 HD 
HETATM    6  C   UNL     1      -7.833  17.413  66.675  1.00  0.00    -0.257 C  
HETATM    7  C   UNL     1      -9.587  17.714  68.444  1.00  0.00    -0.310 C  
HETATM    8  C   UNL     2     -10.093  14.773  66.667  1.00  0.00    -0.264 A  
HETATM    9  O   UNL     2     -11.466  16.703  63.926  1.00  0.00    -1.186 OA 
HETATM   10  C   UNL     2     -10.481  13.942  67.688  1.00  0.00    -0.245 A  
HETATM   11  C   UNL     2     -10.944  16.572  65.065  1.00  0.00    -0.210 C  
HETATM   12  C   UNL     2     -11.524  13.070  67.421  1.00  0.00    -0.380 A  
HETATM   13  C   UNL     2     -12.187  13.159  66.200  1.00  0.00    -0.451 A  
HETATM   14  C   UNL     2     -11.001  15.182  65.691  1.00  0.00    -0.359 A  
HETATM   15  C   UNL     2     -11.988  14.272  65.385  1.00  0.00    -0.383 A  
ENDROOT
BRANCH   3  16
HETATM   16  C   UNL     1      -7.659  16.268  68.976  1.00  0.00    -0.219 C  
BRANCH  16  17
HETATM   17  C   UNL     1      -6.259  15.701  68.675  1.00  0.00    -0.100 C  
HETATM   18  O   UNL     1      -6.328  14.683  67.688  1.00  0.00    -0.206 OA 
HETATM   19  H   UNL     1      -5.464  14.332  67.503  1.00  0.00     0.000 HD 
ENDBRANCH  16  17
ENDBRANCH   3  16
TORSDOF 2
ENDMDL
MODEL        9
REMARK 921   NORMALIZED FREE ENERGY PREDICTED BY IDOCK:   -5.53 KCAL/MOL
REMARK 922        TOTAL FREE ENERGY PREDICTED BY IDOCK:   -6.36 KCAL/MOL
REMARK 923 INTER-LIGAND FREE ENERGY PREDICTED BY IDOCK:   -6.26 KCAL/MOL
REMARK 924 INTRA-LIGAND FREE ENERGY PREDICTED BY IDOCK:   -0.10 KCAL/MOL
REMARK 927      BINDING AFFINITY PREDICTED BY RF-SCORE:    0.00 PKD
ROOT
HETATM    1  C   UNL     1     -10.248  15.314  66.399  1.00  0.00    -0.277 C  
HETATM    2  O   UNL     2     -12.270  11.017  68.102  1.00  0.00    -0.765 OA 
HETATM    3  N   UNL     1     -10.487  13.993  67.066  1.00  0.00    -0.273 N  
HETATM    4  O   UNL     2     -11.961  13.722  70.116  1.00  0.00    -0.306 OA 
HETATM    5  H   UNL     2     -13.001  11.622  68.153  1.00  0.00     0.000 HD 
HETATM    6  C   UNL     1     -12.002  13.931  67.337  1.00  0.00    -0.401 C  
HETATM    7  C   UNL     1      -9.739  14.017  68.416  1.00  0.00    -0.223 C  
HETATM    8  C   UNL     2     -11.369  11.043  69.165  1.00  0.00    -0.280 A  
HETATM    9  O   UNL     2     -13.410  12.809  71.581  1.00  0.00    -0.377 OA 
HETATM   10  C   UNL     2     -10.314  10.169  69.093  1.00  0.00    -0.237 A  
HETATM   11  C   UNL     2     -12.517  12.736  70.696  1.00  0.00    -0.246 C  
HETATM   12  C   UNL     2     -10.255   9.181  70.063  1.00  0.00    -0.229 A  
HETATM   13  C   UNL     2     -11.181   9.196  71.104  1.00  0.00    -0.395 A  
HETATM   14  C   UNL     2     -11.969  11.347  70.387  1.00  0.00    -0.465 A  
HETATM   15  C   UNL     2     -11.966  10.329  71.314  1.00  0.00    -0.457 A  
ENDROOT
BRANCH   3  16
HETATM   16  C   UNL     1      -9.943  12.806  66.275  1.00  0.00    -0.264 C  
BRANCH  16  17
HETATM   17  C   UNL     1     -10.651  12.476  64.948  1.00  0.00    -0.301 C  
HETATM   18  O   UNL     1     -10.003  13.114  63.858  1.00  0.00    -0.760 OA 
HETATM   19  H   UNL     1     -10.440  12.911  63.039  1.00  0.00     0.000 HD 
ENDBRANCH  16  17
ENDBRANCH   3  16
TORSDOF 2
ENDMDL
MODEL       10
REMARK 921   NORMALIZED FREE ENERGY PREDICTED BY IDOCK:   -5.44 KCAL/MOL
REMARK 922        TOTAL FREE ENERGY PREDICTED BY IDOCK:   -6.26 KCAL/MOL
REMARK 923 INTER-LIGAND FREE ENERGY PREDICTED BY IDOCK:   -6.15 KCAL/MOL
REMARK 924 INTRA-LIGAND FREE ENERGY PREDICTED BY IDOCK:   -0.12 KCAL/MOL
REMARK 927      BINDING AFFINITY PREDICTED BY RF-SCORE:    0.00 PKD
ROOT
HETATM    1  C   UNL     1     -10.705  12.786  67.240  1.00  0.00    -0.237 C  
HETATM    2  O   UNL     2      -8.649  17.114  65.659  1.00  0.00    -0.470 OA 
HETATM    3  N   UNL     1     -10.432  14.225  66.915  1.00  0.00    -0.271 N  
HETATM    4  O   UNL     2      -8.578  16.238  68.928  1.00  0.00    -0.236 OA 
HETATM    5  H   UNL     2      -7.894  16.632  65.975  1.00  0.00     0.000 HD 
HETATM    6  C   UNL     1      -8.899  14.364  66.891  1.00  0.00    -0.223 C  
HETATM    7  C   UNL     1     -10.993  15.073  68.076  1.00  0.00    -0.284 C  
HETATM    8  C   UNL     2      -9.399  17.792  66.617  1.00  0.00    -0.287 A  
HETATM    9  O   UNL     2      -6.985  17.785  69.318  1.00  0.00    -0.238 OA 
HETATM   10  C   UNL     2     -10.489  18.489  66.160  1.00  0.00    -0.447 A  
HETATM   11  C   UNL     2      -7.990  17.343  68.701  1.00  0.00    -0.271 C  
HETATM   12  C   UNL     2     -10.458  19.867  66.315  1.00  0.00    -0.590 A  
HETATM   13  C   UNL     2      -9.402  20.448  67.013  1.00  0.00    -0.511 A  
HETATM   14  C   UNL     2      -8.630  18.274  67.676  1.00  0.00    -0.261 A  
HETATM   15  C   UNL     2      -8.551  19.646  67.771  1.00  0.00    -0.366 A  
ENDROOT
BRANCH   3  16
HETATM   16  C   UNL     1     -11.125  14.701  65.640  1.00  0.00    -0.338 C  
BRANCH  16  17
HETATM   17  C   UNL     1     -11.880  13.634  64.825  1.00  0.00    -0.387 C  
HETATM   18  O   UNL     1     -13.275  13.701  65.076  1.00  0.00    -0.729 OA 
HETATM   19  H   UNL     1     -13.741  13.043  64.573  1.00  0.00     0.000 HD 
ENDBRANCH  16  17
ENDBRANCH   3  16
TORSDOF 2
ENDMDL
MODEL       11
REMARK 921   NORMALIZED FREE ENERGY PREDICTED BY IDOCK:   -5.40 KCAL/MOL
REMARK 922        TOTAL FREE ENERGY PREDICTED BY IDOCK:   -6.22 KCAL/MOL
REMARK 923 INTER-LIGAND FREE ENERGY PREDICTED BY IDOCK:   -5.79 KCAL/MOL
REMARK 924 INTRA-LIGAND FREE ENERGY PREDICTED BY IDOCK:   -0.43 KCAL/MOL
REMARK 927      BINDING AFFINITY PREDICTED BY RF-SCORE:    0.00 PKD
ROOT
HETATM    1  C   UNL     1     -11.845  15.647  69.417  1.00  0.00    -0.375 C  
HETATM    2  O   UNL     2      -9.338  13.846  65.426  1.00  0.00    -0.460 OA 
HETATM    3  N   UNL     1     -11.205  14.762  68.389  1.00  0.00    -0.271 N  
HETATM    4  O   UNL     2     -12.722  13.974  65.452  1.00  0.00    -0.561 OA 
HETATM    5  H   UNL     2      -9.758  14.621  65.071  1.00  0.00     0.000 HD 
HETATM    6  C   UNL     1     -11.157  15.594  67.094  1.00  0.00    -0.218 C  
HETATM    7  C   UNL     1     -12.144  13.555  68.173  1.00  0.00    -0.255 C  
HETATM    8  C   UNL     2     -10.117  12.692  65.488  1.00  0.00    -0.265 A  
HETATM    9  O   UNL     2     -12.760  13.681  63.217  1.00  0.00    -0.765 OA 
HETATM   10  C   UNL     2      -9.510  11.573  65.999  1.00  0.00    -0.249 A  
HETATM   11  C   UNL     2     -12.253  13.521  64.359  1.00  0.00    -0.390 C  
HETATM   12  C   UNL     2      -9.350  10.501  65.134  1.00  0.00    -0.262 A  
HETATM   13  C   UNL     2      -9.904  10.569  63.859  1.00  0.00    -0.373 A  
HETATM   14  C   UNL     2     -11.043  12.598  64.450  1.00  0.00    -0.385 A  
HETATM   15  C   UNL     2     -10.827  11.570  63.559  1.00  0.00    -0.473 A  
ENDROOT
BRANCH   3  16
HETATM   16  C   UNL     1      -9.853  14.203  68.826  1.00  0.00    -0.167 C  
BRANCH  16  17
HETATM   17  C   UNL     1      -8.642  15.146  68.700  1.00  0.00    -0.172 C  
HETATM   18  O   UNL     1      -7.744  14.684  67.703  1.00  0.00    -0.145 OA 
HETATM   19  H   UNL     1      -6.996  15.266  67.625  1.00  0.00     0.000 HD 
ENDBRANCH  16  17
ENDBRANCH   3  16
TORSDOF 2
ENDMDL
MODEL       12
REMARK 921   NORMALIZED FREE ENERGY PREDICTED BY IDOCK:   -5.36 KCAL/MOL
REMARK 922        TOTAL FREE ENERGY PREDICTED BY IDOCK:   -6.17 KCAL/MOL
REMARK 923 INTER-LIGAND FREE ENERGY PREDICTED BY IDOCK:   -5.96 KCAL/MOL
REMARK 924 INTRA-LIGAND FREE ENERGY PREDICTED BY IDOCK:   -0.21 KCAL/MOL
REMARK 927      BINDING AFFINITY PREDICTED BY RF-SCORE:    0.00 PKD
ROOT
HETATM    1  C   UNL     1     -10.127  12.851  67.284  1.00  0.00    -0.231 C  
HETATM    2  O   UNL     2     -10.615  17.539  65.483  1.00  0.00    -0.612 OA 
HETATM    3  N   UNL     1     -10.249  14.338  67.135  1.00  0.00    -0.253 N  
HETATM    4  O   UNL     2      -7.592  16.331  66.416  1.00  0.00    -0.238 OA 
HETATM    5  H   UNL     2     -10.078  17.119  64.821  1.00  0.00     0.000 HD 
HETATM    6  C   UNL     1      -9.715  14.662  65.727  1.00  0.00    -0.297 C  
HETATM    7  C   UNL     1      -9.317  14.983  68.183  1.00  0.00    -0.187 C  
HETATM    8  C   UNL     2      -9.949  18.015  66.611  1.00  0.00    -0.362 A  
HETATM    9  O   UNL     2      -6.570  18.006  65.307  1.00  0.00    -0.350 OA 
HETATM   10  C   UNL     2     -10.724  18.621  67.567  1.00  0.00    -0.447 A  
HETATM   11  C   UNL     2      -7.530  17.516  65.958  1.00  0.00    -0.239 C  
HETATM   12  C   UNL     2     -10.489  19.968  67.798  1.00  0.00    -0.459 A  
HETATM   13  C   UNL     2      -9.428  20.593  67.149  1.00  0.00    -0.505 A  
HETATM   14  C   UNL     2      -8.659  18.469  66.337  1.00  0.00    -0.272 A  
HETATM   15  C   UNL     2      -8.463  19.822  66.502  1.00  0.00    -0.380 A  
ENDROOT
BRANCH   3  16
HETATM   16  C   UNL     1     -11.657  14.862  67.408  1.00  0.00    -0.332 C  
BRANCH  16  17
HETATM   17  C   UNL     1     -11.960  15.310  68.850  1.00  0.00    -0.264 C  
HETATM   18  O   UNL     1     -12.751  14.343  69.524  1.00  0.00    -0.537 OA 
HETATM   19  H   UNL     1     -12.938  14.619  70.413  1.00  0.00     0.000 HD 
ENDBRANCH  16  17
ENDBRANCH   3  16
TORSDOF 2
ENDMDL
MODEL       13
REMARK 921   NORMALIZED FREE ENERGY PREDICTED BY IDOCK:   -5.32 KCAL/MOL
REMARK 922        TOTAL FREE ENERGY PREDICTED BY IDOCK:   -6.12 KCAL/MOL
REMARK 923 INTER-LIGAND FREE ENERGY PREDICTED BY IDOCK:   -5.76 KCAL/MOL
REMARK 924 INTRA-LIGAND FREE ENERGY PREDICTED BY IDOCK:   -0.36 KCAL/MOL
REMARK 927      BINDING AFFINITY PREDICTED BY RF-SCORE:    0.00 PKD
ROOT
HETATM    1  C   UNL     1     -10.970  15.588  64.858  1.00  0.00    -0.436 C  
HETATM    2  O   UNL     2     -10.048  13.259  69.238  1.00  0.00    -0.399 OA 
HETATM    3  N   UNL     1     -11.083  14.970  66.220  1.00  0.00    -0.343 N  
HETATM    4  O   UNL     2     -11.569  11.639  66.684  1.00  0.00    -0.493 OA 
HETATM    5  H   UNL     2      -9.503  12.775  68.630  1.00  0.00     0.000 HD 
HETATM    6  C   UNL     1      -9.982  13.894  66.282  1.00  0.00    -0.306 C  
HETATM    7  C   UNL     1     -12.462  14.279  66.299  1.00  0.00    -0.300 C  
HETATM    8  C   UNL     2     -11.391  12.891  69.297  1.00  0.00    -0.243 A  
HETATM    9  O   UNL     2     -11.153   9.659  67.679  1.00  0.00    -0.214 OA 
HETATM   10  C   UNL     2     -12.178  13.590  70.177  1.00  0.00    -0.400 A  
HETATM   11  C   UNL     2     -11.388  10.896  67.701  1.00  0.00    -0.270 C  
HETATM   12  C   UNL     2     -12.724  12.873  71.230  1.00  0.00    -0.371 A  
HETATM   13  C   UNL     2     -12.546  11.493  71.277  1.00  0.00    -0.452 A  
HETATM   14  C   UNL     2     -11.598  11.531  69.072  1.00  0.00    -0.383 A  
HETATM   15  C   UNL     2     -12.072  10.820  70.152  1.00  0.00    -0.427 A  
ENDROOT
BRANCH   3  16
HETATM   16  C   UNL     1     -11.029  15.988  67.356  1.00  0.00    -0.237 C  
BRANCH  16  17
HETATM   17  C   UNL     1      -9.635  16.510  67.751  1.00  0.00    -0.232 C  
HETATM   18  O   UNL     1      -9.421  16.374  69.147  1.00  0.00    -0.258 OA 
HETATM   19  H   UNL     1      -8.561  16.696  69.391  1.00  0.00     0.000 HD 
ENDBRANCH  16  17
ENDBRANCH   3  16
TORSDOF 2
ENDMDL
MODEL       14
REMARK 921   NORMALIZED FREE ENERGY PREDICTED BY IDOCK:   -5.31 KCAL/MOL
REMARK 922        TOTAL FREE ENERGY PREDICTED BY IDOCK:   -6.12 KCAL/MOL
REMARK 923 INTER-LIGAND FREE ENERGY PREDICTED BY IDOCK:   -6.01 KCAL/MOL
REMARK 924 INTRA-LIGAND FREE ENERGY PREDICTED BY IDOCK:   -0.11 KCAL/MOL
REMARK 927      BINDING AFFINITY PREDICTED BY RF-SCORE:    0.00 PKD
ROOT
HETATM    1  C   UNL     1      -8.171  12.877  68.031  1.00  0.00    -0.168 C  
HETATM    2  O   UNL     2     -10.955  17.077  68.304  1.00  0.00    -0.365 OA 
HETATM    3  N   UNL     1      -8.645  14.300  68.063  1.00  0.00    -0.160 N  
HETATM    4  O   UNL     2      -9.887  15.878  65.323  1.00  0.00    -0.408 OA 
HETATM    5  H   UNL     2     -11.526  16.483  67.832  1.00  0.00     0.000 HD 
HETATM    6  C   UNL     1     -10.108  14.264  67.584  1.00  0.00    -0.229 C  
HETATM    7  C   UNL     1      -7.802  15.088  67.037  1.00  0.00    -0.129 C  
HETATM    8  C   UNL     2      -9.987  17.738  67.550  1.00  0.00    -0.324 A  
HETATM    9  O   UNL     2     -11.379  17.186  64.252  1.00  0.00    -1.126 OA 
HETATM   10  C   UNL     2      -9.162  18.597  68.232  1.00  0.00    -0.350 A  
HETATM   11  C   UNL     2     -10.600  16.926  65.207  1.00  0.00    -0.120 C  
HETATM   12  C   UNL     2      -9.247  19.939  67.897  1.00  0.00    -0.423 A  
HETATM   13  C   UNL     2     -10.057  20.323  66.833  1.00  0.00    -0.565 A  
HETATM   14  C   UNL     2     -10.402  18.021  66.250  1.00  0.00    -0.384 A  
HETATM   15  C   UNL     2     -10.551  19.358  65.956  1.00  0.00    -0.573 A  
ENDROOT
BRANCH   3  16
HETATM   16  C   UNL     1      -8.444  14.976  69.417  1.00  0.00    -0.125 C  
BRANCH  16  17
HETATM   17  C   UNL     1      -6.989  15.176  69.881  1.00  0.00    -0.140 C  
HETATM   18  O   UNL     1      -6.611  14.168  70.806  1.00  0.00    -0.421 OA 
HETATM   19  H   UNL     1      -5.713  14.291  71.093  1.00  0.00     0.000 HD 
ENDBRANCH  16  17
ENDBRANCH   3  16
TORSDOF 2
ENDMDL
MODEL       15
REMARK 921   NORMALIZED FREE ENERGY PREDICTED BY IDOCK:   -5.23 KCAL/MOL
REMARK 922        TOTAL FREE ENERGY PREDICTED BY IDOCK:   -6.03 KCAL/MOL
REMARK 923 INTER-LIGAND FREE ENERGY PREDICTED BY IDOCK:   -5.61 KCAL/MOL
REMARK 924 INTRA-LIGAND FREE ENERGY PREDICTED BY IDOCK:   -0.43 KCAL/MOL
REMARK 927      BINDING AFFINITY PREDICTED BY RF-SCORE:    0.00 PKD
ROOT
HETATM    1  C   UNL     1     -10.087   6.514  71.318  1.00  0.00    -0.186 C  
HETATM    2  O   UNL     2     -13.232  10.217  69.955  1.00  0.00    -0.533 OA 
HETATM    3  N   UNL     1     -10.895   7.776  71.254  1.00  0.00    -0.229 N  
HETATM    4  O   UNL     2      -9.889  10.506  69.497  1.00  0.00    -0.213 OA 
HETATM    5  H   UNL     2     -12.870   9.938  69.122  1.00  0.00     0.000 HD 
HETATM    6  C   UNL     1     -11.149   8.033  69.757  1.00  0.00    -0.064 C  
HETATM    7  C   UNL     1     -10.014   8.915  71.814  1.00  0.00    -0.327 C  
HETATM    8  C   UNL     2     -12.463  11.110  70.698  1.00  0.00    -0.356 A  
HETATM    9  O   UNL     2     -10.222  12.226  68.079  1.00  0.00    -0.195 OA 
HETATM   10  C   UNL     2     -12.986  11.514  71.900  1.00  0.00    -0.453 A  
HETATM   11  C   UNL     2     -10.535  11.516  69.071  1.00  0.00    -0.145 C  
HETATM   12  C   UNL     2     -13.294  12.859  72.026  1.00  0.00    -0.579 A  
HETATM   13  C   UNL     2     -12.958  13.732  70.995  1.00  0.00    -0.324 A  
HETATM   14  C   UNL     2     -11.721  11.987  69.906  1.00  0.00    -0.374 A  
HETATM   15  C   UNL     2     -12.089  13.311  69.989  1.00  0.00    -0.385 A  
ENDROOT
BRANCH   3  16
HETATM   16  C   UNL     1     -12.160   7.732  72.106  1.00  0.00    -0.304 C  
BRANCH  16  17
HETATM   17  C   UNL     1     -13.383   7.026  71.491  1.00  0.00    -0.294 C  
HETATM   18  O   UNL     1     -14.407   7.961  71.187  1.00  0.00    -0.645 OA 
HETATM   19  H   UNL     1     -15.161   7.525  70.808  1.00  0.00     0.000 HD 
ENDBRANCH  16  17
ENDBRANCH   3  16
TORSDOF 2
ENDMDL
MODEL       16
REMARK 921   NORMALIZED FREE ENERGY PREDICTED BY IDOCK:   -5.20 KCAL/MOL
REMARK 922        TOTAL FREE ENERGY PREDICTED BY IDOCK:   -6.00 KCAL/MOL
REMARK 923 INTER-LIGAND FREE ENERGY PREDICTED BY IDOCK:   -5.85 KCAL/MOL
REMARK 924 INTRA-LIGAND FREE ENERGY PREDICTED BY IDOCK:   -0.15 KCAL/MOL
REMARK 927      BINDING AFFINITY PREDICTED BY RF-SCORE:    0.00 PKD
ROOT
HETATM    1  C   UNL     1     -11.492  15.772  68.457  1.00  0.00    -0.379 C  
HETATM    2  O   UNL     2     -12.157  11.883  65.311  1.00  0.00    -0.351 OA 
HETATM    3  N   UNL     1     -11.364  14.766  67.351  1.00  0.00    -0.340 N  
HETATM    4  O   UNL     2      -9.844  11.758  67.780  1.00  0.00    -0.175 OA 
HETATM    5  H   UNL     2     -12.417  11.517  66.148  1.00  0.00     0.000 HD 
HETATM    6  C   UNL     1     -12.032  13.482  67.875  1.00  0.00    -0.337 C  
HETATM    7  C   UNL     1      -9.857  14.499  67.147  1.00  0.00    -0.245 C  
HETATM    8  C   UNL     2     -10.791  11.901  65.039  1.00  0.00    -0.300 A  
HETATM    9  O   UNL     2      -9.695   9.521  67.540  1.00  0.00    -0.146 OA 
HETATM   10  C   UNL     2     -10.415  12.430  63.830  1.00  0.00    -0.469 A  
HETATM   11  C   UNL     2      -9.899  10.684  67.100  1.00  0.00    -0.175 C  
HETATM   12  C   UNL     2      -9.808  11.565  62.933  1.00  0.00    -0.279 A  
HETATM   13  C   UNL     2      -9.511  10.266  63.338  1.00  0.00    -0.340 A  
HETATM   14  C   UNL     2     -10.106  10.822  65.596  1.00  0.00    -0.327 A  
HETATM   15  C   UNL     2      -9.571   9.933  64.690  1.00  0.00    -0.320 A  
ENDROOT
BRANCH   3  16
HETATM   16  C   UNL     1     -11.914  15.259  66.015  1.00  0.00     0.327 C  
BRANCH  16  17
HETATM   17  C   UNL     1     -10.893  15.843  65.021  1.00  0.00    -0.426 C  
HETATM   18  O   UNL     1     -11.548  16.384  63.884  1.00  0.00    -1.564 OA 
HETATM   19  H   UNL     1     -10.918  16.744  63.270  1.00  0.00     0.000 HD 
ENDBRANCH  16  17
ENDBRANCH   3  16
TORSDOF 2
ENDMDL
MODEL       17
REMARK 921   NORMALIZED FREE ENERGY PREDICTED BY IDOCK:   -5.18 KCAL/MOL
REMARK 922        TOTAL FREE ENERGY PREDICTED BY IDOCK:   -5.97 KCAL/MOL
REMARK 923 INTER-LIGAND FREE ENERGY PREDICTED BY IDOCK:   -5.61 KCAL/MOL
REMARK 924 INTRA-LIGAND FREE ENERGY PREDICTED BY IDOCK:   -0.36 KCAL/MOL
REMARK 927      BINDING AFFINITY PREDICTED BY RF-SCORE:    0.00 PKD
ROOT
HETATM    1  C   UNL     1      -8.887   7.688  70.600  1.00  0.00    -0.145 C  
HETATM    2  O   UNL     2     -12.396  10.625  68.474  1.00  0.00    -0.814 OA 
HETATM    3  N   UNL     1      -9.689   8.851  70.095  1.00  0.00    -0.171 N  
HETATM    4  O   UNL     2      -9.473   9.972  66.895  1.00  0.00    -0.158 OA 
HETATM    5  H   UNL     2     -12.365   9.882  67.882  1.00  0.00     0.000 HD 
HETATM    6  C   UNL     1     -10.489   8.316  68.893  1.00  0.00    -0.191 C  
HETATM    7  C   UNL     1      -8.689   9.916  69.596  1.00  0.00    -0.204 C  
HETATM    8  C   UNL     2     -11.426  11.608  68.288  1.00  0.00    -0.303 A  
HETATM    9  O   UNL     2     -10.349  10.701  64.950  1.00  0.00    -0.321 OA 
HETATM   10  C   UNL     2     -11.472  12.681  69.141  1.00  0.00    -0.359 A  
HETATM   11  C   UNL     2     -10.253  10.703  66.206  1.00  0.00    -0.245 C  
HETATM   12  C   UNL     2     -11.742  13.917  68.574  1.00  0.00    -0.390 A  
HETATM   13  C   UNL     2     -11.834  14.023  67.189  1.00  0.00    -0.444 A  
HETATM   14  C   UNL     2     -11.052  11.765  66.954  1.00  0.00    -0.361 A  
HETATM   15  C   UNL     2     -11.393  12.972  66.385  1.00  0.00    -0.355 A  
ENDROOT
BRANCH   3  16
HETATM   16  C   UNL     1     -10.544   9.513  71.173  1.00  0.00    -0.318 C  
BRANCH  16  17
HETATM   17  C   UNL     1     -11.835   8.777  71.579  1.00  0.00    -0.311 C  
HETATM   18  O   UNL     1     -12.962   9.334  70.921  1.00  0.00    -0.521 OA 
HETATM   19  H   UNL     1     -13.759   8.880  71.172  1.00  0.00     0.000 HD 
ENDBRANCH  16  17
ENDBRANCH   3  16
TORSDOF 2
ENDMDL
MODEL       18
REMARK 921   NORMALIZED FREE ENERGY PREDICTED BY IDOCK:   -5.17 KCAL/MOL
REMARK 922        TOTAL FREE ENERGY PREDICTED BY IDOCK:   -5.96 KCAL/MOL
REMARK 923 INTER-LIGAND FREE ENERGY PREDICTED BY IDOCK:   -5.86 KCAL/MOL
REMARK 924 INTRA-LIGAND FREE ENERGY PREDICTED BY IDOCK:   -0.10 KCAL/MOL
REMARK 927      BINDING AFFINITY PREDICTED BY RF-SCORE:    0.00 PKD
ROOT
HETATM    1  C   UNL     1     -12.271  11.902  64.312  1.00  0.00    -0.233 C  
HETATM    2  O   UNL     2     -11.930  15.536  67.796  1.00  0.00    -0.296 OA 
HETATM    3  N   UNL     1     -11.786  12.877  65.344  1.00  0.00    -0.378 N  
HETATM    4  O   UNL     2     -10.984  16.092  64.593  1.00  0.00    -0.642 OA 
HETATM    5  H   UNL     2     -12.576  15.888  67.195  1.00  0.00     0.000 HD 
HETATM    6  C   UNL     1     -12.765  14.064  65.289  1.00  0.00    -0.439 C  
HETATM    7  C   UNL     1     -10.388  13.360  64.900  1.00  0.00    -0.366 C  
HETATM    8  C   UNL     2     -10.594  15.713  67.445  1.00  0.00    -0.301 A  
HETATM    9  O   UNL     2     -11.012  18.316  64.961  1.00  0.00    -0.684 OA 
HETATM   10  C   UNL     2      -9.661  15.205  68.314  1.00  0.00    -0.211 A  
HETATM   11  C   UNL     2     -10.860  17.122  65.330  1.00  0.00    -0.046 C  
HETATM   12  C   UNL     2      -8.827  16.120  68.938  1.00  0.00    -0.248 A  
HETATM   13  C   UNL     2      -8.897  17.462  68.573  1.00  0.00    -0.277 A  
HETATM   14  C   UNL     2     -10.360  16.902  66.754  1.00  0.00    -0.298 A  
HETATM   15  C   UNL     2      -9.589  17.829  67.420  1.00  0.00    -0.264 A  
ENDROOT
BRANCH   3  16
HETATM   16  C   UNL     1     -11.624  12.261  66.732  1.00  0.00    -0.369 C  
BRANCH  16  17
HETATM   17  C   UNL     1     -10.851  10.931  66.811  1.00  0.00    -0.224 C  
HETATM   18  O   UNL     1     -11.467  10.043  67.732  1.00  0.00    -0.582 OA 
HETATM   19  H   UNL     1     -10.990   9.223  67.782  1.00  0.00     0.000 HD 
ENDBRANCH  16  17
ENDBRANCH   3  16
TORSDOF 2
ENDMDL
MODEL       19
REMARK 921   NORMALIZED FREE ENERGY PREDICTED BY IDOCK:   -5.15 KCAL/MOL
REMARK 922        TOTAL FREE ENERGY PREDICTED BY IDOCK:   -5.94 KCAL/MOL
REMARK 923 INTER-LIGAND FREE ENERGY PREDICTED BY IDOCK:   -5.79 KCAL/MOL
REMARK 924 INTRA-LIGAND FREE ENERGY PREDICTED BY IDOCK:   -0.15 KCAL/MOL
REMARK 927      BINDING AFFINITY PREDICTED BY RF-SCORE:    0.00 PKD
ROOT
HETATM    1  C   UNL     1     -11.652  12.774  66.609  1.00  0.00    -0.370 C  
HETATM    2  O   UNL     2      -8.561  16.724  66.055  1.00  0.00    -0.453 OA 
HETATM    3  N   UNL     1     -10.985  14.115  66.704  1.00  0.00    -0.299 N  
HETATM    4  O   UNL     2      -8.353  14.709  68.769  1.00  0.00    -0.159 OA 
HETATM    5  H   UNL     2      -7.961  15.988  66.020  1.00  0.00     0.000 HD 
HETATM    6  C   UNL     1      -9.502  13.867  66.373  1.00  0.00    -0.250 C  
HETATM    7  C   UNL     1     -11.099  14.582  68.171  1.00  0.00    -0.266 C  
HETATM    8  C   UNL     2      -8.932  17.161  67.325  1.00  0.00    -0.221 A  
HETATM    9  O   UNL     2      -6.319  15.554  69.252  1.00  0.00    -0.117 OA 
HETATM   10  C   UNL     2      -9.797  18.225  67.377  1.00  0.00    -0.323 A  
HETATM   11  C   UNL     2      -7.482  15.637  68.775  1.00  0.00    -0.151 C  
HETATM   12  C   UNL     2      -9.316  19.392  67.949  1.00  0.00    -0.397 A  
HETATM   13  C   UNL     2      -8.052  19.392  68.532  1.00  0.00    -0.396 A  
HETATM   14  C   UNL     2      -7.923  17.009  68.275  1.00  0.00    -0.222 A  
HETATM   15  C   UNL     2      -7.406  18.181  68.779  1.00  0.00    -0.286 A  
ENDROOT
BRANCH   3  16
HETATM   16  C   UNL     1     -11.650  15.185  65.842  1.00  0.00    -0.086 C  
BRANCH  16  17
HETATM   17  C   UNL     1     -11.208  15.258  64.368  1.00  0.00    -0.178 C  
HETATM   18  O   UNL     1     -11.562  16.507  63.796  1.00  0.00    -1.617 OA 
HETATM   19  H   UNL     1     -11.290  16.553  62.886  1.00  0.00     0.000 HD 
ENDBRANCH  16  17
ENDBRANCH   3  16
TORSDOF 2
ENDMDL
MODEL       20
REMARK 921   NORMALIZED FREE ENERGY PREDICTED BY IDOCK:   -5.15 KCAL/MOL
REMARK 922        TOTAL FREE ENERGY PREDICTED BY IDOCK:   -5.94 KCAL/MOL
REMARK 923 INTER-LIGAND FREE ENERGY PREDICTED BY IDOCK:   -5.51 KCAL/MOL
REMARK 924 INTRA-LIGAND FREE ENERGY PREDICTED BY IDOCK:   -0.43 KCAL/MOL
REMARK 927      BINDING AFFINITY PREDICTED BY RF-SCORE:    0.00 PKD
ROOT
HETATM    1  C   UNL     1     -10.619  18.218  67.512  1.00  0.00    -0.409 C  
HETATM    2  O   UNL     2      -9.112  13.627  66.061  1.00  0.00    -0.475 OA 
HETATM    3  N   UNL     1     -10.273  16.760  67.454  1.00  0.00    -0.282 N  
HETATM    4  O   UNL     2     -12.400  14.421  66.210  1.00  0.00    -0.409 OA 
HETATM    5  H   UNL     2      -9.525  13.965  65.276  1.00  0.00     0.000 HD 
HETATM    6  C   UNL     1     -10.409  16.357  65.974  1.00  0.00    -0.352 C  
HETATM    7  C   UNL     1     -11.335  16.002  68.279  1.00  0.00    -0.326 C  
HETATM    8  C   UNL     2      -9.959  13.073  67.019  1.00  0.00    -0.242 A  
HETATM    9  O   UNL     2     -12.902  12.614  64.958  1.00  0.00    -0.765 OA 
HETATM   10  C   UNL     2      -9.362  12.584  68.153  1.00  0.00    -0.210 A  
HETATM   11  C   UNL     2     -12.197  13.234  65.797  1.00  0.00    -0.456 C  
HETATM   12  C   UNL     2      -9.468  11.219  68.375  1.00  0.00    -0.192 A  
HETATM   13  C   UNL     2     -10.254  10.452  67.520  1.00  0.00    -0.251 A  
HETATM   14  C   UNL     2     -11.076  12.447  66.468  1.00  0.00    -0.346 A  
HETATM   15  C   UNL     2     -11.128  11.081  66.635  1.00  0.00    -0.201 A  
ENDROOT
BRANCH   3  16
HETATM   16  C   UNL     1      -8.914  16.433  68.070  1.00  0.00    -0.185 C  
BRANCH  16  17
HETATM   17  C   UNL     1      -7.683  16.612  67.162  1.00  0.00    -0.180 C  
HETATM   18  O   UNL     1      -6.956  15.398  67.052  1.00  0.00    -0.230 OA 
HETATM   19  H   UNL     1      -6.197  15.508  66.492  1.00  0.00     0.000 HD 
ENDBRANCH  16  17
ENDBRANCH   3  16
TORSDOF 2
ENDMDL
MODEL       21
REMARK 921   NORMALIZED FREE ENERGY PREDICTED BY IDOCK:   -5.14 KCAL/MOL
REMARK 922        TOTAL FREE ENERGY PREDICTED BY IDOCK:   -5.93 KCAL/MOL
REMARK 923 INTER-LIGAND FREE ENERGY PREDICTED BY IDOCK:   -5.77 KCAL/MOL
REMARK 924 INTRA-LIGAND FREE ENERGY PREDICTED BY IDOCK:   -0.16 KCAL/MOL
REMARK 927      BINDING AFFINITY PREDICTED BY RF-SCORE:    0.00 PKD
ROOT
HETATM    1  C   UNL     1      -8.653  16.920  68.715  1.00  0.00    -0.246 C  
HETATM    2  O   UNL     2     -12.326  13.948  66.942  1.00  0.00    -0.445 OA 
HETATM    3  N   UNL     1      -9.593  16.148  67.837  1.00  0.00    -0.222 N  
HETATM    4  O   UNL     2      -9.120  12.868  67.085  1.00  0.00    -0.204 OA 
HETATM    5  H   UNL     2     -12.045  13.485  67.722  1.00  0.00     0.000 HD 
HETATM    6  C   UNL     1     -10.063  14.949  68.682  1.00  0.00    -0.237 C  
HETATM    7  C   UNL     1      -8.776  15.625  66.637  1.00  0.00    -0.298 C  
HETATM    8  C   UNL     2     -11.568  13.741  65.791  1.00  0.00    -0.331 A  
HETATM    9  O   UNL     2      -9.814  10.741  66.813  1.00  0.00    -0.183 OA 
HETATM   10  C   UNL     2     -11.974  14.410  64.664  1.00  0.00    -0.475 A  
HETATM   11  C   UNL     2      -9.919  11.984  66.640  1.00  0.00    -0.201 C  
HETATM   12  C   UNL     2     -12.406  13.634  63.600  1.00  0.00    -0.328 A  
HETATM   13  C   UNL     2     -12.300  12.248  63.683  1.00  0.00    -0.664 A  
HETATM   14  C   UNL     2     -11.032  12.456  65.710  1.00  0.00    -0.333 A  
HETATM   15  C   UNL     2     -11.527  11.674  64.691  1.00  0.00    -0.249 A  
ENDROOT
BRANCH   3  16
HETATM   16  C   UNL     1     -10.727  16.997  67.268  1.00  0.00    -0.206 C  
BRANCH  16  17
HETATM   17  C   UNL     1     -10.326  18.131  66.306  1.00  0.00    -0.397 C  
HETATM   18  O   UNL     1     -11.005  18.006  65.066  1.00  0.00    -0.748 OA 
HETATM   19  H   UNL     1     -10.758  18.705  64.472  1.00  0.00     0.000 HD 
ENDBRANCH  16  17
ENDBRANCH   3  16
TORSDOF 2
ENDMDL
MODEL       22
REMARK 921   NORMALIZED FREE ENERGY PREDICTED BY IDOCK:   -5.11 KCAL/MOL
REMARK 922        TOTAL FREE ENERGY PREDICTED BY IDOCK:   -5.89 KCAL/MOL
REMARK 923 INTER-LIGAND FREE ENERGY PREDICTED BY IDOCK:   -5.75 KCAL/MOL
REMARK 924 INTRA-LIGAND FREE ENERGY PREDICTED BY IDOCK:   -0.14 KCAL/MOL
REMARK 927      BINDING AFFINITY PREDICTED BY RF-SCORE:    0.00 PKD
ROOT
HETATM    1  C   UNL     1     -11.513  11.596  66.064  1.00  0.00    -0.125 C  
HETATM    2  O   UNL     2      -8.983  15.910  66.733  1.00  0.00    -0.211 OA 
HETATM    3  N   UNL     1     -11.092  13.035  66.107  1.00  0.00    -0.283 N  
HETATM    4  O   UNL     2     -11.411  14.955  68.892  1.00  0.00    -0.255 OA 
HETATM    5  H   UNL     2      -8.729  15.403  67.495  1.00  0.00     0.000 HD 
HETATM    6  C   UNL     1     -10.073  13.138  67.256  1.00  0.00    -0.233 C  
HETATM    7  C   UNL     1     -12.340  13.869  66.469  1.00  0.00    -0.404 C  
HETATM    8  C   UNL     2     -10.201  16.583  66.814  1.00  0.00    -0.295 A  
HETATM    9  O   UNL     2     -10.669  16.454  70.404  1.00  0.00    -0.221 OA 
HETATM   10  C   UNL     2     -10.568  17.316  65.715  1.00  0.00    -0.198 A  
HETATM   11  C   UNL     2     -10.857  16.051  69.226  1.00  0.00    -0.300 C  
HETATM   12  C   UNL     2     -10.668  18.689  65.885  1.00  0.00    -0.274 A  
HETATM   13  C   UNL     2     -10.509  19.228  67.159  1.00  0.00    -0.560 A  
HETATM   14  C   UNL     2     -10.502  17.021  68.104  1.00  0.00    -0.357 A  
HETATM   15  C   UNL     2     -10.525  18.387  68.272  1.00  0.00    -0.329 A  
ENDROOT
BRANCH   3  16
HETATM   16  C   UNL     1     -10.581  13.558  64.767  1.00  0.00    -0.417 C  
BRANCH  16  17
HETATM   17  C   UNL     1     -11.164  12.902  63.501  1.00  0.00    -0.297 C  
HETATM   18  O   UNL     1     -12.233  13.675  62.978  1.00  0.00    -0.995 OA 
HETATM   19  H   UNL     1     -12.593  13.271  62.197  1.00  0.00     0.000 HD 
ENDBRANCH  16  17
ENDBRANCH   3  16
TORSDOF 2
ENDMDL
MODEL       23
REMARK 921   NORMALIZED FREE ENERGY PREDICTED BY IDOCK:   -5.05 KCAL/MOL
REMARK 922        TOTAL FREE ENERGY PREDICTED BY IDOCK:   -5.83 KCAL/MOL
REMARK 923 INTER-LIGAND FREE ENERGY PREDICTED BY IDOCK:   -5.40 KCAL/MOL
REMARK 924 INTRA-LIGAND FREE ENERGY PREDICTED BY IDOCK:   -0.43 KCAL/MOL
REMARK 927      BINDING AFFINITY PREDICTED BY RF-SCORE:    0.00 PKD
ROOT
HETATM    1  C   UNL     1     -11.404   5.544  72.709  1.00  0.00    -0.303 C  
HETATM    2  O   UNL     2      -9.782   9.929  70.814  1.00  0.00    -0.325 OA 
HETATM    3  N   UNL     1     -11.126   6.725  71.827  1.00  0.00    -0.235 N  
HETATM    4  O   UNL     2     -12.942   9.593  71.983  1.00  0.00    -0.392 OA 
HETATM    5  H   UNL     2      -9.947  10.148  71.723  1.00  0.00     0.000 HD 
HETATM    6  C   UNL     1     -10.871   7.907  72.781  1.00  0.00    -0.386 C  
HETATM    7  C   UNL     1     -12.410   7.005  71.017  1.00  0.00    -0.356 C  
HETATM    8  C   UNL     2     -10.885   9.942  69.963  1.00  0.00    -0.294 A  
HETATM    9  O   UNL     2     -13.169  11.835  72.043  1.00  0.00    -0.506 OA 
HETATM   10  C   UNL     2     -10.648   9.627  68.649  1.00  0.00    -0.246 A  
HETATM   11  C   UNL     2     -12.691  10.770  71.570  1.00  0.00    -0.431 C  
HETATM   12  C   UNL     2     -10.877  10.628  67.717  1.00  0.00    -0.338 A  
HETATM   13  C   UNL     2     -11.435  11.832  68.138  1.00  0.00    -0.382 A  
HETATM   14  C   UNL     2     -11.838  10.899  70.312  1.00  0.00    -0.450 A  
HETATM   15  C   UNL     2     -12.001  11.925  69.409  1.00  0.00    -0.350 A  
ENDROOT
BRANCH   3  16
HETATM   16  C   UNL     1     -10.007   6.479  70.818  1.00  0.00    -0.184 C  
BRANCH  16  17
HETATM   17  C   UNL     1      -8.565   6.660  71.328  1.00  0.00    -0.126 C  
HETATM   18  O   UNL     1      -7.945   7.776  70.706  1.00  0.00    -0.097 OA 
HETATM   19  H   UNL     1      -7.056   7.887  71.021  1.00  0.00     0.000 HD 
ENDBRANCH  16  17
ENDBRANCH   3  16
TORSDOF 2
ENDMDL
MODEL       24
REMARK 921   NORMALIZED FREE ENERGY PREDICTED BY IDOCK:   -5.01 KCAL/MOL
REMARK 922        TOTAL FREE ENERGY PREDICTED BY IDOCK:   -5.79 KCAL/MOL
REMARK 923 INTER-LIGAND FREE ENERGY PREDICTED BY IDOCK:   -5.36 KCAL/MOL
REMARK 924 INTRA-LIGAND FREE ENERGY PREDICTED BY IDOCK:   -0.43 KCAL/MOL
REMARK 927      BINDING AFFINITY PREDICTED BY RF-SCORE:    0.00 PKD
ROOT
HETATM    1  C   UNL     1     -10.195  14.029  65.768  1.00  0.00    -0.328 C  
HETATM    2  O   UNL     2     -11.394   9.755  68.166  1.00  0.00    -0.526 OA 
HETATM    3  N   UNL     1     -10.198  12.818  66.653  1.00  0.00    -0.235 N  
HETATM    4  O   UNL     2     -11.748  12.765  69.676  1.00  0.00    -0.304 OA 
HETATM    5  H   UNL     2     -12.234  10.193  68.096  1.00  0.00     0.000 HD 
HETATM    6  C   UNL     1     -11.681  12.488  66.904  1.00  0.00    -0.377 C  
HETATM    7  C   UNL     1      -9.543  13.226  67.991  1.00  0.00    -0.220 C  
HETATM    8  C   UNL     2     -10.575  10.147  69.223  1.00  0.00    -0.230 A  
HETATM    9  O   UNL     2     -13.059  11.830  71.254  1.00  0.00    -0.307 OA 
HETATM   10  C   UNL     2      -9.362   9.514  69.325  1.00  0.00    -0.171 A  
HETATM   11  C   UNL     2     -12.123  11.797  70.412  1.00  0.00    -0.352 C  
HETATM   12  C   UNL     2      -9.157   8.738  70.455  1.00  0.00    -0.205 A  
HETATM   13  C   UNL     2     -10.121   8.734  71.460  1.00  0.00    -0.371 A  
HETATM   14  C   UNL     2     -11.289  10.521  70.362  1.00  0.00    -0.411 A  
HETATM   15  C   UNL     2     -11.130   9.697  71.453  1.00  0.00    -0.397 A  
ENDROOT
BRANCH   3  16
HETATM   16  C   UNL     1      -9.382  11.655  66.094  1.00  0.00    -0.224 C  
BRANCH  16  17
HETATM   17  C   UNL     1     -10.100  10.722  65.101  1.00  0.00    -0.299 C  
HETATM   18  O   UNL     1     -10.098   9.384  65.573  1.00  0.00    -0.397 OA 
HETATM   19  H   UNL     1     -10.541   8.808  64.961  1.00  0.00     0.000 HD 
ENDBRANCH  16  17
ENDBRANCH   3  16
TORSDOF 2
ENDMDL
MODEL       25
REMARK 921   NORMALIZED FREE ENERGY PREDICTED BY IDOCK:   -5.00 KCAL/MOL
REMARK 922        TOTAL FREE ENERGY PREDICTED BY IDOCK:   -5.77 KCAL/MOL
REMARK 923 INTER-LIGAND FREE ENERGY PREDICTED BY IDOCK:   -5.64 KCAL/MOL
REMARK 924 INTRA-LIGAND FREE ENERGY PREDICTED BY IDOCK:   -0.14 KCAL/MOL
REMARK 927      BINDING AFFINITY PREDICTED BY RF-SCORE:    0.00 PKD
ROOT
HETATM    1  C   UNL     1     -10.658   6.515  71.390  1.00  0.00    -0.228 C  
HETATM    2  O   UNL     2     -12.151  10.358  68.482  1.00  0.00    -0.767 OA 
HETATM    3  N   UNL     1     -11.039   7.865  70.859  1.00  0.00    -0.251 N  
HETATM    4  O   UNL     2      -8.870   9.831  69.133  1.00  0.00    -0.141 OA 
HETATM    5  H   UNL     2     -11.656   9.822  67.874  1.00  0.00     0.000 HD 
HETATM    6  C   UNL     1     -10.775   7.807  69.343  1.00  0.00    -0.171 C  
HETATM    7  C   UNL     1     -10.080   8.895  71.494  1.00  0.00    -0.324 C  
HETATM    8  C   UNL     2     -11.414  11.223  69.288  1.00  0.00    -0.301 A  
HETATM    9  O   UNL     2      -8.303  11.197  67.432  1.00  0.00    -0.129 OA 
HETATM   10  C   UNL     2     -12.128  11.999  70.166  1.00  0.00    -0.377 A  
HETATM   11  C   UNL     2      -9.067  10.823  68.361  1.00  0.00    -0.164 C  
HETATM   12  C   UNL     2     -12.081  13.370  69.966  1.00  0.00    -0.404 A  
HETATM   13  C   UNL     2     -11.240  13.884  68.983  1.00  0.00    -0.312 A  
HETATM   14  C   UNL     2     -10.267  11.713  68.664  1.00  0.00    -0.215 A  
HETATM   15  C   UNL     2     -10.269  13.066  68.407  1.00  0.00    -0.246 A  
ENDROOT
BRANCH   3  16
HETATM   16  C   UNL     1     -12.457   8.287  71.233  1.00  0.00    -0.245 C  
BRANCH  16  17
HETATM   17  C   UNL     1     -12.602   9.227  72.445  1.00  0.00    -0.278 C  
HETATM   18  O   UNL     1     -13.802   8.959  73.152  1.00  0.00    -1.084 OA 
HETATM   19  H   UNL     1     -13.892   9.539  73.899  1.00  0.00     0.000 HD 
ENDBRANCH  16  17
ENDBRANCH   3  16
TORSDOF 2
ENDMDL
MODEL       26
REMARK 921   NORMALIZED FREE ENERGY PREDICTED BY IDOCK:   -4.99 KCAL/MOL
REMARK 922        TOTAL FREE ENERGY PREDICTED BY IDOCK:   -5.76 KCAL/MOL
REMARK 923 INTER-LIGAND FREE ENERGY PREDICTED BY IDOCK:   -5.69 KCAL/MOL
REMARK 924 INTRA-LIGAND FREE ENERGY PREDICTED BY IDOCK:   -0.07 KCAL/MOL
REMARK 927      BINDING AFFINITY PREDICTED BY RF-SCORE:    0.00 PKD
ROOT
HETATM    1  C   UNL     1      -8.481   7.805  68.351  1.00  0.00    -0.125 C  
HETATM    2  O   UNL     2     -12.644  10.606  68.878  1.00  0.00    -0.742 OA 
HETATM    3  N   UNL     1      -9.590   8.663  68.883  1.00  0.00    -0.157 N  
HETATM    4  O   UNL     2      -9.595  12.047  68.575  1.00  0.00    -0.198 OA 
HETATM    5  H   UNL     2     -12.347  10.842  68.007  1.00  0.00     0.000 HD 
HETATM    6  C   UNL     1     -10.116   9.460  67.676  1.00  0.00    -0.211 C  
HETATM    7  C   UNL     1      -8.964   9.645  69.897  1.00  0.00    -0.221 C  
HETATM    8  C   UNL     2     -12.035  11.267  69.942  1.00  0.00    -0.365 A  
HETATM    9  O   UNL     2     -10.567  14.028  68.114  1.00  0.00    -0.238 OA 
HETATM   10  C   UNL     2     -12.465  10.927  71.200  1.00  0.00    -0.511 A  
HETATM   11  C   UNL     2     -10.536  12.898  68.669  1.00  0.00    -0.213 C  
HETATM   12  C   UNL     2     -13.092  11.921  71.935  1.00  0.00    -0.474 A  
HETATM   13  C   UNL     2     -13.147  13.213  71.419  1.00  0.00    -0.352 A  
HETATM   14  C   UNL     2     -11.670  12.578  69.638  1.00  0.00    -0.372 A  
HETATM   15  C   UNL     2     -12.354  13.555  70.325  1.00  0.00    -0.370 A  
ENDROOT
BRANCH   3  16
HETATM   16  C   UNL     1     -10.662   7.874  69.630  1.00  0.00    -0.218 C  
BRANCH  16  17
HETATM   17  C   UNL     1     -10.897   6.423  69.172  1.00  0.00    -0.322 C  
HETATM   18  O   UNL     1     -11.537   6.390  67.906  1.00  0.00    -0.600 OA 
HETATM   19  H   UNL     1     -11.683   5.494  67.623  1.00  0.00     0.000 HD 
ENDBRANCH  16  17
ENDBRANCH   3  16
TORSDOF 2
ENDMDL
MODEL       27
REMARK 921   NORMALIZED FREE ENERGY PREDICTED BY IDOCK:   -4.94 KCAL/MOL
REMARK 922        TOTAL FREE ENERGY PREDICTED BY IDOCK:   -5.70 KCAL/MOL
REMARK 923 INTER-LIGAND FREE ENERGY PREDICTED BY IDOCK:   -5.61 KCAL/MOL
REMARK 924 INTRA-LIGAND FREE ENERGY PREDICTED BY IDOCK:   -0.09 KCAL/MOL
REMARK 927      BINDING AFFINITY PREDICTED BY RF-SCORE:    0.00 PKD
ROOT
HETATM    1  C   UNL     1     -11.663  15.770  71.830  1.00  0.00    -0.483 C  
HETATM    2  O   UNL     2     -10.019  13.449  67.663  1.00  0.00    -0.221 OA 
HETATM    3  N   UNL     1     -11.560  15.096  70.495  1.00  0.00    -0.277 N  
HETATM    4  O   UNL     2     -10.701  16.766  67.663  1.00  0.00    -0.339 OA 
HETATM    5  H   UNL     2      -9.309  14.051  67.856  1.00  0.00     0.000 HD 
HETATM    6  C   UNL     1     -10.125  15.364  70.002  1.00  0.00    -0.207 C  
HETATM    7  C   UNL     1     -12.554  15.801  69.547  1.00  0.00     0.225 C  
HETATM    8  C   UNL     2     -11.107  13.976  66.970  1.00  0.00    -0.304 A  
HETATM    9  O   UNL     2      -9.563  17.010  65.732  1.00  0.00    -0.525 OA 
HETATM   10  C   UNL     2     -12.132  13.107  66.690  1.00  0.00    -0.409 A  
HETATM   11  C   UNL     2     -10.270  16.351  66.540  1.00  0.00    -0.304 C  
HETATM   12  C   UNL     2     -12.379  12.845  65.351  1.00  0.00    -0.538 A  
HETATM   13  C   UNL     2     -11.671  13.548  64.380  1.00  0.00    -0.443 A  
HETATM   14  C   UNL     2     -10.753  14.982  66.072  1.00  0.00    -0.329 A  
HETATM   15  C   UNL     2     -10.937  14.677  64.742  1.00  0.00    -0.399 A  
ENDROOT
BRANCH   3  16
HETATM   16  C   UNL     1     -11.946  13.620  70.528  1.00  0.00    -0.280 C  
BRANCH  16  17
HETATM   17  C   UNL     1     -12.988  13.202  71.583  1.00  0.00    -0.335 C  
HETATM   18  O   UNL     1     -13.053  11.789  71.697  1.00  0.00    -0.441 OA 
HETATM   19  H   UNL     1     -13.696  11.531  72.347  1.00  0.00     0.000 HD 
ENDBRANCH  16  17
ENDBRANCH   3  16
TORSDOF 2
ENDMDL
MODEL       28
REMARK 921   NORMALIZED FREE ENERGY PREDICTED BY IDOCK:   -4.89 KCAL/MOL
REMARK 922        TOTAL FREE ENERGY PREDICTED BY IDOCK:   -5.65 KCAL/MOL
REMARK 923 INTER-LIGAND FREE ENERGY PREDICTED BY IDOCK:   -5.52 KCAL/MOL
REMARK 924 INTRA-LIGAND FREE ENERGY PREDICTED BY IDOCK:   -0.13 KCAL/MOL
REMARK 927      BINDING AFFINITY PREDICTED BY RF-SCORE:    0.00 PKD
ROOT
HETATM    1  C   UNL     1      -7.870  10.097  66.549  1.00  0.00    -0.112 C  
HETATM    2  O   UNL     2     -12.465  10.900  68.471  1.00  0.00    -0.742 OA 
HETATM    3  N   UNL     1      -9.045  10.270  67.463  1.00  0.00    -0.137 N  
HETATM    4  O   UNL     2     -10.096  13.318  68.537  1.00  0.00    -0.239 OA 
HETATM    5  H   UNL     2     -12.435  11.515  67.748  1.00  0.00     0.000 HD 
HETATM    6  C   UNL     1     -10.018  11.205  66.721  1.00  0.00    -0.208 C  
HETATM    7  C   UNL     1      -8.537  10.985  68.734  1.00  0.00    -0.144 C  
HETATM    8  C   UNL     2     -11.868  11.312  69.661  1.00  0.00    -0.360 A  
HETATM    9  O   UNL     2     -11.674  14.865  68.984  1.00  0.00    -0.293 OA 
HETATM   10  C   UNL     2     -11.912  10.424  70.706  1.00  0.00    -0.462 A  
HETATM   11  C   UNL     2     -11.203  13.698  69.036  1.00  0.00    -0.273 C  
HETATM   12  C   UNL     2     -12.635  10.812  71.824  1.00  0.00    -0.382 A  
HETATM   13  C   UNL     2     -13.168  12.097  71.875  1.00  0.00    -0.474 A  
HETATM   14  C   UNL     2     -11.970  12.685  69.880  1.00  0.00    -0.365 A  
HETATM   15  C   UNL     2     -12.751  13.055  70.952  1.00  0.00    -0.299 A  
ENDROOT
BRANCH   3  16
HETATM   16  C   UNL     1      -9.665   8.949  67.913  1.00  0.00    -0.160 C  
BRANCH  16  17
HETATM   17  C   UNL     1     -10.494   8.183  66.864  1.00  0.00    -0.309 C  
HETATM   18  O   UNL     1     -11.203   7.111  67.466  1.00  0.00    -0.556 OA 
HETATM   19  H   UNL     1     -11.713   6.638  66.819  1.00  0.00     0.000 HD 
ENDBRANCH  16  17
ENDBRANCH   3  16
TORSDOF 2
ENDMDL
MODEL       29
REMARK 921   NORMALIZED FREE ENERGY PREDICTED BY IDOCK:   -4.88 KCAL/MOL
REMARK 922        TOTAL FREE ENERGY PREDICTED BY IDOCK:   -5.64 KCAL/MOL
REMARK 923 INTER-LIGAND FREE ENERGY PREDICTED BY IDOCK:   -5.51 KCAL/MOL
REMARK 924 INTRA-LIGAND FREE ENERGY PREDICTED BY IDOCK:   -0.13 KCAL/MOL
REMARK 927      BINDING AFFINITY PREDICTED BY RF-SCORE:    0.00 PKD
ROOT
HETATM    1  C   UNL     1     -10.100  17.647  68.511  1.00  0.00    -0.375 C  
HETATM    2  O   UNL     2     -12.207  13.096  67.959  1.00  0.00    -0.260 OA 
HETATM    3  N   UNL     1     -10.371  16.172  68.478  1.00  0.00    -0.243 N  
HETATM    4  O   UNL     2     -11.949  14.544  71.009  1.00  0.00    -0.316 OA 
HETATM    5  H   UNL     2     -12.936  13.623  68.266  1.00  0.00     0.000 HD 
HETATM    6  C   UNL     1     -11.895  16.024  68.648  1.00  0.00    -0.167 C  
HETATM    7  C   UNL     1      -9.669  15.549  69.704  1.00  0.00    -0.274 C  
HETATM    8  C   UNL     2     -11.343  12.604  68.935  1.00  0.00    -0.297 A  
HETATM    9  O   UNL     2     -13.454  13.085  71.840  1.00  0.00    -0.445 OA 
HETATM   10  C   UNL     2     -10.291  11.842  68.493  1.00  0.00    -0.228 A  
HETATM   11  C   UNL     2     -12.531  13.413  71.047  1.00  0.00    -0.353 C  
HETATM   12  C   UNL     2     -10.272  10.515  68.892  1.00  0.00    -0.223 A  
HETATM   13  C   UNL     2     -11.232  10.063  69.793  1.00  0.00    -0.307 A  
HETATM   14  C   UNL     2     -11.982  12.317  70.141  1.00  0.00    -0.377 A  
HETATM   15  C   UNL     2     -12.017  10.984  70.485  1.00  0.00    -0.474 A  
ENDROOT
BRANCH   3  16
HETATM   16  C   UNL     1      -9.807  15.479  67.241  1.00  0.00    -0.224 C  
BRANCH  16  17
HETATM   17  C   UNL     1     -10.694  15.485  65.981  1.00  0.00    -0.326 C  
HETATM   18  O   UNL     1     -10.602  16.729  65.305  1.00  0.00    -0.621 OA 
HETATM   19  H   UNL     1     -11.149  16.733  64.528  1.00  0.00     0.000 HD 
ENDBRANCH  16  17
ENDBRANCH   3  16
TORSDOF 2
ENDMDL
MODEL       30
REMARK 921   NORMALIZED FREE ENERGY PREDICTED BY IDOCK:   -4.87 KCAL/MOL
REMARK 922        TOTAL FREE ENERGY PREDICTED BY IDOCK:   -5.63 KCAL/MOL
REMARK 923 INTER-LIGAND FREE ENERGY PREDICTED BY IDOCK:   -5.21 KCAL/MOL
REMARK 924 INTRA-LIGAND FREE ENERGY PREDICTED BY IDOCK:   -0.42 KCAL/MOL
REMARK 927      BINDING AFFINITY PREDICTED BY RF-SCORE:    0.00 PKD
ROOT
HETATM    1  C   UNL     1     -12.406  15.054  64.330  1.00  0.00    -0.266 C  
HETATM    2  O   UNL     2      -9.370  11.903  66.843  1.00  0.00    -0.186 OA 
HETATM    3  N   UNL     1     -11.846  13.926  65.145  1.00  0.00    -0.345 N  
HETATM    4  O   UNL     2     -10.489  11.148  63.737  1.00  0.00    -0.350 OA 
HETATM    5  H   UNL     2      -8.833  12.157  66.101  1.00  0.00     0.000 HD 
HETATM    6  C   UNL     1     -10.385  13.766  64.687  1.00  0.00    -0.368 C  
HETATM    7  C   UNL     1     -12.631  12.652  64.767  1.00  0.00    -0.454 C  
HETATM    8  C   UNL     2     -10.289  10.880  66.622  1.00  0.00    -0.239 A  
HETATM    9  O   UNL     2      -8.911   9.548  63.548  1.00  0.00    -0.233 OA 
HETATM   10  C   UNL     2     -11.064  10.512  67.693  1.00  0.00    -0.375 A  
HETATM   11  C   UNL     2      -9.712  10.259  64.212  1.00  0.00    -0.308 C  
HETATM   12  C   UNL     2     -10.894   9.222  68.171  1.00  0.00    -0.145 A  
HETATM   13  C   UNL     2     -10.054   8.349  67.486  1.00  0.00    -0.279 A  
HETATM   14  C   UNL     2      -9.848   9.935  65.696  1.00  0.00    -0.368 A  
HETATM   15  C   UNL     2      -9.615   8.677  66.204  1.00  0.00    -0.305 A  
ENDROOT
BRANCH   3  16
HETATM   16  C   UNL     1     -12.014  14.123  66.650  1.00  0.00    -0.444 C  
BRANCH  16  17
HETATM   17  C   UNL     1     -10.952  14.988  67.356  1.00  0.00    -0.315 C  
HETATM   18  O   UNL     1     -10.142  14.196  68.210  1.00  0.00    -0.227 OA 
HETATM   19  H   UNL     1      -9.487  14.729  68.646  1.00  0.00     0.000 HD 
ENDBRANCH  16  17
ENDBRANCH   3  16
TORSDOF 2
ENDMDL
MODEL       31
REMARK 921   NORMALIZED FREE ENERGY PREDICTED BY IDOCK:   -4.85 KCAL/MOL
REMARK 922        TOTAL FREE ENERGY PREDICTED BY IDOCK:   -5.61 KCAL/MOL
REMARK 923 INTER-LIGAND FREE ENERGY PREDICTED BY IDOCK:   -5.17 KCAL/MOL
REMARK 924 INTRA-LIGAND FREE ENERGY PREDICTED BY IDOCK:   -0.43 KCAL/MOL
REMARK 927      BINDING AFFINITY PREDICTED BY RF-SCORE:    0.00 PKD
ROOT
HETATM    1  C   UNL     1      -8.655   8.088  68.258  1.00  0.00    -0.130 C  
HETATM    2  O   UNL     2      -9.258  12.363  65.647  1.00  0.00    -0.438 OA 
HETATM    3  N   UNL     1      -9.115   9.145  67.298  1.00  0.00    -0.126 N  
HETATM    4  O   UNL     2     -11.385  11.527  68.146  1.00  0.00    -0.248 OA 
HETATM    5  H   UNL     2      -9.067  12.682  66.521  1.00  0.00     0.000 HD 
HETATM    6  C   UNL     1      -8.803  10.491  67.978  1.00  0.00    -0.131 C  
HETATM    7  C   UNL     1     -10.645   9.000  67.154  1.00  0.00    -0.220 C  
HETATM    8  C   UNL     2     -10.578  11.995  65.396  1.00  0.00    -0.278 A  
HETATM    9  O   UNL     2     -12.160  13.643  68.208  1.00  0.00    -0.357 OA 
HETATM   10  C   UNL     2     -10.855  11.535  64.133  1.00  0.00    -0.435 A  
HETATM   11  C   UNL     2     -11.665  12.648  67.614  1.00  0.00    -0.361 C  
HETATM   12  C   UNL     2     -11.724  12.298  63.369  1.00  0.00    -0.542 A  
HETATM   13  C   UNL     2     -12.348  13.400  63.947  1.00  0.00    -0.410 A  
HETATM   14  C   UNL     2     -11.506  12.760  66.102  1.00  0.00    -0.399 A  
HETATM   15  C   UNL     2     -12.313  13.567  65.330  1.00  0.00    -0.517 A  
ENDROOT
BRANCH   3  16
HETATM   16  C   UNL     1      -8.519   8.995  65.900  1.00  0.00    -0.140 C  
BRANCH  16  17
HETATM   17  C   UNL     1      -7.115   9.590  65.680  1.00  0.00    -0.093 C  
HETATM   18  O   UNL     1      -7.155  10.638  64.724  1.00  0.00    -0.349 OA 
HETATM   19  H   UNL     1      -6.289  11.005  64.588  1.00  0.00     0.000 HD 
ENDBRANCH  16  17
ENDBRANCH   3  16
TORSDOF 2
ENDMDL
MODEL       32
REMARK 921   NORMALIZED FREE ENERGY PREDICTED BY IDOCK:   -4.84 KCAL/MOL
REMARK 922        TOTAL FREE ENERGY PREDICTED BY IDOCK:   -5.60 KCAL/MOL
REMARK 923 INTER-LIGAND FREE ENERGY PREDICTED BY IDOCK:   -5.18 KCAL/MOL
REMARK 924 INTRA-LIGAND FREE ENERGY PREDICTED BY IDOCK:   -0.41 KCAL/MOL
REMARK 927      BINDING AFFINITY PREDICTED BY RF-SCORE:    0.00 PKD
ROOT
HETATM    1  C   UNL     1     -11.940  14.296  65.905  1.00  0.00    -0.391 C  
HETATM    2  O   UNL     2      -8.499  16.141  69.100  1.00  0.00    -0.247 OA 
HETATM    3  N   UNL     1     -10.729  14.935  66.516  1.00  0.00    -0.303 N  
HETATM    4  O   UNL     2     -10.676  18.185  67.505  1.00  0.00    -0.412 OA 
HETATM    5  H   UNL     2      -9.317  16.350  69.537  1.00  0.00     0.000 HD 
HETATM    6  C   UNL     1     -11.186  15.472  67.885  1.00  0.00    -0.325 C  
HETATM    7  C   UNL     1     -10.336  16.127  65.617  1.00  0.00    -0.382 C  
HETATM    8  C   UNL     2      -8.084  17.023  68.105  1.00  0.00    -0.212 A  
HETATM    9  O   UNL     2     -10.191  19.846  68.951  1.00  0.00    -0.444 OA 
HETATM   10  C   UNL     2      -6.903  16.722  67.476  1.00  0.00    -0.170 A  
HETATM   11  C   UNL     2      -9.899  18.812  68.294  1.00  0.00    -0.373 C  
HETATM   12  C   UNL     2      -5.860  17.621  67.644  1.00  0.00    -0.149 A  
HETATM   13  C   UNL     2      -6.093  18.811  68.328  1.00  0.00    -0.217 A  
HETATM   14  C   UNL     2      -8.448  18.346  68.356  1.00  0.00    -0.345 A  
HETATM   15  C   UNL     2      -7.402  19.210  68.593  1.00  0.00    -0.365 A  
ENDROOT
BRANCH   3  16
HETATM   16  C   UNL     1      -9.519  14.006  66.579  1.00  0.00    -0.279 C  
BRANCH  16  17
HETATM   17  C   UNL     1      -9.501  12.972  67.721  1.00  0.00    -0.209 C  
HETATM   18  O   UNL     1      -8.552  13.331  68.713  1.00  0.00    -0.359 OA 
HETATM   19  H   UNL     1      -8.540  12.694  69.417  1.00  0.00     0.000 HD 
ENDBRANCH  16  17
ENDBRANCH   3  16
TORSDOF 2
ENDMDL
MODEL       33
REMARK 921   NORMALIZED FREE ENERGY PREDICTED BY IDOCK:   -4.82 KCAL/MOL
REMARK 922        TOTAL FREE ENERGY PREDICTED BY IDOCK:   -5.57 KCAL/MOL
REMARK 923 INTER-LIGAND FREE ENERGY PREDICTED BY IDOCK:   -5.13 KCAL/MOL
REMARK 924 INTRA-LIGAND FREE ENERGY PREDICTED BY IDOCK:   -0.44 KCAL/MOL
REMARK 927      BINDING AFFINITY PREDICTED BY RF-SCORE:    0.00 PKD
ROOT
HETATM    1  C   UNL     1      -9.980   4.402  69.988  1.00  0.00    -0.175 C  
HETATM    2  O   UNL     2     -10.210   9.063  71.907  1.00  0.00    -0.343 OA 
HETATM    3  N   UNL     1     -10.159   5.878  70.187  1.00  0.00    -0.189 N  
HETATM    4  O   UNL     2     -13.015   7.222  71.445  1.00  0.00    -0.371 OA 
HETATM    5  H   UNL     2     -10.517   8.528  72.629  1.00  0.00     0.000 HD 
HETATM    6  C   UNL     1     -10.492   6.060  71.679  1.00  0.00    -0.228 C  
HETATM    7  C   UNL     1     -11.379   6.310  69.345  1.00  0.00    -0.378 C  
HETATM    8  C   UNL     2     -11.152   9.390  70.933  1.00  0.00    -0.319 A  
HETATM    9  O   UNL     2     -14.164   8.618  72.792  1.00  0.00    -0.460 OA 
HETATM   10  C   UNL     2     -10.709  10.163  69.890  1.00  0.00    -0.340 A  
HETATM   11  C   UNL     2     -13.251   8.360  71.963  1.00  0.00    -0.346 C  
HETATM   12  C   UNL     2     -11.268  11.426  69.768  1.00  0.00    -0.266 A  
HETATM   13  C   UNL     2     -12.308  11.793  70.618  1.00  0.00    -0.421 A  
HETATM   14  C   UNL     2     -12.440   9.543  71.445  1.00  0.00    -0.450 A  
HETATM   15  C   UNL     2     -12.952  10.820  71.382  1.00  0.00    -0.535 A  
ENDROOT
BRANCH   3  16
HETATM   16  C   UNL     1      -8.969   6.704  69.705  1.00  0.00    -0.142 C  
BRANCH  16  17
HETATM   17  C   UNL     1      -7.771   6.817  70.666  1.00  0.00    -0.097 C  
HETATM   18  O   UNL     1      -7.597   8.156  71.101  1.00  0.00    -0.072 OA 
HETATM   19  H   UNL     1      -6.857   8.226  71.694  1.00  0.00     0.000 HD 
ENDBRANCH  16  17
ENDBRANCH   3  16
TORSDOF 2
ENDMDL
MODEL       34
REMARK 921   NORMALIZED FREE ENERGY PREDICTED BY IDOCK:   -4.74 KCAL/MOL
REMARK 922        TOTAL FREE ENERGY PREDICTED BY IDOCK:   -5.48 KCAL/MOL
REMARK 923 INTER-LIGAND FREE ENERGY PREDICTED BY IDOCK:   -5.16 KCAL/MOL
REMARK 924 INTRA-LIGAND FREE ENERGY PREDICTED BY IDOCK:   -0.32 KCAL/MOL
REMARK 927      BINDING AFFINITY PREDICTED BY RF-SCORE:    0.00 PKD
ROOT
HETATM    1  C   UNL     1      -6.973  16.768  69.146  1.00  0.00    -0.231 C  
HETATM    2  O   UNL     2     -11.632  15.485  67.694  1.00  0.00    -0.274 OA 
HETATM    3  N   UNL     1      -8.174  16.318  68.368  1.00  0.00    -0.177 N  
HETATM    4  O   UNL     2      -9.331  13.125  68.472  1.00  0.00    -0.180 OA 
HETATM    5  H   UNL     2     -11.601  15.169  68.590  1.00  0.00     0.000 HD 
HETATM    6  C   UNL     1      -9.153  15.744  69.409  1.00  0.00    -0.254 C  
HETATM    7  C   UNL     1      -7.715  15.179  67.432  1.00  0.00    -0.197 C  
HETATM    8  C   UNL     2     -11.074  14.654  66.724  1.00  0.00    -0.335 A  
HETATM    9  O   UNL     2     -10.960  11.575  68.628  1.00  0.00    -0.195 OA 
HETATM   10  C   UNL     2     -11.118  15.110  65.431  1.00  0.00    -0.371 A  
HETATM   11  C   UNL     2     -10.459  12.629  68.155  1.00  0.00    -0.231 C  
HETATM   12  C   UNL     2     -11.877  14.373  64.536  1.00  0.00    -0.463 A  
HETATM   13  C   UNL     2     -12.446  13.173  64.955  1.00  0.00    -0.516 A  
HETATM   14  C   UNL     2     -11.218  13.298  67.014  1.00  0.00    -0.319 A  
HETATM   15  C   UNL     2     -12.034  12.596  66.155  1.00  0.00    -0.458 A  
ENDROOT
BRANCH   3  16
HETATM   16  C   UNL     1      -8.768  17.411  67.483  1.00  0.00    -0.219 C  
BRANCH  16  17
HETATM   17  C   UNL     1      -9.554  18.526  68.197  1.00  0.00    -0.327 C  
HETATM   18  O   UNL     1     -10.872  18.627  67.679  1.00  0.00    -0.418 OA 
HETATM   19  H   UNL     1     -11.357  19.315  68.118  1.00  0.00     0.000 HD 
ENDBRANCH  16  17
ENDBRANCH   3  16
TORSDOF 2
ENDMDL
MODEL       35
REMARK 921   NORMALIZED FREE ENERGY PREDICTED BY IDOCK:   -4.73 KCAL/MOL
REMARK 922        TOTAL FREE ENERGY PREDICTED BY IDOCK:   -5.47 KCAL/MOL
REMARK 923 INTER-LIGAND FREE ENERGY PREDICTED BY IDOCK:   -5.31 KCAL/MOL
REMARK 924 INTRA-LIGAND FREE ENERGY PREDICTED BY IDOCK:   -0.16 KCAL/MOL
REMARK 927      BINDING AFFINITY PREDICTED BY RF-SCORE:    0.00 PKD
ROOT
HETATM    1  C   UNL     1      -8.800   8.914  69.393  1.00  0.00    -0.143 C  
HETATM    2  O   UNL     2      -9.160  12.507  65.869  1.00  0.00    -0.433 OA 
HETATM    3  N   UNL     1      -9.183   9.736  68.199  1.00  0.00    -0.129 N  
HETATM    4  O   UNL     2     -11.429  12.280  68.372  1.00  0.00    -0.258 OA 
HETATM    5  H   UNL     2      -9.004  13.010  66.659  1.00  0.00     0.000 HD 
HETATM    6  C   UNL     1      -8.870  11.196  68.578  1.00  0.00    -0.161 C  
HETATM    7  C   UNL     1     -10.708   9.586  68.008  1.00  0.00    -0.212 C  
HETATM    8  C   UNL     2     -10.476  12.111  65.635  1.00  0.00    -0.255 A  
HETATM    9  O   UNL     2     -12.150  14.368  67.920  1.00  0.00    -0.334 OA 
HETATM   10  C   UNL     2     -10.701  11.385  64.493  1.00  0.00    -0.391 A  
HETATM   11  C   UNL     2     -11.653  13.259  67.590  1.00  0.00    -0.346 C  
HETATM   12  C   UNL     2     -11.511  11.971  63.532  1.00  0.00    -0.536 A  
HETATM   13  C   UNL     2     -12.134  13.183  63.816  1.00  0.00    -0.563 A  
HETATM   14  C   UNL     2     -11.417  13.028  66.101  1.00  0.00    -0.381 A  
HETATM   15  C   UNL     2     -12.163  13.654  65.128  1.00  0.00    -0.461 A  
ENDROOT
BRANCH   3  16
HETATM   16  C   UNL     1      -8.524   9.270  66.903  1.00  0.00    -0.127 C  
BRANCH  16  17
HETATM   17  C   UNL     1      -9.137   8.032  66.222  1.00  0.00    -0.186 C  
HETATM   18  O   UNL     1      -8.852   8.027  64.832  1.00  0.00    -0.389 OA 
HETATM   19  H   UNL     1      -9.230   7.263  64.412  1.00  0.00     0.000 HD 
ENDBRANCH  16  17
ENDBRANCH   3  16
TORSDOF 2
ENDMDL
MODEL       36
REMARK 921   NORMALIZED FREE ENERGY PREDICTED BY IDOCK:   -4.72 KCAL/MOL
REMARK 922        TOTAL FREE ENERGY PREDICTED BY IDOCK:   -5.46 KCAL/MOL
REMARK 923 INTER-LIGAND FREE ENERGY PREDICTED BY IDOCK:   -5.03 KCAL/MOL
REMARK 924 INTRA-LIGAND FREE ENERGY PREDICTED BY IDOCK:   -0.43 KCAL/MOL
REMARK 927      BINDING AFFINITY PREDICTED BY RF-SCORE:    0.00 PKD
ROOT
HETATM    1  C   UNL     1      -7.737   8.247  68.513  1.00  0.00    -0.112 C  
HETATM    2  O   UNL     2     -11.996  10.814  67.661  1.00  0.00    -0.616 OA 
HETATM    3  N   UNL     1      -8.769   9.322  68.343  1.00  0.00    -0.128 N  
HETATM    4  O   UNL     2      -9.565  10.633  65.311  1.00  0.00    -0.205 OA 
HETATM    5  H   UNL     2     -12.046  10.115  67.020  1.00  0.00     0.000 HD 
HETATM    6  C   UNL     1      -9.804   8.753  67.355  1.00  0.00    -0.194 C  
HETATM    7  C   UNL     1      -8.069  10.534  67.692  1.00  0.00    -0.107 C  
HETATM    8  C   UNL     2     -11.229  11.923  67.311  1.00  0.00    -0.317 A  
HETATM    9  O   UNL     2     -11.017  11.347  63.741  1.00  0.00    -0.381 OA 
HETATM   10  C   UNL     2     -11.157  12.933  68.237  1.00  0.00    -0.294 A  
HETATM   11  C   UNL     2     -10.580  11.294  64.921  1.00  0.00    -0.300 C  
HETATM   12  C   UNL     2     -11.707  14.153  67.872  1.00  0.00    -0.402 A  
HETATM   13  C   UNL     2     -12.187  14.321  66.576  1.00  0.00    -0.419 A  
HETATM   14  C   UNL     2     -11.256  12.201  65.945  1.00  0.00    -0.384 A  
HETATM   15  C   UNL     2     -11.871  13.382  65.595  1.00  0.00    -0.403 A  
ENDROOT
BRANCH   3  16
HETATM   16  C   UNL     1      -9.363   9.807  69.663  1.00  0.00    -0.219 C  
BRANCH  16  17
HETATM   17  C   UNL     1     -10.529   8.982  70.241  1.00  0.00    -0.215 C  
HETATM   18  O   UNL     1     -11.724   9.747  70.268  1.00  0.00    -0.338 OA 
HETATM   19  H   UNL     1     -12.444   9.239  70.624  1.00  0.00     0.000 HD 
ENDBRANCH  16  17
ENDBRANCH   3  16
TORSDOF 2
ENDMDL
MODEL       37
REMARK 921   NORMALIZED FREE ENERGY PREDICTED BY IDOCK:   -4.72 KCAL/MOL
REMARK 922        TOTAL FREE ENERGY PREDICTED BY IDOCK:   -5.46 KCAL/MOL
REMARK 923 INTER-LIGAND FREE ENERGY PREDICTED BY IDOCK:   -5.04 KCAL/MOL
REMARK 924 INTRA-LIGAND FREE ENERGY PREDICTED BY IDOCK:   -0.42 KCAL/MOL
REMARK 927      BINDING AFFINITY PREDICTED BY RF-SCORE:    0.00 PKD
ROOT
HETATM    1  C   UNL     1      -8.179   7.195  67.201  1.00  0.00    -0.118 C  
HETATM    2  O   UNL     2      -9.852   9.144  71.543  1.00  0.00    -0.304 OA 
HETATM    3  N   UNL     1      -8.941   7.948  68.250  1.00  0.00    -0.133 N  
HETATM    4  O   UNL     2     -11.422   6.523  70.084  1.00  0.00    -0.368 OA 
HETATM    5  H   UNL     2      -9.590   8.268  71.799  1.00  0.00     0.000 HD 
HETATM    6  C   UNL     1      -8.758   7.147  69.553  1.00  0.00    -0.134 C  
HETATM    7  C   UNL     1     -10.432   7.914  67.848  1.00  0.00    -0.198 C  
HETATM    8  C   UNL     2     -11.116   9.271  70.971  1.00  0.00    -0.326 A  
HETATM    9  O   UNL     2     -12.517   6.095  72.008  1.00  0.00    -0.250 OA 
HETATM   10  C   UNL     2     -11.496  10.537  70.602  1.00  0.00    -0.418 A  
HETATM   11  C   UNL     2     -11.958   6.868  71.186  1.00  0.00    -0.366 C  
HETATM   12  C   UNL     2     -12.581  11.082  71.270  1.00  0.00    -0.517 A  
HETATM   13  C   UNL     2     -13.286  10.294  72.177  1.00  0.00    -0.443 A  
HETATM   14  C   UNL     2     -12.043   8.362  71.480  1.00  0.00    -0.342 A  
HETATM   15  C   UNL     2     -13.076   8.916  72.203  1.00  0.00    -0.475 A  
ENDROOT
BRANCH   3  16
HETATM   16  C   UNL     1      -8.541   9.417  68.356  1.00  0.00    -0.124 C  
BRANCH  16  17
HETATM   17  C   UNL     1      -7.299   9.735  69.209  1.00  0.00    -0.082 C  
HETATM   18  O   UNL     1      -7.664  10.418  70.398  1.00  0.00    -0.442 OA 
HETATM   19  H   UNL     1      -6.898  10.615  70.925  1.00  0.00     0.000 HD 
ENDBRANCH  16  17
ENDBRANCH   3  16
TORSDOF 2
ENDMDL
MODEL       38
REMARK 921   NORMALIZED FREE ENERGY PREDICTED BY IDOCK:   -4.72 KCAL/MOL
REMARK 922        TOTAL FREE ENERGY PREDICTED BY IDOCK:   -5.46 KCAL/MOL
REMARK 923 INTER-LIGAND FREE ENERGY PREDICTED BY IDOCK:   -5.32 KCAL/MOL
REMARK 924 INTRA-LIGAND FREE ENERGY PREDICTED BY IDOCK:   -0.14 KCAL/MOL
REMARK 927      BINDING AFFINITY PREDICTED BY RF-SCORE:    0.00 PKD
ROOT
HETATM    1  C   UNL     1     -10.771  16.973  67.223  1.00  0.00    -0.206 C  
HETATM    2  O   UNL     2      -8.330  12.592  66.670  1.00  0.00    -0.398 OA 
HETATM    3  N   UNL     1     -10.382  15.525  67.212  1.00  0.00    -0.262 N  
HETATM    4  O   UNL     2     -10.700  13.564  64.455  1.00  0.00    -0.390 OA 
HETATM    5  H   UNL     2      -8.052  13.080  65.904  1.00  0.00     0.000 HD 
HETATM    6  C   UNL     1      -9.347  15.379  66.081  1.00  0.00    -0.332 C  
HETATM    7  C   UNL     1     -11.643  14.713  66.844  1.00  0.00    -0.362 C  
HETATM    8  C   UNL     2      -9.561  11.946  66.580  1.00  0.00    -0.209 A  
HETATM    9  O   UNL     2      -9.969  12.023  62.982  1.00  0.00    -0.351 OA 
HETATM   10  C   UNL     2      -9.962  11.240  67.686  1.00  0.00    -0.197 A  
HETATM   11  C   UNL     2     -10.166  12.450  64.150  1.00  0.00    -0.351 C  
HETATM   12  C   UNL     2     -10.090   9.868  67.538  1.00  0.00    -0.244 A  
HETATM   13  C   UNL     2      -9.923   9.303  66.276  1.00  0.00    -0.357 A  
HETATM   14  C   UNL     2      -9.851  11.492  65.294  1.00  0.00    -0.286 A  
HETATM   15  C   UNL     2      -9.902  10.124  65.149  1.00  0.00    -0.394 A  
ENDROOT
BRANCH   3  16
HETATM   16  C   UNL     1      -9.904  15.014  68.569  1.00  0.00    -0.217 C  
BRANCH  16  17
HETATM   17  C   UNL     1     -10.995  14.604  69.576  1.00  0.00    -0.245 C  
HETATM   18  O   UNL     1     -10.606  14.928  70.902  1.00  0.00    -0.521 OA 
HETATM   19  H   UNL     1     -11.279  14.675  71.524  1.00  0.00     0.000 HD 
ENDBRANCH  16  17
ENDBRANCH   3  16
TORSDOF 2
ENDMDL
MODEL       39
REMARK 921   NORMALIZED FREE ENERGY PREDICTED BY IDOCK:   -4.72 KCAL/MOL
REMARK 922        TOTAL FREE ENERGY PREDICTED BY IDOCK:   -5.45 KCAL/MOL
REMARK 923 INTER-LIGAND FREE ENERGY PREDICTED BY IDOCK:   -5.32 KCAL/MOL
REMARK 924 INTRA-LIGAND FREE ENERGY PREDICTED BY IDOCK:   -0.14 KCAL/MOL
REMARK 927      BINDING AFFINITY PREDICTED BY RF-SCORE:    0.00 PKD
ROOT
HETATM    1  C   UNL     1      -8.814  18.698  66.214  1.00  0.00    -0.216 C  
HETATM    2  O   UNL     2      -9.478  15.128  69.717  1.00  0.00    -0.436 OA 
HETATM    3  N   UNL     1      -9.328  17.859  67.346  1.00  0.00    -0.255 N  
HETATM    4  O   UNL     2     -11.291  15.129  66.857  1.00  0.00    -0.333 OA 
HETATM    5  H   UNL     2      -9.146  14.631  68.978  1.00  0.00     0.000 HD 
HETATM    6  C   UNL     1      -8.834  16.429  67.064  1.00  0.00    -0.199 C  
HETATM    7  C   UNL     1     -10.870  17.880  67.269  1.00  0.00    -0.175 C  
HETATM    8  C   UNL     2     -10.842  15.411  69.712  1.00  0.00    -0.288 A  
HETATM    9  O   UNL     2     -11.903  12.992  67.233  1.00  0.00    -0.362 OA 
HETATM   10  C   UNL     2     -11.322  16.128  70.779  1.00  0.00    -0.397 A  
HETATM   11  C   UNL     2     -11.564  14.144  67.614  1.00  0.00    -0.365 C  
HETATM   12  C   UNL     2     -12.234  15.486  71.602  1.00  0.00    -0.468 A  
HETATM   13  C   UNL     2     -12.695  14.221  71.248  1.00  0.00    -0.427 A  
HETATM   14  C   UNL     2     -11.609  14.411  69.115  1.00  0.00    -0.344 A  
HETATM   15  C   UNL     2     -12.457  13.734  69.963  1.00  0.00    -0.301 A  
ENDROOT
BRANCH   3  16
HETATM   16  C   UNL     1      -8.944  18.396  68.723  1.00  0.00    -0.229 C  
BRANCH  16  17
HETATM   17  C   UNL     1      -7.440  18.438  69.052  1.00  0.00    -0.188 C  
HETATM   18  O   UNL     1      -6.962  19.774  69.061  1.00  0.00    -0.336 OA 
HETATM   19  H   UNL     1      -6.034  19.801  69.264  1.00  0.00     0.000 HD 
ENDBRANCH  16  17
ENDBRANCH   3  16
TORSDOF 2
ENDMDL
MODEL       40
REMARK 921   NORMALIZED FREE ENERGY PREDICTED BY IDOCK:   -4.69 KCAL/MOL
REMARK 922        TOTAL FREE ENERGY PREDICTED BY IDOCK:   -5.42 KCAL/MOL
REMARK 923 INTER-LIGAND FREE ENERGY PREDICTED BY IDOCK:   -5.22 KCAL/MOL
REMARK 924 INTRA-LIGAND FREE ENERGY PREDICTED BY IDOCK:   -0.21 KCAL/MOL
REMARK 927      BINDING AFFINITY PREDICTED BY RF-SCORE:    0.00 PKD
ROOT
HETATM    1  C   UNL     1      -8.976   6.027  66.377  1.00  0.00    -0.145 C  
HETATM    2  O   UNL     2      -9.580   8.915  70.470  1.00  0.00    -0.175 OA 
HETATM    3  N   UNL     1      -9.456   7.035  67.379  1.00  0.00    -0.130 N  
HETATM    4  O   UNL     2     -11.566   6.228  69.918  1.00  0.00    -0.435 OA 
HETATM    5  H   UNL     2      -9.318   8.082  70.843  1.00  0.00     0.000 HD 
HETATM    6  C   UNL     1      -9.045   6.482  68.756  1.00  0.00    -0.126 C  
HETATM    7  C   UNL     1     -10.998   7.069  67.294  1.00  0.00    -0.302 C  
HETATM    8  C   UNL     2     -10.928   9.052  70.144  1.00  0.00    -0.233 A  
HETATM    9  O   UNL     2     -12.249   6.280  72.066  1.00  0.00    -0.338 OA 
HETATM   10  C   UNL     2     -11.308  10.255  69.605  1.00  0.00    -0.315 A  
HETATM   11  C   UNL     2     -11.836   6.826  71.009  1.00  0.00    -0.376 C  
HETATM   12  C   UNL     2     -12.195  11.019  70.348  1.00  0.00    -0.461 A  
HETATM   13  C   UNL     2     -12.733  10.489  71.517  1.00  0.00    -0.558 A  
HETATM   14  C   UNL     2     -11.775   8.350  71.001  1.00  0.00    -0.296 A  
HETATM   15  C   UNL     2     -12.598   9.127  71.784  1.00  0.00    -0.446 A  
ENDROOT
BRANCH   3  16
HETATM   16  C   UNL     1      -8.963   8.452  67.100  1.00  0.00    -0.137 C  
BRANCH  16  17
HETATM   17  C   UNL     1      -9.860   9.332  66.209  1.00  0.00    -0.291 C  
HETATM   18  O   UNL     1      -9.505   9.193  64.841  1.00  0.00    -0.453 OA 
HETATM   19  H   UNL     1     -10.058   9.736  64.291  1.00  0.00     0.000 HD 
ENDBRANCH  16  17
ENDBRANCH   3  16
TORSDOF 2
ENDMDL
MODEL       41
REMARK 921   NORMALIZED FREE ENERGY PREDICTED BY IDOCK:   -4.65 KCAL/MOL
REMARK 922        TOTAL FREE ENERGY PREDICTED BY IDOCK:   -5.39 KCAL/MOL
REMARK 923 INTER-LIGAND FREE ENERGY PREDICTED BY IDOCK:   -5.47 KCAL/MOL
REMARK 924 INTRA-LIGAND FREE ENERGY PREDICTED BY IDOCK:    0.09 KCAL/MOL
REMARK 927      BINDING AFFINITY PREDICTED BY RF-SCORE:    0.00 PKD
ROOT
HETATM    1  C   UNL     1     -11.953  13.905  69.454  1.00  0.00    -0.354 C  
HETATM    2  O   UNL     2      -9.470  13.351  65.097  1.00  0.00    -0.450 OA 
HETATM    3  N   UNL     1     -11.210  13.359  68.271  1.00  0.00    -0.263 N  
HETATM    4  O   UNL     2     -12.753  12.562  65.350  1.00  0.00    -0.624 OA 
HETATM    5  H   UNL     2     -10.107  14.023  64.886  1.00  0.00     0.000 HD 
HETATM    6  C   UNL     1     -11.505  14.326  67.110  1.00  0.00    -0.359 C  
HETATM    7  C   UNL     1     -11.823  11.980  67.941  1.00  0.00    -0.250 C  
HETATM    8  C   UNL     2      -9.915  12.032  65.039  1.00  0.00    -0.233 A  
HETATM    9  O   UNL     2     -12.932  12.549  63.103  1.00  0.00    -0.561 OA 
HETATM   10  C   UNL     2      -8.994  11.062  65.344  1.00  0.00    -0.192 A  
HETATM   11  C   UNL     2     -12.293  12.390  64.176  1.00  0.00    -0.467 C  
HETATM   12  C   UNL     2      -8.648  10.188  64.324  1.00  0.00    -0.200 A  
HETATM   13  C   UNL     2      -9.323  10.263  63.109  1.00  0.00    -0.343 A  
HETATM   14  C   UNL     2     -10.883  11.822  64.058  1.00  0.00    -0.446 A  
HETATM   15  C   UNL     2     -10.497  11.009  63.015  1.00  0.00    -0.074 A  
ENDROOT
BRANCH   3  16
HETATM   16  C   UNL     1      -9.724  13.133  68.538  1.00  0.00    -0.137 C  
BRANCH  16  17
HETATM   17  C   UNL     1      -9.240  11.671  68.559  1.00  0.00    -0.163 C  
HETATM   18  O   UNL     1      -8.005  11.558  69.249  1.00  0.00    -0.358 OA 
HETATM   19  H   UNL     1      -7.706  10.656  69.262  1.00  0.00     0.000 HD 
ENDBRANCH  16  17
ENDBRANCH   3  16
TORSDOF 2
ENDMDL
MODEL       42
REMARK 921   NORMALIZED FREE ENERGY PREDICTED BY IDOCK:   -4.64 KCAL/MOL
REMARK 922        TOTAL FREE ENERGY PREDICTED BY IDOCK:   -5.37 KCAL/MOL
REMARK 923 INTER-LIGAND FREE ENERGY PREDICTED BY IDOCK:   -5.20 KCAL/MOL
REMARK 924 INTRA-LIGAND FREE ENERGY PREDICTED BY IDOCK:   -0.17 KCAL/MOL
REMARK 927      BINDING AFFINITY PREDICTED BY RF-SCORE:    0.00 PKD
ROOT
HETATM    1  C   UNL     1     -11.561  15.821  68.107  1.00  0.00    -0.255 C  
HETATM    2  O   UNL     2     -11.622  10.946  66.807  1.00  0.00    -0.254 OA 
HETATM    3  N   UNL     1     -11.330  14.499  67.437  1.00  0.00    -0.340 N  
HETATM    4  O   UNL     2      -9.033  12.257  68.552  1.00  0.00    -0.161 OA 
HETATM    5  H   UNL     2     -11.657  10.906  67.756  1.00  0.00     0.000 HD 
HETATM    6  C   UNL     1     -11.559  13.434  68.526  1.00  0.00    -0.333 C  
HETATM    7  C   UNL     1      -9.850  14.457  67.000  1.00  0.00    -0.252 C  
HETATM    8  C   UNL     2     -10.359  11.107  66.239  1.00  0.00    -0.249 A  
HETATM    9  O   UNL     2      -8.340  10.183  69.102  1.00  0.00    -0.130 OA 
HETATM   10  C   UNL     2     -10.308  11.164  64.869  1.00  0.00    -0.375 A  
HETATM   11  C   UNL     2      -8.900  11.011  68.334  1.00  0.00    -0.151 C  
HETATM   12  C   UNL     2      -9.628  10.141  64.228  1.00  0.00    -0.354 A  
HETATM   13  C   UNL     2      -8.949   9.195  64.990  1.00  0.00    -0.221 A  
HETATM   14  C   UNL     2      -9.345  10.491  66.971  1.00  0.00    -0.176 A  
HETATM   15  C   UNL     2      -8.729   9.429  66.347  1.00  0.00    -0.149 A  
ENDROOT
BRANCH   3  16
HETATM   16  C   UNL     1     -12.172  14.301  66.179  1.00  0.00    -0.410 C  
BRANCH  16  17
HETATM   17  C   UNL     1     -11.556  14.784  64.853  1.00  0.00    -0.401 C  
HETATM   18  O   UNL     1     -12.368  14.407  63.752  1.00  0.00    -0.990 OA 
HETATM   19  H   UNL     1     -11.988  14.704  62.933  1.00  0.00     0.000 HD 
ENDBRANCH  16  17
ENDBRANCH   3  16
TORSDOF 2
ENDMDL
MODEL       43
REMARK 921   NORMALIZED FREE ENERGY PREDICTED BY IDOCK:   -4.62 KCAL/MOL
REMARK 922        TOTAL FREE ENERGY PREDICTED BY IDOCK:   -5.35 KCAL/MOL
REMARK 923 INTER-LIGAND FREE ENERGY PREDICTED BY IDOCK:   -5.20 KCAL/MOL
REMARK 924 INTRA-LIGAND FREE ENERGY PREDICTED BY IDOCK:   -0.15 KCAL/MOL
REMARK 927      BINDING AFFINITY PREDICTED BY RF-SCORE:    0.00 PKD
ROOT
HETATM    1  C   UNL     1     -12.437  13.996  65.898  1.00  0.00    -0.481 C  
HETATM    2  O   UNL     2      -8.868  15.437  69.160  1.00  0.00    -0.215 OA 
HETATM    3  N   UNL     1     -11.173  14.494  66.533  1.00  0.00    -0.337 N  
HETATM    4  O   UNL     2     -10.772  17.716  67.534  1.00  0.00    -0.358 OA 
HETATM    5  H   UNL     2      -9.665  15.735  69.583  1.00  0.00     0.000 HD 
HETATM    6  C   UNL     1     -11.591  15.076  67.895  1.00  0.00    -0.333 C  
HETATM    7  C   UNL     1     -10.632  15.636  65.645  1.00  0.00    -0.378 C  
HETATM    8  C   UNL     2      -8.338  16.269  68.176  1.00  0.00    -0.172 A  
HETATM    9  O   UNL     2     -10.130  19.309  68.995  1.00  0.00    -0.415 OA 
HETATM   10  C   UNL     2      -7.187  15.838  67.566  1.00  0.00    -0.212 A  
HETATM   11  C   UNL     2      -9.944  18.249  68.339  1.00  0.00    -0.382 C  
HETATM   12  C   UNL     2      -6.054  16.613  67.756  1.00  0.00    -0.157 A  
HETATM   13  C   UNL     2      -6.164  17.821  68.440  1.00  0.00    -0.179 A  
HETATM   14  C   UNL     2      -8.556  17.623  68.426  1.00  0.00    -0.284 A  
HETATM   15  C   UNL     2      -7.424  18.364  68.684  1.00  0.00    -0.314 A  
ENDROOT
BRANCH   3  16
HETATM   16  C   UNL     1     -10.076  13.435  66.613  1.00  0.00    -0.275 C  
BRANCH  16  17
HETATM   17  C   UNL     1     -10.286  12.158  65.778  1.00  0.00    -0.254 C  
HETATM   18  O   UNL     1      -9.520  12.205  64.583  1.00  0.00    -0.452 OA 
HETATM   19  H   UNL     1      -9.649  11.418  64.067  1.00  0.00     0.000 HD 
ENDBRANCH  16  17
ENDBRANCH   3  16
TORSDOF 2
ENDMDL
MODEL       44
REMARK 921   NORMALIZED FREE ENERGY PREDICTED BY IDOCK:   -4.62 KCAL/MOL
REMARK 922        TOTAL FREE ENERGY PREDICTED BY IDOCK:   -5.34 KCAL/MOL
REMARK 923 INTER-LIGAND FREE ENERGY PREDICTED BY IDOCK:   -5.25 KCAL/MOL
REMARK 924 INTRA-LIGAND FREE ENERGY PREDICTED BY IDOCK:   -0.09 KCAL/MOL
REMARK 927      BINDING AFFINITY PREDICTED BY RF-SCORE:    0.00 PKD
ROOT
HETATM    1  C   UNL     1      -8.266   9.992  65.209  1.00  0.00    -0.148 C  
HETATM    2  O   UNL     2     -12.254  12.558  66.933  1.00  0.00    -0.511 OA 
HETATM    3  N   UNL     1      -9.242  10.749  66.060  1.00  0.00    -0.180 N  
HETATM    4  O   UNL     2      -9.376  14.144  66.115  1.00  0.00    -0.237 OA 
HETATM    5  H   UNL     2     -12.163  12.890  66.048  1.00  0.00     0.000 HD 
HETATM    6  C   UNL     1     -10.040  11.639  65.089  1.00  0.00    -0.262 C  
HETATM    7  C   UNL     1      -8.422  11.651  67.007  1.00  0.00    -0.168 C  
HETATM    8  C   UNL     2     -11.433  13.136  67.899  1.00  0.00    -0.308 A  
HETATM    9  O   UNL     2     -10.460  16.120  66.090  1.00  0.00    -0.314 OA 
HETATM   10  C   UNL     2     -11.563  12.657  69.178  1.00  0.00    -0.374 A  
HETATM   11  C   UNL     2     -10.286  14.943  66.503  1.00  0.00    -0.275 C  
HETATM   12  C   UNL     2     -12.026  13.549  70.134  1.00  0.00    -0.399 A  
HETATM   13  C   UNL     2     -12.219  14.882  69.781  1.00  0.00    -0.328 A  
HETATM   14  C   UNL     2     -11.168  14.484  67.660  1.00  0.00    -0.335 A  
HETATM   15  C   UNL     2     -11.697  15.361  68.580  1.00  0.00    -0.371 A  
ENDROOT
BRANCH   3  16
HETATM   16  C   UNL     1     -10.106   9.848  66.939  1.00  0.00    -0.225 C  
BRANCH  16  17
HETATM   17  C   UNL     1     -10.059   8.338  66.639  1.00  0.00    -0.281 C  
HETATM   18  O   UNL     1     -11.060   7.646  67.370  1.00  0.00    -0.537 OA 
HETATM   19  H   UNL     1     -11.030   6.715  67.185  1.00  0.00     0.000 HD 
ENDBRANCH  16  17
ENDBRANCH   3  16
TORSDOF 2
ENDMDL
MODEL       45
REMARK 921   NORMALIZED FREE ENERGY PREDICTED BY IDOCK:   -4.60 KCAL/MOL
REMARK 922        TOTAL FREE ENERGY PREDICTED BY IDOCK:   -5.32 KCAL/MOL
REMARK 923 INTER-LIGAND FREE ENERGY PREDICTED BY IDOCK:   -5.14 KCAL/MOL
REMARK 924 INTRA-LIGAND FREE ENERGY PREDICTED BY IDOCK:   -0.18 KCAL/MOL
REMARK 927      BINDING AFFINITY PREDICTED BY RF-SCORE:    0.00 PKD
ROOT
HETATM    1  C   UNL     1     -11.003  15.165  66.480  1.00  0.00    -0.318 C  
HETATM    2  O   UNL     2      -9.057  11.379  69.188  1.00  0.00    -0.395 OA 
HETATM    3  N   UNL     1     -10.807  13.980  67.378  1.00  0.00    -0.279 N  
HETATM    4  O   UNL     2     -10.523  10.810  66.189  1.00  0.00    -0.249 OA 
HETATM    5  H   UNL     2      -8.506  11.382  68.415  1.00  0.00     0.000 HD 
HETATM    6  C   UNL     1      -9.507  13.306  66.901  1.00  0.00    -0.249 C  
HETATM    7  C   UNL     1     -11.989  13.018  67.133  1.00  0.00    -0.329 C  
HETATM    8  C   UNL     2     -10.274  10.709  69.081  1.00  0.00    -0.220 A  
HETATM    9  O   UNL     2      -9.578   8.765  66.104  1.00  0.00    -0.237 OA 
HETATM   10  C   UNL     2     -11.070  10.704  70.198  1.00  0.00    -0.341 A  
HETATM   11  C   UNL     2     -10.061   9.750  66.722  1.00  0.00    -0.231 C  
HETATM   12  C   UNL     2     -11.313   9.471  70.785  1.00  0.00    -0.387 A  
HETATM   13  C   UNL     2     -10.847   8.318  70.159  1.00  0.00    -0.237 A  
HETATM   14  C   UNL     2     -10.220   9.604  68.232  1.00  0.00    -0.216 A  
HETATM   15  C   UNL     2     -10.392   8.382  68.843  1.00  0.00    -0.231 A  
ENDROOT
BRANCH   3  16
HETATM   16  C   UNL     1     -10.821  14.334  68.863  1.00  0.00    -0.257 C  
BRANCH  16  17
HETATM   17  C   UNL     1     -12.152  14.128  69.610  1.00  0.00    -0.349 C  
HETATM   18  O   UNL     1     -12.752  15.374  69.927  1.00  0.00    -0.611 OA 
HETATM   19  H   UNL     1     -13.573  15.247  70.388  1.00  0.00     0.000 HD 
ENDBRANCH  16  17
ENDBRANCH   3  16
TORSDOF 2
ENDMDL
MODEL       46
REMARK 921   NORMALIZED FREE ENERGY PREDICTED BY IDOCK:   -4.51 KCAL/MOL
REMARK 922        TOTAL FREE ENERGY PREDICTED BY IDOCK:   -5.23 KCAL/MOL
REMARK 923 INTER-LIGAND FREE ENERGY PREDICTED BY IDOCK:   -5.08 KCAL/MOL
REMARK 924 INTRA-LIGAND FREE ENERGY PREDICTED BY IDOCK:   -0.15 KCAL/MOL
REMARK 927      BINDING AFFINITY PREDICTED BY RF-SCORE:    0.00 PKD
ROOT
HETATM    1  C   UNL     1      -8.523   7.610  65.725  1.00  0.00    -0.144 C  
HETATM    2  O   UNL     2     -11.888   6.687  69.370  1.00  0.00    -0.651 OA 
HETATM    3  N   UNL     1      -9.196   7.234  67.011  1.00  0.00    -0.139 N  
HETATM    4  O   UNL     2     -10.042   9.526  69.373  1.00  0.00    -0.179 OA 
HETATM    5  H   UNL     2     -12.251   7.455  68.945  1.00  0.00     0.000 HD 
HETATM    6  C   UNL     1     -10.501   8.050  67.053  1.00  0.00    -0.340 C  
HETATM    7  C   UNL     1      -8.279   7.698  68.163  1.00  0.00    -0.124 C  
HETATM    8  C   UNL     2     -10.889   6.913  70.315  1.00  0.00    -0.257 A  
HETATM    9  O   UNL     2     -11.447  10.448  70.876  1.00  0.00    -0.344 OA 
HETATM   10  C   UNL     2     -10.366   5.804  70.929  1.00  0.00    -0.299 A  
HETATM   11  C   UNL     2     -10.860   9.468  70.346  1.00  0.00    -0.282 C  
HETATM   12  C   UNL     2     -10.573   5.690  72.295  1.00  0.00    -0.270 A  
HETATM   13  C   UNL     2     -11.185   6.738  72.977  1.00  0.00    -0.193 A  
HETATM   14  C   UNL     2     -11.054   8.110  71.012  1.00  0.00    -0.281 A  
HETATM   15  C   UNL     2     -11.332   7.976  72.354  1.00  0.00    -0.443 A  
ENDROOT
BRANCH   3  16
HETATM   16  C   UNL     1      -9.392   5.729  67.177  1.00  0.00    -0.115 C  
BRANCH  16  17
HETATM   17  C   UNL     1      -9.682   4.925  65.896  1.00  0.00    -0.184 C  
HETATM   18  O   UNL     1     -11.079   4.786  65.692  1.00  0.00    -0.831 OA 
HETATM   19  H   UNL     1     -11.259   4.289  64.901  1.00  0.00     0.000 HD 
ENDBRANCH  16  17
ENDBRANCH   3  16
TORSDOF 2
ENDMDL
MODEL       47
REMARK 921   NORMALIZED FREE ENERGY PREDICTED BY IDOCK:   -4.49 KCAL/MOL
REMARK 922        TOTAL FREE ENERGY PREDICTED BY IDOCK:   -5.20 KCAL/MOL
REMARK 923 INTER-LIGAND FREE ENERGY PREDICTED BY IDOCK:   -5.14 KCAL/MOL
REMARK 924 INTRA-LIGAND FREE ENERGY PREDICTED BY IDOCK:   -0.05 KCAL/MOL
REMARK 927      BINDING AFFINITY PREDICTED BY RF-SCORE:    0.00 PKD
ROOT
HETATM    1  C   UNL     1     -13.026  13.869  65.090  1.00  0.00    -0.238 C  
HETATM    2  O   UNL     2      -8.404  11.976  65.807  1.00  0.00    -0.268 OA 
HETATM    3  N   UNL     1     -11.652  13.562  65.607  1.00  0.00    -0.317 N  
HETATM    4  O   UNL     2     -11.022  10.958  67.697  1.00  0.00    -0.250 OA 
HETATM    5  H   UNL     2      -8.894  11.216  65.517  1.00  0.00     0.000 HD 
HETATM    6  C   UNL     1     -11.360  12.111  65.182  1.00  0.00    -0.327 C  
HETATM    7  C   UNL     1     -11.717  13.628  67.149  1.00  0.00    -0.383 C  
HETATM    8  C   UNL     2      -8.506  12.303  67.157  1.00  0.00    -0.184 A  
HETATM    9  O   UNL     2      -9.839   9.168  68.389  1.00  0.00    -0.156 OA 
HETATM   10  C   UNL     2      -7.798  13.401  67.576  1.00  0.00    -0.181 A  
HETATM   11  C   UNL     2      -9.939  10.359  67.991  1.00  0.00    -0.155 C  
HETATM   12  C   UNL     2      -6.781  13.175  68.491  1.00  0.00    -0.092 A  
HETATM   13  C   UNL     2      -6.612  11.897  69.015  1.00  0.00    -0.091 A  
HETATM   14  C   UNL     2      -8.660  11.190  67.982  1.00  0.00    -0.140 A  
HETATM   15  C   UNL     2      -7.608  10.938  68.834  1.00  0.00    -0.128 A  
ENDROOT
BRANCH   3  16
HETATM   16  C   UNL     1     -10.597  14.571  65.162  1.00  0.00    -0.410 C  
BRANCH  16  17
HETATM   17  C   UNL     1     -11.042  16.043  65.071  1.00  0.00    -0.336 C  
HETATM   18  O   UNL     1     -11.316  16.406  63.727  1.00  0.00    -1.487 OA 
HETATM   19  H   UNL     1     -11.590  17.314  63.671  1.00  0.00     0.000 HD 
ENDBRANCH  16  17
ENDBRANCH   3  16
TORSDOF 2
ENDMDL
MODEL       48
REMARK 921   NORMALIZED FREE ENERGY PREDICTED BY IDOCK:   -4.48 KCAL/MOL
REMARK 922        TOTAL FREE ENERGY PREDICTED BY IDOCK:   -5.19 KCAL/MOL
REMARK 923 INTER-LIGAND FREE ENERGY PREDICTED BY IDOCK:   -5.00 KCAL/MOL
REMARK 924 INTRA-LIGAND FREE ENERGY PREDICTED BY IDOCK:   -0.20 KCAL/MOL
REMARK 927      BINDING AFFINITY PREDICTED BY RF-SCORE:    0.00 PKD
ROOT
HETATM    1  C   UNL     1      -8.143  10.166  66.586  1.00  0.00    -0.120 C  
HETATM    2  O   UNL     2      -9.781   9.643  71.330  1.00  0.00    -0.263 OA 
HETATM    3  N   UNL     1      -8.969  10.144  67.838  1.00  0.00    -0.128 N  
HETATM    4  O   UNL     2     -10.512   7.334  68.964  1.00  0.00    -0.204 OA 
HETATM    5  H   UNL     2      -9.194   8.903  71.233  1.00  0.00     0.000 HD 
HETATM    6  C   UNL     1      -8.339   9.064  68.735  1.00  0.00    -0.122 C  
HETATM    7  C   UNL     1     -10.393   9.696  67.440  1.00  0.00    -0.247 C  
HETATM    8  C   UNL     2     -11.075   9.478  70.839  1.00  0.00    -0.336 A  
HETATM    9  O   UNL     2     -11.109   5.866  70.568  1.00  0.00    -0.311 OA 
HETATM   10  C   UNL     2     -11.923  10.547  70.980  1.00  0.00    -0.466 A  
HETATM   11  C   UNL     2     -10.978   7.032  70.109  1.00  0.00    -0.272 C  
HETATM   12  C   UNL     2     -13.028  10.363  71.797  1.00  0.00    -0.580 A  
HETATM   13  C   UNL     2     -13.277   9.100  72.326  1.00  0.00    -0.528 A  
HETATM   14  C   UNL     2     -11.543   8.170  70.952  1.00  0.00    -0.283 A  
HETATM   15  C   UNL     2     -12.594   7.993  71.824  1.00  0.00    -0.353 A  
ENDROOT
BRANCH   3  16
HETATM   16  C   UNL     1      -9.102  11.512  68.501  1.00  0.00    -0.157 C  
BRANCH  16  17
HETATM   17  C   UNL     1     -10.348  12.341  68.133  1.00  0.00    -0.216 C  
HETATM   18  O   UNL     1     -10.617  13.318  69.127  1.00  0.00    -0.414 OA 
HETATM   19  H   UNL     1     -11.385  13.829  68.900  1.00  0.00     0.000 HD 
ENDBRANCH  16  17
ENDBRANCH   3  16
TORSDOF 2
ENDMDL
MODEL       49
REMARK 921   NORMALIZED FREE ENERGY PREDICTED BY IDOCK:   -4.42 KCAL/MOL
REMARK 922        TOTAL FREE ENERGY PREDICTED BY IDOCK:   -5.13 KCAL/MOL
REMARK 923 INTER-LIGAND FREE ENERGY PREDICTED BY IDOCK:   -4.98 KCAL/MOL
REMARK 924 INTRA-LIGAND FREE ENERGY PREDICTED BY IDOCK:   -0.15 KCAL/MOL
REMARK 927      BINDING AFFINITY PREDICTED BY RF-SCORE:    0.00 PKD
ROOT
HETATM    1  C   UNL     1      -6.677  13.734  69.061  1.00  0.00    -0.111 C  
HETATM    2  O   UNL     2      -7.571  17.548  65.881  1.00  0.00    -0.482 OA 
HETATM    3  N   UNL     1      -7.304  14.852  68.282  1.00  0.00    -0.103 N  
HETATM    4  O   UNL     2      -6.957  18.116  69.162  1.00  0.00    -0.263 OA 
HETATM    5  H   UNL     2      -6.673  17.708  66.146  1.00  0.00     0.000 HD 
HETATM    6  C   UNL     1      -6.144  15.780  67.877  1.00  0.00    -0.143 C  
HETATM    7  C   UNL     1      -8.240  15.613  69.245  1.00  0.00    -0.253 C  
HETATM    8  C   UNL     2      -8.563  18.004  66.746  1.00  0.00    -0.255 A  
HETATM    9  O   UNL     2      -6.569  20.292  68.723  1.00  0.00    -0.310 OA 
HETATM   10  C   UNL     2      -9.861  17.774  66.364  1.00  0.00    -0.328 A  
HETATM   11  C   UNL     2      -7.132  19.188  68.500  1.00  0.00    -0.300 C  
HETATM   12  C   UNL     2     -10.641  18.889  66.103  1.00  0.00    -0.476 A  
HETATM   13  C   UNL     2     -10.118  20.156  66.349  1.00  0.00    -0.569 A  
HETATM   14  C   UNL     2      -8.210  19.172  67.421  1.00  0.00    -0.302 A  
HETATM   15  C   UNL     2      -8.948  20.287  67.096  1.00  0.00    -0.469 A  
ENDROOT
BRANCH   3  16
HETATM   16  C   UNL     1      -8.161  14.372  67.114  1.00  0.00    -0.145 C  
BRANCH  16  17
HETATM   17  C   UNL     1      -9.644  14.089  67.415  1.00  0.00    -0.227 C  
HETATM   18  O   UNL     1     -10.138  13.046  66.590  1.00  0.00    -0.241 OA 
HETATM   19  H   UNL     1     -11.053  12.871  66.775  1.00  0.00     0.000 HD 
ENDBRANCH  16  17
ENDBRANCH   3  16
TORSDOF 2
ENDMDL
MODEL       50
REMARK 921   NORMALIZED FREE ENERGY PREDICTED BY IDOCK:   -4.40 KCAL/MOL
REMARK 922        TOTAL FREE ENERGY PREDICTED BY IDOCK:   -5.11 KCAL/MOL
REMARK 923 INTER-LIGAND FREE ENERGY PREDICTED BY IDOCK:   -4.69 KCAL/MOL
REMARK 924 INTRA-LIGAND FREE ENERGY PREDICTED BY IDOCK:   -0.41 KCAL/MOL
REMARK 927      BINDING AFFINITY PREDICTED BY RF-SCORE:    0.00 PKD
ROOT
HETATM    1  C   UNL     1     -12.485  12.592  64.768  1.00  0.00    -0.484 C  
HETATM    2  O   UNL     2     -10.013  13.908  68.966  1.00  0.00    -0.409 OA 
HETATM    3  N   UNL     1     -11.440  12.992  65.767  1.00  0.00    -0.319 N  
HETATM    4  O   UNL     2     -10.907  16.225  66.665  1.00  0.00    -0.247 OA 
HETATM    5  H   UNL     2     -10.850  14.345  69.075  1.00  0.00     0.000 HD 
HETATM    6  C   UNL     1     -12.190  13.760  66.871  1.00  0.00    -0.366 C  
HETATM    7  C   UNL     1     -10.470  13.960  65.055  1.00  0.00    -0.410 C  
HETATM    8  C   UNL     2      -9.069  14.561  68.176  1.00  0.00    -0.191 A  
HETATM    9  O   UNL     2     -10.546  17.868  68.166  1.00  0.00    -0.387 OA 
HETATM   10  C   UNL     2      -7.861  13.929  68.020  1.00  0.00    -0.154 A  
HETATM   11  C   UNL     2     -10.318  16.732  67.673  1.00  0.00    -0.309 C  
HETATM   12  C   UNL     2      -6.750  14.573  68.541  1.00  0.00    -0.096 A  
HETATM   13  C   UNL     2      -6.894  15.849  69.079  1.00  0.00    -0.153 A  
HETATM   14  C   UNL     2      -9.149  15.950  68.262  1.00  0.00    -0.185 A  
HETATM   15  C   UNL     2      -8.066  16.567  68.849  1.00  0.00    -0.240 A  
ENDROOT
BRANCH   3  16
HETATM   16  C   UNL     1     -10.605  11.819  66.275  1.00  0.00    -0.252 C  
BRANCH  16  17
HETATM   17  C   UNL     1     -11.181  11.024  67.463  1.00  0.00    -0.302 C  
HETATM   18  O   UNL     1     -10.371  11.184  68.617  1.00  0.00    -0.188 OA 
HETATM   19  H   UNL     1     -10.726  10.694  69.350  1.00  0.00     0.000 HD 
ENDBRANCH  16  17
ENDBRANCH   3  16
TORSDOF 2
ENDMDL
MODEL       51
REMARK 921   NORMALIZED FREE ENERGY PREDICTED BY IDOCK:   -4.38 KCAL/MOL
REMARK 922        TOTAL FREE ENERGY PREDICTED BY IDOCK:   -5.08 KCAL/MOL
REMARK 923 INTER-LIGAND FREE ENERGY PREDICTED BY IDOCK:   -4.99 KCAL/MOL
REMARK 924 INTRA-LIGAND FREE ENERGY PREDICTED BY IDOCK:   -0.09 KCAL/MOL
REMARK 927      BINDING AFFINITY PREDICTED BY RF-SCORE:    0.00 PKD
ROOT
HETATM    1  C   UNL     1      -9.289  14.140  66.587  1.00  0.00    -0.282 C  
HETATM    2  O   UNL     2     -11.631  10.015  68.306  1.00  0.00    -0.592 OA 
HETATM    3  N   UNL     1      -9.746  12.733  66.836  1.00  0.00    -0.228 N  
HETATM    4  O   UNL     2      -8.524  10.833  69.374  1.00  0.00    -0.105 OA 
HETATM    5  H   UNL     2     -11.554  10.548  69.089  1.00  0.00     0.000 HD 
HETATM    6  C   UNL     1     -10.268  12.714  68.285  1.00  0.00    -0.239 C  
HETATM    7  C   UNL     1      -8.503  11.822  66.741  1.00  0.00    -0.177 C  
HETATM    8  C   UNL     2     -10.512   9.263  67.955  1.00  0.00    -0.223 A  
HETATM    9  O   UNL     2      -8.734   9.407  71.108  1.00  0.00    -0.284 OA 
HETATM   10  C   UNL     2     -10.623   8.492  66.825  1.00  0.00    -0.227 A  
HETATM   11  C   UNL     2      -8.976   9.781  69.930  1.00  0.00    -0.229 C  
HETATM   12  C   UNL     2     -10.546   7.119  66.998  1.00  0.00    -0.413 A  
HETATM   13  C   UNL     2     -10.251   6.608  68.259  1.00  0.00    -0.190 A  
HETATM   14  C   UNL     2      -9.778   8.822  69.056  1.00  0.00    -0.172 A  
HETATM   15  C   UNL     2      -9.773   7.460  69.254  1.00  0.00    -0.165 A  
ENDROOT
BRANCH   3  16
HETATM   16  C   UNL     1     -10.749  12.229  65.802  1.00  0.00    -0.263 C  
BRANCH  16  17
HETATM   17  C   UNL     1     -11.852  13.214  65.371  1.00  0.00    -0.372 C  
HETATM   18  O   UNL     1     -12.950  12.523  64.797  1.00  0.00    -0.827 OA 
HETATM   19  H   UNL     1     -13.631  13.130  64.531  1.00  0.00     0.000 HD 
ENDBRANCH  16  17
ENDBRANCH   3  16
TORSDOF 2
ENDMDL
MODEL       52
REMARK 921   NORMALIZED FREE ENERGY PREDICTED BY IDOCK:   -4.37 KCAL/MOL
REMARK 922        TOTAL FREE ENERGY PREDICTED BY IDOCK:   -5.06 KCAL/MOL
REMARK 923 INTER-LIGAND FREE ENERGY PREDICTED BY IDOCK:   -4.64 KCAL/MOL
REMARK 924 INTRA-LIGAND FREE ENERGY PREDICTED BY IDOCK:   -0.42 KCAL/MOL
REMARK 927      BINDING AFFINITY PREDICTED BY RF-SCORE:    0.00 PKD
ROOT
HETATM    1  C   UNL     1      -9.147  11.482  67.953  1.00  0.00    -0.167 C  
HETATM    2  O   UNL     2     -11.479   7.153  69.086  1.00  0.00    -0.480 OA 
HETATM    3  N   UNL     1      -9.492  10.115  68.466  1.00  0.00    -0.153 N  
HETATM    4  O   UNL     2     -11.170   9.625  71.380  1.00  0.00    -0.365 OA 
HETATM    5  H   UNL     2     -12.181   7.789  69.155  1.00  0.00     0.000 HD 
HETATM    6  C   UNL     1     -11.022  10.110  68.639  1.00  0.00    -0.230 C  
HETATM    7  C   UNL     1      -8.831   9.965  69.853  1.00  0.00    -0.195 C  
HETATM    8  C   UNL     2     -10.648   7.025  70.197  1.00  0.00    -0.228 A  
HETATM    9  O   UNL     2     -12.752   8.651  72.657  1.00  0.00    -0.365 OA 
HETATM   10  C   UNL     2      -9.633   6.107  70.099  1.00  0.00    -0.187 A  
HETATM   11  C   UNL     2     -11.809   8.618  71.823  1.00  0.00    -0.337 C  
HETATM   12  C   UNL     2      -9.685   5.026  70.965  1.00  0.00    -0.249 A  
HETATM   13  C   UNL     2     -10.673   4.988  71.945  1.00  0.00    -0.181 A  
HETATM   14  C   UNL     2     -11.309   7.238  71.406  1.00  0.00    -0.282 A  
HETATM   15  C   UNL     2     -11.415   6.135  72.223  1.00  0.00    -0.360 A  
ENDROOT
BRANCH   3  16
HETATM   16  C   UNL     1      -8.956   8.985  67.592  1.00  0.00    -0.123 C  
BRANCH  16  17
HETATM   17  C   UNL     1      -9.742   8.674  66.304  1.00  0.00    -0.251 C  
HETATM   18  O   UNL     1     -10.417   7.431  66.412  1.00  0.00    -0.489 OA 
HETATM   19  H   UNL     1     -10.902   7.239  65.618  1.00  0.00     0.000 HD 
ENDBRANCH  16  17
ENDBRANCH   3  16
TORSDOF 2
ENDMDL
MODEL       53
REMARK 921   NORMALIZED FREE ENERGY PREDICTED BY IDOCK:   -4.36 KCAL/MOL
REMARK 922        TOTAL FREE ENERGY PREDICTED BY IDOCK:   -5.06 KCAL/MOL
REMARK 923 INTER-LIGAND FREE ENERGY PREDICTED BY IDOCK:   -4.66 KCAL/MOL
REMARK 924 INTRA-LIGAND FREE ENERGY PREDICTED BY IDOCK:   -0.41 KCAL/MOL
REMARK 927      BINDING AFFINITY PREDICTED BY RF-SCORE:    0.00 PKD
ROOT
HETATM    1  C   UNL     1     -11.337  13.141  66.160  1.00  0.00    -0.312 C  
HETATM    2  O   UNL     2     -10.698  17.594  68.444  1.00  0.00    -0.338 OA 
HETATM    3  N   UNL     1     -10.766  14.397  66.748  1.00  0.00    -0.289 N  
HETATM    4  O   UNL     2     -10.718  17.349  65.067  1.00  0.00    -0.688 OA 
HETATM    5  H   UNL     2     -11.526  17.712  67.993  1.00  0.00     0.000 HD 
HETATM    6  C   UNL     1     -11.904  15.433  66.707  1.00  0.00     0.258 C  
HETATM    7  C   UNL     1      -9.629  14.865  65.815  1.00  0.00    -0.276 C  
HETATM    8  C   UNL     2      -9.545  17.790  67.687  1.00  0.00    -0.266 A  
HETATM    9  O   UNL     2     -11.009  19.578  64.897  1.00  0.00    -0.251 OA 
HETATM   10  C   UNL     2      -8.350  17.620  68.338  1.00  0.00    -0.290 A  
HETATM   11  C   UNL     2     -10.575  18.546  65.474  1.00  0.00     0.039 C  
HETATM   12  C   UNL     2      -7.542  18.740  68.460  1.00  0.00    -0.357 A  
HETATM   13  C   UNL     2      -7.920  19.922  67.829  1.00  0.00    -0.326 A  
HETATM   14  C   UNL     2      -9.694  18.764  66.700  1.00  0.00    -0.370 A  
HETATM   15  C   UNL     2      -8.938  19.901  66.876  1.00  0.00    -0.434 A  
ENDROOT
BRANCH   3  16
HETATM   16  C   UNL     1     -10.152  14.195  68.132  1.00  0.00    -0.239 C  
BRANCH  16  17
HETATM   17  C   UNL     1     -11.118  14.251  69.331  1.00  0.00    -0.246 C  
HETATM   18  O   UNL     1     -10.898  15.423  70.101  1.00  0.00    -0.273 OA 
HETATM   19  H   UNL     1     -11.493  15.458  70.841  1.00  0.00     0.000 HD 
ENDBRANCH  16  17
ENDBRANCH   3  16
TORSDOF 2
ENDMDL
MODEL       54
REMARK 921   NORMALIZED FREE ENERGY PREDICTED BY IDOCK:   -4.35 KCAL/MOL
REMARK 922        TOTAL FREE ENERGY PREDICTED BY IDOCK:   -5.05 KCAL/MOL
REMARK 923 INTER-LIGAND FREE ENERGY PREDICTED BY IDOCK:   -4.89 KCAL/MOL
REMARK 924 INTRA-LIGAND FREE ENERGY PREDICTED BY IDOCK:   -0.16 KCAL/MOL
REMARK 927      BINDING AFFINITY PREDICTED BY RF-SCORE:    0.00 PKD
ROOT
HETATM    1  C   UNL     1      -6.994  13.601  68.953  1.00  0.00    -0.110 C  
HETATM    2  O   UNL     2     -10.013  16.943  66.679  1.00  0.00    -0.271 OA 
HETATM    3  N   UNL     1      -7.805  14.812  68.599  1.00  0.00    -0.133 N  
HETATM    4  O   UNL     2      -6.644  17.257  66.545  1.00  0.00    -0.205 OA 
HETATM    5  H   UNL     2      -9.557  16.547  65.946  1.00  0.00     0.000 HD 
HETATM    6  C   UNL     1      -7.894  14.819  67.062  1.00  0.00    -0.054 C  
HETATM    7  C   UNL     1      -7.007  16.050  69.060  1.00  0.00    -0.165 C  
HETATM    8  C   UNL     2      -9.343  17.966  67.347  1.00  0.00    -0.257 A  
HETATM    9  O   UNL     2      -6.838  18.720  64.841  1.00  0.00    -0.462 OA 
HETATM   10  C   UNL     2     -10.003  18.539  68.405  1.00  0.00    -0.414 A  
HETATM   11  C   UNL     2      -7.251  18.167  65.895  1.00  0.00    -0.240 C  
HETATM   12  C   UNL     2     -10.340  19.877  68.278  1.00  0.00    -0.526 A  
HETATM   13  C   UNL     2      -9.902  20.585  67.162  1.00  0.00    -0.567 A  
HETATM   14  C   UNL     2      -8.529  18.728  66.510  1.00  0.00    -0.310 A  
HETATM   15  C   UNL     2      -8.921  20.036  66.338  1.00  0.00    -0.408 A  
ENDROOT
BRANCH   3  16
HETATM   16  C   UNL     1      -9.158  14.864  69.306  1.00  0.00    -0.096 C  
BRANCH  16  17
HETATM   17  C   UNL     1     -10.310  14.080  68.651  1.00  0.00    -0.238 C  
HETATM   18  O   UNL     1     -10.764  13.041  69.505  1.00  0.00    -0.435 OA 
HETATM   19  H   UNL     1     -11.474  12.556  69.101  1.00  0.00     0.000 HD 
ENDBRANCH  16  17
ENDBRANCH   3  16
TORSDOF 2
ENDMDL
MODEL       55
REMARK 921   NORMALIZED FREE ENERGY PREDICTED BY IDOCK:   -4.33 KCAL/MOL
REMARK 922        TOTAL FREE ENERGY PREDICTED BY IDOCK:   -5.02 KCAL/MOL
REMARK 923 INTER-LIGAND FREE ENERGY PREDICTED BY IDOCK:   -4.87 KCAL/MOL
REMARK 924 INTRA-LIGAND FREE ENERGY PREDICTED BY IDOCK:   -0.15 KCAL/MOL
REMARK 927      BINDING AFFINITY PREDICTED BY RF-SCORE:    0.00 PKD
ROOT
HETATM    1  C   UNL     1     -10.341  12.737  64.168  1.00  0.00    -0.376 C  
HETATM    2  O   UNL     2      -9.717  11.964  69.115  1.00  0.00    -0.407 OA 
HETATM    3  N   UNL     1     -10.542  12.415  65.619  1.00  0.00    -0.258 N  
HETATM    4  O   UNL     2      -9.798   9.373  66.938  1.00  0.00    -0.174 OA 
HETATM    5  H   UNL     2      -8.893  11.659  68.754  1.00  0.00     0.000 HD 
HETATM    6  C   UNL     1      -9.164  11.967  66.142  1.00  0.00    -0.179 C  
HETATM    7  C   UNL     1     -11.517  11.220  65.693  1.00  0.00     0.227 C  
HETATM    8  C   UNL     2     -10.780  11.064  69.084  1.00  0.00    -0.234 A  
HETATM    9  O   UNL     2      -8.910   8.016  68.505  1.00  0.00    -0.134 OA 
HETATM   10  C   UNL     2     -11.970  11.505  69.605  1.00  0.00    -0.407 A  
HETATM   11  C   UNL     2      -9.605   9.002  68.139  1.00  0.00    -0.148 C  
HETATM   12  C   UNL     2     -12.440  10.845  70.730  1.00  0.00    -0.489 A  
HETATM   13  C   UNL     2     -11.759   9.723  71.193  1.00  0.00    -0.465 A  
HETATM   14  C   UNL     2     -10.380   9.736  69.228  1.00  0.00    -0.230 A  
HETATM   15  C   UNL     2     -10.795   9.118  70.387  1.00  0.00    -0.285 A  
ENDROOT
BRANCH   3  16
HETATM   16  C   UNL     1     -11.174  13.555  66.413  1.00  0.00    -0.307 C  
BRANCH  16  17
HETATM   17  C   UNL     1     -12.001  14.578  65.613  1.00  0.00    -0.311 C  
HETATM   18  O   UNL     1     -13.372  14.212  65.589  1.00  0.00    -0.697 OA 
HETATM   19  H   UNL     1     -13.883  14.843  65.095  1.00  0.00     0.000 HD 
ENDBRANCH  16  17
ENDBRANCH   3  16
TORSDOF 2
ENDMDL
MODEL       56
REMARK 921   NORMALIZED FREE ENERGY PREDICTED BY IDOCK:   -4.30 KCAL/MOL
REMARK 922        TOTAL FREE ENERGY PREDICTED BY IDOCK:   -4.99 KCAL/MOL
REMARK 923 INTER-LIGAND FREE ENERGY PREDICTED BY IDOCK:   -4.62 KCAL/MOL
REMARK 924 INTRA-LIGAND FREE ENERGY PREDICTED BY IDOCK:   -0.37 KCAL/MOL
REMARK 927      BINDING AFFINITY PREDICTED BY RF-SCORE:    0.00 PKD
ROOT
HETATM    1  C   UNL     1     -10.258  18.006  68.726  1.00  0.00    -0.354 C  
HETATM    2  O   UNL     2     -10.106  12.972  69.029  1.00  0.00    -0.426 OA 
HETATM    3  N   UNL     1     -10.370  16.536  68.451  1.00  0.00    -0.277 N  
HETATM    4  O   UNL     2      -7.767  14.689  67.284  1.00  0.00    -0.194 OA 
HETATM    5  H   UNL     2      -9.312  13.229  69.481  1.00  0.00     0.000 HD 
HETATM    6  C   UNL     1      -9.279  15.868  69.308  1.00  0.00    -0.254 C  
HETATM    7  C   UNL     1     -10.035  16.321  66.959  1.00  0.00    -0.255 C  
HETATM    8  C   UNL     2     -10.038  12.915  67.638  1.00  0.00    -0.221 A  
HETATM    9  O   UNL     2      -6.435  12.870  67.261  1.00  0.00    -0.178 OA 
HETATM   10  C   UNL     2     -11.185  12.543  66.984  1.00  0.00    -0.353 A  
HETATM   11  C   UNL     2      -7.562  13.434  67.281  1.00  0.00    -0.062 C  
HETATM   12  C   UNL     2     -11.141  11.353  66.274  1.00  0.00    -0.281 A  
HETATM   13  C   UNL     2      -9.931  10.672  66.166  1.00  0.00    -0.283 A  
HETATM   14  C   UNL     2      -8.784  12.529  67.165  1.00  0.00    -0.200 A  
HETATM   15  C   UNL     2      -8.745  11.310  66.526  1.00  0.00    -0.178 A  
ENDROOT
BRANCH   3  16
HETATM   16  C   UNL     1     -11.774  15.981  68.678  1.00  0.00    -0.270 C  
BRANCH  16  17
HETATM   17  C   UNL     1     -12.100  15.487  70.100  1.00  0.00    -0.378 C  
HETATM   18  O   UNL     1     -12.760  14.231  70.059  1.00  0.00    -0.455 OA 
HETATM   19  H   UNL     1     -12.962  13.926  70.936  1.00  0.00     0.000 HD 
ENDBRANCH  16  17
ENDBRANCH   3  16
TORSDOF 2
ENDMDL
MODEL       57
REMARK 921   NORMALIZED FREE ENERGY PREDICTED BY IDOCK:   -4.29 KCAL/MOL
REMARK 922        TOTAL FREE ENERGY PREDICTED BY IDOCK:   -4.98 KCAL/MOL
REMARK 923 INTER-LIGAND FREE ENERGY PREDICTED BY IDOCK:   -4.78 KCAL/MOL
REMARK 924 INTRA-LIGAND FREE ENERGY PREDICTED BY IDOCK:   -0.20 KCAL/MOL
REMARK 927      BINDING AFFINITY PREDICTED BY RF-SCORE:    0.00 PKD
ROOT
HETATM    1  C   UNL     1      -7.575   9.809  68.573  1.00  0.00    -0.080 C  
HETATM    2  O   UNL     2      -9.449  12.247  64.573  1.00  0.00    -0.461 OA 
HETATM    3  N   UNL     1      -8.467  10.519  67.599  1.00  0.00    -0.115 N  
HETATM    4  O   UNL     2      -8.642  13.908  67.411  1.00  0.00    -0.178 OA 
HETATM    5  H   UNL     2      -8.574  12.611  64.644  1.00  0.00     0.000 HD 
HETATM    6  C   UNL     1      -7.540  11.429  66.771  1.00  0.00    -0.143 C  
HETATM    7  C   UNL     1      -9.432  11.403  68.419  1.00  0.00    -0.194 C  
HETATM    8  C   UNL     2     -10.422  12.805  65.400  1.00  0.00    -0.286 A  
HETATM    9  O   UNL     2      -8.702  15.865  66.295  1.00  0.00    -0.306 OA 
HETATM   10  C   UNL     2     -11.685  12.280  65.297  1.00  0.00    -0.413 A  
HETATM   11  C   UNL     2      -9.072  14.678  66.494  1.00  0.00    -0.237 C  
HETATM   12  C   UNL     2     -12.678  13.130  64.835  1.00  0.00    -0.421 A  
HETATM   13  C   UNL     2     -12.375  14.471  64.616  1.00  0.00    -0.419 A  
HETATM   14  C   UNL     2     -10.226  14.165  65.639  1.00  0.00    -0.357 A  
HETATM   15  C   UNL     2     -11.184  15.000  65.110  1.00  0.00    -0.391 A  
ENDROOT
BRANCH   3  16
HETATM   16  C   UNL     1      -9.328   9.575  66.764  1.00  0.00    -0.153 C  
BRANCH  16  17
HETATM   17  C   UNL     1     -10.758   9.312  67.272  1.00  0.00    -0.174 C  
HETATM   18  O   UNL     1     -10.806   8.131  68.057  1.00  0.00    -0.448 OA 
HETATM   19  H   UNL     1     -11.688   7.968  68.370  1.00  0.00     0.000 HD 
ENDBRANCH  16  17
ENDBRANCH   3  16
TORSDOF 2
ENDMDL
MODEL       58
REMARK 921   NORMALIZED FREE ENERGY PREDICTED BY IDOCK:   -4.29 KCAL/MOL
REMARK 922        TOTAL FREE ENERGY PREDICTED BY IDOCK:   -4.98 KCAL/MOL
REMARK 923 INTER-LIGAND FREE ENERGY PREDICTED BY IDOCK:   -4.82 KCAL/MOL
REMARK 924 INTRA-LIGAND FREE ENERGY PREDICTED BY IDOCK:   -0.16 KCAL/MOL
REMARK 927      BINDING AFFINITY PREDICTED BY RF-SCORE:    0.00 PKD
ROOT
HETATM    1  C   UNL     1      -7.932   4.662  71.571  1.00  0.00    -0.100 C  
HETATM    2  O   UNL     2     -11.649   7.562  69.773  1.00  0.00    -0.477 OA 
HETATM    3  N   UNL     1      -9.054   5.645  71.415  1.00  0.00    -0.139 N  
HETATM    4  O   UNL     2      -8.562   8.831  70.343  1.00  0.00    -0.137 OA 
HETATM    5  H   UNL     2     -11.025   7.559  69.056  1.00  0.00     0.000 HD 
HETATM    6  C   UNL     1      -9.003   6.108  69.948  1.00  0.00    -0.139 C  
HETATM    7  C   UNL     1      -8.741   6.848  72.331  1.00  0.00    -0.126 C  
HETATM    8  C   UNL     2     -11.406   8.469  70.802  1.00  0.00    -0.266 A  
HETATM    9  O   UNL     2      -9.063  10.638  69.091  1.00  0.00    -0.181 OA 
HETATM   10  C   UNL     2     -12.306   8.474  71.837  1.00  0.00    -0.407 A  
HETATM   11  C   UNL     2      -9.368   9.691  69.863  1.00  0.00    -0.228 C  
HETATM   12  C   UNL     2     -13.043   9.634  72.017  1.00  0.00    -0.537 A  
HETATM   13  C   UNL     2     -12.758  10.748  71.232  1.00  0.00    -0.546 A  
HETATM   14  C   UNL     2     -10.808   9.650  70.364  1.00  0.00    -0.353 A  
HETATM   15  C   UNL     2     -11.583  10.782  70.483  1.00  0.00    -0.425 A  
ENDROOT
BRANCH   3  16
HETATM   16  C   UNL     1     -10.409   5.093  71.852  1.00  0.00    -0.212 C  
BRANCH  16  17
HETATM   17  C   UNL     1     -10.815   5.337  73.318  1.00  0.00    -0.297 C  
HETATM   18  O   UNL     1     -12.040   4.687  73.618  1.00  0.00    -0.249 OA 
HETATM   19  H   UNL     1     -12.290   4.837  74.522  1.00  0.00     0.000 HD 
ENDBRANCH  16  17
ENDBRANCH   3  16
TORSDOF 2
ENDMDL
MODEL       59
REMARK 921   NORMALIZED FREE ENERGY PREDICTED BY IDOCK:   -4.24 KCAL/MOL
REMARK 922        TOTAL FREE ENERGY PREDICTED BY IDOCK:   -4.92 KCAL/MOL
REMARK 923 INTER-LIGAND FREE ENERGY PREDICTED BY IDOCK:   -4.66 KCAL/MOL
REMARK 924 INTRA-LIGAND FREE ENERGY PREDICTED BY IDOCK:   -0.26 KCAL/MOL
REMARK 927      BINDING AFFINITY PREDICTED BY RF-SCORE:    0.00 PKD
ROOT
HETATM    1  C   UNL     1     -10.891  19.492  67.361  1.00  0.00    -0.414 C  
HETATM    2  O   UNL     2      -8.269  15.323  66.265  1.00  0.00    -0.343 OA 
HETATM    3  N   UNL     1     -10.075  18.236  67.431  1.00  0.00    -0.335 N  
HETATM    4  O   UNL     2     -11.471  15.139  67.352  1.00  0.00    -0.332 OA 
HETATM    5  H   UNL     2      -8.961  15.307  65.615  1.00  0.00     0.000 HD 
HETATM    6  C   UNL     1     -10.431  17.436  66.164  1.00  0.00    -0.284 C  
HETATM    7  C   UNL     1     -10.551  17.448  68.670  1.00  0.00    -0.318 C  
HETATM    8  C   UNL     2      -8.590  14.820  67.524  1.00  0.00    -0.187 A  
HETATM    9  O   UNL     2     -11.597  13.001  66.647  1.00  0.00    -0.322 OA 
HETATM   10  C   UNL     2      -7.591  14.842  68.464  1.00  0.00    -0.121 A  
HETATM   11  C   UNL     2     -10.971  13.998  67.095  1.00  0.00    -0.296 C  
HETATM   12  C   UNL     2      -7.144  13.615  68.928  1.00  0.00    -0.102 A  
HETATM   13  C   UNL     2      -7.794  12.455  68.515  1.00  0.00    -0.112 A  
HETATM   14  C   UNL     2      -9.512  13.775  67.480  1.00  0.00    -0.220 A  
HETATM   15  C   UNL     2      -9.030  12.547  67.876  1.00  0.00    -0.188 A  
ENDROOT
BRANCH   3  16
HETATM   16  C   UNL     1      -8.581  18.492  67.612  1.00  0.00    -0.264 C  
BRANCH  16  17
HETATM   17  C   UNL     1      -7.833  19.097  66.409  1.00  0.00    -0.284 C  
HETATM   18  O   UNL     1      -7.331  18.075  65.561  1.00  0.00    -0.539 OA 
HETATM   19  H   UNL     1      -6.869  18.448  64.819  1.00  0.00     0.000 HD 
ENDBRANCH  16  17
ENDBRANCH   3  16
TORSDOF 2
ENDMDL
MODEL       60
REMARK 921   NORMALIZED FREE ENERGY PREDICTED BY IDOCK:   -4.22 KCAL/MOL
REMARK 922        TOTAL FREE ENERGY PREDICTED BY IDOCK:   -4.90 KCAL/MOL
REMARK 923 INTER-LIGAND FREE ENERGY PREDICTED BY IDOCK:   -4.47 KCAL/MOL
REMARK 924 INTRA-LIGAND FREE ENERGY PREDICTED BY IDOCK:   -0.42 KCAL/MOL
REMARK 927      BINDING AFFINITY PREDICTED BY RF-SCORE:    0.00 PKD
ROOT
HETATM    1  C   UNL     1     -12.036  14.606  64.371  1.00  0.00    -0.462 C  
HETATM    2  O   UNL     2     -10.918  10.227  66.614  1.00  0.00    -0.108 OA 
HETATM    3  N   UNL     1     -11.367  13.496  65.125  1.00  0.00    -0.296 N  
HETATM    4  O   UNL     2     -11.972  12.894  68.414  1.00  0.00    -0.326 OA 
HETATM    5  H   UNL     2     -11.849  10.312  66.782  1.00  0.00     0.000 HD 
HETATM    6  C   UNL     1     -12.507  12.629  65.692  1.00  0.00    -0.184 C  
HETATM    7  C   UNL     1     -10.596  14.138  66.299  1.00  0.00    -0.284 C  
HETATM    8  C   UNL     2     -10.066  10.914  67.476  1.00  0.00    -0.184 A  
HETATM    9  O   UNL     2     -12.399  11.550  70.173  1.00  0.00    -0.288 OA 
HETATM   10  C   UNL     2      -8.722  10.791  67.233  1.00  0.00    -0.130 A  
HETATM   11  C   UNL     2     -11.763  11.865  69.133  1.00  0.00    -0.319 C  
HETATM   12  C   UNL     2      -7.966  10.165  68.212  1.00  0.00    -0.101 A  
HETATM   13  C   UNL     2      -8.573   9.807  69.413  1.00  0.00    -0.168 A  
HETATM   14  C   UNL     2     -10.556  11.002  68.778  1.00  0.00    -0.232 A  
HETATM   15  C   UNL     2      -9.834  10.313  69.727  1.00  0.00    -0.201 A  
ENDROOT
BRANCH   3  16
HETATM   16  C   UNL     1     -10.347  12.724  64.292  1.00  0.00    -0.377 C  
BRANCH  16  17
HETATM   17  C   UNL     1     -10.904  11.647  63.342  1.00  0.00    -0.379 C  
HETATM   18  O   UNL     1     -10.379  10.369  63.663  1.00  0.00    -0.435 OA 
HETATM   19  H   UNL     1     -10.722   9.705  63.077  1.00  0.00     0.000 HD 
ENDBRANCH  16  17
ENDBRANCH   3  16
TORSDOF 2
ENDMDL
MODEL       61
REMARK 921   NORMALIZED FREE ENERGY PREDICTED BY IDOCK:   -4.21 KCAL/MOL
REMARK 922        TOTAL FREE ENERGY PREDICTED BY IDOCK:   -4.89 KCAL/MOL
REMARK 923 INTER-LIGAND FREE ENERGY PREDICTED BY IDOCK:   -4.69 KCAL/MOL
REMARK 924 INTRA-LIGAND FREE ENERGY PREDICTED BY IDOCK:   -0.20 KCAL/MOL
REMARK 927      BINDING AFFINITY PREDICTED BY RF-SCORE:    0.00 PKD
ROOT
HETATM    1  C   UNL     1     -11.968  14.650  66.909  1.00  0.00    -0.272 C  
HETATM    2  O   UNL     2     -10.970   9.711  67.170  1.00  0.00    -0.246 OA 
HETATM    3  N   UNL     1     -11.431  13.269  66.682  1.00  0.00    -0.332 N  
HETATM    4  O   UNL     2      -8.837  11.997  68.471  1.00  0.00    -0.166 OA 
HETATM    5  H   UNL     2     -11.073   9.948  68.084  1.00  0.00     0.000 HD 
HETATM    6  C   UNL     1     -11.534  12.552  68.041  1.00  0.00    -0.317 C  
HETATM    7  C   UNL     1      -9.940  13.412  66.304  1.00  0.00    -0.296 C  
HETATM    8  C   UNL     2      -9.722   9.958  66.602  1.00  0.00    -0.198 A  
HETATM    9  O   UNL     2      -7.799  10.375  69.643  1.00  0.00    -0.156 OA 
HETATM   10  C   UNL     2      -9.573   9.615  65.282  1.00  0.00    -0.347 A  
HETATM   11  C   UNL     2      -8.446  10.799  68.649  1.00  0.00    -0.143 C  
HETATM   12  C   UNL     2      -8.656   8.615  64.997  1.00  0.00    -0.185 A  
HETATM   13  C   UNL     2      -7.869   8.104  66.025  1.00  0.00    -0.093 A  
HETATM   14  C   UNL     2      -8.669   9.816  67.505  1.00  0.00    -0.125 A  
HETATM   15  C   UNL     2      -7.810   8.772  67.248  1.00  0.00    -0.097 A  
ENDROOT
BRANCH   3  16
HETATM   16  C   UNL     1     -12.113  12.533  65.531  1.00  0.00    -0.419 C  
BRANCH  16  17
HETATM   17  C   UNL     1     -11.481  12.695  64.136  1.00  0.00    -0.387 C  
HETATM   18  O   UNL     1     -12.308  13.484  63.295  1.00  0.00    -0.908 OA 
HETATM   19  H   UNL     1     -11.918  13.583  62.434  1.00  0.00     0.000 HD 
ENDBRANCH  16  17
ENDBRANCH   3  16
TORSDOF 2
ENDMDL
MODEL       62
REMARK 921   NORMALIZED FREE ENERGY PREDICTED BY IDOCK:   -4.16 KCAL/MOL
REMARK 922        TOTAL FREE ENERGY PREDICTED BY IDOCK:   -4.83 KCAL/MOL
REMARK 923 INTER-LIGAND FREE ENERGY PREDICTED BY IDOCK:   -4.74 KCAL/MOL
REMARK 924 INTRA-LIGAND FREE ENERGY PREDICTED BY IDOCK:   -0.09 KCAL/MOL
REMARK 927      BINDING AFFINITY PREDICTED BY RF-SCORE:    0.00 PKD
ROOT
HETATM    1  C   UNL     1     -13.351  14.878  72.709  1.00  0.00    -0.480 C  
HETATM    2  O   UNL     2      -9.682  14.001  69.358  1.00  0.00    -0.383 OA 
HETATM    3  N   UNL     1     -12.562  14.644  71.455  1.00  0.00    -0.324 N  
HETATM    4  O   UNL     2     -10.881  17.128  69.858  1.00  0.00    -0.086 OA 
HETATM    5  H   UNL     2      -9.246  14.549  70.001  1.00  0.00     0.000 HD 
HETATM    6  C   UNL     1     -11.130  15.114  71.769  1.00  0.00    -0.076 C  
HETATM    7  C   UNL     1     -13.159  15.554  70.360  1.00  0.00    -0.113 C  
HETATM    8  C   UNL     2     -10.440  14.660  68.393  1.00  0.00    -0.243 A  
HETATM    9  O   UNL     2      -9.086  17.995  68.805  1.00  0.00    -0.288 OA 
HETATM   10  C   UNL     2     -11.069  13.870  67.464  1.00  0.00    -0.302 A  
HETATM   11  C   UNL     2      -9.941  17.091  69.002  1.00  0.00    -0.269 C  
HETATM   12  C   UNL     2     -10.662  14.012  66.146  1.00  0.00    -0.289 A  
HETATM   13  C   UNL     2      -9.744  15.007  65.823  1.00  0.00    -0.375 A  
HETATM   14  C   UNL     2      -9.920  15.906  68.042  1.00  0.00    -0.220 A  
HETATM   15  C   UNL     2      -9.454  16.007  66.750  1.00  0.00    -0.250 A  
ENDROOT
BRANCH   3  16
HETATM   16  C   UNL     1     -12.653  13.209  70.940  1.00  0.00    -0.295 C  
BRANCH  16  17
HETATM   17  C   UNL     1     -13.364  12.192  71.852  1.00  0.00    -0.318 C  
HETATM   18  O   UNL     1     -12.865  10.881  71.631  1.00  0.00    -0.429 OA 
HETATM   19  H   UNL     1     -13.304  10.253  72.193  1.00  0.00     0.000 HD 
ENDBRANCH  16  17
ENDBRANCH   3  16
TORSDOF 2
ENDMDL
MODEL       63
REMARK 921   NORMALIZED FREE ENERGY PREDICTED BY IDOCK:   -4.08 KCAL/MOL
REMARK 922        TOTAL FREE ENERGY PREDICTED BY IDOCK:   -4.75 KCAL/MOL
REMARK 923 INTER-LIGAND FREE ENERGY PREDICTED BY IDOCK:   -4.62 KCAL/MOL
REMARK 924 INTRA-LIGAND FREE ENERGY PREDICTED BY IDOCK:   -0.13 KCAL/MOL
REMARK 927      BINDING AFFINITY PREDICTED BY RF-SCORE:    0.00 PKD
ROOT
HETATM    1  C   UNL     1      -5.921  19.191  68.245  1.00  0.00    -0.214 C  
HETATM    2  O   UNL     2      -9.961  16.180  67.981  1.00  0.00    -0.232 OA 
HETATM    3  N   UNL     1      -7.084  18.368  67.777  1.00  0.00    -0.216 N  
HETATM    4  O   UNL     2      -6.865  15.017  67.257  1.00  0.00    -0.245 OA 
HETATM    5  H   UNL     2      -9.457  15.786  68.683  1.00  0.00     0.000 HD 
HETATM    6  C   UNL     1      -7.276  17.272  68.842  1.00  0.00    -0.243 C  
HETATM    7  C   UNL     1      -6.672  17.704  66.445  1.00  0.00    -0.258 C  
HETATM    8  C   UNL     2      -9.591  15.837  66.683  1.00  0.00    -0.247 A  
HETATM    9  O   UNL     2      -7.611  12.897  67.428  1.00  0.00    -0.157 OA 
HETATM   10  C   UNL     2     -10.319  16.406  65.669  1.00  0.00    -0.371 A  
HETATM   11  C   UNL     2      -7.762  14.120  67.168  1.00  0.00     0.007 C  
HETATM   12  C   UNL     2     -11.056  15.544  64.871  1.00  0.00    -0.428 A  
HETATM   13  C   UNL     2     -10.931  14.170  65.060  1.00  0.00    -0.391 A  
HETATM   14  C   UNL     2      -9.105  14.534  66.576  1.00  0.00    -0.248 A  
HETATM   15  C   UNL     2      -9.888  13.673  65.840  1.00  0.00    -0.263 A  
ENDROOT
BRANCH   3  16
HETATM   16  C   UNL     1      -8.337  19.193  67.494  1.00  0.00    -0.287 C  
BRANCH  16  17
HETATM   17  C   UNL     1      -8.379  19.948  66.152  1.00  0.00    -0.317 C  
HETATM   18  O   UNL     1      -9.547  20.749  66.058  1.00  0.00    -0.514 OA 
HETATM   19  H   UNL     1      -9.573  21.214  65.231  1.00  0.00     0.000 HD 
ENDBRANCH  16  17
ENDBRANCH   3  16
TORSDOF 2
ENDMDL
MODEL       64
REMARK 921   NORMALIZED FREE ENERGY PREDICTED BY IDOCK:   -4.08 KCAL/MOL
REMARK 922        TOTAL FREE ENERGY PREDICTED BY IDOCK:   -4.74 KCAL/MOL
REMARK 923 INTER-LIGAND FREE ENERGY PREDICTED BY IDOCK:   -4.66 KCAL/MOL
REMARK 924 INTRA-LIGAND FREE ENERGY PREDICTED BY IDOCK:   -0.08 KCAL/MOL
REMARK 927      BINDING AFFINITY PREDICTED BY RF-SCORE:    0.00 PKD
ROOT
HETATM    1  C   UNL     1      -9.883   9.158  67.150  1.00  0.00    -0.195 C  
HETATM    2  O   UNL     2      -8.486  13.985  66.691  1.00  0.00    -0.429 OA 
HETATM    3  N   UNL     1      -9.811  10.618  66.813  1.00  0.00    -0.192 N  
HETATM    4  O   UNL     2     -10.806  13.047  68.971  1.00  0.00    -0.231 OA 
HETATM    5  H   UNL     2      -8.188  13.768  67.567  1.00  0.00     0.000 HD 
HETATM    6  C   UNL     1      -8.947  11.258  67.916  1.00  0.00    -0.146 C  
HETATM    7  C   UNL     1     -11.244  11.183  66.910  1.00  0.00    -0.186 C  
HETATM    8  C   UNL     2      -9.828  14.335  66.560  1.00  0.00    -0.288 A  
HETATM    9  O   UNL     2     -10.565  15.016  70.041  1.00  0.00    -0.226 OA 
HETATM   10  C   UNL     2     -10.257  14.650  65.296  1.00  0.00    -0.421 A  
HETATM   11  C   UNL     2     -10.552  14.293  69.010  1.00  0.00    -0.232 C  
HETATM   12  C   UNL     2     -10.685  15.952  65.088  1.00  0.00    -0.449 A  
HETATM   13  C   UNL     2     -10.767  16.820  66.173  1.00  0.00    -0.116 A  
HETATM   14  C   UNL     2     -10.333  15.000  67.677  1.00  0.00    -0.243 A  
HETATM   15  C   UNL     2     -10.685  16.315  67.470  1.00  0.00    -0.300 A  
ENDROOT
BRANCH   3  16
HETATM   16  C   UNL     1      -9.318  10.890  65.394  1.00  0.00    -0.208 C  
BRANCH  16  17
HETATM   17  C   UNL     1     -10.387  11.281  64.356  1.00  0.00    -0.329 C  
HETATM   18  O   UNL     1      -9.808  12.015  63.287  1.00  0.00    -0.474 OA 
HETATM   19  H   UNL     1     -10.466  12.256  62.647  1.00  0.00     0.000 HD 
ENDBRANCH  16  17
ENDBRANCH   3  16
TORSDOF 2
ENDMDL
MODEL       65
REMARK 921   NORMALIZED FREE ENERGY PREDICTED BY IDOCK:   -4.05 KCAL/MOL
REMARK 922        TOTAL FREE ENERGY PREDICTED BY IDOCK:   -4.71 KCAL/MOL
REMARK 923 INTER-LIGAND FREE ENERGY PREDICTED BY IDOCK:   -4.55 KCAL/MOL
REMARK 924 INTRA-LIGAND FREE ENERGY PREDICTED BY IDOCK:   -0.16 KCAL/MOL
REMARK 927      BINDING AFFINITY PREDICTED BY RF-SCORE:    0.00 PKD
ROOT
HETATM    1  C   UNL     1      -8.635  10.245  66.568  1.00  0.00    -0.132 C  
HETATM    2  O   UNL     2     -11.574   7.332  69.456  1.00  0.00    -0.491 OA 
HETATM    3  N   UNL     1      -9.181   9.362  67.651  1.00  0.00    -0.128 N  
HETATM    4  O   UNL     2     -10.997  10.571  70.256  1.00  0.00    -0.292 OA 
HETATM    5  H   UNL     2     -12.184   7.986  69.136  1.00  0.00     0.000 HD 
HETATM    6  C   UNL     1     -10.702   9.603  67.659  1.00  0.00    -0.262 C  
HETATM    7  C   UNL     1      -8.589   9.857  68.989  1.00  0.00    -0.149 C  
HETATM    8  C   UNL     2     -10.802   7.690  70.559  1.00  0.00    -0.241 A  
HETATM    9  O   UNL     2     -12.737  10.536  71.690  1.00  0.00    -0.405 OA 
HETATM   10  C   UNL     2      -9.921   6.745  71.022  1.00  0.00    -0.196 A  
HETATM   11  C   UNL     2     -11.782   9.993  71.074  1.00  0.00    -0.392 C  
HETATM   12  C   UNL     2     -10.147   6.253  72.298  1.00  0.00    -0.197 A  
HETATM   13  C   UNL     2     -11.160   6.813  73.071  1.00  0.00    -0.252 A  
HETATM   14  C   UNL     2     -11.464   8.546  71.438  1.00  0.00    -0.344 A  
HETATM   15  C   UNL     2     -11.746   8.016  72.678  1.00  0.00    -0.418 A  
ENDROOT
BRANCH   3  16
HETATM   16  C   UNL     1      -8.779   7.897  67.501  1.00  0.00    -0.125 C  
BRANCH  16  17
HETATM   17  C   UNL     1      -9.674   7.023  66.603  1.00  0.00    -0.166 C  
HETATM   18  O   UNL     1      -8.998   6.671  65.406  1.00  0.00    -0.361 OA 
HETATM   19  H   UNL     1      -9.551   6.132  64.851  1.00  0.00     0.000 HD 
ENDBRANCH  16  17
ENDBRANCH   3  16
TORSDOF 2
ENDMDL
MODEL       66
REMARK 921   NORMALIZED FREE ENERGY PREDICTED BY IDOCK:   -4.04 KCAL/MOL
REMARK 922        TOTAL FREE ENERGY PREDICTED BY IDOCK:   -4.69 KCAL/MOL
REMARK 923 INTER-LIGAND FREE ENERGY PREDICTED BY IDOCK:   -4.32 KCAL/MOL
REMARK 924 INTRA-LIGAND FREE ENERGY PREDICTED BY IDOCK:   -0.38 KCAL/MOL
REMARK 927      BINDING AFFINITY PREDICTED BY RF-SCORE:    0.00 PKD
ROOT
HETATM    1  C   UNL     1      -7.797   5.483  72.264  1.00  0.00    -0.103 C  
HETATM    2  O   UNL     2     -11.668   7.891  70.103  1.00  0.00    -0.477 OA 
HETATM    3  N   UNL     1      -8.724   6.518  71.701  1.00  0.00    -0.132 N  
HETATM    4  O   UNL     2      -8.805   7.300  68.395  1.00  0.00    -0.129 OA 
HETATM    5  H   UNL     2     -11.611   7.093  69.590  1.00  0.00     0.000 HD 
HETATM    6  C   UNL     1      -9.549   5.796  70.620  1.00  0.00    -0.174 C  
HETATM    7  C   UNL     1      -7.852   7.598  71.025  1.00  0.00    -0.090 C  
HETATM    8  C   UNL     2     -10.799   8.920  69.748  1.00  0.00    -0.200 A  
HETATM    9  O   UNL     2      -9.860   7.744  66.453  1.00  0.00    -0.207 OA 
HETATM   10  C   UNL     2     -10.882  10.072  70.488  1.00  0.00    -0.380 A  
HETATM   11  C   UNL     2      -9.686   7.890  67.692  1.00  0.00    -0.156 C  
HETATM   12  C   UNL     2     -11.290  11.215  69.817  1.00  0.00    -0.354 A  
HETATM   13  C   UNL     2     -11.478  11.163  68.439  1.00  0.00    -0.377 A  
HETATM   14  C   UNL     2     -10.524   8.961  68.382  1.00  0.00    -0.230 A  
HETATM   15  C   UNL     2     -11.001  10.069  67.718  1.00  0.00    -0.310 A  
ENDROOT
BRANCH   3  16
HETATM   16  C   UNL     1      -9.563   7.224  72.763  1.00  0.00    -0.158 C  
BRANCH  16  17
HETATM   17  C   UNL     1     -10.949   6.622  73.062  1.00  0.00    -0.247 C  
HETATM   18  O   UNL     1     -11.961   7.612  72.971  1.00  0.00    -0.594 OA 
HETATM   19  H   UNL     1     -12.816   7.241  73.155  1.00  0.00     0.000 HD 
ENDBRANCH  16  17
ENDBRANCH   3  16
TORSDOF 2
ENDMDL
MODEL       67
REMARK 921   NORMALIZED FREE ENERGY PREDICTED BY IDOCK:   -4.03 KCAL/MOL
REMARK 922        TOTAL FREE ENERGY PREDICTED BY IDOCK:   -4.69 KCAL/MOL
REMARK 923 INTER-LIGAND FREE ENERGY PREDICTED BY IDOCK:   -4.37 KCAL/MOL
REMARK 924 INTRA-LIGAND FREE ENERGY PREDICTED BY IDOCK:   -0.32 KCAL/MOL
REMARK 927      BINDING AFFINITY PREDICTED BY RF-SCORE:    0.00 PKD
ROOT
HETATM    1  C   UNL     1      -8.501   7.495  67.800  1.00  0.00    -0.118 C  
HETATM    2  O   UNL     2      -9.030  12.449  68.602  1.00  0.00    -0.360 OA 
HETATM    3  N   UNL     1      -8.892   8.941  67.718  1.00  0.00    -0.135 N  
HETATM    4  O   UNL     2     -11.430  10.258  69.553  1.00  0.00    -0.242 OA 
HETATM    5  H   UNL     2      -8.992  12.101  69.485  1.00  0.00     0.000 HD 
HETATM    6  C   UNL     1      -8.782   9.486  69.154  1.00  0.00    -0.146 C  
HETATM    7  C   UNL     1     -10.370   8.992  67.275  1.00  0.00    -0.273 C  
HETATM    8  C   UNL     2     -10.269  12.394  67.966  1.00  0.00    -0.219 A  
HETATM    9  O   UNL     2     -12.360  11.834  70.870  1.00  0.00    -0.375 OA 
HETATM   10  C   UNL     2     -10.324  12.897  66.691  1.00  0.00    -0.258 A  
HETATM   11  C   UNL     2     -11.712  11.461  69.857  1.00  0.00    -0.346 C  
HETATM   12  C   UNL     2     -11.126  14.011  66.494  1.00  0.00    -0.315 A  
HETATM   13  C   UNL     2     -11.906  14.480  67.547  1.00  0.00    -0.404 A  
HETATM   14  C   UNL     2     -11.343  12.540  68.843  1.00  0.00    -0.346 A  
HETATM   15  C   UNL     2     -12.086  13.688  68.680  1.00  0.00    -0.325 A  
ENDROOT
BRANCH   3  16
HETATM   16  C   UNL     1      -8.090   9.729  66.685  1.00  0.00    -0.116 C  
BRANCH  16  17
HETATM   17  C   UNL     1      -6.884  10.530  67.211  1.00  0.00    -0.082 C  
HETATM   18  O   UNL     1      -6.913  11.864  66.727  1.00  0.00    -0.313 OA 
HETATM   19  H   UNL     1      -6.169  12.358  67.052  1.00  0.00     0.000 HD 
ENDBRANCH  16  17
ENDBRANCH   3  16
TORSDOF 2
ENDMDL
MODEL       68
REMARK 921   NORMALIZED FREE ENERGY PREDICTED BY IDOCK:   -3.97 KCAL/MOL
REMARK 922        TOTAL FREE ENERGY PREDICTED BY IDOCK:   -4.62 KCAL/MOL
REMARK 923 INTER-LIGAND FREE ENERGY PREDICTED BY IDOCK:   -4.41 KCAL/MOL
REMARK 924 INTRA-LIGAND FREE ENERGY PREDICTED BY IDOCK:   -0.20 KCAL/MOL
REMARK 927      BINDING AFFINITY PREDICTED BY RF-SCORE:    0.00 PKD
ROOT
HETATM    1  C   UNL     1     -10.694   6.006  72.683  1.00  0.00    -0.232 C  
HETATM    2  O   UNL     2     -11.157   7.595  67.916  1.00  0.00    -0.475 OA 
HETATM    3  N   UNL     1     -10.784   6.835  71.436  1.00  0.00    -0.222 N  
HETATM    4  O   UNL     2      -8.120   7.372  69.397  1.00  0.00    -0.124 OA 
HETATM    5  H   UNL     2     -10.670   6.785  67.816  1.00  0.00     0.000 HD 
HETATM    6  C   UNL     1     -10.323   5.916  70.290  1.00  0.00    -0.235 C  
HETATM    7  C   UNL     1      -9.777   7.996  71.582  1.00  0.00    -0.171 C  
HETATM    8  C   UNL     2     -10.416   8.728  68.248  1.00  0.00    -0.187 A  
HETATM    9  O   UNL     2      -7.118   7.507  67.382  1.00  0.00    -0.080 OA 
HETATM   10  C   UNL     2     -11.119   9.897  68.391  1.00  0.00    -0.193 A  
HETATM   11  C   UNL     2      -8.052   7.761  68.187  1.00  0.00    -0.123 C  
HETATM   12  C   UNL     2     -10.835  10.910  67.489  1.00  0.00    -0.324 A  
HETATM   13  C   UNL     2      -9.796  10.737  66.579  1.00  0.00    -0.246 A  
HETATM   14  C   UNL     2      -9.132   8.723  67.704  1.00  0.00    -0.145 A  
HETATM   15  C   UNL     2      -8.891   9.691  66.755  1.00  0.00    -0.148 A  
ENDROOT
BRANCH   3  16
HETATM   16  C   UNL     1     -12.160   7.462  71.222  1.00  0.00    -0.328 C  
BRANCH  16  17
HETATM   17  C   UNL     1     -12.386   8.857  71.835  1.00  0.00    -0.376 C  
HETATM   18  O   UNL     1     -13.171   8.770  73.014  1.00  0.00    -0.805 OA 
HETATM   19  H   UNL     1     -13.311   9.630  73.392  1.00  0.00     0.000 HD 
ENDBRANCH  16  17
ENDBRANCH   3  16
TORSDOF 2
ENDMDL
MODEL       69
REMARK 921   NORMALIZED FREE ENERGY PREDICTED BY IDOCK:   -3.96 KCAL/MOL
REMARK 922        TOTAL FREE ENERGY PREDICTED BY IDOCK:   -4.61 KCAL/MOL
REMARK 923 INTER-LIGAND FREE ENERGY PREDICTED BY IDOCK:   -4.46 KCAL/MOL
REMARK 924 INTRA-LIGAND FREE ENERGY PREDICTED BY IDOCK:   -0.15 KCAL/MOL
REMARK 927      BINDING AFFINITY PREDICTED BY RF-SCORE:    0.00 PKD
ROOT
HETATM    1  C   UNL     1     -11.261  13.763  68.192  1.00  0.00    -0.271 C  
HETATM    2  O   UNL     2     -10.088   9.657  65.505  1.00  0.00    -0.318 OA 
HETATM    3  N   UNL     1     -10.859  12.811  67.105  1.00  0.00    -0.252 N  
HETATM    4  O   UNL     2      -7.674  11.682  66.746  1.00  0.00    -0.156 OA 
HETATM    5  H   UNL     2      -9.729   9.452  66.361  1.00  0.00     0.000 HD 
HETATM    6  C   UNL     1     -10.244  11.595  67.821  1.00  0.00    -0.186 C  
HETATM    7  C   UNL     1      -9.763  13.506  66.268  1.00  0.00    -0.277 C  
HETATM    8  C   UNL     2      -9.300  10.454  64.677  1.00  0.00    -0.254 A  
HETATM    9  O   UNL     2      -6.132  10.076  66.393  1.00  0.00    -0.062 OA 
HETATM   10  C   UNL     2      -9.817  10.749  63.441  1.00  0.00    -0.400 A  
HETATM   11  C   UNL     2      -7.203  10.679  66.120  1.00  0.00    -0.138 C  
HETATM   12  C   UNL     2      -9.129  10.256  62.343  1.00  0.00    -0.311 A  
HETATM   13  C   UNL     2      -7.916   9.603  62.540  1.00  0.00    -0.126 A  
HETATM   14  C   UNL     2      -7.932  10.245  64.853  1.00  0.00    -0.146 A  
HETATM   15  C   UNL     2      -7.278   9.687  63.777  1.00  0.00    -0.114 A  
ENDROOT
BRANCH   3  16
HETATM   16  C   UNL     1     -11.998  12.466  66.148  1.00  0.00    -0.327 C  
BRANCH  16  17
HETATM   17  C   UNL     1     -12.432  13.569  65.165  1.00  0.00    -0.451 C  
HETATM   18  O   UNL     1     -13.610  14.216  65.620  1.00  0.00    -0.671 OA 
HETATM   19  H   UNL     1     -13.879  14.896  65.014  1.00  0.00     0.000 HD 
ENDBRANCH  16  17
ENDBRANCH   3  16
TORSDOF 2
ENDMDL
MODEL       70
REMARK 921   NORMALIZED FREE ENERGY PREDICTED BY IDOCK:   -3.93 KCAL/MOL
REMARK 922        TOTAL FREE ENERGY PREDICTED BY IDOCK:   -4.57 KCAL/MOL
REMARK 923 INTER-LIGAND FREE ENERGY PREDICTED BY IDOCK:   -4.43 KCAL/MOL
REMARK 924 INTRA-LIGAND FREE ENERGY PREDICTED BY IDOCK:   -0.15 KCAL/MOL
REMARK 927      BINDING AFFINITY PREDICTED BY RF-SCORE:    0.00 PKD
ROOT
HETATM    1  C   UNL     1     -10.415   8.278  67.262  1.00  0.00    -0.303 C  
HETATM    2  O   UNL     2     -10.259  13.121  68.670  1.00  0.00    -0.307 OA 
HETATM    3  N   UNL     1     -10.089   9.736  67.398  1.00  0.00    -0.194 N  
HETATM    4  O   UNL     2     -11.905  12.167  65.869  1.00  0.00    -0.504 OA 
HETATM    5  H   UNL     2     -11.183  12.915  68.744  1.00  0.00     0.000 HD 
HETATM    6  C   UNL     1     -11.363  10.398  67.953  1.00  0.00    -0.173 C  
HETATM    7  C   UNL     1      -9.821  10.280  65.978  1.00  0.00    -0.233 C  
HETATM    8  C   UNL     2      -9.796  13.450  67.398  1.00  0.00    -0.227 A  
HETATM    9  O   UNL     2     -12.977  14.149  65.813  1.00  0.00    -0.492 OA 
HETATM   10  C   UNL     2      -8.461  13.748  67.291  1.00  0.00    -0.204 A  
HETATM   11  C   UNL     2     -11.991  13.417  66.090  1.00  0.00    -0.413 C  
HETATM   12  C   UNL     2      -8.139  15.042  66.912  1.00  0.00    -0.161 A  
HETATM   13  C   UNL     2      -9.160  15.918  66.553  1.00  0.00    -0.320 A  
HETATM   14  C   UNL     2     -10.745  14.117  66.623  1.00  0.00    -0.289 A  
HETATM   15  C   UNL     2     -10.442  15.425  66.317  1.00  0.00    -0.310 A  
ENDROOT
BRANCH   3  16
HETATM   16  C   UNL     1      -8.833  10.003  68.223  1.00  0.00    -0.116 C  
BRANCH  16  17
HETATM   17  C   UNL     1      -7.984   8.776  68.606  1.00  0.00    -0.107 C  
HETATM   18  O   UNL     1      -6.920   8.590  67.685  1.00  0.00    -0.075 OA 
HETATM   19  H   UNL     1      -6.396   7.833  67.921  1.00  0.00     0.000 HD 
ENDBRANCH  16  17
ENDBRANCH   3  16
TORSDOF 2
ENDMDL
MODEL       71
REMARK 921   NORMALIZED FREE ENERGY PREDICTED BY IDOCK:   -3.92 KCAL/MOL
REMARK 922        TOTAL FREE ENERGY PREDICTED BY IDOCK:   -4.56 KCAL/MOL
REMARK 923 INTER-LIGAND FREE ENERGY PREDICTED BY IDOCK:   -4.14 KCAL/MOL
REMARK 924 INTRA-LIGAND FREE ENERGY PREDICTED BY IDOCK:   -0.42 KCAL/MOL
REMARK 927      BINDING AFFINITY PREDICTED BY RF-SCORE:    0.00 PKD
ROOT
HETATM    1  C   UNL     1      -8.745   8.152  73.608  1.00  0.00    -0.241 C  
HETATM    2  O   UNL     2     -11.541   6.249  69.863  1.00  0.00    -0.435 OA 
HETATM    3  N   UNL     1      -9.307   7.775  72.270  1.00  0.00    -0.147 N  
HETATM    4  O   UNL     2      -8.608   4.813  70.758  1.00  0.00    -0.101 OA 
HETATM    5  H   UNL     2     -11.563   5.554  70.510  1.00  0.00     0.000 HD 
HETATM    6  C   UNL     1     -10.055   6.447  72.491  1.00  0.00    -0.176 C  
HETATM    7  C   UNL     1      -8.113   7.524  71.323  1.00  0.00    -0.096 C  
HETATM    8  C   UNL     2     -10.419   6.292  69.037  1.00  0.00    -0.237 A  
HETATM    9  O   UNL     2      -9.166   2.945  69.627  1.00  0.00    -0.123 OA 
HETATM   10  C   UNL     2     -10.387   7.296  68.103  1.00  0.00    -0.234 A  
HETATM   11  C   UNL     2      -9.196   4.189  69.818  1.00  0.00    -0.143 C  
HETATM   12  C   UNL     2     -10.409   6.909  66.772  1.00  0.00    -0.287 A  
HETATM   13  C   UNL     2     -10.346   5.555  66.457  1.00  0.00    -0.309 A  
HETATM   14  C   UNL     2      -9.896   5.031  68.756  1.00  0.00    -0.236 A  
HETATM   15  C   UNL     2      -9.992   4.633  67.441  1.00  0.00    -0.190 A  
ENDROOT
BRANCH   3  16
HETATM   16  C   UNL     1     -10.155   8.875  71.636  1.00  0.00    -0.341 C  
BRANCH  16  17
HETATM   17  C   UNL     1     -11.645   8.911  72.027  1.00  0.00    -0.364 C  
HETATM   18  O   UNL     1     -12.470   8.704  70.891  1.00  0.00    -0.482 OA 
HETATM   19  H   UNL     1     -13.389   8.727  71.132  1.00  0.00     0.000 HD 
ENDBRANCH  16  17
ENDBRANCH   3  16
TORSDOF 2
ENDMDL
MODEL       72
REMARK 921   NORMALIZED FREE ENERGY PREDICTED BY IDOCK:   -3.90 KCAL/MOL
REMARK 922        TOTAL FREE ENERGY PREDICTED BY IDOCK:   -4.54 KCAL/MOL
REMARK 923 INTER-LIGAND FREE ENERGY PREDICTED BY IDOCK:   -4.42 KCAL/MOL
REMARK 924 INTRA-LIGAND FREE ENERGY PREDICTED BY IDOCK:   -0.11 KCAL/MOL
REMARK 927      BINDING AFFINITY PREDICTED BY RF-SCORE:    0.00 PKD
ROOT
HETATM    1  C   UNL     1     -13.237   9.165  72.233  1.00  0.00    -0.461 C  
HETATM    2  O   UNL     2     -10.708   5.507  69.851  1.00  0.00    -0.319 OA 
HETATM    3  N   UNL     1     -12.173   8.255  71.697  1.00  0.00    -0.300 N  
HETATM    4  O   UNL     2     -11.393   5.289  73.160  1.00  0.00    -0.310 OA 
HETATM    5  H   UNL     2     -11.507   5.066  70.113  1.00  0.00     0.000 HD 
HETATM    6  C   UNL     1     -12.870   6.907  71.436  1.00  0.00    -0.311 C  
HETATM    7  C   UNL     1     -11.123   8.068  72.813  1.00  0.00    -0.381 C  
HETATM    8  C   UNL     2      -9.708   5.604  70.816  1.00  0.00    -0.177 A  
HETATM    9  O   UNL     2     -10.917   3.086  73.123  1.00  0.00    -0.164 OA 
HETATM   10  C   UNL     2      -8.552   6.240  70.438  1.00  0.00    -0.142 A  
HETATM   11  C   UNL     2     -10.775   4.269  72.715  1.00  0.00    -0.137 C  
HETATM   12  C   UNL     2      -7.397   5.473  70.415  1.00  0.00    -0.071 A  
HETATM   13  C   UNL     2      -7.445   4.160  70.877  1.00  0.00    -0.047 A  
HETATM   14  C   UNL     2      -9.677   4.514  71.686  1.00  0.00    -0.241 A  
HETATM   15  C   UNL     2      -8.554   3.722  71.598  1.00  0.00    -0.113 A  
ENDROOT
BRANCH   3  16
HETATM   16  C   UNL     1     -11.439   8.826  70.486  1.00  0.00    -0.196 C  
BRANCH  16  17
HETATM   17  C   UNL     1     -11.664  10.319  70.183  1.00  0.00    -0.284 C  
HETATM   18  O   UNL     1     -12.462  10.485  69.021  1.00  0.00    -0.770 OA 
HETATM   19  H   UNL     1     -12.601  11.406  68.833  1.00  0.00     0.000 HD 
ENDBRANCH  16  17
ENDBRANCH   3  16
TORSDOF 2
ENDMDL
MODEL       73
REMARK 921   NORMALIZED FREE ENERGY PREDICTED BY IDOCK:   -3.87 KCAL/MOL
REMARK 922        TOTAL FREE ENERGY PREDICTED BY IDOCK:   -4.51 KCAL/MOL
REMARK 923 INTER-LIGAND FREE ENERGY PREDICTED BY IDOCK:   -4.15 KCAL/MOL
REMARK 924 INTRA-LIGAND FREE ENERGY PREDICTED BY IDOCK:   -0.36 KCAL/MOL
REMARK 927      BINDING AFFINITY PREDICTED BY RF-SCORE:    0.00 PKD
ROOT
HETATM    1  C   UNL     1      -9.906  12.336  68.199  1.00  0.00    -0.212 C  
HETATM    2  O   UNL     2     -10.928   7.498  67.191  1.00  0.00    -0.519 OA 
HETATM    3  N   UNL     1      -9.840  10.846  68.037  1.00  0.00    -0.168 N  
HETATM    4  O   UNL     2     -11.087   8.696  70.354  1.00  0.00    -0.240 OA 
HETATM    5  H   UNL     2     -11.764   7.824  67.503  1.00  0.00     0.000 HD 
HETATM    6  C   UNL     1     -11.296  10.352  68.123  1.00  0.00    -0.213 C  
HETATM    7  C   UNL     1      -9.051  10.287  69.242  1.00  0.00    -0.194 C  
HETATM    8  C   UNL     2     -10.004   7.126  68.165  1.00  0.00    -0.151 A  
HETATM    9  O   UNL     2     -12.250   6.874  70.995  1.00  0.00    -0.373 OA 
HETATM   10  C   UNL     2      -8.796   6.655  67.714  1.00  0.00    -0.114 A  
HETATM   11  C   UNL     2     -11.402   7.466  70.276  1.00  0.00    -0.221 C  
HETATM   12  C   UNL     2      -8.493   5.335  68.007  1.00  0.00    -0.097 A  
HETATM   13  C   UNL     2      -9.353   4.606  68.824  1.00  0.00    -0.197 A  
HETATM   14  C   UNL     2     -10.596   6.600  69.312  1.00  0.00    -0.276 A  
HETATM   15  C   UNL     2     -10.343   5.268  69.549  1.00  0.00    -0.333 A  
ENDROOT
BRANCH   3  16
HETATM   16  C   UNL     1      -9.101  10.404  66.777  1.00  0.00    -0.143 C  
BRANCH  16  17
HETATM   17  C   UNL     1      -9.957  10.182  65.516  1.00  0.00    -0.293 C  
HETATM   18  O   UNL     1      -9.593   8.974  64.865  1.00  0.00    -0.407 OA 
HETATM   19  H   UNL     1     -10.121   8.837  64.087  1.00  0.00     0.000 HD 
ENDBRANCH  16  17
ENDBRANCH   3  16
TORSDOF 2
ENDMDL
MODEL       74
REMARK 921   NORMALIZED FREE ENERGY PREDICTED BY IDOCK:   -3.85 KCAL/MOL
REMARK 922        TOTAL FREE ENERGY PREDICTED BY IDOCK:   -4.49 KCAL/MOL
REMARK 923 INTER-LIGAND FREE ENERGY PREDICTED BY IDOCK:   -4.37 KCAL/MOL
REMARK 924 INTRA-LIGAND FREE ENERGY PREDICTED BY IDOCK:   -0.11 KCAL/MOL
REMARK 927      BINDING AFFINITY PREDICTED BY RF-SCORE:    0.00 PKD
ROOT
HETATM    1  C   UNL     1      -8.463   8.800  65.864  1.00  0.00    -0.143 C  
HETATM    2  O   UNL     2      -9.271  13.781  65.880  1.00  0.00    -0.495 OA 
HETATM    3  N   UNL     1      -9.015  10.176  66.092  1.00  0.00    -0.147 N  
HETATM    4  O   UNL     2      -7.858  12.231  68.539  1.00  0.00    -0.131 OA 
HETATM    5  H   UNL     2      -8.323  13.727  65.913  1.00  0.00     0.000 HD 
HETATM    6  C   UNL     1      -7.814  11.132  65.978  1.00  0.00    -0.020 C  
HETATM    7  C   UNL     1      -9.554  10.221  67.539  1.00  0.00    -0.156 C  
HETATM    8  C   UNL     2      -9.943  13.643  67.093  1.00  0.00    -0.247 A  
HETATM    9  O   UNL     2      -7.161  14.219  69.340  1.00  0.00    -0.132 OA 
HETATM   10  C   UNL     2     -11.312  13.722  67.045  1.00  0.00    -0.345 A  
HETATM   11  C   UNL     2      -7.962  13.489  68.699  1.00  0.00    -0.073 C  
HETATM   12  C   UNL     2     -11.899  14.786  67.713  1.00  0.00    -0.322 A  
HETATM   13  C   UNL     2     -11.099  15.632  68.477  1.00  0.00    -0.322 A  
HETATM   14  C   UNL     2      -9.231  14.155  68.177  1.00  0.00    -0.194 A  
HETATM   15  C   UNL     2      -9.792  15.256  68.783  1.00  0.00    -0.217 A  
ENDROOT
BRANCH   3  16
HETATM   16  C   UNL     1     -10.182  10.522  65.171  1.00  0.00    -0.288 C  
BRANCH  16  17
HETATM   17  C   UNL     1      -9.824  11.122  63.798  1.00  0.00    -0.331 C  
HETATM   18  O   UNL     1     -10.946  11.100  62.929  1.00  0.00    -0.809 OA 
HETATM   19  H   UNL     1     -10.726  11.470  62.082  1.00  0.00     0.000 HD 
ENDBRANCH  16  17
ENDBRANCH   3  16
TORSDOF 2
ENDMDL
MODEL       75
REMARK 921   NORMALIZED FREE ENERGY PREDICTED BY IDOCK:   -3.85 KCAL/MOL
REMARK 922        TOTAL FREE ENERGY PREDICTED BY IDOCK:   -4.48 KCAL/MOL
REMARK 923 INTER-LIGAND FREE ENERGY PREDICTED BY IDOCK:   -4.05 KCAL/MOL
REMARK 924 INTRA-LIGAND FREE ENERGY PREDICTED BY IDOCK:   -0.43 KCAL/MOL
REMARK 927      BINDING AFFINITY PREDICTED BY RF-SCORE:    0.00 PKD
ROOT
HETATM    1  C   UNL     1      -6.901  19.711  69.824  1.00  0.00    -0.216 C  
HETATM    2  O   UNL     2      -7.857  16.924  65.727  1.00  0.00    -0.328 OA 
HETATM    3  N   UNL     1      -7.403  18.673  68.864  1.00  0.00    -0.292 N  
HETATM    4  O   UNL     2     -10.110  19.176  66.874  1.00  0.00    -0.327 OA 
HETATM    5  H   UNL     2      -7.827  17.805  65.374  1.00  0.00     0.000 HD 
HETATM    6  C   UNL     1      -7.395  19.346  67.479  1.00  0.00    -0.231 C  
HETATM    7  C   UNL     1      -8.862  18.353  69.256  1.00  0.00     0.254 C  
HETATM    8  C   UNL     2      -9.060  16.529  66.307  1.00  0.00    -0.313 A  
HETATM    9  O   UNL     2     -11.215  19.085  64.910  1.00  0.00    -0.213 OA 
HETATM   10  C   UNL     2      -9.104  15.256  66.818  1.00  0.00    -0.283 A  
HETATM   11  C   UNL     2     -10.499  18.583  65.817  1.00  0.00    -0.247 C  
HETATM   12  C   UNL     2      -9.984  14.372  66.213  1.00  0.00    -0.320 A  
HETATM   13  C   UNL     2     -10.842  14.840  65.221  1.00  0.00    -0.395 A  
HETATM   14  C   UNL     2     -10.177  17.097  65.695  1.00  0.00    -0.162 A  
HETATM   15  C   UNL     2     -11.002  16.213  65.037  1.00  0.00    -0.357 A  
ENDROOT
BRANCH   3  16
HETATM   16  C   UNL     1      -6.626  17.361  68.929  1.00  0.00    -0.218 C  
BRANCH  16  17
HETATM   17  C   UNL     1      -5.315  17.294  68.123  1.00  0.00    -0.121 C  
HETATM   18  O   UNL     1      -5.383  16.282  67.130  1.00  0.00    -0.280 OA 
HETATM   19  H   UNL     1      -4.574  16.241  66.633  1.00  0.00     0.000 HD 
ENDBRANCH  16  17
ENDBRANCH   3  16
TORSDOF 2
ENDMDL
MODEL       76
REMARK 921   NORMALIZED FREE ENERGY PREDICTED BY IDOCK:   -3.83 KCAL/MOL
REMARK 922        TOTAL FREE ENERGY PREDICTED BY IDOCK:   -4.46 KCAL/MOL
REMARK 923 INTER-LIGAND FREE ENERGY PREDICTED BY IDOCK:   -4.30 KCAL/MOL
REMARK 924 INTRA-LIGAND FREE ENERGY PREDICTED BY IDOCK:   -0.17 KCAL/MOL
REMARK 927      BINDING AFFINITY PREDICTED BY RF-SCORE:    0.00 PKD
ROOT
HETATM    1  C   UNL     1      -9.078   7.703  70.198  1.00  0.00    -0.150 C  
HETATM    2  O   UNL     2      -8.333  11.168  66.607  1.00  0.00    -0.149 OA 
HETATM    3  N   UNL     1      -9.002   8.445  68.897  1.00  0.00    -0.146 N  
HETATM    4  O   UNL     2     -11.421  10.601  67.875  1.00  0.00    -0.432 OA 
HETATM    5  H   UNL     2      -8.616  11.695  67.345  1.00  0.00     0.000 HD 
HETATM    6  C   UNL     1      -9.097   9.938  69.262  1.00  0.00    -0.189 C  
HETATM    7  C   UNL     1     -10.246   8.052  68.071  1.00  0.00    -0.210 C  
HETATM    8  C   UNL     2      -9.338  10.566  65.852  1.00  0.00    -0.181 A  
HETATM    9  O   UNL     2     -12.150  12.544  66.994  1.00  0.00    -0.521 OA 
HETATM   10  C   UNL     2      -8.930   9.805  64.786  1.00  0.00    -0.266 A  
HETATM   11  C   UNL     2     -11.409  11.526  67.001  1.00  0.00    -0.269 C  
HETATM   12  C   UNL     2      -9.302  10.248  63.526  1.00  0.00    -0.341 A  
HETATM   13  C   UNL     2     -10.148  11.348  63.415  1.00  0.00    -0.444 A  
HETATM   14  C   UNL     2     -10.506  11.325  65.788  1.00  0.00    -0.310 A  
HETATM   15  C   UNL     2     -10.821  11.818  64.541  1.00  0.00    -0.377 A  
ENDROOT
BRANCH   3  16
HETATM   16  C   UNL     1      -7.778   8.080  68.061  1.00  0.00    -0.118 C  
BRANCH  16  17
HETATM   17  C   UNL     1      -7.740   6.655  67.477  1.00  0.00    -0.110 C  
HETATM   18  O   UNL     1      -7.610   6.692  66.065  1.00  0.00    -0.082 OA 
HETATM   19  H   UNL     1      -7.586   5.813  65.704  1.00  0.00     0.000 HD 
ENDBRANCH  16  17
ENDBRANCH   3  16
TORSDOF 2
ENDMDL
MODEL       77
REMARK 921   NORMALIZED FREE ENERGY PREDICTED BY IDOCK:   -3.77 KCAL/MOL
REMARK 922        TOTAL FREE ENERGY PREDICTED BY IDOCK:   -4.39 KCAL/MOL
REMARK 923 INTER-LIGAND FREE ENERGY PREDICTED BY IDOCK:   -4.22 KCAL/MOL
REMARK 924 INTRA-LIGAND FREE ENERGY PREDICTED BY IDOCK:   -0.17 KCAL/MOL
REMARK 927      BINDING AFFINITY PREDICTED BY RF-SCORE:    0.00 PKD
ROOT
HETATM    1  C   UNL     1      -8.581   8.881  65.995  1.00  0.00    -0.145 C  
HETATM    2  O   UNL     2     -11.791   6.748  69.251  1.00  0.00    -0.606 OA 
HETATM    3  N   UNL     1      -9.197   8.128  67.136  1.00  0.00    -0.140 N  
HETATM    4  O   UNL     2     -10.219   9.653  69.995  1.00  0.00    -0.220 OA 
HETATM    5  H   UNL     2     -12.230   7.561  69.033  1.00  0.00     0.000 HD 
HETATM    6  C   UNL     1     -10.572   8.780  67.372  1.00  0.00    -0.233 C  
HETATM    7  C   UNL     1      -8.310   8.368  68.377  1.00  0.00    -0.131 C  
HETATM    8  C   UNL     2     -10.804   6.819  70.232  1.00  0.00    -0.270 A  
HETATM    9  O   UNL     2     -11.681  10.026  71.670  1.00  0.00    -0.345 OA 
HETATM   10  C   UNL     2     -10.170   5.644  70.548  1.00  0.00    -0.297 A  
HETATM   11  C   UNL     2     -11.013   9.273  70.913  1.00  0.00    -0.299 C  
HETATM   12  C   UNL     2     -10.346   5.167  71.838  1.00  0.00    -0.275 A  
HETATM   13  C   UNL     2     -11.043   5.945  72.759  1.00  0.00    -0.321 A  
HETATM   14  C   UNL     2     -11.069   7.778  71.210  1.00  0.00    -0.271 A  
HETATM   15  C   UNL     2     -11.314   7.281  72.471  1.00  0.00    -0.338 A  
ENDROOT
BRANCH   3  16
HETATM   16  C   UNL     1      -9.249   6.619  66.911  1.00  0.00    -0.142 C  
BRANCH  16  17
HETATM   17  C   UNL     1      -8.050   5.802  67.427  1.00  0.00    -0.102 C  
HETATM   18  O   UNL     1      -7.562   4.929  66.420  1.00  0.00    -0.086 OA 
HETATM   19  H   UNL     1      -6.822   4.425  66.738  1.00  0.00     0.000 HD 
ENDBRANCH  16  17
ENDBRANCH   3  16
TORSDOF 2
ENDMDL
MODEL       78
REMARK 921   NORMALIZED FREE ENERGY PREDICTED BY IDOCK:   -3.75 KCAL/MOL
REMARK 922        TOTAL FREE ENERGY PREDICTED BY IDOCK:   -4.37 KCAL/MOL
REMARK 923 INTER-LIGAND FREE ENERGY PREDICTED BY IDOCK:   -4.25 KCAL/MOL
REMARK 924 INTRA-LIGAND FREE ENERGY PREDICTED BY IDOCK:   -0.13 KCAL/MOL
REMARK 927      BINDING AFFINITY PREDICTED BY RF-SCORE:    0.00 PKD
ROOT
HETATM    1  C   UNL     1     -11.002   9.536  69.825  1.00  0.00    -0.223 C  
HETATM    2  O   UNL     2      -9.211   6.140  73.098  1.00  0.00    -0.134 OA 
HETATM    3  N   UNL     1     -10.827   8.362  70.741  1.00  0.00    -0.219 N  
HETATM    4  O   UNL     2      -9.272   5.500  69.774  1.00  0.00    -0.132 OA 
HETATM    5  H   UNL     2      -8.440   6.359  72.587  1.00  0.00     0.000 HD 
HETATM    6  C   UNL     1      -9.312   8.094  70.792  1.00  0.00    -0.158 C  
HETATM    7  C   UNL     1     -11.527   7.155  70.080  1.00  0.00    -0.161 C  
HETATM    8  C   UNL     2     -10.071   5.192  72.548  1.00  0.00    -0.180 A  
HETATM    9  O   UNL     2      -7.837   3.786  70.067  1.00  0.00    -0.048 OA 
HETATM   10  C   UNL     2     -11.184   4.876  73.286  1.00  0.00    -0.423 A  
HETATM   11  C   UNL     2      -8.763   4.550  70.450  1.00  0.00    -0.082 C  
HETATM   12  C   UNL     2     -11.274   3.572  73.749  1.00  0.00    -0.234 A  
HETATM   13  C   UNL     2     -10.315   2.643  73.355  1.00  0.00    -0.218 A  
HETATM   14  C   UNL     2      -9.412   4.225  71.791  1.00  0.00    -0.206 A  
HETATM   15  C   UNL     2      -9.450   2.948  72.304  1.00  0.00    -0.184 A  
ENDROOT
BRANCH   3  16
HETATM   16  C   UNL     1     -11.476   8.558  72.110  1.00  0.00    -0.376 C  
BRANCH  16  17
HETATM   17  C   UNL     1     -13.004   8.381  72.181  1.00  0.00    -0.337 C  
HETATM   18  O   UNL     1     -13.557   9.181  73.215  1.00  0.00    -0.935 OA 
HETATM   19  H   UNL     1     -14.500   9.072  73.260  1.00  0.00     0.000 HD 
ENDBRANCH  16  17
ENDBRANCH   3  16
TORSDOF 2
ENDMDL
MODEL       79
REMARK 921   NORMALIZED FREE ENERGY PREDICTED BY IDOCK:   -3.71 KCAL/MOL
REMARK 922        TOTAL FREE ENERGY PREDICTED BY IDOCK:   -4.33 KCAL/MOL
REMARK 923 INTER-LIGAND FREE ENERGY PREDICTED BY IDOCK:   -3.92 KCAL/MOL
REMARK 924 INTRA-LIGAND FREE ENERGY PREDICTED BY IDOCK:   -0.41 KCAL/MOL
REMARK 927      BINDING AFFINITY PREDICTED BY RF-SCORE:    0.00 PKD
ROOT
HETATM    1  C   UNL     1      -8.857  10.345  66.241  1.00  0.00    -0.152 C  
HETATM    2  O   UNL     2      -8.552   8.003  70.699  1.00  0.00    -0.125 OA 
HETATM    3  N   UNL     1      -9.137   9.789  67.605  1.00  0.00    -0.131 N  
HETATM    4  O   UNL     2     -10.213   6.605  68.101  1.00  0.00    -0.150 OA 
HETATM    5  H   UNL     2      -8.072   7.417  70.126  1.00  0.00     0.000 HD 
HETATM    6  C   UNL     1      -8.243   8.543  67.740  1.00  0.00    -0.122 C  
HETATM    7  C   UNL     1     -10.616   9.348  67.628  1.00  0.00    -0.271 C  
HETATM    8  C   UNL     2      -9.939   7.873  70.699  1.00  0.00    -0.186 A  
HETATM    9  O   UNL     2     -10.191   4.609  69.149  1.00  0.00    -0.143 OA 
HETATM   10  C   UNL     2     -10.632   8.719  71.527  1.00  0.00    -0.379 A  
HETATM   11  C   UNL     2     -10.209   5.868  69.139  1.00  0.00    -0.215 C  
HETATM   12  C   UNL     2     -11.341   8.134  72.564  1.00  0.00    -0.469 A  
HETATM   13  C   UNL     2     -11.407   6.746  72.643  1.00  0.00    -0.259 A  
HETATM   14  C   UNL     2     -10.368   6.564  70.487  1.00  0.00    -0.240 A  
HETATM   15  C   UNL     2     -11.006   5.972  71.554  1.00  0.00    -0.335 A  
ENDROOT
BRANCH   3  16
HETATM   16  C   UNL     1      -8.959  10.812  68.725  1.00  0.00    -0.170 C  
BRANCH  16  17
HETATM   17  C   UNL     1      -7.512  11.144  69.134  1.00  0.00    -0.109 C  
HETATM   18  O   UNL     1      -7.247  10.705  70.457  1.00  0.00    -0.463 OA 
HETATM   19  H   UNL     1      -6.354  10.910  70.710  1.00  0.00     0.000 HD 
ENDBRANCH  16  17
ENDBRANCH   3  16
TORSDOF 2
ENDMDL
MODEL       80
REMARK 921   NORMALIZED FREE ENERGY PREDICTED BY IDOCK:   -3.69 KCAL/MOL
REMARK 922        TOTAL FREE ENERGY PREDICTED BY IDOCK:   -4.31 KCAL/MOL
REMARK 923 INTER-LIGAND FREE ENERGY PREDICTED BY IDOCK:   -4.15 KCAL/MOL
REMARK 924 INTRA-LIGAND FREE ENERGY PREDICTED BY IDOCK:   -0.17 KCAL/MOL
REMARK 927      BINDING AFFINITY PREDICTED BY RF-SCORE:    0.00 PKD
ROOT
HETATM    1  C   UNL     1     -12.693  14.266  65.228  1.00  0.00    -0.343 C  
HETATM    2  O   UNL     2      -8.086  12.584  66.416  1.00  0.00    -0.379 OA 
HETATM    3  N   UNL     1     -11.512  13.637  65.906  1.00  0.00    -0.310 N  
HETATM    4  O   UNL     2     -10.446  10.492  65.184  1.00  0.00    -0.270 OA 
HETATM    5  H   UNL     2      -8.117  12.451  65.476  1.00  0.00     0.000 HD 
HETATM    6  C   UNL     1     -10.540  13.248  64.778  1.00  0.00    -0.386 C  
HETATM    7  C   UNL     1     -12.013  12.351  66.600  1.00  0.00    -0.229 C  
HETATM    8  C   UNL     2      -8.676  11.598  67.203  1.00  0.00    -0.164 A  
HETATM    9  O   UNL     2      -8.861   8.954  64.734  1.00  0.00    -0.173 OA 
HETATM   10  C   UNL     2      -8.631  11.790  68.561  1.00  0.00    -0.123 A  
HETATM   11  C   UNL     2      -9.336   9.910  65.402  1.00  0.00    -0.239 C  
HETATM   12  C   UNL     2      -7.902  10.869  69.297  1.00  0.00    -0.096 A  
HETATM   13  C   UNL     2      -7.364   9.758  68.653  1.00  0.00    -0.074 A  
HETATM   14  C   UNL     2      -8.569  10.320  66.655  1.00  0.00    -0.130 A  
HETATM   15  C   UNL     2      -7.781   9.439  67.362  1.00  0.00    -0.095 A  
ENDROOT
BRANCH   3  16
HETATM   16  C   UNL     1     -10.895  14.517  66.990  1.00  0.00    -0.297 C  
BRANCH  16  17
HETATM   17  C   UNL     1     -11.536  14.442  68.389  1.00  0.00    -0.319 C  
HETATM   18  O   UNL     1     -11.986  15.722  68.808  1.00  0.00    -0.517 OA 
HETATM   19  H   UNL     1     -12.381  15.677  69.670  1.00  0.00     0.000 HD 
ENDBRANCH  16  17
ENDBRANCH   3  16
TORSDOF 2
ENDMDL
MODEL       81
REMARK 921   NORMALIZED FREE ENERGY PREDICTED BY IDOCK:   -3.69 KCAL/MOL
REMARK 922        TOTAL FREE ENERGY PREDICTED BY IDOCK:   -4.31 KCAL/MOL
REMARK 923 INTER-LIGAND FREE ENERGY PREDICTED BY IDOCK:   -4.18 KCAL/MOL
REMARK 924 INTRA-LIGAND FREE ENERGY PREDICTED BY IDOCK:   -0.13 KCAL/MOL
REMARK 927      BINDING AFFINITY PREDICTED BY RF-SCORE:    0.00 PKD
ROOT
HETATM    1  C   UNL     1      -7.440  12.414  66.923  1.00  0.00     0.057 C  
HETATM    2  O   UNL     2     -11.322   9.601  68.497  1.00  0.00    -0.492 OA 
HETATM    3  N   UNL     1      -8.371  11.283  67.245  1.00  0.00    -0.140 N  
HETATM    4  O   UNL     2      -8.466   9.805  70.304  1.00  0.00    -0.190 OA 
HETATM    5  H   UNL     2     -11.267  10.269  69.170  1.00  0.00     0.000 HD 
HETATM    6  C   UNL     1      -9.200  11.756  68.453  1.00  0.00    -0.175 C  
HETATM    7  C   UNL     1      -7.501  10.081  67.675  1.00  0.00    -0.090 C  
HETATM    8  C   UNL     2     -10.454   8.519  68.624  1.00  0.00    -0.169 A  
HETATM    9  O   UNL     2      -9.530   8.953  72.099  1.00  0.00    -0.327 OA 
HETATM   10  C   UNL     2     -10.534   7.553  67.652  1.00  0.00    -0.319 A  
HETATM   11  C   UNL     2      -9.350   9.078  70.859  1.00  0.00    -0.264 C  
HETATM   12  C   UNL     2     -10.946   6.293  68.058  1.00  0.00    -0.418 A  
HETATM   13  C   UNL     2     -11.140   6.046  69.414  1.00  0.00    -0.445 A  
HETATM   14  C   UNL     2     -10.186   8.183  69.950  1.00  0.00    -0.204 A  
HETATM   15  C   UNL     2     -10.666   6.958  70.357  1.00  0.00    -0.278 A  
ENDROOT
BRANCH   3  16
HETATM   16  C   UNL     1      -9.205  10.824  66.052  1.00  0.00    -0.187 C  
BRANCH  16  17
HETATM   17  C   UNL     1      -8.440  10.184  64.879  1.00  0.00    -0.172 C  
HETATM   18  O   UNL     1      -8.384  11.068  63.770  1.00  0.00    -0.371 OA 
HETATM   19  H   UNL     1      -7.912  10.673  63.046  1.00  0.00     0.000 HD 
ENDBRANCH  16  17
ENDBRANCH   3  16
TORSDOF 2
ENDMDL
MODEL       82
REMARK 921   NORMALIZED FREE ENERGY PREDICTED BY IDOCK:   -3.69 KCAL/MOL
REMARK 922        TOTAL FREE ENERGY PREDICTED BY IDOCK:   -4.31 KCAL/MOL
REMARK 923 INTER-LIGAND FREE ENERGY PREDICTED BY IDOCK:   -3.92 KCAL/MOL
REMARK 924 INTRA-LIGAND FREE ENERGY PREDICTED BY IDOCK:   -0.39 KCAL/MOL
REMARK 927      BINDING AFFINITY PREDICTED BY RF-SCORE:    0.00 PKD
ROOT
HETATM    1  C   UNL     1     -11.760  13.790  67.953  1.00  0.00    -0.360 C  
HETATM    2  O   UNL     2      -9.131   9.550  68.705  1.00  0.00    -0.130 OA 
HETATM    3  N   UNL     1     -11.246  12.382  67.922  1.00  0.00    -0.247 N  
HETATM    4  O   UNL     2      -8.684  11.412  65.912  1.00  0.00    -0.179 OA 
HETATM    5  H   UNL     2      -8.454  10.216  68.716  1.00  0.00     0.000 HD 
HETATM    6  C   UNL     1      -9.747  12.477  68.258  1.00  0.00    -0.220 C  
HETATM    7  C   UNL     1     -11.403  11.868  66.475  1.00  0.00    -0.341 C  
HETATM    8  C   UNL     2      -9.541   9.103  67.451  1.00  0.00    -0.151 A  
HETATM    9  O   UNL     2      -6.754  10.328  65.487  1.00  0.00    -0.115 OA 
HETATM   10  C   UNL     2     -10.518   8.140  67.434  1.00  0.00    -0.356 A  
HETATM   11  C   UNL     2      -7.921  10.394  65.954  1.00  0.00    -0.151 C  
HETATM   12  C   UNL     2     -10.166   6.903  66.916  1.00  0.00    -0.310 A  
HETATM   13  C   UNL     2      -8.907   6.739  66.347  1.00  0.00    -0.153 A  
HETATM   14  C   UNL     2      -8.515   9.102  66.506  1.00  0.00    -0.127 A  
HETATM   15  C   UNL     2      -8.128   7.859  66.057  1.00  0.00    -0.112 A  
ENDROOT
BRANCH   3  16
HETATM   16  C   UNL     1     -12.031  11.429  68.821  1.00  0.00    -0.287 C  
BRANCH  16  17
HETATM   17  C   UNL     1     -11.814  11.575  70.339  1.00  0.00    -0.320 C  
HETATM   18  O   UNL     1     -11.099  10.462  70.855  1.00  0.00    -0.361 OA 
HETATM   19  H   UNL     1     -10.965  10.552  71.792  1.00  0.00     0.000 HD 
ENDBRANCH  16  17
ENDBRANCH   3  16
TORSDOF 2
ENDMDL
MODEL       83
REMARK 921   NORMALIZED FREE ENERGY PREDICTED BY IDOCK:   -3.64 KCAL/MOL
REMARK 922        TOTAL FREE ENERGY PREDICTED BY IDOCK:   -4.25 KCAL/MOL
REMARK 923 INTER-LIGAND FREE ENERGY PREDICTED BY IDOCK:   -4.21 KCAL/MOL
REMARK 924 INTRA-LIGAND FREE ENERGY PREDICTED BY IDOCK:   -0.04 KCAL/MOL
REMARK 927      BINDING AFFINITY PREDICTED BY RF-SCORE:    0.00 PKD
ROOT
HETATM    1  C   UNL     1     -11.652  15.057  67.364  1.00  0.00    -0.291 C  
HETATM    2  O   UNL     2     -10.273  10.242  67.980  1.00  0.00    -0.156 OA 
HETATM    3  N   UNL     1     -10.985  13.787  67.804  1.00  0.00    -0.252 N  
HETATM    4  O   UNL     2     -12.272  11.790  70.234  1.00  0.00    -0.324 OA 
HETATM    5  H   UNL     2     -11.214  10.173  67.865  1.00  0.00     0.000 HD 
HETATM    6  C   UNL     1     -12.030  12.675  67.602  1.00  0.00    -0.247 C  
HETATM    7  C   UNL     1     -10.687  13.924  69.313  1.00  0.00    -0.085 C  
HETATM    8  C   UNL     2      -9.828  10.560  69.262  1.00  0.00    -0.205 A  
HETATM    9  O   UNL     2     -12.849   9.793  71.107  1.00  0.00    -0.335 OA 
HETATM   10  C   UNL     2      -8.470  10.659  69.429  1.00  0.00    -0.058 A  
HETATM   11  C   UNL     2     -12.047  10.573  70.527  1.00  0.00    -0.345 C  
HETATM   12  C   UNL     2      -7.877   9.736  70.278  1.00  0.00    -0.190 A  
HETATM   13  C   UNL     2      -8.684   8.853  70.989  1.00  0.00    -0.276 A  
HETATM   14  C   UNL     2     -10.640  10.043  70.270  1.00  0.00    -0.354 A  
HETATM   15  C   UNL     2     -10.059   9.074  71.057  1.00  0.00    -0.352 A  
ENDROOT
BRANCH   3  16
HETATM   16  C   UNL     1      -9.651  13.530  67.108  1.00  0.00    -0.241 C  
BRANCH  16  17
HETATM   17  C   UNL     1      -8.731  14.748  66.905  1.00  0.00    -0.236 C  
HETATM   18  O   UNL     1      -8.849  15.257  65.586  1.00  0.00    -0.263 OA 
HETATM   19  H   UNL     1      -8.281  16.008  65.460  1.00  0.00     0.000 HD 
ENDBRANCH  16  17
ENDBRANCH   3  16
TORSDOF 2
ENDMDL
MODEL       84
REMARK 921   NORMALIZED FREE ENERGY PREDICTED BY IDOCK:   -3.62 KCAL/MOL
REMARK 922        TOTAL FREE ENERGY PREDICTED BY IDOCK:   -4.23 KCAL/MOL
REMARK 923 INTER-LIGAND FREE ENERGY PREDICTED BY IDOCK:   -3.87 KCAL/MOL
REMARK 924 INTRA-LIGAND FREE ENERGY PREDICTED BY IDOCK:   -0.36 KCAL/MOL
REMARK 927      BINDING AFFINITY PREDICTED BY RF-SCORE:    0.00 PKD
ROOT
HETATM    1  C   UNL     1     -11.218  14.795  66.723  1.00  0.00    -0.344 C  
HETATM    2  O   UNL     2     -10.126  10.163  65.047  1.00  0.00    -0.330 OA 
HETATM    3  N   UNL     1     -10.537  13.583  66.159  1.00  0.00    -0.286 N  
HETATM    4  O   UNL     2      -9.144  11.186  68.122  1.00  0.00    -0.147 OA 
HETATM    5  H   UNL     2     -10.702   9.985  65.782  1.00  0.00     0.000 HD 
HETATM    6  C   UNL     1     -11.270  12.373  66.766  1.00  0.00    -0.310 C  
HETATM    7  C   UNL     1      -9.080  13.595  66.671  1.00  0.00    -0.174 C  
HETATM    8  C   UNL     2      -8.786  10.395  65.351  1.00  0.00    -0.179 A  
HETATM    9  O   UNL     2      -8.737   9.049  68.714  1.00  0.00    -0.133 OA 
HETATM   10  C   UNL     2      -7.954  10.651  64.291  1.00  0.00     0.091 A  
HETATM   11  C   UNL     2      -8.811   9.983  67.873  1.00  0.00    -0.125 C  
HETATM   12  C   UNL     2      -6.949   9.727  64.049  1.00  0.00    -0.120 A  
HETATM   13  C   UNL     2      -6.766   8.675  64.942  1.00  0.00    -0.068 A  
HETATM   14  C   UNL     2      -8.340   9.671  66.456  1.00  0.00    -0.120 A  
HETATM   15  C   UNL     2      -7.394   8.707  66.186  1.00  0.00    -0.085 A  
ENDROOT
BRANCH   3  16
HETATM   16  C   UNL     1     -10.474  13.578  64.634  1.00  0.00    -0.421 C  
BRANCH  16  17
HETATM   17  C   UNL     1     -11.609  12.842  63.898  1.00  0.00    -0.452 C  
HETATM   18  O   UNL     1     -11.086  11.892  62.982  1.00  0.00    -0.669 OA 
HETATM   19  H   UNL     1     -11.786  11.438  62.527  1.00  0.00     0.000 HD 
ENDBRANCH  16  17
ENDBRANCH   3  16
TORSDOF 2
ENDMDL
MODEL       85
REMARK 921   NORMALIZED FREE ENERGY PREDICTED BY IDOCK:   -3.62 KCAL/MOL
REMARK 922        TOTAL FREE ENERGY PREDICTED BY IDOCK:   -4.23 KCAL/MOL
REMARK 923 INTER-LIGAND FREE ENERGY PREDICTED BY IDOCK:   -4.11 KCAL/MOL
REMARK 924 INTRA-LIGAND FREE ENERGY PREDICTED BY IDOCK:   -0.12 KCAL/MOL
REMARK 927      BINDING AFFINITY PREDICTED BY RF-SCORE:    0.00 PKD
ROOT
HETATM    1  C   UNL     1      -9.876  12.527  66.035  1.00  0.00    -0.257 C  
HETATM    2  O   UNL     2     -10.579   7.552  66.490  1.00  0.00    -0.495 OA 
HETATM    3  N   UNL     1      -9.710  11.036  66.037  1.00  0.00    -0.215 N  
HETATM    4  O   UNL     2      -8.850   9.292  68.823  1.00  0.00    -0.130 OA 
HETATM    5  H   UNL     2     -11.057   7.895  67.235  1.00  0.00     0.000 HD 
HETATM    6  C   UNL     1     -10.681  10.510  67.110  1.00  0.00    -0.265 C  
HETATM    7  C   UNL     1      -8.262  10.735  66.480  1.00  0.00    -0.148 C  
HETATM    8  C   UNL     2      -9.204   7.397  66.652  1.00  0.00    -0.158 A  
HETATM    9  O   UNL     2      -9.048   7.572  70.267  1.00  0.00    -0.152 OA 
HETATM   10  C   UNL     2      -8.514   6.900  65.576  1.00  0.00    -0.122 A  
HETATM   11  C   UNL     2      -8.957   8.057  69.108  1.00  0.00    -0.145 C  
HETATM   12  C   UNL     2      -7.903   5.667  65.742  1.00  0.00    -0.101 A  
HETATM   13  C   UNL     2      -7.921   5.064  66.997  1.00  0.00    -0.103 A  
HETATM   14  C   UNL     2      -8.839   7.064  67.956  1.00  0.00    -0.124 A  
HETATM   15  C   UNL     2      -8.301   5.807  68.115  1.00  0.00    -0.107 A  
ENDROOT
BRANCH   3  16
HETATM   16  C   UNL     1      -9.895  10.404  64.660  1.00  0.00    -0.338 C  
BRANCH  16  17
HETATM   17  C   UNL     1     -10.101  11.370  63.477  1.00  0.00    -0.395 C  
HETATM   18  O   UNL     1     -11.462  11.395  63.077  1.00  0.00    -0.853 OA 
HETATM   19  H   UNL     1     -11.590  11.991  62.348  1.00  0.00     0.000 HD 
ENDBRANCH  16  17
ENDBRANCH   3  16
TORSDOF 2
ENDMDL
MODEL       86
REMARK 921   NORMALIZED FREE ENERGY PREDICTED BY IDOCK:   -3.61 KCAL/MOL
REMARK 922        TOTAL FREE ENERGY PREDICTED BY IDOCK:   -4.22 KCAL/MOL
REMARK 923 INTER-LIGAND FREE ENERGY PREDICTED BY IDOCK:   -4.12 KCAL/MOL
REMARK 924 INTRA-LIGAND FREE ENERGY PREDICTED BY IDOCK:   -0.10 KCAL/MOL
REMARK 927      BINDING AFFINITY PREDICTED BY RF-SCORE:    0.00 PKD
ROOT
HETATM    1  C   UNL     1     -11.262  15.745  66.425  1.00  0.00     0.034 C  
HETATM    2  O   UNL     2      -8.977  19.479  68.933  1.00  0.00    -0.361 OA 
HETATM    3  N   UNL     1     -10.286  16.590  67.189  1.00  0.00    -0.296 N  
HETATM    4  O   UNL     2      -8.261  18.865  65.681  1.00  0.00    -0.394 OA 
HETATM    5  H   UNL     2      -9.470  19.949  68.271  1.00  0.00     0.000 HD 
HETATM    6  C   UNL     1     -10.652  18.049  66.860  1.00  0.00    -0.280 C  
HETATM    7  C   UNL     1      -8.880  16.288  66.628  1.00  0.00    -0.254 C  
HETATM    8  C   UNL     2      -7.746  18.959  68.537  1.00  0.00    -0.331 A  
HETATM    9  O   UNL     2      -7.279  20.886  65.506  1.00  0.00     0.056 OA 
HETATM   10  C   UNL     2      -7.033  18.281  69.493  1.00  0.00     0.003 A  
HETATM   11  C   UNL     2      -7.618  19.858  66.149  1.00  0.00    -0.324 C  
HETATM   12  C   UNL     2      -5.818  18.832  69.872  1.00  0.00    -0.255 A  
HETATM   13  C   UNL     2      -5.341  19.952  69.197  1.00  0.00    -0.224 A  
HETATM   14  C   UNL     2      -7.102  19.741  67.579  1.00  0.00    -0.268 A  
HETATM   15  C   UNL     2      -5.934  20.340  67.996  1.00  0.00    -0.278 A  
ENDROOT
BRANCH   3  16
HETATM   16  C   UNL     1     -10.248  16.274  68.682  1.00  0.00    -0.254 C  
BRANCH  16  17
HETATM   17  C   UNL     1     -10.077  14.793  69.070  1.00  0.00    -0.232 C  
HETATM   18  O   UNL     1     -10.931  14.452  70.151  1.00  0.00    -0.460 OA 
HETATM   19  H   UNL     1     -10.825  13.539  70.391  1.00  0.00     0.000 HD 
ENDBRANCH  16  17
ENDBRANCH   3  16
TORSDOF 2
ENDMDL
MODEL       87
REMARK 921   NORMALIZED FREE ENERGY PREDICTED BY IDOCK:   -3.61 KCAL/MOL
REMARK 922        TOTAL FREE ENERGY PREDICTED BY IDOCK:   -4.22 KCAL/MOL
REMARK 923 INTER-LIGAND FREE ENERGY PREDICTED BY IDOCK:   -4.12 KCAL/MOL
REMARK 924 INTRA-LIGAND FREE ENERGY PREDICTED BY IDOCK:   -0.10 KCAL/MOL
REMARK 927      BINDING AFFINITY PREDICTED BY RF-SCORE:    0.00 PKD
ROOT
HETATM    1  C   UNL     1      -9.668  11.674  68.360  1.00  0.00    -0.199 C  
HETATM    2  O   UNL     2     -11.422   7.051  69.368  1.00  0.00    -0.513 OA 
HETATM    3  N   UNL     1      -9.802  10.210  68.657  1.00  0.00    -0.157 N  
HETATM    4  O   UNL     2     -10.137   9.005  71.817  1.00  0.00    -0.326 OA 
HETATM    5  H   UNL     2     -12.019   7.607  69.854  1.00  0.00     0.000 HD 
HETATM    6  C   UNL     1     -11.124  10.060  69.433  1.00  0.00    -0.223 C  
HETATM    7  C   UNL     1      -8.631   9.820  69.585  1.00  0.00    -0.191 C  
HETATM    8  C   UNL     2     -10.209   6.753  69.986  1.00  0.00    -0.191 A  
HETATM    9  O   UNL     2     -11.073   7.678  73.380  1.00  0.00    -0.337 OA 
HETATM   10  C   UNL     2      -9.347   5.948  69.284  1.00  0.00    -0.147 A  
HETATM   11  C   UNL     2     -10.559   7.886  72.249  1.00  0.00    -0.271 C  
HETATM   12  C   UNL     2      -9.061   4.710  69.837  1.00  0.00    -0.161 A  
HETATM   13  C   UNL     2      -9.557   4.399  71.100  1.00  0.00    -0.245 A  
HETATM   14  C   UNL     2     -10.307   6.662  71.374  1.00  0.00    -0.225 A  
HETATM   15  C   UNL     2     -10.092   5.408  71.900  1.00  0.00    -0.246 A  
ENDROOT
BRANCH   3  16
HETATM   16  C   UNL     1      -9.700   9.327  67.416  1.00  0.00    -0.161 C  
BRANCH  16  17
HETATM   17  C   UNL     1      -9.330  10.030  66.096  1.00  0.00    -0.173 C  
HETATM   18  O   UNL     1     -10.103   9.523  65.020  1.00  0.00    -0.351 OA 
HETATM   19  H   UNL     1      -9.875   9.956  64.205  1.00  0.00     0.000 HD 
ENDBRANCH  16  17
ENDBRANCH   3  16
TORSDOF 2
ENDMDL
MODEL       88
REMARK 921   NORMALIZED FREE ENERGY PREDICTED BY IDOCK:   -3.61 KCAL/MOL
REMARK 922        TOTAL FREE ENERGY PREDICTED BY IDOCK:   -4.22 KCAL/MOL
REMARK 923 INTER-LIGAND FREE ENERGY PREDICTED BY IDOCK:   -4.20 KCAL/MOL
REMARK 924 INTRA-LIGAND FREE ENERGY PREDICTED BY IDOCK:   -0.01 KCAL/MOL
REMARK 927      BINDING AFFINITY PREDICTED BY RF-SCORE:    0.00 PKD
ROOT
HETATM    1  C   UNL     1     -11.800  15.162  68.961  1.00  0.00    -0.304 C  
HETATM    2  O   UNL     2      -7.481  15.387  66.363  1.00  0.00    -0.179 OA 
HETATM    3  N   UNL     1     -10.592  15.619  68.199  1.00  0.00    -0.266 N  
HETATM    4  O   UNL     2      -7.567  16.091  69.674  1.00  0.00    -0.167 OA 
HETATM    5  H   UNL     2      -7.316  14.679  66.974  1.00  0.00     0.000 HD 
HETATM    6  C   UNL     1      -9.519  14.539  68.430  1.00  0.00    -0.209 C  
HETATM    7  C   UNL     1     -10.117  16.941  68.841  1.00  0.00    -0.297 C  
HETATM    8  C   UNL     2      -7.287  16.680  66.845  1.00  0.00    -0.225 A  
HETATM    9  O   UNL     2      -5.325  15.890  69.785  1.00  0.00    -0.112 OA 
HETATM   10  C   UNL     2      -7.525  17.703  65.962  1.00  0.00    -0.282 A  
HETATM   11  C   UNL     2      -6.396  16.168  69.184  1.00  0.00    -0.159 C  
HETATM   12  C   UNL     2      -6.438  18.489  65.611  1.00  0.00    -0.319 A  
HETATM   13  C   UNL     2      -5.216  18.280  66.246  1.00  0.00    -0.188 A  
HETATM   14  C   UNL     2      -6.264  16.768  67.788  1.00  0.00    -0.161 A  
HETATM   15  C   UNL     2      -5.160  17.492  67.394  1.00  0.00    -0.133 A  
ENDROOT
BRANCH   3  16
HETATM   16  C   UNL     1     -10.878  15.916  66.729  1.00  0.00    -0.228 C  
BRANCH  16  17
HETATM   17  C   UNL     1     -10.544  14.799  65.722  1.00  0.00    -0.327 C  
HETATM   18  O   UNL     1     -10.971  15.154  64.415  1.00  0.00    -0.646 OA 
HETATM   19  H   UNL     1     -10.766  14.465  63.794  1.00  0.00     0.000 HD 
ENDBRANCH  16  17
ENDBRANCH   3  16
TORSDOF 2
ENDMDL
MODEL       89
REMARK 921   NORMALIZED FREE ENERGY PREDICTED BY IDOCK:   -3.61 KCAL/MOL
REMARK 922        TOTAL FREE ENERGY PREDICTED BY IDOCK:   -4.21 KCAL/MOL
REMARK 923 INTER-LIGAND FREE ENERGY PREDICTED BY IDOCK:   -4.11 KCAL/MOL
REMARK 924 INTRA-LIGAND FREE ENERGY PREDICTED BY IDOCK:   -0.11 KCAL/MOL
REMARK 927      BINDING AFFINITY PREDICTED BY RF-SCORE:    0.00 PKD
ROOT
HETATM    1  C   UNL     1     -13.473   8.859  72.757  1.00  0.00    -0.202 C  
HETATM    2  O   UNL     2     -11.307   6.831  68.676  1.00  0.00    -0.535 OA 
HETATM    3  N   UNL     1     -12.513   8.459  71.677  1.00  0.00    -0.316 N  
HETATM    4  O   UNL     2     -10.777   5.539  71.761  1.00  0.00    -0.231 OA 
HETATM    5  H   UNL     2     -11.880   6.134  68.972  1.00  0.00     0.000 HD 
HETATM    6  C   UNL     1     -13.010   7.095  71.162  1.00  0.00    -0.257 C  
HETATM    7  C   UNL     1     -11.131   8.269  72.338  1.00  0.00    -0.377 C  
HETATM    8  C   UNL     2     -10.072   6.931  69.313  1.00  0.00    -0.170 A  
HETATM    9  O   UNL     2      -9.966   3.648  70.840  1.00  0.00    -0.149 OA 
HETATM   10  C   UNL     2      -9.244   7.938  68.885  1.00  0.00    -0.144 A  
HETATM   11  C   UNL     2     -10.180   4.889  70.844  1.00  0.00    -0.202 C  
HETATM   12  C   UNL     2      -8.051   7.554  68.292  1.00  0.00    -0.124 A  
HETATM   13  C   UNL     2      -7.708   6.205  68.267  1.00  0.00    -0.103 A  
HETATM   14  C   UNL     2      -9.557   5.698  69.711  1.00  0.00    -0.206 A  
HETATM   15  C   UNL     2      -8.412   5.299  69.059  1.00  0.00    -0.095 A  
ENDROOT
BRANCH   3  16
HETATM   16  C   UNL     1     -12.346   9.517  70.589  1.00  0.00    -0.080 C  
BRANCH  16  17
HETATM   17  C   UNL     1     -12.693  10.967  70.978  1.00  0.00    -0.407 C  
HETATM   18  O   UNL     1     -11.702  11.867  70.506  1.00  0.00    -0.508 OA 
HETATM   19  H   UNL     1     -11.915  12.761  70.745  1.00  0.00     0.000 HD 
ENDBRANCH  16  17
ENDBRANCH   3  16
TORSDOF 2
ENDMDL
MODEL       90
REMARK 921   NORMALIZED FREE ENERGY PREDICTED BY IDOCK:   -3.59 KCAL/MOL
REMARK 922        TOTAL FREE ENERGY PREDICTED BY IDOCK:   -4.20 KCAL/MOL
REMARK 923 INTER-LIGAND FREE ENERGY PREDICTED BY IDOCK:   -4.08 KCAL/MOL
REMARK 924 INTRA-LIGAND FREE ENERGY PREDICTED BY IDOCK:   -0.12 KCAL/MOL
REMARK 927      BINDING AFFINITY PREDICTED BY RF-SCORE:    0.00 PKD
ROOT
HETATM    1  C   UNL     1     -12.174  11.549  71.063  1.00  0.00    -0.263 C  
HETATM    2  O   UNL     2     -12.536   6.593  70.192  1.00  0.00    -0.500 OA 
HETATM    3  N   UNL     1     -11.913  10.127  70.664  1.00  0.00    -0.309 N  
HETATM    4  O   UNL     2     -10.826   7.778  72.865  1.00  0.00    -0.339 OA 
HETATM    5  H   UNL     2     -13.003   6.691  71.013  1.00  0.00     0.000 HD 
HETATM    6  C   UNL     1     -12.802   9.267  71.580  1.00  0.00    -0.372 C  
HETATM    7  C   UNL     1     -10.431   9.827  70.978  1.00  0.00    -0.160 C  
HETATM    8  C   UNL     2     -11.148   6.502  70.276  1.00  0.00    -0.335 A  
HETATM    9  O   UNL     2     -10.854   5.728  73.803  1.00  0.00    -0.259 OA 
HETATM   10  C   UNL     2     -10.472   6.358  69.091  1.00  0.00    -0.274 A  
HETATM   11  C   UNL     2     -10.842   6.506  72.813  1.00  0.00    -0.249 C  
HETATM   12  C   UNL     2      -9.776   5.173  68.909  1.00  0.00    -0.220 A  
HETATM   13  C   UNL     2      -9.704   4.261  69.959  1.00  0.00    -0.287 A  
HETATM   14  C   UNL     2     -10.708   5.864  71.436  1.00  0.00    -0.319 A  
HETATM   15  C   UNL     2     -10.084   4.652  71.242  1.00  0.00    -0.245 A  
ENDROOT
BRANCH   3  16
HETATM   16  C   UNL     1     -12.113   9.869  69.172  1.00  0.00     0.683 C  
BRANCH  16  17
HETATM   17  C   UNL     1     -10.857   9.941  68.284  1.00  0.00    -0.230 C  
HETATM   18  O   UNL     1     -10.944   9.016  67.210  1.00  0.00    -0.399 OA 
HETATM   19  H   UNL     1     -10.169   9.060  66.662  1.00  0.00     0.000 HD 
ENDBRANCH  16  17
ENDBRANCH   3  16
TORSDOF 2
ENDMDL
MODEL       91
REMARK 921   NORMALIZED FREE ENERGY PREDICTED BY IDOCK:   -3.58 KCAL/MOL
REMARK 922        TOTAL FREE ENERGY PREDICTED BY IDOCK:   -4.19 KCAL/MOL
REMARK 923 INTER-LIGAND FREE ENERGY PREDICTED BY IDOCK:   -4.07 KCAL/MOL
REMARK 924 INTRA-LIGAND FREE ENERGY PREDICTED BY IDOCK:   -0.11 KCAL/MOL
REMARK 927      BINDING AFFINITY PREDICTED BY RF-SCORE:    0.00 PKD
ROOT
HETATM    1  C   UNL     1     -11.589  15.567  65.296  1.00  0.00     0.000 C  
HETATM    2  O   UNL     2      -9.210  15.841  69.738  1.00  0.00    -0.225 OA 
HETATM    3  N   UNL     1     -10.597  15.455  66.416  1.00  0.00    -0.302 N  
HETATM    4  O   UNL     2      -8.441  17.958  67.210  1.00  0.00    -0.230 OA 
HETATM    5  H   UNL     2      -9.667  16.673  69.698  1.00  0.00     0.000 HD 
HETATM    6  C   UNL     1     -10.892  16.640  67.355  1.00  0.00    -0.186 C  
HETATM    7  C   UNL     1      -9.191  15.638  65.805  1.00  0.00    -0.211 C  
HETATM    8  C   UNL     2      -7.993  15.768  69.063  1.00  0.00    -0.214 A  
HETATM    9  O   UNL     2      -7.369  19.313  68.658  1.00  0.00    -0.308 OA 
HETATM   10  C   UNL     2      -7.333  14.566  69.121  1.00  0.00    -0.133 A  
HETATM   11  C   UNL     2      -7.767  18.184  68.265  1.00  0.00    -0.283 C  
HETATM   12  C   UNL     2      -6.106  14.559  69.766  1.00  0.00    -0.131 A  
HETATM   13  C   UNL     2      -5.565  15.763  70.208  1.00  0.00    -0.162 A  
HETATM   14  C   UNL     2      -7.293  16.973  69.061  1.00  0.00    -0.225 A  
HETATM   15  C   UNL     2      -6.111  16.969  69.768  1.00  0.00    -0.227 A  
ENDROOT
BRANCH   3  16
HETATM   16  C   UNL     1     -10.610  14.092  67.104  1.00  0.00    -0.274 C  
BRANCH  16  17
HETATM   17  C   UNL     1     -11.983  13.415  67.272  1.00  0.00    -0.347 C  
HETATM   18  O   UNL     1     -11.997  12.139  66.651  1.00  0.00    -0.616 OA 
HETATM   19  H   UNL     1     -12.844  11.721  66.754  1.00  0.00     0.000 HD 
ENDBRANCH  16  17
ENDBRANCH   3  16
TORSDOF 2
ENDMDL
MODEL       92
REMARK 921   NORMALIZED FREE ENERGY PREDICTED BY IDOCK:   -3.56 KCAL/MOL
REMARK 922        TOTAL FREE ENERGY PREDICTED BY IDOCK:   -4.16 KCAL/MOL
REMARK 923 INTER-LIGAND FREE ENERGY PREDICTED BY IDOCK:   -3.95 KCAL/MOL
REMARK 924 INTRA-LIGAND FREE ENERGY PREDICTED BY IDOCK:   -0.21 KCAL/MOL
REMARK 927      BINDING AFFINITY PREDICTED BY RF-SCORE:    0.00 PKD
ROOT
HETATM    1  C   UNL     1      -7.048   7.813  66.803  1.00  0.00    -0.080 C  
HETATM    2  O   UNL     2     -11.460   7.403  69.215  1.00  0.00    -0.444 OA 
HETATM    3  N   UNL     1      -8.135   7.781  67.836  1.00  0.00    -0.124 N  
HETATM    4  O   UNL     2     -10.171  10.435  68.435  1.00  0.00    -0.154 OA 
HETATM    5  H   UNL     2     -11.714   7.797  68.389  1.00  0.00     0.000 HD 
HETATM    6  C   UNL     1      -9.436   8.111  67.083  1.00  0.00    -0.161 C  
HETATM    7  C   UNL     1      -7.842   8.911  68.847  1.00  0.00    -0.096 C  
HETATM    8  C   UNL     2     -10.978   8.270  70.194  1.00  0.00    -0.222 A  
HETATM    9  O   UNL     2     -12.177  11.394  68.806  1.00  0.00    -0.502 OA 
HETATM   10  C   UNL     2     -10.612   7.702  71.388  1.00  0.00    -0.236 A  
HETATM   11  C   UNL     2     -11.301  10.514  69.014  1.00  0.00    -0.257 C  
HETATM   12  C   UNL     2     -11.346   8.071  72.504  1.00  0.00    -0.469 A  
HETATM   13  C   UNL     2     -12.317   9.062  72.382  1.00  0.00    -0.350 A  
HETATM   14  C   UNL     2     -11.571   9.532  70.150  1.00  0.00    -0.156 A  
HETATM   15  C   UNL     2     -12.356   9.852  71.235  1.00  0.00    -0.478 A  
ENDROOT
BRANCH   3  16
HETATM   16  C   UNL     1      -8.182   6.477  68.628  1.00  0.00    -0.118 C  
BRANCH  16  17
HETATM   17  C   UNL     1      -7.368   6.432  69.935  1.00  0.00    -0.082 C  
HETATM   18  O   UNL     1      -6.107   5.817  69.724  1.00  0.00    -0.023 OA 
HETATM   19  H   UNL     1      -5.605   5.789  70.530  1.00  0.00     0.000 HD 
ENDBRANCH  16  17
ENDBRANCH   3  16
TORSDOF 2
ENDMDL
MODEL       93
REMARK 921   NORMALIZED FREE ENERGY PREDICTED BY IDOCK:   -3.55 KCAL/MOL
REMARK 922        TOTAL FREE ENERGY PREDICTED BY IDOCK:   -4.15 KCAL/MOL
REMARK 923 INTER-LIGAND FREE ENERGY PREDICTED BY IDOCK:   -4.11 KCAL/MOL
REMARK 924 INTRA-LIGAND FREE ENERGY PREDICTED BY IDOCK:   -0.04 KCAL/MOL
REMARK 927      BINDING AFFINITY PREDICTED BY RF-SCORE:    0.00 PKD
ROOT
HETATM    1  C   UNL     1      -8.946  11.248  66.969  1.00  0.00    -0.154 C  
HETATM    2  O   UNL     2      -9.533   8.918  71.406  1.00  0.00    -0.235 OA 
HETATM    3  N   UNL     1      -9.482  10.480  68.140  1.00  0.00    -0.148 N  
HETATM    4  O   UNL     2      -8.881   7.165  68.583  1.00  0.00    -0.127 OA 
HETATM    5  H   UNL     2      -8.625   8.733  71.195  1.00  0.00     0.000 HD 
HETATM    6  C   UNL     1      -8.252   9.868  68.836  1.00  0.00    -0.118 C  
HETATM    7  C   UNL     1     -10.357   9.338  67.578  1.00  0.00    -0.262 C  
HETATM    8  C   UNL     2     -10.488   8.091  70.817  1.00  0.00    -0.206 A  
HETATM    9  O   UNL     2      -8.323   5.364  69.819  1.00  0.00    -0.097 OA 
HETATM   10  C   UNL     2     -11.799   8.359  71.122  1.00  0.00    -0.314 A  
HETATM   11  C   UNL     2      -8.970   6.425  69.614  1.00  0.00    -0.137 C  
HETATM   12  C   UNL     2     -12.489   7.379  71.819  1.00  0.00    -0.367 A  
HETATM   13  C   UNL     2     -11.868   6.157  72.066  1.00  0.00    -0.336 A  
HETATM   14  C   UNL     2     -10.044   6.782  70.636  1.00  0.00    -0.204 A  
HETATM   15  C   UNL     2     -10.693   5.831  71.392  1.00  0.00    -0.319 A  
ENDROOT
BRANCH   3  16
HETATM   16  C   UNL     1     -10.372  11.314  69.058  1.00  0.00    -0.166 C  
BRANCH  16  17
HETATM   17  C   UNL     1     -11.774  11.666  68.527  1.00  0.00    -0.315 C  
HETATM   18  O   UNL     1     -12.771  10.901  69.186  1.00  0.00    -0.605 OA 
HETATM   19  H   UNL     1     -13.636  11.117  68.859  1.00  0.00     0.000 HD 
ENDBRANCH  16  17
ENDBRANCH   3  16
TORSDOF 2
ENDMDL
MODEL       94
REMARK 921   NORMALIZED FREE ENERGY PREDICTED BY IDOCK:   -3.54 KCAL/MOL
REMARK 922        TOTAL FREE ENERGY PREDICTED BY IDOCK:   -4.14 KCAL/MOL
REMARK 923 INTER-LIGAND FREE ENERGY PREDICTED BY IDOCK:   -4.02 KCAL/MOL
REMARK 924 INTRA-LIGAND FREE ENERGY PREDICTED BY IDOCK:   -0.12 KCAL/MOL
REMARK 927      BINDING AFFINITY PREDICTED BY RF-SCORE:    0.00 PKD
ROOT
HETATM    1  C   UNL     1     -11.051   7.100  73.078  1.00  0.00    -0.283 C  
HETATM    2  O   UNL     2      -8.947   9.771  69.349  1.00  0.00    -0.162 OA 
HETATM    3  N   UNL     1     -10.702   7.709  71.752  1.00  0.00    -0.213 N  
HETATM    4  O   UNL     2     -11.860  10.750  70.773  1.00  0.00    -0.326 OA 
HETATM    5  H   UNL     2      -8.905  10.373  70.082  1.00  0.00     0.000 HD 
HETATM    6  C   UNL     1     -10.057   9.069  72.074  1.00  0.00    -0.172 C  
HETATM    7  C   UNL     1     -12.027   7.950  70.995  1.00  0.00    -0.252 C  
HETATM    8  C   UNL     2     -10.157   9.715  68.660  1.00  0.00    -0.179 A  
HETATM    9  O   UNL     2     -11.625  12.800  69.865  1.00  0.00    -0.260 OA 
HETATM   10  C   UNL     2     -10.218   8.845  67.601  1.00  0.00    -0.296 A  
HETATM   11  C   UNL     2     -11.457  11.552  69.871  1.00  0.00    -0.260 C  
HETATM   12  C   UNL     2     -10.403   9.403  66.345  1.00  0.00    -0.237 A  
HETATM   13  C   UNL     2     -10.630  10.773  66.238  1.00  0.00    -0.257 A  
HETATM   14  C   UNL     2     -10.826  10.938  68.625  1.00  0.00    -0.258 A  
HETATM   15  C   UNL     2     -10.937  11.514  67.379  1.00  0.00    -0.317 A  
ENDROOT
BRANCH   3  16
HETATM   16  C   UNL     1      -9.846   6.800  70.873  1.00  0.00    -0.186 C  
BRANCH  16  17
HETATM   17  C   UNL     1      -9.528   5.400  71.430  1.00  0.00    -0.149 C  
HETATM   18  O   UNL     1      -9.938   4.389  70.523  1.00  0.00    -0.217 OA 
HETATM   19  H   UNL     1      -9.742   3.526  70.866  1.00  0.00     0.000 HD 
ENDBRANCH  16  17
ENDBRANCH   3  16
TORSDOF 2
ENDMDL
MODEL       95
REMARK 921   NORMALIZED FREE ENERGY PREDICTED BY IDOCK:   -3.54 KCAL/MOL
REMARK 922        TOTAL FREE ENERGY PREDICTED BY IDOCK:   -4.14 KCAL/MOL
REMARK 923 INTER-LIGAND FREE ENERGY PREDICTED BY IDOCK:   -3.93 KCAL/MOL
REMARK 924 INTRA-LIGAND FREE ENERGY PREDICTED BY IDOCK:   -0.21 KCAL/MOL
REMARK 927      BINDING AFFINITY PREDICTED BY RF-SCORE:    0.00 PKD
ROOT
HETATM    1  C   UNL     1     -10.292   7.072  73.826  1.00  0.00    -0.369 C  
HETATM    2  O   UNL     2      -8.700   6.765  69.048  1.00  0.00    -0.130 OA 
HETATM    3  N   UNL     1     -10.120   7.233  72.345  1.00  0.00    -0.180 N  
HETATM    4  O   UNL     2      -7.907   9.425  70.987  1.00  0.00    -0.289 OA 
HETATM    5  H   UNL     2      -7.886   6.733  69.538  1.00  0.00     0.000 HD 
HETATM    6  C   UNL     1      -8.630   6.959  72.066  1.00  0.00    -0.121 C  
HETATM    7  C   UNL     1     -10.429   8.707  72.005  1.00  0.00    -0.352 C  
HETATM    8  C   UNL     2      -9.235   8.030  68.815  1.00  0.00    -0.143 A  
HETATM    9  O   UNL     2      -6.293  10.019  69.529  1.00  0.00    -0.044 OA 
HETATM   10  C   UNL     2     -10.410   8.075  68.107  1.00  0.00    -0.250 A  
HETATM   11  C   UNL     2      -7.401   9.495  69.822  1.00  0.00    -0.092 C  
HETATM   12  C   UNL     2     -10.369   8.701  66.870  1.00  0.00    -0.355 A  
HETATM   13  C   UNL     2      -9.197   9.338  66.470  1.00  0.00    -0.206 A  
HETATM   14  C   UNL     2      -8.263   9.017  68.658  1.00  0.00    -0.118 A  
HETATM   15  C   UNL     2      -8.188   9.577  67.402  1.00  0.00    -0.114 A  
ENDROOT
BRANCH   3  16
HETATM   16  C   UNL     1     -11.080   6.375  71.525  1.00  0.00    -0.273 C  
BRANCH  16  17
HETATM   17  C   UNL     1     -12.427   7.018  71.144  1.00  0.00    -0.362 C  
HETATM   18  O   UNL     1     -13.428   6.695  72.097  1.00  0.00    -0.526 OA 
HETATM   19  H   UNL     1     -14.259   7.091  71.862  1.00  0.00     0.000 HD 
ENDBRANCH  16  17
ENDBRANCH   3  16
TORSDOF 2
ENDMDL
MODEL       96
REMARK 921   NORMALIZED FREE ENERGY PREDICTED BY IDOCK:   -3.50 KCAL/MOL
REMARK 922        TOTAL FREE ENERGY PREDICTED BY IDOCK:   -4.10 KCAL/MOL
REMARK 923 INTER-LIGAND FREE ENERGY PREDICTED BY IDOCK:   -3.90 KCAL/MOL
REMARK 924 INTRA-LIGAND FREE ENERGY PREDICTED BY IDOCK:   -0.20 KCAL/MOL
REMARK 927      BINDING AFFINITY PREDICTED BY RF-SCORE:    0.00 PKD
ROOT
HETATM    1  C   UNL     1     -10.791   9.382  71.253  1.00  0.00    -0.361 C  
HETATM    2  O   UNL     2     -10.617   7.750  66.481  1.00  0.00    -0.470 OA 
HETATM    3  N   UNL     1     -10.567   9.250  69.776  1.00  0.00    -0.223 N  
HETATM    4  O   UNL     2      -7.878   7.636  68.469  1.00  0.00    -0.116 OA 
HETATM    5  H   UNL     2     -10.457   6.955  66.976  1.00  0.00     0.000 HD 
HETATM    6  C   UNL     1     -10.464   7.738  69.502  1.00  0.00    -0.225 C  
HETATM    7  C   UNL     1      -9.208   9.909  69.457  1.00  0.00    -0.223 C  
HETATM    8  C   UNL     2      -9.517   8.577  66.265  1.00  0.00    -0.231 A  
HETATM    9  O   UNL     2      -6.883   6.212  67.032  1.00  0.00    -0.062 OA 
HETATM   10  C   UNL     2      -9.747   9.725  65.550  1.00  0.00    -0.382 A  
HETATM   11  C   UNL     2      -7.666   7.159  67.308  1.00  0.00    -0.109 C  
HETATM   12  C   UNL     2      -9.109   9.835  64.324  1.00  0.00    -0.293 A  
HETATM   13  C   UNL     2      -8.199   8.853  63.942  1.00  0.00    -0.171 A  
HETATM   14  C   UNL     2      -8.319   7.875  66.131  1.00  0.00    -0.127 A  
HETATM   15  C   UNL     2      -7.737   7.935  64.885  1.00  0.00    -0.112 A  
ENDROOT
BRANCH   3  16
HETATM   16  C   UNL     1     -11.619   9.970  68.935  1.00  0.00     0.093 C  
BRANCH  16  17
HETATM   17  C   UNL     1     -11.324  11.436  68.567  1.00  0.00    -0.271 C  
HETATM   18  O   UNL     1     -11.971  11.792  67.355  1.00  0.00    -0.617 OA 
HETATM   19  H   UNL     1     -11.790  12.697  67.127  1.00  0.00     0.000 HD 
ENDBRANCH  16  17
ENDBRANCH   3  16
TORSDOF 2
ENDMDL
MODEL       97
REMARK 921   NORMALIZED FREE ENERGY PREDICTED BY IDOCK:   -3.48 KCAL/MOL
REMARK 922        TOTAL FREE ENERGY PREDICTED BY IDOCK:   -4.07 KCAL/MOL
REMARK 923 INTER-LIGAND FREE ENERGY PREDICTED BY IDOCK:   -3.98 KCAL/MOL
REMARK 924 INTRA-LIGAND FREE ENERGY PREDICTED BY IDOCK:   -0.09 KCAL/MOL
REMARK 927      BINDING AFFINITY PREDICTED BY RF-SCORE:    0.00 PKD
ROOT
HETATM    1  C   UNL     1     -11.979  14.349  67.245  1.00  0.00    -0.377 C  
HETATM    2  O   UNL     2      -7.854  11.733  65.982  1.00  0.00    -0.357 OA 
HETATM    3  N   UNL     1     -10.921  13.296  67.102  1.00  0.00    -0.268 N  
HETATM    4  O   UNL     2     -10.830  11.135  64.481  1.00  0.00    -0.326 OA 
HETATM    5  H   UNL     2      -8.052  12.203  65.180  1.00  0.00     0.000 HD 
HETATM    6  C   UNL     1     -10.255  13.556  65.738  1.00  0.00    -0.297 C  
HETATM    7  C   UNL     1     -11.637  11.929  67.057  1.00  0.00    -0.291 C  
HETATM    8  C   UNL     2      -8.564  10.554  66.201  1.00  0.00    -0.150 A  
HETATM    9  O   UNL     2      -9.784  10.005  62.835  1.00  0.00    -0.194 OA 
HETATM   10  C   UNL     2      -8.278   9.875  67.358  1.00  0.00    -0.118 A  
HETATM   11  C   UNL     2      -9.892  10.408  64.023  1.00  0.00    -0.289 C  
HETATM   12  C   UNL     2      -7.719   8.614  67.219  1.00  0.00    -0.097 A  
HETATM   13  C   UNL     2      -7.588   8.067  65.945  1.00  0.00    -0.086 A  
HETATM   14  C   UNL     2      -8.874   9.872  65.025  1.00  0.00    -0.220 A  
HETATM   15  C   UNL     2      -8.253   8.653  64.870  1.00  0.00    -0.159 A  
ENDROOT
BRANCH   3  16
HETATM   16  C   UNL     1      -9.947  13.251  68.277  1.00  0.00    -0.236 C  
BRANCH  16  17
HETATM   17  C   UNL     1      -9.475  14.606  68.836  1.00  0.00    -0.173 C  
HETATM   18  O   UNL     1      -8.305  14.448  69.623  1.00  0.00    -0.344 OA 
HETATM   19  H   UNL     1      -8.013  15.284  69.968  1.00  0.00     0.000 HD 
ENDBRANCH  16  17
ENDBRANCH   3  16
TORSDOF 2
ENDMDL
MODEL       98
REMARK 921   NORMALIZED FREE ENERGY PREDICTED BY IDOCK:   -3.46 KCAL/MOL
REMARK 922        TOTAL FREE ENERGY PREDICTED BY IDOCK:   -4.05 KCAL/MOL
REMARK 923 INTER-LIGAND FREE ENERGY PREDICTED BY IDOCK:   -3.90 KCAL/MOL
REMARK 924 INTRA-LIGAND FREE ENERGY PREDICTED BY IDOCK:   -0.15 KCAL/MOL
REMARK 927      BINDING AFFINITY PREDICTED BY RF-SCORE:    0.00 PKD
ROOT
HETATM    1  C   UNL     1     -11.057   9.954  70.745  1.00  0.00    -0.347 C  
HETATM    2  O   UNL     2      -8.046   5.920  70.402  1.00  0.00    -0.103 OA 
HETATM    3  N   UNL     1     -10.461   8.581  70.838  1.00  0.00    -0.197 N  
HETATM    4  O   UNL     2     -10.686   6.312  68.319  1.00  0.00    -0.229 OA 
HETATM    5  H   UNL     2      -7.898   6.357  69.572  1.00  0.00     0.000 HD 
HETATM    6  C   UNL     1      -9.501   8.460  69.641  1.00  0.00    -0.166 C  
HETATM    7  C   UNL     1     -11.613   7.568  70.660  1.00  0.00    -0.248 C  
HETATM    8  C   UNL     2      -9.172   5.104  70.482  1.00  0.00    -0.146 A  
HETATM    9  O   UNL     2      -9.845   4.739  66.941  1.00  0.00    -0.170 OA 
HETATM   10  C   UNL     2      -9.385   4.471  71.681  1.00  0.00    -0.196 A  
HETATM   11  C   UNL     2     -10.018   5.257  68.076  1.00  0.00    -0.152 C  
HETATM   12  C   UNL     2      -9.321   3.087  71.675  1.00  0.00    -0.198 A  
HETATM   13  C   UNL     2      -9.164   2.419  70.464  1.00  0.00    -0.194 A  
HETATM   14  C   UNL     2      -9.484   4.479  69.275  1.00  0.00    -0.242 A  
HETATM   15  C   UNL     2      -9.345   3.110  69.266  1.00  0.00    -0.223 A  
ENDROOT
BRANCH   3  16
HETATM   16  C   UNL     1      -9.817   8.290  72.191  1.00  0.00    -0.272 C  
BRANCH  16  17
HETATM   17  C   UNL     1     -10.651   7.465  73.190  1.00  0.00    -0.374 C  
HETATM   18  O   UNL     1      -9.885   7.139  74.340  1.00  0.00    -0.444 OA 
HETATM   19  H   UNL     1     -10.399   6.630  74.956  1.00  0.00     0.000 HD 
ENDBRANCH  16  17
ENDBRANCH   3  16
TORSDOF 2
ENDMDL
MODEL       99
REMARK 921   NORMALIZED FREE ENERGY PREDICTED BY IDOCK:   -3.46 KCAL/MOL
REMARK 922        TOTAL FREE ENERGY PREDICTED BY IDOCK:   -4.05 KCAL/MOL
REMARK 923 INTER-LIGAND FREE ENERGY PREDICTED BY IDOCK:   -3.63 KCAL/MOL
REMARK 924 INTRA-LIGAND FREE ENERGY PREDICTED BY IDOCK:   -0.42 KCAL/MOL
REMARK 927      BINDING AFFINITY PREDICTED BY RF-SCORE:    0.00 PKD
ROOT
HETATM    1  C   UNL     1      -9.674   6.627  74.562  1.00  0.00    -0.288 C  
HETATM    2  O   UNL     2      -8.406   6.305  69.689  1.00  0.00    -0.122 OA 
HETATM    3  N   UNL     1      -9.692   6.525  73.066  1.00  0.00    -0.153 N  
HETATM    4  O   UNL     2      -9.414   9.241  71.042  1.00  0.00    -0.266 OA 
HETATM    5  H   UNL     2      -7.741   6.889  70.036  1.00  0.00     0.000 HD 
HETATM    6  C   UNL     1      -8.376   7.167  72.588  1.00  0.00    -0.107 C  
HETATM    7  C   UNL     1     -10.876   7.378  72.561  1.00  0.00    -0.283 C  
HETATM    8  C   UNL     2      -9.629   6.886  69.358  1.00  0.00    -0.147 A  
HETATM    9  O   UNL     2      -8.590  10.355  69.264  1.00  0.00    -0.155 OA 
HETATM   10  C   UNL     2     -10.589   6.044  68.856  1.00  0.00    -0.356 A  
HETATM   11  C   UNL     2      -9.105   9.345  69.812  1.00  0.00    -0.193 C  
HETATM   12  C   UNL     2     -10.994   6.268  67.549  1.00  0.00    -0.444 A  
HETATM   13  C   UNL     2     -10.504   7.380  66.869  1.00  0.00    -0.379 A  
HETATM   14  C   UNL     2      -9.508   8.195  68.894  1.00  0.00    -0.151 A  
HETATM   15  C   UNL     2      -9.845   8.386  67.573  1.00  0.00    -0.235 A  
ENDROOT
BRANCH   3  16
HETATM   16  C   UNL     1      -9.918   5.104  72.557  1.00  0.00    -0.172 C  
BRANCH  16  17
HETATM   17  C   UNL     1      -8.665   4.225  72.384  1.00  0.00    -0.108 C  
HETATM   18  O   UNL     1      -8.560   3.752  71.050  1.00  0.00    -0.070 OA 
HETATM   19  H   UNL     1      -7.787   3.209  70.943  1.00  0.00     0.000 HD 
ENDBRANCH  16  17
ENDBRANCH   3  16
TORSDOF 2
ENDMDL
MODEL      100
REMARK 921   NORMALIZED FREE ENERGY PREDICTED BY IDOCK:   -3.44 KCAL/MOL
REMARK 922        TOTAL FREE ENERGY PREDICTED BY IDOCK:   -4.02 KCAL/MOL
REMARK 923 INTER-LIGAND FREE ENERGY PREDICTED BY IDOCK:   -3.87 KCAL/MOL
REMARK 924 INTRA-LIGAND FREE ENERGY PREDICTED BY IDOCK:   -0.15 KCAL/MOL
REMARK 927      BINDING AFFINITY PREDICTED BY RF-SCORE:    0.00 PKD
ROOT
HETATM    1  C   UNL     1     -10.416  10.051  68.225  1.00  0.00    -0.213 C  
HETATM    2  O   UNL     2      -8.624   8.830  72.781  1.00  0.00    -0.412 OA 
HETATM    3  N   UNL     1     -10.191   9.435  69.574  1.00  0.00    -0.199 N  
HETATM    4  O   UNL     2      -8.004   6.884  70.080  1.00  0.00    -0.111 OA 
HETATM    5  H   UNL     2      -7.830   8.994  72.286  1.00  0.00     0.000 HD 
HETATM    6  C   UNL     1      -8.683   9.578  69.852  1.00  0.00    -0.210 C  
HETATM    7  C   UNL     1     -10.538   7.935  69.458  1.00  0.00    -0.219 C  
HETATM    8  C   UNL     2      -9.194   7.566  72.640  1.00  0.00    -0.152 A  
HETATM    9  O   UNL     2      -6.355   5.835  71.204  1.00  0.00    -0.036 OA 
HETATM   10  C   UNL     2     -10.340   7.329  73.355  1.00  0.00    -0.410 A  
HETATM   11  C   UNL     2      -7.454   6.446  71.141  1.00  0.00    -0.085 C  
HETATM   12  C   UNL     2     -10.272   6.351  74.335  1.00  0.00    -0.343 A  
HETATM   13  C   UNL     2      -9.108   5.597  74.461  1.00  0.00    -0.125 A  
HETATM   14  C   UNL     2      -8.252   6.559  72.436  1.00  0.00    -0.105 A  
HETATM   15  C   UNL     2      -8.146   5.636  73.453  1.00  0.00    -0.113 A  
ENDROOT
BRANCH   3  16
HETATM   16  C   UNL     1     -11.087  10.018  70.665  1.00  0.00    -0.335 C  
BRANCH  16  17
HETATM   17  C   UNL     1     -12.328   9.192  71.053  1.00  0.00    -0.214 C  
HETATM   18  O   UNL     1     -13.520   9.886  70.719  1.00  0.00    -0.590 OA 
HETATM   19  H   UNL     1     -14.286   9.377  70.958  1.00  0.00     0.000 HD 
ENDBRANCH  16  17
ENDBRANCH   3  16
TORSDOF 2
ENDMDL
MODEL      101
REMARK 921   NORMALIZED FREE ENERGY PREDICTED BY IDOCK:   -3.43 KCAL/MOL
REMARK 922        TOTAL FREE ENERGY PREDICTED BY IDOCK:   -4.02 KCAL/MOL
REMARK 923 INTER-LIGAND FREE ENERGY PREDICTED BY IDOCK:   -3.90 KCAL/MOL
REMARK 924 INTRA-LIGAND FREE ENERGY PREDICTED BY IDOCK:   -0.13 KCAL/MOL
REMARK 927      BINDING AFFINITY PREDICTED BY RF-SCORE:    0.00 PKD
ROOT
HETATM    1  C   UNL     1      -8.491   7.163  70.130  1.00  0.00    -0.139 C  
HETATM    2  O   UNL     2      -9.932  10.145  66.324  1.00  0.00    -0.217 OA 
HETATM    3  N   UNL     1      -9.102   8.247  69.292  1.00  0.00    -0.150 N  
HETATM    4  O   UNL     2      -7.389  11.034  68.374  1.00  0.00    -0.086 OA 
HETATM    5  H   UNL     2      -9.049   9.902  66.071  1.00  0.00     0.000 HD 
HETATM    6  C   UNL     1      -8.190   8.384  68.058  1.00  0.00    -0.127 C  
HETATM    7  C   UNL     1      -9.033   9.554  70.112  1.00  0.00    -0.236 C  
HETATM    8  C   UNL     2     -10.051  11.199  67.227  1.00  0.00    -0.188 A  
HETATM    9  O   UNL     2      -6.726  12.597  66.891  1.00  0.00    -0.047 OA 
HETATM   10  C   UNL     2     -11.326  11.551  67.592  1.00  0.00    -0.358 A  
HETATM   11  C   UNL     2      -7.600  11.886  67.453  1.00  0.00    -0.151 C  
HETATM   12  C   UNL     2     -11.751  12.819  67.228  1.00  0.00    -0.440 A  
HETATM   13  C   UNL     2     -10.847  13.692  66.629  1.00  0.00    -0.283 A  
HETATM   14  C   UNL     2      -9.053  12.163  67.082  1.00  0.00    -0.189 A  
HETATM   15  C   UNL     2      -9.485  13.397  66.649  1.00  0.00    -0.264 A  
ENDROOT
BRANCH   3  16
HETATM   16  C   UNL     1     -10.572   8.004  68.962  1.00  0.00    -0.154 C  
BRANCH  16  17
HETATM   17  C   UNL     1     -11.154   6.636  69.366  1.00  0.00    -0.310 C  
HETATM   18  O   UNL     1     -12.087   6.777  70.426  1.00  0.00    -0.558 OA 
HETATM   19  H   UNL     1     -12.447   5.934  70.675  1.00  0.00     0.000 HD 
ENDBRANCH  16  17
ENDBRANCH   3  16
TORSDOF 2
ENDMDL
MODEL      102
REMARK 921   NORMALIZED FREE ENERGY PREDICTED BY IDOCK:   -3.43 KCAL/MOL
REMARK 922        TOTAL FREE ENERGY PREDICTED BY IDOCK:   -4.02 KCAL/MOL
REMARK 923 INTER-LIGAND FREE ENERGY PREDICTED BY IDOCK:   -3.92 KCAL/MOL
REMARK 924 INTRA-LIGAND FREE ENERGY PREDICTED BY IDOCK:   -0.10 KCAL/MOL
REMARK 927      BINDING AFFINITY PREDICTED BY RF-SCORE:    0.00 PKD
ROOT
HETATM    1  C   UNL     1     -11.912   8.775  71.974  1.00  0.00    -0.376 C  
HETATM    2  O   UNL     2      -8.920  11.587  69.042  1.00  0.00    -0.378 OA 
HETATM    3  N   UNL     1     -10.921   9.255  70.956  1.00  0.00    -0.290 N  
HETATM    4  O   UNL     2     -11.844  10.344  67.873  1.00  0.00    -0.293 OA 
HETATM    5  H   UNL     2      -9.697  12.127  69.119  1.00  0.00     0.000 HD 
HETATM    6  C   UNL     1     -11.354  10.688  70.595  1.00  0.00    -0.198 C  
HETATM    7  C   UNL     1     -11.072   8.358  69.709  1.00  0.00    -0.056 C  
HETATM    8  C   UNL     2      -8.958  10.580  68.079  1.00  0.00    -0.135 A  
HETATM    9  O   UNL     2     -11.769  11.777  66.134  1.00  0.00    -0.462 OA 
HETATM   10  C   UNL     2      -7.835   9.800  67.966  1.00  0.00    -0.086 A  
HETATM   11  C   UNL     2     -11.231  11.053  67.013  1.00  0.00    -0.181 C  
HETATM   12  C   UNL     2      -7.145   9.870  66.766  1.00  0.00    -0.090 A  
HETATM   13  C   UNL     2      -7.678  10.620  65.720  1.00  0.00    -0.130 A  
HETATM   14  C   UNL     2      -9.712  10.921  66.957  1.00  0.00    -0.203 A  
HETATM   15  C   UNL     2      -8.999  11.058  65.787  1.00  0.00    -0.208 A  
ENDROOT
BRANCH   3  16
HETATM   16  C   UNL     1      -9.470   9.136  71.418  1.00  0.00    -0.209 C  
BRANCH  16  17
HETATM   17  C   UNL     1      -9.199   8.199  72.609  1.00  0.00    -0.263 C  
HETATM   18  O   UNL     1      -7.999   8.561  73.274  1.00  0.00    -0.363 OA 
HETATM   19  H   UNL     1      -7.831   7.983  74.009  1.00  0.00     0.000 HD 
ENDBRANCH  16  17
ENDBRANCH   3  16
TORSDOF 2
ENDMDL
MODEL      103
REMARK 921   NORMALIZED FREE ENERGY PREDICTED BY IDOCK:   -3.40 KCAL/MOL
REMARK 922        TOTAL FREE ENERGY PREDICTED BY IDOCK:   -3.98 KCAL/MOL
REMARK 923 INTER-LIGAND FREE ENERGY PREDICTED BY IDOCK:   -3.83 KCAL/MOL
REMARK 924 INTRA-LIGAND FREE ENERGY PREDICTED BY IDOCK:   -0.16 KCAL/MOL
REMARK 927      BINDING AFFINITY PREDICTED BY RF-SCORE:    0.00 PKD
ROOT
HETATM    1  C   UNL     1     -13.167  11.450  71.897  1.00  0.00    -0.380 C  
HETATM    2  O   UNL     2      -9.284  10.709  68.761  1.00  0.00    -0.164 OA 
HETATM    3  N   UNL     1     -12.215  10.898  70.877  1.00  0.00    -0.364 N  
HETATM    4  O   UNL     2     -12.253  11.871  67.622  1.00  0.00    -0.510 OA 
HETATM    5  H   UNL     2      -9.407  11.650  68.716  1.00  0.00     0.000 HD 
HETATM    6  C   UNL     1     -11.482  12.118  70.289  1.00  0.00     0.151 C  
HETATM    7  C   UNL     1     -13.062  10.240  69.766  1.00  0.00     0.745 C  
HETATM    8  C   UNL     2     -10.115   9.935  67.954  1.00  0.00    -0.173 A  
HETATM    9  O   UNL     2     -11.271  12.525  65.701  1.00  0.00    -0.295 OA 
HETATM   10  C   UNL     2      -9.936   8.576  68.018  1.00  0.00    -0.221 A  
HETATM   11  C   UNL     2     -11.377  11.771  66.704  1.00  0.00    -0.316 C  
HETATM   12  C   UNL     2      -9.501   7.949  66.861  1.00  0.00    -0.243 A  
HETATM   13  C   UNL     2      -9.384   8.693  65.689  1.00  0.00    -0.173 A  
HETATM   14  C   UNL     2     -10.452  10.560  66.754  1.00  0.00    -0.302 A  
HETATM   15  C   UNL     2      -9.951   9.964  65.618  1.00  0.00    -0.353 A  
ENDROOT
BRANCH   3  16
HETATM   16  C   UNL     1     -11.290   9.818  71.432  1.00  0.00    -0.337 C  
BRANCH  16  17
HETATM   17  C   UNL     1     -11.927   8.446  71.723  1.00  0.00    -0.325 C  
HETATM   18  O   UNL     1     -12.066   8.240  73.121  1.00  0.00    -0.566 OA 
HETATM   19  H   UNL     1     -12.459   7.394  73.301  1.00  0.00     0.000 HD 
ENDBRANCH  16  17
ENDBRANCH   3  16
TORSDOF 2
ENDMDL
MODEL      104
REMARK 921   NORMALIZED FREE ENERGY PREDICTED BY IDOCK:   -3.37 KCAL/MOL
REMARK 922        TOTAL FREE ENERGY PREDICTED BY IDOCK:   -3.95 KCAL/MOL
REMARK 923 INTER-LIGAND FREE ENERGY PREDICTED BY IDOCK:   -3.51 KCAL/MOL
REMARK 924 INTRA-LIGAND FREE ENERGY PREDICTED BY IDOCK:   -0.43 KCAL/MOL
REMARK 927      BINDING AFFINITY PREDICTED BY RF-SCORE:    0.00 PKD
ROOT
HETATM    1  C   UNL     1      -9.273   7.143  66.614  1.00  0.00    -0.160 C  
HETATM    2  O   UNL     2     -10.845   5.432  71.093  1.00  0.00    -0.210 OA 
HETATM    3  N   UNL     1      -9.382   6.764  68.061  1.00  0.00    -0.120 N  
HETATM    4  O   UNL     2     -10.925   8.737  70.358  1.00  0.00    -0.231 OA 
HETATM    5  H   UNL     2     -11.643   5.787  70.717  1.00  0.00     0.000 HD 
HETATM    6  C   UNL     1     -10.889   6.772  68.382  1.00  0.00    -0.223 C  
HETATM    7  C   UNL     1      -8.691   7.875  68.880  1.00  0.00    -0.135 C  
HETATM    8  C   UNL     2      -9.993   6.344  71.713  1.00  0.00    -0.177 A  
HETATM    9  O   UNL     2     -12.311   9.101  72.098  1.00  0.00    -0.369 OA 
HETATM   10  C   UNL     2      -8.842   5.832  72.256  1.00  0.00    -0.135 A  
HETATM   11  C   UNL     2     -11.384   8.478  71.516  1.00  0.00    -0.283 C  
HETATM   12  C   UNL     2      -8.705   5.929  73.632  1.00  0.00    -0.125 A  
HETATM   13  C   UNL     2      -9.663   6.628  74.362  1.00  0.00    -0.329 A  
HETATM   14  C   UNL     2     -10.668   7.400  72.323  1.00  0.00    -0.275 A  
HETATM   15  C   UNL     2     -10.581   7.439  73.697  1.00  0.00    -0.316 A  
ENDROOT
BRANCH   3  16
HETATM   16  C   UNL     1      -8.676   5.454  68.401  1.00  0.00    -0.098 C  
BRANCH  16  17
HETATM   17  C   UNL     1      -9.465   4.157  68.146  1.00  0.00    -0.158 C  
HETATM   18  O   UNL     1      -9.653   3.434  69.353  1.00  0.00    -0.172 OA 
HETATM   19  H   UNL     1     -10.140   2.633  69.196  1.00  0.00     0.000 HD 
ENDBRANCH  16  17
ENDBRANCH   3  16
TORSDOF 2
ENDMDL
MODEL      105
REMARK 921   NORMALIZED FREE ENERGY PREDICTED BY IDOCK:   -3.33 KCAL/MOL
REMARK 922        TOTAL FREE ENERGY PREDICTED BY IDOCK:   -3.91 KCAL/MOL
REMARK 923 INTER-LIGAND FREE ENERGY PREDICTED BY IDOCK:   -3.76 KCAL/MOL
REMARK 924 INTRA-LIGAND FREE ENERGY PREDICTED BY IDOCK:   -0.15 KCAL/MOL
REMARK 927      BINDING AFFINITY PREDICTED BY RF-SCORE:    0.00 PKD
ROOT
HETATM    1  C   UNL     1     -12.501  14.091  65.893  1.00  0.00    -0.481 C  
HETATM    2  O   UNL     2      -7.537  14.445  66.725  1.00  0.00    -0.244 OA 
HETATM    3  N   UNL     1     -11.144  14.216  66.519  1.00  0.00    -0.312 N  
HETATM    4  O   UNL     2      -9.184  11.524  67.194  1.00  0.00    -0.165 OA 
HETATM    5  H   UNL     2      -7.580  13.836  65.998  1.00  0.00     0.000 HD 
HETATM    6  C   UNL     1     -10.168  13.540  65.539  1.00  0.00    -0.295 C  
HETATM    7  C   UNL     1     -11.170  13.410  67.836  1.00  0.00    -0.275 C  
HETATM    8  C   UNL     2      -7.737  13.910  67.996  1.00  0.00    -0.151 A  
HETATM    9  O   UNL     2      -7.224  10.411  67.212  1.00  0.00    -0.087 OA 
HETATM   10  C   UNL     2      -7.674  14.790  69.047  1.00  0.00    -0.145 A  
HETATM   11  C   UNL     2      -7.936  11.428  67.421  1.00  0.00    -0.139 C  
HETATM   12  C   UNL     2      -6.649  14.598  69.960  1.00  0.00    -0.161 A  
HETATM   13  C   UNL     2      -5.827  13.482  69.833  1.00  0.00    -0.124 A  
HETATM   14  C   UNL     2      -7.264  12.604  68.123  1.00  0.00    -0.109 A  
HETATM   15  C   UNL     2      -6.198  12.444  68.979  1.00  0.00    -0.083 A  
ENDROOT
BRANCH   3  16
HETATM   16  C   UNL     1     -10.773  15.652  66.884  1.00  0.00    -0.307 C  
BRANCH  16  17
HETATM   17  C   UNL     1     -10.944  16.056  68.360  1.00  0.00    -0.331 C  
HETATM   18  O   UNL     1     -10.437  17.362  68.588  1.00  0.00    -0.352 OA 
HETATM   19  H   UNL     1     -10.542  17.612  69.499  1.00  0.00     0.000 HD 
ENDBRANCH  16  17
ENDBRANCH   3  16
TORSDOF 2
ENDMDL
MODEL      106
REMARK 921   NORMALIZED FREE ENERGY PREDICTED BY IDOCK:   -3.31 KCAL/MOL
REMARK 922        TOTAL FREE ENERGY PREDICTED BY IDOCK:   -3.89 KCAL/MOL
REMARK 923 INTER-LIGAND FREE ENERGY PREDICTED BY IDOCK:   -3.76 KCAL/MOL
REMARK 924 INTRA-LIGAND FREE ENERGY PREDICTED BY IDOCK:   -0.13 KCAL/MOL
REMARK 927      BINDING AFFINITY PREDICTED BY RF-SCORE:    0.00 PKD
ROOT
HETATM    1  C   UNL     1     -13.650   8.319  71.612  1.00  0.00    -0.346 C  
HETATM    2  O   UNL     2      -8.934   7.471  70.031  1.00  0.00    -0.143 OA 
HETATM    3  N   UNL     1     -12.158   8.215  71.500  1.00  0.00    -0.290 N  
HETATM    4  O   UNL     2     -10.466   5.349  72.180  1.00  0.00    -0.206 OA 
HETATM    5  H   UNL     2      -9.408   6.733  69.667  1.00  0.00     0.000 HD 
HETATM    6  C   UNL     1     -11.893   7.065  70.511  1.00  0.00    -0.290 C  
HETATM    7  C   UNL     1     -11.620   7.814  72.890  1.00  0.00    -0.246 C  
HETATM    8  C   UNL     2      -8.535   7.357  71.361  1.00  0.00    -0.113 A  
HETATM    9  O   UNL     2      -8.909   3.775  71.749  1.00  0.00    -0.096 OA 
HETATM   10  C   UNL     2      -7.850   8.423  71.887  1.00  0.00    -0.165 A  
HETATM   11  C   UNL     2      -9.293   4.969  71.863  1.00  0.00    -0.142 C  
HETATM   12  C   UNL     2      -6.537   8.193  72.269  1.00  0.00    -0.075 A  
HETATM   13  C   UNL     2      -6.030   6.898  72.211  1.00  0.00    -0.038 A  
HETATM   14  C   UNL     2      -8.224   6.049  71.732  1.00  0.00    -0.118 A  
HETATM   15  C   UNL     2      -6.901   5.823  72.038  1.00  0.00    -0.076 A  
ENDROOT
BRANCH   3  16
HETATM   16  C   UNL     1     -11.485   9.533  71.125  1.00  0.00    -0.360 C  
BRANCH  16  17
HETATM   17  C   UNL     1     -12.414  10.690  70.711  1.00  0.00    -0.385 C  
HETATM   18  O   UNL     1     -12.529  10.765  69.299  1.00  0.00    -0.668 OA 
HETATM   19  H   UNL     1     -13.102  11.479  69.043  1.00  0.00     0.000 HD 
ENDBRANCH  16  17
ENDBRANCH   3  16
TORSDOF 2
ENDMDL
MODEL      107
REMARK 921   NORMALIZED FREE ENERGY PREDICTED BY IDOCK:   -3.30 KCAL/MOL
REMARK 922        TOTAL FREE ENERGY PREDICTED BY IDOCK:   -3.88 KCAL/MOL
REMARK 923 INTER-LIGAND FREE ENERGY PREDICTED BY IDOCK:   -3.75 KCAL/MOL
REMARK 924 INTRA-LIGAND FREE ENERGY PREDICTED BY IDOCK:   -0.13 KCAL/MOL
REMARK 927      BINDING AFFINITY PREDICTED BY RF-SCORE:    0.00 PKD
ROOT
HETATM    1  C   UNL     1      -7.461   3.043  69.239  1.00  0.00    -0.047 C  
HETATM    2  O   UNL     2     -10.059   7.367  69.360  1.00  0.00    -0.177 OA 
HETATM    3  N   UNL     1      -8.477   4.114  69.505  1.00  0.00    -0.067 N  
HETATM    4  O   UNL     2      -8.087   6.439  71.952  1.00  0.00    -0.108 OA 
HETATM    5  H   UNL     2      -9.158   7.669  69.366  1.00  0.00     0.000 HD 
HETATM    6  C   UNL     1      -7.721   5.449  69.373  1.00  0.00    -0.085 C  
HETATM    7  C   UNL     1      -8.947   3.948  70.967  1.00  0.00    -0.101 C  
HETATM    8  C   UNL     2     -10.592   6.984  70.589  1.00  0.00    -0.225 A  
HETATM    9  O   UNL     2      -8.152   8.541  72.766  1.00  0.00    -0.328 OA 
HETATM   10  C   UNL     2     -11.894   6.549  70.581  1.00  0.00    -0.398 A  
HETATM   11  C   UNL     2      -8.645   7.568  72.136  1.00  0.00    -0.114 C  
HETATM   12  C   UNL     2     -12.811   7.315  71.283  1.00  0.00    -0.391 A  
HETATM   13  C   UNL     2     -12.359   8.393  72.038  1.00  0.00    -0.413 A  
HETATM   14  C   UNL     2     -10.086   7.718  71.661  1.00  0.00    -0.224 A  
HETATM   15  C   UNL     2     -10.996   8.529  72.301  1.00  0.00    -0.426 A  
ENDROOT
BRANCH   3  16
HETATM   16  C   UNL     1      -9.718   4.007  68.623  1.00  0.00    -0.068 C  
BRANCH  16  17
HETATM   17  C   UNL     1      -9.493   4.086  67.101  1.00  0.00    -0.196 C  
HETATM   18  O   UNL     1      -9.841   2.860  66.475  1.00  0.00    -0.380 OA 
HETATM   19  H   UNL     1      -9.702   2.909  65.536  1.00  0.00     0.000 HD 
ENDBRANCH  16  17
ENDBRANCH   3  16
TORSDOF 2
ENDMDL
MODEL      108
REMARK 921   NORMALIZED FREE ENERGY PREDICTED BY IDOCK:   -3.28 KCAL/MOL
REMARK 922        TOTAL FREE ENERGY PREDICTED BY IDOCK:   -3.85 KCAL/MOL
REMARK 923 INTER-LIGAND FREE ENERGY PREDICTED BY IDOCK:   -3.71 KCAL/MOL
REMARK 924 INTRA-LIGAND FREE ENERGY PREDICTED BY IDOCK:   -0.15 KCAL/MOL
REMARK 927      BINDING AFFINITY PREDICTED BY RF-SCORE:    0.00 PKD
ROOT
HETATM    1  C   UNL     1      -6.861  17.374  68.910  1.00  0.00    -0.241 C  
HETATM    2  O   UNL     2     -10.244  13.631  68.827  1.00  0.00    -0.314 OA 
HETATM    3  N   UNL     1      -7.815  16.295  68.493  1.00  0.00    -0.181 N  
HETATM    4  O   UNL     2      -6.942  13.012  68.408  1.00  0.00    -0.084 OA 
HETATM    5  H   UNL     2      -9.728  13.424  69.597  1.00  0.00     0.000 HD 
HETATM    6  C   UNL     1      -7.877  15.311  69.676  1.00  0.00    -0.144 C  
HETATM    7  C   UNL     1      -7.191  15.576  67.277  1.00  0.00    -0.207 C  
HETATM    8  C   UNL     2      -9.723  13.221  67.602  1.00  0.00    -0.219 A  
HETATM    9  O   UNL     2      -7.292  10.821  68.807  1.00  0.00    -0.088 OA 
HETATM   10  C   UNL     2     -10.469  13.519  66.490  1.00  0.00    -0.284 A  
HETATM   11  C   UNL     2      -7.648  11.954  68.389  1.00  0.00    -0.120 C  
HETATM   12  C   UNL     2     -10.974  12.447  65.771  1.00  0.00    -0.333 A  
HETATM   13  C   UNL     2     -10.610  11.154  66.137  1.00  0.00    -0.305 A  
HETATM   14  C   UNL     2      -8.998  12.032  67.683  1.00  0.00    -0.172 A  
HETATM   15  C   UNL     2      -9.552  10.958  67.024  1.00  0.00    -0.197 A  
ENDROOT
BRANCH   3  16
HETATM   16  C   UNL     1      -9.175  16.825  68.047  1.00  0.00    -0.228 C  
BRANCH  16  17
HETATM   17  C   UNL     1      -9.296  18.350  67.865  1.00  0.00    -0.280 C  
HETATM   18  O   UNL     1      -9.069  18.718  66.514  1.00  0.00    -0.309 OA 
HETATM   19  H   UNL     1      -9.143  19.658  66.401  1.00  0.00     0.000 HD 
ENDBRANCH  16  17
ENDBRANCH   3  16
TORSDOF 2
ENDMDL
MODEL      109
REMARK 921   NORMALIZED FREE ENERGY PREDICTED BY IDOCK:   -3.21 KCAL/MOL
REMARK 922        TOTAL FREE ENERGY PREDICTED BY IDOCK:   -3.77 KCAL/MOL
REMARK 923 INTER-LIGAND FREE ENERGY PREDICTED BY IDOCK:   -3.73 KCAL/MOL
REMARK 924 INTRA-LIGAND FREE ENERGY PREDICTED BY IDOCK:   -0.04 KCAL/MOL
REMARK 927      BINDING AFFINITY PREDICTED BY RF-SCORE:    0.00 PKD
ROOT
HETATM    1  C   UNL     1     -11.940  14.242  67.586  1.00  0.00    -0.365 C  
HETATM    2  O   UNL     2      -8.991  11.129  64.926  1.00  0.00    -0.324 OA 
HETATM    3  N   UNL     1     -10.827  13.355  67.113  1.00  0.00    -0.274 N  
HETATM    4  O   UNL     2     -10.893   9.978  67.480  1.00  0.00    -0.277 OA 
HETATM    5  H   UNL     2      -9.863  10.809  64.724  1.00  0.00     0.000 HD 
HETATM    6  C   UNL     1     -11.476  12.352  66.142  1.00  0.00    -0.379 C  
HETATM    7  C   UNL     1     -10.296  12.588  68.343  1.00  0.00    -0.230 C  
HETATM    8  C   UNL     2      -8.427  10.684  66.120  1.00  0.00    -0.159 A  
HETATM    9  O   UNL     2     -10.613   7.864  66.748  1.00  0.00    -0.326 OA 
HETATM   10  C   UNL     2      -7.169  11.146  66.411  1.00  0.00    -0.094 A  
HETATM   11  C   UNL     2     -10.235   9.056  66.900  1.00  0.00    -0.269 C  
HETATM   12  C   UNL     2      -6.155  10.202  66.465  1.00  0.00    -0.067 A  
HETATM   13  C   UNL     2      -6.476   8.853  66.341  1.00  0.00    -0.066 A  
HETATM   14  C   UNL     2      -8.813   9.388  66.460  1.00  0.00    -0.155 A  
HETATM   15  C   UNL     2      -7.807   8.448  66.438  1.00  0.00    -0.098 A  
ENDROOT
BRANCH   3  16
HETATM   16  C   UNL     1      -9.647  14.124  66.524  1.00  0.00    -0.296 C  
BRANCH  16  17
HETATM   17  C   UNL     1      -8.380  14.219  67.395  1.00  0.00    -0.198 C  
HETATM   18  O   UNL     1      -8.437  15.351  68.249  1.00  0.00    -0.153 OA 
HETATM   19  H   UNL     1      -7.655  15.410  68.786  1.00  0.00     0.000 HD 
ENDBRANCH  16  17
ENDBRANCH   3  16
TORSDOF 2
ENDMDL
MODEL      110
REMARK 921   NORMALIZED FREE ENERGY PREDICTED BY IDOCK:   -3.19 KCAL/MOL
REMARK 922        TOTAL FREE ENERGY PREDICTED BY IDOCK:   -3.76 KCAL/MOL
REMARK 923 INTER-LIGAND FREE ENERGY PREDICTED BY IDOCK:   -3.64 KCAL/MOL
REMARK 924 INTRA-LIGAND FREE ENERGY PREDICTED BY IDOCK:   -0.12 KCAL/MOL
REMARK 927      BINDING AFFINITY PREDICTED BY RF-SCORE:    0.00 PKD
ROOT
HETATM    1  C   UNL     1     -10.613   7.555  69.605  1.00  0.00    -0.239 C  
HETATM    2  O   UNL     2      -9.458   9.154  64.961  1.00  0.00    -0.451 OA 
HETATM    3  N   UNL     1      -9.915   8.095  68.393  1.00  0.00    -0.184 N  
HETATM    4  O   UNL     2      -8.516   6.085  66.038  1.00  0.00    -0.127 OA 
HETATM    5  H   UNL     2     -10.038   8.423  64.788  1.00  0.00     0.000 HD 
HETATM    6  C   UNL     1     -10.641   7.478  67.183  1.00  0.00    -0.345 C  
HETATM    7  C   UNL     1      -8.463   7.570  68.427  1.00  0.00    -0.125 C  
HETATM    8  C   UNL     2      -8.123   8.841  65.212  1.00  0.00    -0.129 A  
HETATM    9  O   UNL     2      -8.093   5.459  63.914  1.00  0.00    -0.109 OA 
HETATM   10  C   UNL     2      -7.284   9.897  65.462  1.00  0.00    -0.122 A  
HETATM   11  C   UNL     2      -8.168   6.314  64.835  1.00  0.00    -0.119 C  
HETATM   12  C   UNL     2      -6.267  10.116  64.545  1.00  0.00    -0.133 A  
HETATM   13  C   UNL     2      -6.082   9.207  63.507  1.00  0.00    -0.088 A  
HETATM   14  C   UNL     2      -7.680   7.721  64.508  1.00  0.00    -0.122 A  
HETATM   15  C   UNL     2      -6.722   7.969  63.551  1.00  0.00    -0.075 A  
ENDROOT
BRANCH   3  16
HETATM   16  C   UNL     1      -9.837   9.620  68.366  1.00  0.00    -0.153 C  
BRANCH  16  17
HETATM   17  C   UNL     1     -10.957  10.356  67.607  1.00  0.00    -0.312 C  
HETATM   18  O   UNL     1     -12.089  10.551  68.441  1.00  0.00    -0.804 OA 
HETATM   19  H   UNL     1     -12.780  11.004  67.972  1.00  0.00     0.000 HD 
ENDBRANCH  16  17
ENDBRANCH   3  16
TORSDOF 2
ENDMDL
MODEL      111
REMARK 921   NORMALIZED FREE ENERGY PREDICTED BY IDOCK:   -3.18 KCAL/MOL
REMARK 922        TOTAL FREE ENERGY PREDICTED BY IDOCK:   -3.74 KCAL/MOL
REMARK 923 INTER-LIGAND FREE ENERGY PREDICTED BY IDOCK:   -3.32 KCAL/MOL
REMARK 924 INTRA-LIGAND FREE ENERGY PREDICTED BY IDOCK:   -0.42 KCAL/MOL
REMARK 927      BINDING AFFINITY PREDICTED BY RF-SCORE:    0.00 PKD
ROOT
HETATM    1  C   UNL     1     -13.200   7.078  71.455  1.00  0.00    -0.317 C  
HETATM    2  O   UNL     2      -8.573   8.979  70.798  1.00  0.00    -0.180 OA 
HETATM    3  N   UNL     1     -11.758   7.286  71.099  1.00  0.00    -0.290 N  
HETATM    4  O   UNL     2     -10.786   8.840  68.238  1.00  0.00    -0.173 OA 
HETATM    5  H   UNL     2      -9.129   9.735  70.646  1.00  0.00     0.000 HD 
HETATM    6  C   UNL     1     -11.591   8.804  70.906  1.00  0.00    -0.277 C  
HETATM    7  C   UNL     1     -11.513   6.580  69.747  1.00  0.00    -0.379 C  
HETATM    8  C   UNL     2      -8.397   8.113  69.720  1.00  0.00    -0.124 A  
HETATM    9  O   UNL     2      -9.530  10.296  67.061  1.00  0.00    -0.159 OA 
HETATM   10  C   UNL     2      -7.594   7.022  69.938  1.00  0.00    -0.102 A  
HETATM   11  C   UNL     2      -9.680   9.374  67.906  1.00  0.00    -0.152 C  
HETATM   12  C   UNL     2      -6.421   6.955  69.202  1.00  0.00    -0.043 A  
HETATM   13  C   UNL     2      -6.180   7.911  68.220  1.00  0.00    -0.045 A  
HETATM   14  C   UNL     2      -8.409   8.762  68.486  1.00  0.00    -0.129 A  
HETATM   15  C   UNL     2      -7.214   8.747  67.801  1.00  0.00    -0.084 A  
ENDROOT
BRANCH   3  16
HETATM   16  C   UNL     1     -10.789   6.670  72.105  1.00  0.00    -0.229 C  
BRANCH  16  17
HETATM   17  C   UNL     1     -10.573   7.445  73.418  1.00  0.00    -0.377 C  
HETATM   18  O   UNL     1      -9.248   7.947  73.496  1.00  0.00    -0.263 OA 
HETATM   19  H   UNL     1      -9.114   8.425  74.306  1.00  0.00     0.000 HD 
ENDBRANCH  16  17
ENDBRANCH   3  16
TORSDOF 2
ENDMDL
MODEL      112
REMARK 921   NORMALIZED FREE ENERGY PREDICTED BY IDOCK:   -3.15 KCAL/MOL
REMARK 922        TOTAL FREE ENERGY PREDICTED BY IDOCK:   -3.71 KCAL/MOL
REMARK 923 INTER-LIGAND FREE ENERGY PREDICTED BY IDOCK:   -3.38 KCAL/MOL
REMARK 924 INTRA-LIGAND FREE ENERGY PREDICTED BY IDOCK:   -0.32 KCAL/MOL
REMARK 927      BINDING AFFINITY PREDICTED BY RF-SCORE:    0.00 PKD
ROOT
HETATM    1  C   UNL     1     -10.445   8.608  67.081  1.00  0.00    -0.289 C  
HETATM    2  O   UNL     2      -7.600  12.767  66.826  1.00  0.00    -0.387 OA 
HETATM    3  N   UNL     1      -9.865   9.978  67.270  1.00  0.00    -0.174 N  
HETATM    4  O   UNL     2      -7.300  10.601  69.410  1.00  0.00    -0.109 OA 
HETATM    5  H   UNL     2      -6.956  12.073  66.754  1.00  0.00     0.000 HD 
HETATM    6  C   UNL     1      -8.365   9.844  66.948  1.00  0.00    -0.124 C  
HETATM    7  C   UNL     1     -10.026  10.343  68.761  1.00  0.00    -0.188 C  
HETATM    8  C   UNL     2      -8.013  13.099  68.114  1.00  0.00    -0.154 A  
HETATM    9  O   UNL     2      -5.329  11.536  69.978  1.00  0.00    -0.068 OA 
HETATM   10  C   UNL     2      -8.944  14.102  68.219  1.00  0.00    -0.188 A  
HETATM   11  C   UNL     2      -6.489  11.577  69.489  1.00  0.00    -0.124 C  
HETATM   12  C   UNL     2      -8.543  15.258  68.870  1.00  0.00    -0.207 A  
HETATM   13  C   UNL     2      -7.289  15.298  69.473  1.00  0.00    -0.210 A  
HETATM   14  C   UNL     2      -7.008  12.949  69.069  1.00  0.00    -0.058 A  
HETATM   15  C   UNL     2      -6.572  14.117  69.654  1.00  0.00    -0.120 A  
ENDROOT
BRANCH   3  16
HETATM   16  C   UNL     1     -10.584  11.058  66.466  1.00  0.00    -0.254 C  
BRANCH  16  17
HETATM   17  C   UNL     1     -10.446  10.987  64.934  1.00  0.00    -0.303 C  
HETATM   18  O   UNL     1      -9.476  11.913  64.470  1.00  0.00    -0.427 OA 
HETATM   19  H   UNL     1      -9.390  11.870  63.525  1.00  0.00     0.000 HD 
ENDBRANCH  16  17
ENDBRANCH   3  16
TORSDOF 2
ENDMDL
MODEL      113
REMARK 921   NORMALIZED FREE ENERGY PREDICTED BY IDOCK:   -3.14 KCAL/MOL
REMARK 922        TOTAL FREE ENERGY PREDICTED BY IDOCK:   -3.70 KCAL/MOL
REMARK 923 INTER-LIGAND FREE ENERGY PREDICTED BY IDOCK:   -3.59 KCAL/MOL
REMARK 924 INTRA-LIGAND FREE ENERGY PREDICTED BY IDOCK:   -0.11 KCAL/MOL
REMARK 927      BINDING AFFINITY PREDICTED BY RF-SCORE:    0.00 PKD
ROOT
HETATM    1  C   UNL     1      -8.576  10.292  64.159  1.00  0.00    -0.192 C  
HETATM    2  O   UNL     2      -8.452   8.808  68.980  1.00  0.00    -0.127 OA 
HETATM    3  N   UNL     1      -8.867  10.075  65.615  1.00  0.00    -0.153 N  
HETATM    4  O   UNL     2     -10.558   7.359  66.760  1.00  0.00    -0.310 OA 
HETATM    5  H   UNL     2      -8.151   8.034  68.520  1.00  0.00     0.000 HD 
HETATM    6  C   UNL     1      -8.251   8.708  65.964  1.00  0.00    -0.127 C  
HETATM    7  C   UNL     1     -10.401   9.988  65.768  1.00  0.00    -0.121 C  
HETATM    8  C   UNL     2      -9.831   8.994  69.047  1.00  0.00    -0.175 A  
HETATM    9  O   UNL     2     -10.885   5.638  68.179  1.00  0.00    -0.202 OA 
HETATM   10  C   UNL     2     -10.266  10.112  69.713  1.00  0.00    -0.286 A  
HETATM   11  C   UNL     2     -10.635   6.846  67.921  1.00  0.00    -0.231 C  
HETATM   12  C   UNL     2     -11.005   9.902  70.867  1.00  0.00    -0.392 A  
HETATM   13  C   UNL     2     -11.360   8.602  71.219  1.00  0.00    -0.341 A  
HETATM   14  C   UNL     2     -10.544   7.797  69.110  1.00  0.00    -0.193 A  
HETATM   15  C   UNL     2     -11.213   7.571  70.292  1.00  0.00    -0.253 A  
ENDROOT
BRANCH   3  16
HETATM   16  C   UNL     1      -8.394  11.222  66.505  1.00  0.00    -0.168 C  
BRANCH  16  17
HETATM   17  C   UNL     1      -9.126  12.568  66.345  1.00  0.00    -0.127 C  
HETATM   18  O   UNL     1      -8.700  13.495  67.331  1.00  0.00    -0.197 OA 
HETATM   19  H   UNL     1      -9.151  14.325  67.233  1.00  0.00     0.000 HD 
ENDBRANCH  16  17
ENDBRANCH   3  16
TORSDOF 2
ENDMDL
MODEL      114
REMARK 921   NORMALIZED FREE ENERGY PREDICTED BY IDOCK:   -2.98 KCAL/MOL
REMARK 922        TOTAL FREE ENERGY PREDICTED BY IDOCK:   -3.51 KCAL/MOL
REMARK 923 INTER-LIGAND FREE ENERGY PREDICTED BY IDOCK:   -3.36 KCAL/MOL
REMARK 924 INTRA-LIGAND FREE ENERGY PREDICTED BY IDOCK:   -0.15 KCAL/MOL
REMARK 927      BINDING AFFINITY PREDICTED BY RF-SCORE:    0.00 PKD
ROOT
HETATM    1  C   UNL     1     -10.111  11.405  68.337  1.00  0.00    -0.201 C  
HETATM    2  O   UNL     2      -7.803   6.925  68.577  1.00  0.00    -0.114 OA 
HETATM    3  N   UNL     1      -9.662  10.028  68.725  1.00  0.00    -0.164 N  
HETATM    4  O   UNL     2     -10.920   7.219  67.286  1.00  0.00    -0.293 OA 
HETATM    5  H   UNL     2      -7.888   7.062  67.641  1.00  0.00     0.000 HD 
HETATM    6  C   UNL     1      -9.157   9.373  67.426  1.00  0.00    -0.126 C  
HETATM    7  C   UNL     1     -10.907   9.261  69.221  1.00  0.00    -0.152 C  
HETATM    8  C   UNL     2      -8.921   6.412  69.232  1.00  0.00    -0.133 A  
HETATM    9  O   UNL     2     -10.735   5.176  66.350  1.00  0.00    -0.308 OA 
HETATM   10  C   UNL     2      -8.800   6.213  70.584  1.00  0.00    -0.143 A  
HETATM   11  C   UNL     2     -10.479   6.026  67.243  1.00  0.00    -0.257 C  
HETATM   12  C   UNL     2      -8.883   4.903  71.031  1.00  0.00    -0.152 A  
HETATM   13  C   UNL     2      -9.196   3.895  70.123  1.00  0.00    -0.217 A  
HETATM   14  C   UNL     2      -9.669   5.540  68.441  1.00  0.00    -0.168 A  
HETATM   15  C   UNL     2      -9.682   4.228  68.860  1.00  0.00    -0.195 A  
ENDROOT
BRANCH   3  16
HETATM   16  C   UNL     1      -8.649  10.019  69.867  1.00  0.00    -0.146 C  
BRANCH  16  17
HETATM   17  C   UNL     1      -7.211  10.448  69.518  1.00  0.00    -0.130 C  
HETATM   18  O   UNL     1      -6.849  11.624  70.227  1.00  0.00    -0.458 OA 
HETATM   19  H   UNL     1      -5.962  11.889  70.012  1.00  0.00     0.000 HD 
ENDBRANCH  16  17
ENDBRANCH   3  16
TORSDOF 2
ENDMDL
MODEL      115
REMARK 921   NORMALIZED FREE ENERGY PREDICTED BY IDOCK:   -2.95 KCAL/MOL
REMARK 922        TOTAL FREE ENERGY PREDICTED BY IDOCK:   -3.48 KCAL/MOL
REMARK 923 INTER-LIGAND FREE ENERGY PREDICTED BY IDOCK:   -3.04 KCAL/MOL
REMARK 924 INTRA-LIGAND FREE ENERGY PREDICTED BY IDOCK:   -0.44 KCAL/MOL
REMARK 927      BINDING AFFINITY PREDICTED BY RF-SCORE:    0.00 PKD
ROOT
HETATM    1  C   UNL     1      -9.446  12.022  66.809  1.00  0.00    -0.208 C  
HETATM    2  O   UNL     2      -8.644   7.139  67.792  1.00  0.00    -0.126 OA 
HETATM    3  N   UNL     1      -9.532  10.526  66.875  1.00  0.00    -0.163 N  
HETATM    4  O   UNL     2      -7.731   8.498  64.828  1.00  0.00    -0.095 OA 
HETATM    5  H   UNL     2      -7.761   7.479  67.710  1.00  0.00     0.000 HD 
HETATM    6  C   UNL     1      -8.093  10.036  67.124  1.00  0.00    -0.117 C  
HETATM    7  C   UNL     1      -9.995  10.032  65.487  1.00  0.00    -0.296 C  
HETATM    8  C   UNL     2      -9.297   6.818  66.604  1.00  0.00    -0.165 A  
HETATM    9  O   UNL     2      -6.424   6.711  64.401  1.00  0.00    -0.037 OA 
HETATM   10  C   UNL     2     -10.573   6.325  66.721  1.00  0.00    -0.335 A  
HETATM   11  C   UNL     2      -7.429   7.265  64.920  1.00  0.00    -0.091 C  
HETATM   12  C   UNL     2     -10.779   5.022  66.296  1.00  0.00    -0.262 A  
HETATM   13  C   UNL     2      -9.737   4.336  65.679  1.00  0.00    -0.207 A  
HETATM   14  C   UNL     2      -8.436   6.352  65.611  1.00  0.00    -0.147 A  
HETATM   15  C   UNL     2      -8.607   5.033  65.253  1.00  0.00    -0.145 A  
ENDROOT
BRANCH   3  16
HETATM   16  C   UNL     1     -10.552  10.021  67.892  1.00  0.00    -0.250 C  
BRANCH  16  17
HETATM   17  C   UNL     1     -10.093   9.965  69.361  1.00  0.00    -0.212 C  
HETATM   18  O   UNL     1     -10.086   8.628  69.838  1.00  0.00    -0.186 OA 
HETATM   19  H   UNL     1      -9.803   8.593  70.744  1.00  0.00     0.000 HD 
ENDBRANCH  16  17
ENDBRANCH   3  16
TORSDOF 2
ENDMDL
MODEL      116
REMARK 921   NORMALIZED FREE ENERGY PREDICTED BY IDOCK:   -2.94 KCAL/MOL
REMARK 922        TOTAL FREE ENERGY PREDICTED BY IDOCK:   -3.48 KCAL/MOL
REMARK 923 INTER-LIGAND FREE ENERGY PREDICTED BY IDOCK:   -3.07 KCAL/MOL
REMARK 924 INTRA-LIGAND FREE ENERGY PREDICTED BY IDOCK:   -0.40 KCAL/MOL
REMARK 927      BINDING AFFINITY PREDICTED BY RF-SCORE:    0.00 PKD
ROOT
HETATM    1  C   UNL     1      -9.893   4.635  69.213  1.00  0.00    -0.190 C  
HETATM    2  O   UNL     2     -10.275   9.666  69.203  1.00  0.00    -0.184 OA 
HETATM    3  N   UNL     1      -9.609   6.107  69.225  1.00  0.00    -0.132 N  
HETATM    4  O   UNL     2      -9.475   7.968  66.385  1.00  0.00    -0.198 OA 
HETATM    5  H   UNL     2     -10.981   9.405  68.623  1.00  0.00     0.000 HD 
HETATM    6  C   UNL     1     -10.807   6.768  68.518  1.00  0.00    -0.222 C  
HETATM    7  C   UNL     1      -8.340   6.337  68.377  1.00  0.00    -0.115 C  
HETATM    8  C   UNL     2      -9.003   9.736  68.638  1.00  0.00    -0.130 A  
HETATM    9  O   UNL     2      -9.949   9.788  65.142  1.00  0.00    -0.309 OA 
HETATM   10  C   UNL     2      -7.983  10.114  69.475  1.00  0.00    -0.170 A  
HETATM   11  C   UNL     2      -9.557   9.224  66.197  1.00  0.00    -0.260 C  
HETATM   12  C   UNL     2      -7.347  11.310  69.183  1.00  0.00    -0.104 A  
HETATM   13  C   UNL     2      -7.688  11.994  68.019  1.00  0.00    -0.132 A  
HETATM   14  C   UNL     2      -9.017  10.128  67.300  1.00  0.00    -0.144 A  
HETATM   15  C   UNL     2      -8.445  11.354  67.039  1.00  0.00    -0.159 A  
ENDROOT
BRANCH   3  16
HETATM   16  C   UNL     1      -9.320   6.659  70.618  1.00  0.00    -0.162 C  
BRANCH  16  17
HETATM   17  C   UNL     1     -10.539   7.085  71.459  1.00  0.00    -0.212 C  
HETATM   18  O   UNL     1     -10.365   8.398  71.971  1.00  0.00    -0.249 OA 
HETATM   19  H   UNL     1     -11.117   8.661  72.490  1.00  0.00     0.000 HD 
ENDBRANCH  16  17
ENDBRANCH   3  16
TORSDOF 2
ENDMDL
MODEL      117
REMARK 921   NORMALIZED FREE ENERGY PREDICTED BY IDOCK:   -2.91 KCAL/MOL
REMARK 922        TOTAL FREE ENERGY PREDICTED BY IDOCK:   -3.44 KCAL/MOL
REMARK 923 INTER-LIGAND FREE ENERGY PREDICTED BY IDOCK:   -3.35 KCAL/MOL
REMARK 924 INTRA-LIGAND FREE ENERGY PREDICTED BY IDOCK:   -0.09 KCAL/MOL
REMARK 927      BINDING AFFINITY PREDICTED BY RF-SCORE:    0.00 PKD
ROOT
HETATM    1  C   UNL     1     -11.434   7.909  72.674  1.00  0.00    -0.395 C  
HETATM    2  O   UNL     2      -8.289   6.035  69.202  1.00  0.00    -0.112 OA 
HETATM    3  N   UNL     1     -10.799   7.096  71.584  1.00  0.00    -0.224 N  
HETATM    4  O   UNL     2     -10.875   8.034  68.319  1.00  0.00    -0.072 OA 
HETATM    5  H   UNL     2      -8.130   6.970  69.140  1.00  0.00     0.000 HD 
HETATM    6  C   UNL     1      -9.799   8.039  70.890  1.00  0.00    -0.175 C  
HETATM    7  C   UNL     1     -11.912   6.722  70.582  1.00  0.00    -0.362 C  
HETATM    8  C   UNL     2      -9.391   5.546  68.503  1.00  0.00    -0.121 A  
HETATM    9  O   UNL     2      -9.943   8.362  66.293  1.00  0.00    -0.245 OA 
HETATM   10  C   UNL     2      -9.620   4.196  68.592  1.00  0.00    -0.199 A  
HETATM   11  C   UNL     2     -10.167   7.676  67.325  1.00  0.00    -0.272 C  
HETATM   12  C   UNL     2      -9.513   3.467  67.418  1.00  0.00    -0.220 A  
HETATM   13  C   UNL     2      -9.298   4.140  66.218  1.00  0.00    -0.173 A  
HETATM   14  C   UNL     2      -9.646   6.242  67.322  1.00  0.00    -0.138 A  
HETATM   15  C   UNL     2      -9.464   5.523  66.163  1.00  0.00    -0.166 A  
ENDROOT
BRANCH   3  16
HETATM   16  C   UNL     1     -10.188   5.788  72.080  1.00  0.00    -0.199 C  
BRANCH  16  17
HETATM   17  C   UNL     1      -9.858   5.706  73.583  1.00  0.00    -0.172 C  
HETATM   18  O   UNL     1      -9.002   4.606  73.852  1.00  0.00    -0.107 OA 
HETATM   19  H   UNL     1      -8.798   4.555  74.779  1.00  0.00     0.000 HD 
ENDBRANCH  16  17
ENDBRANCH   3  16
TORSDOF 2
ENDMDL
MODEL      118
REMARK 921   NORMALIZED FREE ENERGY PREDICTED BY IDOCK:   -2.88 KCAL/MOL
REMARK 922        TOTAL FREE ENERGY PREDICTED BY IDOCK:   -3.41 KCAL/MOL
REMARK 923 INTER-LIGAND FREE ENERGY PREDICTED BY IDOCK:   -3.39 KCAL/MOL
REMARK 924 INTRA-LIGAND FREE ENERGY PREDICTED BY IDOCK:   -0.01 KCAL/MOL
REMARK 927      BINDING AFFINITY PREDICTED BY RF-SCORE:    0.00 PKD
ROOT
HETATM    1  C   UNL     1     -10.892  12.873  68.396  1.00  0.00    -0.254 C  
HETATM    2  O   UNL     2      -7.369  10.080  66.105  1.00  0.00    -0.100 OA 
HETATM    3  N   UNL     1     -10.130  11.766  67.730  1.00  0.00    -0.185 N  
HETATM    4  O   UNL     2      -9.913  11.466  64.353  1.00  0.00    -0.243 OA 
HETATM    5  H   UNL     2      -7.231  10.938  65.722  1.00  0.00     0.000 HD 
HETATM    6  C   UNL     1      -9.094  12.458  66.825  1.00  0.00    -0.212 C  
HETATM    7  C   UNL     1     -11.128  10.989  66.845  1.00  0.00    -0.213 C  
HETATM    8  C   UNL     2      -8.382   9.306  65.545  1.00  0.00    -0.133 A  
HETATM    9  O   UNL     2      -8.796  11.105  62.428  1.00  0.00    -0.311 OA 
HETATM   10  C   UNL     2      -8.581   8.066  66.097  1.00  0.00    -0.163 A  
HETATM   11  C   UNL     2      -9.101  10.820  63.616  1.00  0.00    -0.212 C  
HETATM   12  C   UNL     2      -8.338   6.973  65.280  1.00  0.00    -0.100 A  
HETATM   13  C   UNL     2      -8.026   7.184  63.939  1.00  0.00    -0.076 A  
HETATM   14  C   UNL     2      -8.541   9.516  64.175  1.00  0.00    -0.217 A  
HETATM   15  C   UNL     2      -8.225   8.442  63.374  1.00  0.00    -0.114 A  
ENDROOT
BRANCH   3  16
HETATM   16  C   UNL     1      -9.533  10.763  68.714  1.00  0.00    -0.182 C  
BRANCH  16  17
HETATM   17  C   UNL     1     -10.464  10.251  69.829  1.00  0.00    -0.259 C  
HETATM   18  O   UNL     1     -11.119   9.057  69.432  1.00  0.00    -0.418 OA 
HETATM   19  H   UNL     1     -11.694   8.741  70.120  1.00  0.00     0.000 HD 
ENDBRANCH  16  17
ENDBRANCH   3  16
TORSDOF 2
ENDMDL
MODEL      119
REMARK 921   NORMALIZED FREE ENERGY PREDICTED BY IDOCK:   -2.87 KCAL/MOL
REMARK 922        TOTAL FREE ENERGY PREDICTED BY IDOCK:   -3.39 KCAL/MOL
REMARK 923 INTER-LIGAND FREE ENERGY PREDICTED BY IDOCK:   -3.29 KCAL/MOL
REMARK 924 INTRA-LIGAND FREE ENERGY PREDICTED BY IDOCK:   -0.10 KCAL/MOL
REMARK 927      BINDING AFFINITY PREDICTED BY RF-SCORE:    0.00 PKD
ROOT
HETATM    1  C   UNL     1     -12.756  15.587  70.524  1.00  0.00    -0.388 C  
HETATM    2  O   UNL     2      -9.889  11.551  69.549  1.00  0.00    -0.336 OA 
HETATM    3  N   UNL     1     -12.155  14.349  69.927  1.00  0.00    -0.325 N  
HETATM    4  O   UNL     2      -9.481  14.441  67.832  1.00  0.00    -0.204 OA 
HETATM    5  H   UNL     2      -9.256  12.179  69.876  1.00  0.00     0.000 HD 
HETATM    6  C   UNL     1     -10.674  14.360  70.350  1.00  0.00     0.420 C  
HETATM    7  C   UNL     1     -12.237  14.492  68.392  1.00  0.00    -0.119 C  
HETATM    8  C   UNL     2     -10.234  11.661  68.204  1.00  0.00    -0.197 A  
HETATM    9  O   UNL     2      -7.475  13.727  67.090  1.00  0.00    -0.092 OA 
HETATM   10  C   UNL     2     -11.149  10.754  67.731  1.00  0.00    -0.381 A  
HETATM   11  C   UNL     2      -8.658  13.537  67.480  1.00  0.00    -0.193 C  
HETATM   12  C   UNL     2     -10.706   9.871  66.759  1.00  0.00    -0.154 A  
HETATM   13  C   UNL     2      -9.423  10.021  66.240  1.00  0.00    -0.241 A  
HETATM   14  C   UNL     2      -9.185  12.108  67.402  1.00  0.00    -0.182 A  
HETATM   15  C   UNL     2      -8.708  11.192  66.491  1.00  0.00    -0.174 A  
ENDROOT
BRANCH   3  16
HETATM   16  C   UNL     1     -12.903  13.071  70.297  1.00  0.00     0.236 C  
BRANCH  16  17
HETATM   17  C   UNL     1     -13.242  12.875  71.787  1.00  0.00    -0.384 C  
HETATM   18  O   UNL     1     -13.211  11.500  72.135  1.00  0.00    -0.576 OA 
HETATM   19  H   UNL     1     -13.421  11.378  73.054  1.00  0.00     0.000 HD 
ENDBRANCH  16  17
ENDBRANCH   3  16
TORSDOF 2
ENDMDL
MODEL      120
REMARK 921   NORMALIZED FREE ENERGY PREDICTED BY IDOCK:   -2.86 KCAL/MOL
REMARK 922        TOTAL FREE ENERGY PREDICTED BY IDOCK:   -3.39 KCAL/MOL
REMARK 923 INTER-LIGAND FREE ENERGY PREDICTED BY IDOCK:   -3.39 KCAL/MOL
REMARK 924 INTRA-LIGAND FREE ENERGY PREDICTED BY IDOCK:    0.00 KCAL/MOL
REMARK 927      BINDING AFFINITY PREDICTED BY RF-SCORE:    0.00 PKD
ROOT
HETATM    1  C   UNL     1      -8.632  10.749  65.152  1.00  0.00    -0.128 C  
HETATM    2  O   UNL     2     -10.183  11.196  69.933  1.00  0.00    -0.372 OA 
HETATM    3  N   UNL     1      -9.332  10.582  66.468  1.00  0.00    -0.160 N  
HETATM    4  O   UNL     2      -8.032   8.747  69.015  1.00  0.00    -0.106 OA 
HETATM    5  H   UNL     2      -9.251  11.371  70.002  1.00  0.00     0.000 HD 
HETATM    6  C   UNL     1      -8.343  11.088  67.534  1.00  0.00    -0.118 C  
HETATM    7  C   UNL     1      -9.563   9.070  66.677  1.00  0.00    -0.213 C  
HETATM    8  C   UNL     2     -10.562   9.856  69.909  1.00  0.00    -0.273 A  
HETATM    9  O   UNL     2      -7.502   8.390  71.177  1.00  0.00    -0.068 OA 
HETATM   10  C   UNL     2     -11.907   9.603  69.810  1.00  0.00     0.141 A  
HETATM   11  C   UNL     2      -8.294   8.733  70.260  1.00  0.00    -0.136 C  
HETATM   12  C   UNL     2     -12.502   8.963  70.886  1.00  0.00    -0.083 A  
HETATM   13  C   UNL     2     -11.704   8.516  71.936  1.00  0.00    -0.409 A  
HETATM   14  C   UNL     2      -9.731   9.036  70.672  1.00  0.00    -0.287 A  
HETATM   15  C   UNL     2     -10.320   8.466  71.779  1.00  0.00    -0.333 A  
ENDROOT
BRANCH   3  16
HETATM   16  C   UNL     1     -10.703  11.253  66.515  1.00  0.00    -0.271 C  
BRANCH  16  17
HETATM   17  C   UNL     1     -10.815  12.536  67.359  1.00  0.00    -0.240 C  
HETATM   18  O   UNL     1     -11.965  12.496  68.190  1.00  0.00    -0.333 OA 
HETATM   19  H   UNL     1     -12.035  13.288  68.710  1.00  0.00     0.000 HD 
ENDBRANCH  16  17
ENDBRANCH   3  16
TORSDOF 2
ENDMDL
MODEL      121
REMARK 921   NORMALIZED FREE ENERGY PREDICTED BY IDOCK:   -2.86 KCAL/MOL
REMARK 922        TOTAL FREE ENERGY PREDICTED BY IDOCK:   -3.39 KCAL/MOL
REMARK 923 INTER-LIGAND FREE ENERGY PREDICTED BY IDOCK:   -3.02 KCAL/MOL
REMARK 924 INTRA-LIGAND FREE ENERGY PREDICTED BY IDOCK:   -0.37 KCAL/MOL
REMARK 927      BINDING AFFINITY PREDICTED BY RF-SCORE:    0.00 PKD
ROOT
HETATM    1  C   UNL     1     -12.008   6.850  71.210  1.00  0.00    -0.356 C  
HETATM    2  O   UNL     2      -7.812   8.089  68.697  1.00  0.00    -0.113 OA 
HETATM    3  N   UNL     1     -10.817   6.860  70.299  1.00  0.00    -0.244 N  
HETATM    4  O   UNL     2     -10.860   8.355  67.247  1.00  0.00    -0.225 OA 
HETATM    5  H   UNL     2      -8.266   8.921  68.762  1.00  0.00     0.000 HD 
HETATM    6  C   UNL     1     -10.523   8.345  70.014  1.00  0.00    -0.224 C  
HETATM    7  C   UNL     1     -11.240   6.173  68.982  1.00  0.00    -0.304 C  
HETATM    8  C   UNL     2      -8.210   7.243  67.664  1.00  0.00    -0.114 A  
HETATM    9  O   UNL     2      -9.986   9.655  65.626  1.00  0.00    -0.305 OA 
HETATM   10  C   UNL     2      -7.555   6.042  67.570  1.00  0.00    -0.090 A  
HETATM   11  C   UNL     2      -9.916   8.736  66.484  1.00  0.00    -0.290 C  
HETATM   12  C   UNL     2      -6.799   5.832  66.427  1.00  0.00    -0.059 A  
HETATM   13  C   UNL     2      -6.837   6.776  65.405  1.00  0.00    -0.051 A  
HETATM   14  C   UNL     2      -8.623   7.928  66.522  1.00  0.00    -0.149 A  
HETATM   15  C   UNL     2      -7.819   7.766  65.415  1.00  0.00    -0.114 A  
ENDROOT
BRANCH   3  16
HETATM   16  C   UNL     1      -9.626   6.078  70.847  1.00  0.00    -0.169 C  
BRANCH  16  17
HETATM   17  C   UNL     1      -8.701   6.825  71.826  1.00  0.00    -0.128 C  
HETATM   18  O   UNL     1      -7.339   6.650  71.468  1.00  0.00    -0.084 OA 
HETATM   19  H   UNL     1      -6.768   7.111  72.072  1.00  0.00     0.000 HD 
ENDBRANCH  16  17
ENDBRANCH   3  16
TORSDOF 2
ENDMDL
MODEL      122
REMARK 921   NORMALIZED FREE ENERGY PREDICTED BY IDOCK:   -2.85 KCAL/MOL
REMARK 922        TOTAL FREE ENERGY PREDICTED BY IDOCK:   -3.38 KCAL/MOL
REMARK 923 INTER-LIGAND FREE ENERGY PREDICTED BY IDOCK:   -3.24 KCAL/MOL
REMARK 924 INTRA-LIGAND FREE ENERGY PREDICTED BY IDOCK:   -0.14 KCAL/MOL
REMARK 927      BINDING AFFINITY PREDICTED BY RF-SCORE:    0.00 PKD
ROOT
HETATM    1  C   UNL     1     -10.320   7.448  66.755  1.00  0.00    -0.251 C  
HETATM    2  O   UNL     2      -8.478   5.814  71.159  1.00  0.00    -0.124 OA 
HETATM    3  N   UNL     1      -9.777   7.350  68.149  1.00  0.00    -0.149 N  
HETATM    4  O   UNL     2     -11.742   6.657  70.834  1.00  0.00    -0.339 OA 
HETATM    5  H   UNL     2      -9.095   5.129  70.928  1.00  0.00     0.000 HD 
HETATM    6  C   UNL     1     -10.162   5.946  68.650  1.00  0.00    -0.192 C  
HETATM    7  C   UNL     1     -10.514   8.405  69.003  1.00  0.00    -0.201 C  
HETATM    8  C   UNL     2      -9.009   6.946  71.773  1.00  0.00    -0.138 A  
HETATM    9  O   UNL     2     -12.219   5.589  72.761  1.00  0.00    -0.133 OA 
HETATM   10  C   UNL     2      -8.118   7.935  72.107  1.00  0.00    -0.154 A  
HETATM   11  C   UNL     2     -11.454   6.239  72.001  1.00  0.00    -0.310 C  
HETATM   12  C   UNL     2      -7.968   8.208  73.458  1.00  0.00    -0.247 A  
HETATM   13  C   UNL     2      -8.792   7.563  74.377  1.00  0.00    -0.195 A  
HETATM   14  C   UNL     2     -10.110   6.668  72.582  1.00  0.00    -0.191 A  
HETATM   15  C   UNL     2      -9.919   6.875  73.930  1.00  0.00    -0.365 A  
ENDROOT
BRANCH   3  16
HETATM   16  C   UNL     1      -8.286   7.663  68.244  1.00  0.00    -0.125 C  
BRANCH  16  17
HETATM   17  C   UNL     1      -7.320   6.587  67.714  1.00  0.00    -0.096 C  
HETATM   18  O   UNL     1      -5.997   6.828  68.169  1.00  0.00    -0.028 OA 
HETATM   19  H   UNL     1      -5.400   6.164  67.842  1.00  0.00     0.000 HD 
ENDBRANCH  16  17
ENDBRANCH   3  16
TORSDOF 2
ENDMDL
MODEL      123
REMARK 921   NORMALIZED FREE ENERGY PREDICTED BY IDOCK:   -2.83 KCAL/MOL
REMARK 922        TOTAL FREE ENERGY PREDICTED BY IDOCK:   -3.35 KCAL/MOL
REMARK 923 INTER-LIGAND FREE ENERGY PREDICTED BY IDOCK:   -3.17 KCAL/MOL
REMARK 924 INTRA-LIGAND FREE ENERGY PREDICTED BY IDOCK:   -0.18 KCAL/MOL
REMARK 927      BINDING AFFINITY PREDICTED BY RF-SCORE:    0.00 PKD
ROOT
HETATM    1  C   UNL     1      -9.756  11.620  68.223  1.00  0.00    -0.197 C  
HETATM    2  O   UNL     2      -7.860   7.053  69.226  1.00  0.00    -0.109 OA 
HETATM    3  N   UNL     1      -9.577  10.173  68.574  1.00  0.00    -0.150 N  
HETATM    4  O   UNL     2      -9.252   7.746  66.218  1.00  0.00    -0.178 OA 
HETATM    5  H   UNL     2      -7.291   7.363  68.531  1.00  0.00     0.000 HD 
HETATM    6  C   UNL     1      -8.263   9.739  67.896  1.00  0.00    -0.113 C  
HETATM    7  C   UNL     1     -10.749   9.397  67.935  1.00  0.00    -0.210 C  
HETATM    8  C   UNL     2      -9.072   6.490  68.829  1.00  0.00    -0.126 A  
HETATM    9  O   UNL     2      -8.296   5.902  65.340  1.00  0.00    -0.139 OA 
HETATM   10  C   UNL     2      -9.894   6.041  69.832  1.00  0.00    -0.213 A  
HETATM   11  C   UNL     2      -8.799   6.559  66.290  1.00  0.00    -0.146 C  
HETATM   12  C   UNL     2     -10.146   4.678  69.868  1.00  0.00    -0.257 A  
HETATM   13  C   UNL     2      -9.660   3.871  68.843  1.00  0.00    -0.200 A  
HETATM   14  C   UNL     2      -8.993   5.819  67.610  1.00  0.00    -0.107 A  
HETATM   15  C   UNL     2      -9.174   4.456  67.674  1.00  0.00    -0.169 A  
ENDROOT
BRANCH   3  16
HETATM   16  C   UNL     1      -9.627   9.900  70.075  1.00  0.00    -0.214 C  
BRANCH  16  17
HETATM   17  C   UNL     1     -10.980   9.436  70.647  1.00  0.00    -0.290 C  
HETATM   18  O   UNL     1     -10.833   8.980  71.983  1.00  0.00    -0.352 OA 
HETATM   19  H   UNL     1     -11.667   8.692  72.336  1.00  0.00     0.000 HD 
ENDBRANCH  16  17
ENDBRANCH   3  16
TORSDOF 2
ENDMDL
MODEL      124
REMARK 921   NORMALIZED FREE ENERGY PREDICTED BY IDOCK:   -2.75 KCAL/MOL
REMARK 922        TOTAL FREE ENERGY PREDICTED BY IDOCK:   -3.26 KCAL/MOL
REMARK 923 INTER-LIGAND FREE ENERGY PREDICTED BY IDOCK:   -3.17 KCAL/MOL
REMARK 924 INTRA-LIGAND FREE ENERGY PREDICTED BY IDOCK:   -0.10 KCAL/MOL
REMARK 927      BINDING AFFINITY PREDICTED BY RF-SCORE:    0.00 PKD
ROOT
HETATM    1  C   UNL     1     -11.434  10.138  70.263  1.00  0.00    -0.306 C  
HETATM    2  O   UNL     2      -7.501  11.176  67.277  1.00  0.00    -0.106 OA 
HETATM    3  N   UNL     1     -10.281  10.055  69.307  1.00  0.00    -0.200 N  
HETATM    4  O   UNL     2     -10.601  10.726  65.991  1.00  0.00    -0.228 OA 
HETATM    5  H   UNL     2      -8.052  11.941  67.164  1.00  0.00     0.000 HD 
HETATM    6  C   UNL     1     -10.182  11.444  68.652  1.00  0.00    -0.208 C  
HETATM    7  C   UNL     1     -10.655   9.017  68.226  1.00  0.00    -0.163 C  
HETATM    8  C   UNL     2      -7.822  10.060  66.508  1.00  0.00    -0.112 A  
HETATM    9  O   UNL     2      -9.944  11.670  64.052  1.00  0.00    -0.264 OA 
HETATM   10  C   UNL     2      -7.025   8.955  66.671  1.00  0.00    -0.080 A  
HETATM   11  C   UNL     2      -9.734  11.008  65.103  1.00  0.00    -0.254 C  
HETATM   12  C   UNL     2      -6.284   8.552  65.571  1.00  0.00    -0.049 A  
HETATM   13  C   UNL     2      -6.470   9.201  64.353  1.00  0.00    -0.079 A  
HETATM   14  C   UNL     2      -8.350  10.387  65.259  1.00  0.00    -0.166 A  
HETATM   15  C   UNL     2      -7.566  10.045  64.180  1.00  0.00    -0.140 A  
ENDROOT
BRANCH   3  16
HETATM   16  C   UNL     1      -8.986   9.574  69.957  1.00  0.00    -0.223 C  
BRANCH  16  17
HETATM   17  C   UNL     1      -9.126   8.773  71.266  1.00  0.00    -0.234 C  
HETATM   18  O   UNL     1      -8.010   8.993  72.114  1.00  0.00    -0.356 OA 
HETATM   19  H   UNL     1      -8.096   8.500  72.922  1.00  0.00     0.000 HD 
ENDBRANCH  16  17
ENDBRANCH   3  16
TORSDOF 2
ENDMDL
MODEL      125
REMARK 921   NORMALIZED FREE ENERGY PREDICTED BY IDOCK:   -2.71 KCAL/MOL
REMARK 922        TOTAL FREE ENERGY PREDICTED BY IDOCK:   -3.22 KCAL/MOL
REMARK 923 INTER-LIGAND FREE ENERGY PREDICTED BY IDOCK:   -3.10 KCAL/MOL
REMARK 924 INTRA-LIGAND FREE ENERGY PREDICTED BY IDOCK:   -0.11 KCAL/MOL
REMARK 927      BINDING AFFINITY PREDICTED BY RF-SCORE:    0.00 PKD
ROOT
HETATM    1  C   UNL     1      -6.362   9.255  65.388  1.00  0.00    -0.065 C  
HETATM    2  O   UNL     2      -8.041   7.342  69.744  1.00  0.00    -0.123 OA 
HETATM    3  N   UNL     1      -7.187   8.894  66.587  1.00  0.00    -0.084 N  
HETATM    4  O   UNL     2      -8.983   6.015  66.775  1.00  0.00    -0.117 OA 
HETATM    5  H   UNL     2      -7.525   6.627  69.392  1.00  0.00     0.000 HD 
HETATM    6  C   UNL     1      -6.659   7.527  67.061  1.00  0.00    -0.062 C  
HETATM    7  C   UNL     1      -8.646   8.728  66.108  1.00  0.00    -0.146 C  
HETATM    8  C   UNL     2      -9.344   7.462  69.266  1.00  0.00    -0.154 A  
HETATM    9  O   UNL     2      -9.714   4.159  67.825  1.00  0.00    -0.166 OA 
HETATM   10  C   UNL     2     -10.090   8.495  69.776  1.00  0.00    -0.197 A  
HETATM   11  C   UNL     2      -9.475   5.394  67.771  1.00  0.00    -0.120 C  
HETATM   12  C   UNL     2     -11.207   8.149  70.521  1.00  0.00    -0.249 A  
HETATM   13  C   UNL     2     -11.573   6.809  70.614  1.00  0.00    -0.422 A  
HETATM   14  C   UNL     2      -9.932   6.235  68.958  1.00  0.00    -0.175 A  
HETATM   15  C   UNL     2     -10.995   5.874  69.756  1.00  0.00    -0.452 A  
ENDROOT
BRANCH   3  16
HETATM   16  C   UNL     1      -7.193   9.973  67.667  1.00  0.00    -0.088 C  
BRANCH  16  17
HETATM   17  C   UNL     1      -7.907  11.293  67.321  1.00  0.00    -0.141 C  
HETATM   18  O   UNL     1      -6.975  12.273  66.890  1.00  0.00    -0.344 OA 
HETATM   19  H   UNL     1      -7.415  13.088  66.677  1.00  0.00     0.000 HD 
ENDBRANCH  16  17
ENDBRANCH   3  16
TORSDOF 2
ENDMDL
MODEL      126
REMARK 921   NORMALIZED FREE ENERGY PREDICTED BY IDOCK:   -2.71 KCAL/MOL
REMARK 922        TOTAL FREE ENERGY PREDICTED BY IDOCK:   -3.21 KCAL/MOL
REMARK 923 INTER-LIGAND FREE ENERGY PREDICTED BY IDOCK:   -3.07 KCAL/MOL
REMARK 924 INTRA-LIGAND FREE ENERGY PREDICTED BY IDOCK:   -0.15 KCAL/MOL
REMARK 927      BINDING AFFINITY PREDICTED BY RF-SCORE:    0.00 PKD
ROOT
HETATM    1  C   UNL     1     -11.018   9.735  69.420  1.00  0.00    -0.212 C  
HETATM    2  O   UNL     2      -8.445   5.958  71.559  1.00  0.00    -0.126 OA 
HETATM    3  N   UNL     1     -10.492   8.390  69.827  1.00  0.00    -0.218 N  
HETATM    4  O   UNL     2      -7.727   7.004  68.420  1.00  0.00    -0.114 OA 
HETATM    5  H   UNL     2      -7.778   6.626  71.453  1.00  0.00     0.000 HD 
HETATM    6  C   UNL     1      -9.036   8.628  70.268  1.00  0.00    -0.154 C  
HETATM    7  C   UNL     1     -10.493   7.496  68.568  1.00  0.00    -0.180 C  
HETATM    8  C   UNL     2      -8.719   5.171  70.442  1.00  0.00    -0.114 A  
HETATM    9  O   UNL     2      -5.754   5.916  68.498  1.00  0.00    -0.011 OA 
HETATM   10  C   UNL     2      -9.681   4.206  70.595  1.00  0.00    -0.273 A  
HETATM   11  C   UNL     2      -6.964   6.065  68.813  1.00  0.00    -0.072 C  
HETATM   12  C   UNL     2      -9.267   2.888  70.474  1.00  0.00    -0.209 A  
HETATM   13  C   UNL     2      -7.954   2.621  70.096  1.00  0.00    -0.052 A  
HETATM   14  C   UNL     2      -7.601   4.951  69.638  1.00  0.00    -0.056 A  
HETATM   15  C   UNL     2      -7.159   3.647  69.587  1.00  0.00    -0.042 A  
ENDROOT
BRANCH   3  16
HETATM   16  C   UNL     1     -11.357   7.690  70.872  1.00  0.00    -0.276 C  
BRANCH  16  17
HETATM   17  C   UNL     1     -11.598   8.449  72.191  1.00  0.00    -0.374 C  
HETATM   18  O   UNL     1     -11.293   7.629  73.308  1.00  0.00    -0.587 OA 
HETATM   19  H   UNL     1     -11.442   8.097  74.122  1.00  0.00     0.000 HD 
ENDBRANCH  16  17
ENDBRANCH   3  16
TORSDOF 2
ENDMDL
MODEL      127
REMARK 921   NORMALIZED FREE ENERGY PREDICTED BY IDOCK:   -2.70 KCAL/MOL
REMARK 922        TOTAL FREE ENERGY PREDICTED BY IDOCK:   -3.21 KCAL/MOL
REMARK 923 INTER-LIGAND FREE ENERGY PREDICTED BY IDOCK:   -3.41 KCAL/MOL
REMARK 924 INTRA-LIGAND FREE ENERGY PREDICTED BY IDOCK:    0.21 KCAL/MOL
REMARK 927      BINDING AFFINITY PREDICTED BY RF-SCORE:    0.00 PKD
ROOT
HETATM    1  C   UNL     1     -10.563   8.637  69.333  1.00  0.00    -0.199 C  
HETATM    2  O   UNL     2      -8.431   4.830  71.867  1.00  0.00    -0.115 OA 
HETATM    3  N   UNL     1     -10.306   7.437  70.195  1.00  0.00    -0.210 N  
HETATM    4  O   UNL     2     -10.019   4.298  68.924  1.00  0.00    -0.113 OA 
HETATM    5  H   UNL     2      -7.915   4.861  71.070  1.00  0.00     0.000 HD 
HETATM    6  C   UNL     1      -9.017   6.797  69.646  1.00  0.00    -0.143 C  
HETATM    7  C   UNL     1     -11.481   6.457  69.981  1.00  0.00    -0.428 C  
HETATM    8  C   UNL     2      -9.640   4.140  71.798  1.00  0.00    -0.156 A  
HETATM    9  O   UNL     2      -9.041   2.274  68.752  1.00  0.00    -0.108 OA 
HETATM   10  C   UNL     2     -10.384   4.096  72.950  1.00  0.00    -0.241 A  
HETATM   11  C   UNL     2      -9.515   3.237  69.412  1.00  0.00    -0.133 C  
HETATM   12  C   UNL     2     -10.579   2.847  73.519  1.00  0.00    -0.262 A  
HETATM   13  C   UNL     2     -10.120   1.716  72.848  1.00  0.00    -0.178 A  
HETATM   14  C   UNL     2      -9.604   3.055  70.923  1.00  0.00    -0.215 A  
HETATM   15  C   UNL     2      -9.725   1.817  71.514  1.00  0.00    -0.215 A  
ENDROOT
BRANCH   3  16
HETATM   16  C   UNL     1     -10.261   7.758  71.687  1.00  0.00    -0.186 C  
BRANCH  16  17
HETATM   17  C   UNL     1      -8.883   7.672  72.370  1.00  0.00    -0.134 C  
HETATM   18  O   UNL     1      -8.193   8.908  72.274  1.00  0.00    -0.379 OA 
HETATM   19  H   UNL     1      -7.343   8.855  72.695  1.00  0.00     0.000 HD 
ENDBRANCH  16  17
ENDBRANCH   3  16
TORSDOF 2
ENDMDL
MODEL      128
REMARK 921   NORMALIZED FREE ENERGY PREDICTED BY IDOCK:   -2.70 KCAL/MOL
REMARK 922        TOTAL FREE ENERGY PREDICTED BY IDOCK:   -3.20 KCAL/MOL
REMARK 923 INTER-LIGAND FREE ENERGY PREDICTED BY IDOCK:   -3.05 KCAL/MOL
REMARK 924 INTRA-LIGAND FREE ENERGY PREDICTED BY IDOCK:   -0.15 KCAL/MOL
REMARK 927      BINDING AFFINITY PREDICTED BY RF-SCORE:    0.00 PKD
ROOT
HETATM    1  C   UNL     1      -9.428   5.906  67.246  1.00  0.00    -0.114 C  
HETATM    2  O   UNL     2      -9.147  10.482  69.353  1.00  0.00    -0.310 OA 
HETATM    3  N   UNL     1      -9.066   7.319  67.593  1.00  0.00    -0.125 N  
HETATM    4  O   UNL     2     -10.826   9.993  66.453  1.00  0.00    -0.048 OA 
HETATM    5  H   UNL     2     -10.076  10.290  69.402  1.00  0.00     0.000 HD 
HETATM    6  C   UNL     1     -10.321   7.923  68.250  1.00  0.00    -0.197 C  
HETATM    7  C   UNL     1      -8.789   8.061  66.268  1.00  0.00    -0.162 C  
HETATM    8  C   UNL     2      -8.680  10.985  68.140  1.00  0.00    -0.141 A  
HETATM    9  O   UNL     2     -11.849  11.987  66.698  1.00  0.00    -0.583 OA 
HETATM   10  C   UNL     2      -7.338  11.262  68.069  1.00  0.00    -0.092 A  
HETATM   11  C   UNL     2     -10.880  11.198  66.858  1.00  0.00    -0.279 C  
HETATM   12  C   UNL     2      -6.986  12.590  67.882  1.00  0.00    -0.105 A  
HETATM   13  C   UNL     2      -7.986  13.534  67.665  1.00  0.00    -0.177 A  
HETATM   14  C   UNL     2      -9.615  11.781  67.479  1.00  0.00    -0.179 A  
HETATM   15  C   UNL     2      -9.281  13.112  67.367  1.00  0.00    -0.213 A  
ENDROOT
BRANCH   3  16
HETATM   16  C   UNL     1      -7.800   7.431  68.440  1.00  0.00    -0.122 C  
BRANCH  16  17
HETATM   17  C   UNL     1      -7.980   7.343  69.967  1.00  0.00    -0.119 C  
HETATM   18  O   UNL     1      -7.414   6.144  70.473  1.00  0.00    -0.085 OA 
HETATM   19  H   UNL     1      -7.525   6.089  71.415  1.00  0.00     0.000 HD 
ENDBRANCH  16  17
ENDBRANCH   3  16
TORSDOF 2
ENDMDL
MODEL      129
REMARK 921   NORMALIZED FREE ENERGY PREDICTED BY IDOCK:   -2.69 KCAL/MOL
REMARK 922        TOTAL FREE ENERGY PREDICTED BY IDOCK:   -3.19 KCAL/MOL
REMARK 923 INTER-LIGAND FREE ENERGY PREDICTED BY IDOCK:   -3.10 KCAL/MOL
REMARK 924 INTRA-LIGAND FREE ENERGY PREDICTED BY IDOCK:   -0.09 KCAL/MOL
REMARK 927      BINDING AFFINITY PREDICTED BY RF-SCORE:    0.00 PKD
ROOT
HETATM    1  C   UNL     1      -9.211   2.697  68.032  1.00  0.00    -0.205 C  
HETATM    2  O   UNL     2      -7.931   7.063  70.212  1.00  0.00    -0.113 OA 
HETATM    3  N   UNL     1      -9.171   3.935  68.877  1.00  0.00    -0.139 N  
HETATM    4  O   UNL     2      -7.431   4.109  71.790  1.00  0.00    -0.060 OA 
HETATM    5  H   UNL     2      -7.091   6.635  70.102  1.00  0.00     0.000 HD 
HETATM    6  C   UNL     1      -7.681   4.295  69.020  1.00  0.00    -0.054 C  
HETATM    7  C   UNL     1      -9.732   3.562  70.266  1.00  0.00    -0.095 C  
HETATM    8  C   UNL     2      -8.674   6.693  71.332  1.00  0.00    -0.129 A  
HETATM    9  O   UNL     2      -6.037   5.114  73.250  1.00  0.00    -0.035 OA 
HETATM   10  C   UNL     2      -9.888   7.312  71.492  1.00  0.00    -0.182 A  
HETATM   11  C   UNL     2      -7.025   5.106  72.469  1.00  0.00    -0.084 C  
HETATM   12  C   UNL     2     -10.032   8.121  72.609  1.00  0.00    -0.371 A  
HETATM   13  C   UNL     2      -9.006   8.171  73.548  1.00  0.00    -0.295 A  
HETATM   14  C   UNL     2      -7.882   6.367  72.433  1.00  0.00    -0.102 A  
HETATM   15  C   UNL     2      -7.984   7.224  73.506  1.00  0.00    -0.133 A  
ENDROOT
BRANCH   3  16
HETATM   16  C   UNL     1     -10.040   5.068  68.335  1.00  0.00    -0.107 C  
BRANCH  16  17
HETATM   17  C   UNL     1     -10.200   5.145  66.805  1.00  0.00    -0.253 C  
HETATM   18  O   UNL     1     -11.280   5.996  66.452  1.00  0.00    -0.742 OA 
HETATM   19  H   UNL     1     -11.379   6.044  65.509  1.00  0.00     0.000 HD 
ENDBRANCH  16  17
ENDBRANCH   3  16
TORSDOF 2
ENDMDL
MODEL      130
REMARK 921   NORMALIZED FREE ENERGY PREDICTED BY IDOCK:   -2.67 KCAL/MOL
REMARK 922        TOTAL FREE ENERGY PREDICTED BY IDOCK:   -3.17 KCAL/MOL
REMARK 923 INTER-LIGAND FREE ENERGY PREDICTED BY IDOCK:   -3.01 KCAL/MOL
REMARK 924 INTRA-LIGAND FREE ENERGY PREDICTED BY IDOCK:   -0.16 KCAL/MOL
REMARK 927      BINDING AFFINITY PREDICTED BY RF-SCORE:    0.00 PKD
ROOT
HETATM    1  C   UNL     1      -8.489   5.299  73.849  1.00  0.00    -0.113 C  
HETATM    2  O   UNL     2      -8.079   8.915  70.355  1.00  0.00    -0.100 OA 
HETATM    3  N   UNL     1      -8.560   6.107  72.588  1.00  0.00    -0.125 N  
HETATM    4  O   UNL     2     -10.978   8.430  72.036  1.00  0.00    -0.276 OA 
HETATM    5  H   UNL     2      -8.222   9.414  71.150  1.00  0.00     0.000 HD 
HETATM    6  C   UNL     1      -8.517   7.580  73.033  1.00  0.00    -0.132 C  
HETATM    7  C   UNL     1      -9.931   5.821  71.936  1.00  0.00    -0.177 C  
HETATM    8  C   UNL     2      -9.215   8.405  69.729  1.00  0.00    -0.157 A  
HETATM    9  O   UNL     2     -11.716  10.452  71.365  1.00  0.00    -0.308 OA 
HETATM   10  C   UNL     2      -9.008   7.685  68.580  1.00  0.00    -0.129 A  
HETATM   11  C   UNL     2     -11.040   9.400  71.215  1.00  0.00    -0.376 C  
HETATM   12  C   UNL     2      -9.533   8.213  67.410  1.00  0.00    -0.191 A  
HETATM   13  C   UNL     2     -10.324   9.358  67.477  1.00  0.00    -0.314 A  
HETATM   14  C   UNL     2     -10.335   9.222  69.874  1.00  0.00    -0.241 A  
HETATM   15  C   UNL     2     -10.800   9.797  68.712  1.00  0.00    -0.219 A  
ENDROOT
BRANCH   3  16
HETATM   16  C   UNL     1      -7.493   5.729  71.564  1.00  0.00    -0.093 C  
BRANCH  16  17
HETATM   17  C   UNL     1      -6.029   5.776  72.042  1.00  0.00    -0.035 C  
HETATM   18  O   UNL     1      -5.302   6.776  71.347  1.00  0.00    -0.026 OA 
HETATM   19  H   UNL     1      -4.399   6.805  71.641  1.00  0.00     0.000 HD 
ENDBRANCH  16  17
ENDBRANCH   3  16
TORSDOF 2
ENDMDL
MODEL      131
REMARK 921   NORMALIZED FREE ENERGY PREDICTED BY IDOCK:   -2.66 KCAL/MOL
REMARK 922        TOTAL FREE ENERGY PREDICTED BY IDOCK:   -3.16 KCAL/MOL
REMARK 923 INTER-LIGAND FREE ENERGY PREDICTED BY IDOCK:   -2.87 KCAL/MOL
REMARK 924 INTRA-LIGAND FREE ENERGY PREDICTED BY IDOCK:   -0.29 KCAL/MOL
REMARK 927      BINDING AFFINITY PREDICTED BY RF-SCORE:    0.00 PKD
ROOT
HETATM    1  C   UNL     1      -9.777  10.768  64.488  1.00  0.00    -0.295 C  
HETATM    2  O   UNL     2      -8.557  11.496  69.329  1.00  0.00    -0.363 OA 
HETATM    3  N   UNL     1      -9.201  10.654  65.868  1.00  0.00    -0.175 N  
HETATM    4  O   UNL     2      -6.426  12.355  66.842  1.00  0.00    -0.123 OA 
HETATM    5  H   UNL     2      -8.599  12.383  68.993  1.00  0.00     0.000 HD 
HETATM    6  C   UNL     1      -9.169  12.088  66.427  1.00  0.00    -0.216 C  
HETATM    7  C   UNL     1      -7.752  10.142  65.721  1.00  0.00    -0.136 C  
HETATM    8  C   UNL     2      -7.368  10.804  69.108  1.00  0.00    -0.115 A  
HETATM    9  O   UNL     2      -5.234  13.613  68.284  1.00  0.00    -0.091 OA 
HETATM   10  C   UNL     2      -7.307   9.523  69.595  1.00  0.00    -0.084 A  
HETATM   11  C   UNL     2      -5.973  12.634  67.998  1.00  0.00    -0.094 C  
HETATM   12  C   UNL     2      -6.375   9.278  70.591  1.00  0.00    -0.068 A  
HETATM   13  C   UNL     2      -5.490  10.289  70.956  1.00  0.00    -0.089 A  
HETATM   14  C   UNL     2      -6.243  11.628  69.112  1.00  0.00    -0.077 A  
HETATM   15  C   UNL     2      -5.364  11.420  70.151  1.00  0.00    -0.090 A  
ENDROOT
BRANCH   3  16
HETATM   16  C   UNL     1      -9.940   9.652  66.752  1.00  0.00    -0.227 C  
BRANCH  16  17
HETATM   17  C   UNL     1     -11.052  10.217  67.657  1.00  0.00    -0.206 C  
HETATM   18  O   UNL     1     -11.044   9.580  68.925  1.00  0.00    -0.419 OA 
HETATM   19  H   UNL     1     -11.730   9.928  69.483  1.00  0.00     0.000 HD 
ENDBRANCH  16  17
ENDBRANCH   3  16
TORSDOF 2
ENDMDL
MODEL      132
REMARK 921   NORMALIZED FREE ENERGY PREDICTED BY IDOCK:   -2.59 KCAL/MOL
REMARK 922        TOTAL FREE ENERGY PREDICTED BY IDOCK:   -3.08 KCAL/MOL
REMARK 923 INTER-LIGAND FREE ENERGY PREDICTED BY IDOCK:   -3.04 KCAL/MOL
REMARK 924 INTRA-LIGAND FREE ENERGY PREDICTED BY IDOCK:   -0.04 KCAL/MOL
REMARK 927      BINDING AFFINITY PREDICTED BY RF-SCORE:    0.00 PKD
ROOT
HETATM    1  C   UNL     1      -6.475   6.798  67.684  1.00  0.00    -0.049 C  
HETATM    2  O   UNL     2     -10.812   5.294  69.778  1.00  0.00    -0.235 OA 
HETATM    3  N   UNL     1      -7.519   6.212  68.587  1.00  0.00    -0.086 N  
HETATM    4  O   UNL     2      -9.211   8.069  70.875  1.00  0.00    -0.146 OA 
HETATM    5  H   UNL     2     -11.049   6.128  69.391  1.00  0.00     0.000 HD 
HETATM    6  C   UNL     1      -8.801   7.023  68.324  1.00  0.00    -0.126 C  
HETATM    7  C   UNL     1      -7.060   6.460  70.040  1.00  0.00    -0.071 C  
HETATM    8  C   UNL     2     -10.197   5.342  71.027  1.00  0.00    -0.229 A  
HETATM    9  O   UNL     2     -11.078   8.732  71.950  1.00  0.00    -0.318 OA 
HETATM   10  C   UNL     2      -9.854   4.137  71.586  1.00  0.00    -0.254 A  
HETATM   11  C   UNL     2     -10.302   7.852  71.492  1.00  0.00    -0.201 C  
HETATM   12  C   UNL     2     -10.499   3.790  72.764  1.00  0.00    -0.222 A  
HETATM   13  C   UNL     2     -11.352   4.711  73.367  1.00  0.00    -0.394 A  
HETATM   14  C   UNL     2     -10.641   6.401  71.818  1.00  0.00    -0.256 A  
HETATM   15  C   UNL     2     -11.343   6.040  72.946  1.00  0.00    -0.233 A  
ENDROOT
BRANCH   3  16
HETATM   16  C   UNL     1      -7.686   4.703  68.423  1.00  0.00    -0.080 C  
BRANCH  16  17
HETATM   17  C   UNL     1      -7.872   4.181  66.986  1.00  0.00    -0.096 C  
HETATM   18  O   UNL     1      -6.638   3.732  66.448  1.00  0.00    -0.040 OA 
HETATM   19  H   UNL     1      -6.752   3.410  65.562  1.00  0.00     0.000 HD 
ENDBRANCH  16  17
ENDBRANCH   3  16
TORSDOF 2
ENDMDL
MODEL      133
REMARK 921   NORMALIZED FREE ENERGY PREDICTED BY IDOCK:   -2.57 KCAL/MOL
REMARK 922        TOTAL FREE ENERGY PREDICTED BY IDOCK:   -3.05 KCAL/MOL
REMARK 923 INTER-LIGAND FREE ENERGY PREDICTED BY IDOCK:   -2.86 KCAL/MOL
REMARK 924 INTRA-LIGAND FREE ENERGY PREDICTED BY IDOCK:   -0.19 KCAL/MOL
REMARK 927      BINDING AFFINITY PREDICTED BY RF-SCORE:    0.00 PKD
ROOT
HETATM    1  C   UNL     1      -7.585   4.517  74.194  1.00  0.00    -0.085 C  
HETATM    2  O   UNL     2      -8.433   7.102  69.944  1.00  0.00    -0.137 OA 
HETATM    3  N   UNL     1      -7.874   4.920  72.778  1.00  0.00    -0.093 N  
HETATM    4  O   UNL     2     -10.989   5.760  71.713  1.00  0.00    -0.258 OA 
HETATM    5  H   UNL     2      -8.854   7.643  70.601  1.00  0.00     0.000 HD 
HETATM    6  C   UNL     1      -8.513   6.318  72.864  1.00  0.00    -0.118 C  
HETATM    7  C   UNL     1      -8.917   3.926  72.222  1.00  0.00    -0.109 C  
HETATM    8  C   UNL     2      -9.172   6.022  69.464  1.00  0.00    -0.136 A  
HETATM    9  O   UNL     2     -12.457   7.052  70.591  1.00  0.00    -0.295 OA 
HETATM   10  C   UNL     2      -8.565   5.240  68.515  1.00  0.00    -0.094 A  
HETATM   11  C   UNL     2     -11.383   6.401  70.687  1.00  0.00    -0.357 C  
HETATM   12  C   UNL     2      -9.149   5.218  67.258  1.00  0.00    -0.112 A  
HETATM   13  C   UNL     2     -10.357   5.881  67.060  1.00  0.00    -0.298 A  
HETATM   14  C   UNL     2     -10.543   6.271  69.421  1.00  0.00    -0.330 A  
HETATM   15  C   UNL     2     -11.094   6.318  68.160  1.00  0.00    -0.364 A  
ENDROOT
BRANCH   3  16
HETATM   16  C   UNL     1      -6.654   4.843  71.864  1.00  0.00    -0.039 C  
BRANCH  16  17
HETATM   17  C   UNL     1      -6.402   3.496  71.160  1.00  0.00    -0.019 C  
HETATM   18  O   UNL     1      -5.732   3.690  69.923  1.00  0.00    -0.016 OA 
HETATM   19  H   UNL     1      -5.577   2.860  69.489  1.00  0.00     0.000 HD 
ENDBRANCH  16  17
ENDBRANCH   3  16
TORSDOF 2
ENDMDL
MODEL      134
REMARK 921   NORMALIZED FREE ENERGY PREDICTED BY IDOCK:   -2.52 KCAL/MOL
REMARK 922        TOTAL FREE ENERGY PREDICTED BY IDOCK:   -3.00 KCAL/MOL
REMARK 923 INTER-LIGAND FREE ENERGY PREDICTED BY IDOCK:   -2.82 KCAL/MOL
REMARK 924 INTRA-LIGAND FREE ENERGY PREDICTED BY IDOCK:   -0.18 KCAL/MOL
REMARK 927      BINDING AFFINITY PREDICTED BY RF-SCORE:    0.00 PKD
ROOT
HETATM    1  C   UNL     1     -11.052   8.284  71.680  1.00  0.00    -0.265 C  
HETATM    2  O   UNL     2      -7.286   8.457  68.327  1.00  0.00    -0.082 OA 
HETATM    3  N   UNL     1     -10.233   8.306  70.424  1.00  0.00    -0.198 N  
HETATM    4  O   UNL     2      -9.169  11.193  68.982  1.00  0.00    -0.140 OA 
HETATM    5  H   UNL     2      -6.986   9.053  69.003  1.00  0.00     0.000 HD 
HETATM    6  C   UNL     1      -8.946   9.074  70.778  1.00  0.00    -0.236 C  
HETATM    7  C   UNL     1     -11.024   9.115  69.373  1.00  0.00    -0.092 C  
HETATM    8  C   UNL     2      -8.176   8.977  67.390  1.00  0.00    -0.108 A  
HETATM    9  O   UNL     2      -7.623  12.505  67.997  1.00  0.00    -0.105 OA 
HETATM   10  C   UNL     2      -8.608   8.116  66.414  1.00  0.00    -0.150 A  
HETATM   11  C   UNL     2      -8.247  11.420  68.135  1.00  0.00    -0.143 C  
HETATM   12  C   UNL     2      -8.247   8.420  65.110  1.00  0.00    -0.158 A  
HETATM   13  C   UNL     2      -7.582   9.615  64.851  1.00  0.00    -0.117 A  
HETATM   14  C   UNL     2      -7.956  10.326  67.113  1.00  0.00    -0.114 A  
HETATM   15  C   UNL     2      -7.528  10.603  65.834  1.00  0.00    -0.131 A  
ENDROOT
BRANCH   3  16
HETATM   16  C   UNL     1      -9.993   6.920  69.831  1.00  0.00    -0.176 C  
BRANCH  16  17
HETATM   17  C   UNL     1     -11.157   6.296  69.039  1.00  0.00    -0.378 C  
HETATM   18  O   UNL     1     -10.681   5.641  67.873  1.00  0.00    -0.223 OA 
HETATM   19  H   UNL     1     -11.399   5.256  67.384  1.00  0.00     0.000 HD 
ENDBRANCH  16  17
ENDBRANCH   3  16
TORSDOF 2
ENDMDL
MODEL      135
REMARK 921   NORMALIZED FREE ENERGY PREDICTED BY IDOCK:   -2.50 KCAL/MOL
REMARK 922        TOTAL FREE ENERGY PREDICTED BY IDOCK:   -2.98 KCAL/MOL
REMARK 923 INTER-LIGAND FREE ENERGY PREDICTED BY IDOCK:   -2.60 KCAL/MOL
REMARK 924 INTRA-LIGAND FREE ENERGY PREDICTED BY IDOCK:   -0.38 KCAL/MOL
REMARK 927      BINDING AFFINITY PREDICTED BY RF-SCORE:    0.00 PKD
ROOT
HETATM    1  C   UNL     1      -7.262   8.450  72.655  1.00  0.00    -0.077 C  
HETATM    2  O   UNL     2     -10.443   5.133  70.573  1.00  0.00    -0.258 OA 
HETATM    3  N   UNL     1      -7.923   7.445  71.759  1.00  0.00    -0.090 N  
HETATM    4  O   UNL     2      -7.724   4.096  72.303  1.00  0.00    -0.076 OA 
HETATM    5  H   UNL     2     -10.545   4.959  71.501  1.00  0.00     0.000 HD 
HETATM    6  C   UNL     1      -8.850   6.619  72.670  1.00  0.00    -0.123 C  
HETATM    7  C   UNL     1      -6.814   6.522  71.207  1.00  0.00    -0.059 C  
HETATM    8  C   UNL     2      -9.359   4.526  69.943  1.00  0.00    -0.148 A  
HETATM    9  O   UNL     2      -8.593   2.021  72.446  1.00  0.00    -0.060 OA 
HETATM   10  C   UNL     2      -9.213   4.776  68.602  1.00  0.00    -0.168 A  
HETATM   11  C   UNL     2      -8.432   3.131  71.872  1.00  0.00    -0.072 C  
HETATM   12  C   UNL     2      -9.341   3.691  67.748  1.00  0.00    -0.242 A  
HETATM   13  C   UNL     2      -9.490   2.416  68.287  1.00  0.00    -0.222 A  
HETATM   14  C   UNL     2      -9.038   3.280  70.481  1.00  0.00    -0.192 A  
HETATM   15  C   UNL     2      -9.240   2.206  69.643  1.00  0.00    -0.178 A  
ENDROOT
BRANCH   3  16
HETATM   16  C   UNL     1      -8.621   8.071  70.555  1.00  0.00    -0.134 C  
BRANCH  16  17
HETATM   17  C   UNL     1     -10.115   8.410  70.722  1.00  0.00    -0.193 C  
HETATM   18  O   UNL     1     -10.879   7.864  69.658  1.00  0.00    -0.309 OA 
HETATM   19  H   UNL     1     -11.800   8.073  69.760  1.00  0.00     0.000 HD 
ENDBRANCH  16  17
ENDBRANCH   3  16
TORSDOF 2
ENDMDL
MODEL      136
REMARK 921   NORMALIZED FREE ENERGY PREDICTED BY IDOCK:   -2.49 KCAL/MOL
REMARK 922        TOTAL FREE ENERGY PREDICTED BY IDOCK:   -2.97 KCAL/MOL
REMARK 923 INTER-LIGAND FREE ENERGY PREDICTED BY IDOCK:   -2.87 KCAL/MOL
REMARK 924 INTRA-LIGAND FREE ENERGY PREDICTED BY IDOCK:   -0.10 KCAL/MOL
REMARK 927      BINDING AFFINITY PREDICTED BY RF-SCORE:    0.00 PKD
ROOT
HETATM    1  C   UNL     1      -6.284  17.838  65.474  1.00  0.00    -0.015 C  
HETATM    2  O   UNL     2      -8.267  16.039  69.750  1.00  0.00     0.001 OA 
HETATM    3  N   UNL     1      -7.204  17.472  66.600  1.00  0.00    -0.209 N  
HETATM    4  O   UNL     2      -8.741  14.448  66.799  1.00  0.00    -0.223 OA 
HETATM    5  H   UNL     2      -7.652  15.357  69.507  1.00  0.00     0.000 HD 
HETATM    6  C   UNL     1      -6.611  16.195  67.224  1.00  0.00    -0.196 C  
HETATM    7  C   UNL     1      -8.577  17.135  65.981  1.00  0.00    -0.105 C  
HETATM    8  C   UNL     2      -9.513  16.001  69.127  1.00  0.00    -0.253 A  
HETATM    9  O   UNL     2      -9.415  12.596  67.894  1.00  0.00    -0.191 OA 
HETATM   10  C   UNL     2     -10.402  16.985  69.479  1.00  0.00    -0.156 A  
HETATM   11  C   UNL     2      -9.284  13.844  67.778  1.00  0.00    -0.197 C  
HETATM   12  C   UNL     2     -11.561  16.577  70.122  1.00  0.00     0.164 A  
HETATM   13  C   UNL     2     -11.812  15.216  70.270  1.00  0.00    -0.352 A  
HETATM   14  C   UNL     2      -9.948  14.706  68.846  1.00  0.00    -0.228 A  
HETATM   15  C   UNL     2     -11.058  14.292  69.548  1.00  0.00    -0.244 A  
ENDROOT
BRANCH   3  16
HETATM   16  C   UNL     1      -7.430  18.608  67.594  1.00  0.00    -0.229 C  
BRANCH  16  17
HETATM   17  C   UNL     1      -6.642  19.909  67.347  1.00  0.00    -0.206 C  
HETATM   18  O   UNL     1      -7.373  21.037  67.803  1.00  0.00    -0.233 OA 
HETATM   19  H   UNL     1      -6.887  21.839  67.650  1.00  0.00     0.000 HD 
ENDBRANCH  16  17
ENDBRANCH   3  16
TORSDOF 2
ENDMDL
MODEL      137
REMARK 921   NORMALIZED FREE ENERGY PREDICTED BY IDOCK:   -2.48 KCAL/MOL
REMARK 922        TOTAL FREE ENERGY PREDICTED BY IDOCK:   -2.96 KCAL/MOL
REMARK 923 INTER-LIGAND FREE ENERGY PREDICTED BY IDOCK:   -2.84 KCAL/MOL
REMARK 924 INTRA-LIGAND FREE ENERGY PREDICTED BY IDOCK:   -0.12 KCAL/MOL
REMARK 927      BINDING AFFINITY PREDICTED BY RF-SCORE:    0.00 PKD
ROOT
HETATM    1  C   UNL     1      -8.063   8.569  66.337  1.00  0.00    -0.103 C  
HETATM    2  O   UNL     2      -9.865   6.759  70.689  1.00  0.00    -0.179 OA 
HETATM    3  N   UNL     1      -8.332   7.744  67.561  1.00  0.00    -0.120 N  
HETATM    4  O   UNL     2      -6.922   8.429  70.576  1.00  0.00    -0.036 OA 
HETATM    5  H   UNL     2      -9.879   7.697  70.835  1.00  0.00     0.000 HD 
HETATM    6  C   UNL     1      -8.879   8.726  68.614  1.00  0.00    -0.138 C  
HETATM    7  C   UNL     1      -6.975   7.192  68.050  1.00  0.00    -0.079 C  
HETATM    8  C   UNL     2      -8.647   6.116  70.897  1.00  0.00    -0.132 A  
HETATM    9  O   UNL     2      -6.977   8.696  72.814  1.00  0.00    -0.254 OA 
HETATM   10  C   UNL     2      -8.628   4.760  70.686  1.00  0.00    -0.118 A  
HETATM   11  C   UNL     2      -7.240   8.069  71.754  1.00  0.00    -0.077 C  
HETATM   12  C   UNL     2      -8.370   3.961  71.789  1.00  0.00    -0.087 A  
HETATM   13  C   UNL     2      -8.037   4.562  72.999  1.00  0.00    -0.096 A  
HETATM   14  C   UNL     2      -7.886   6.696  71.911  1.00  0.00    -0.098 A  
HETATM   15  C   UNL     2      -7.701   5.915  73.030  1.00  0.00    -0.103 A  
ENDROOT
BRANCH   3  16
HETATM   16  C   UNL     1      -9.233   6.541  67.296  1.00  0.00    -0.120 C  
BRANCH  16  17
HETATM   17  C   UNL     1     -10.713   6.841  66.989  1.00  0.00    -0.365 C  
HETATM   18  O   UNL     1     -11.305   5.774  66.265  1.00  0.00    -0.733 OA 
HETATM   19  H   UNL     1     -12.217   5.958  66.075  1.00  0.00     0.000 HD 
ENDBRANCH  16  17
ENDBRANCH   3  16
TORSDOF 2
ENDMDL
MODEL      138
REMARK 921   NORMALIZED FREE ENERGY PREDICTED BY IDOCK:   -2.45 KCAL/MOL
REMARK 922        TOTAL FREE ENERGY PREDICTED BY IDOCK:   -2.93 KCAL/MOL
REMARK 923 INTER-LIGAND FREE ENERGY PREDICTED BY IDOCK:   -2.80 KCAL/MOL
REMARK 924 INTRA-LIGAND FREE ENERGY PREDICTED BY IDOCK:   -0.12 KCAL/MOL
REMARK 927      BINDING AFFINITY PREDICTED BY RF-SCORE:    0.00 PKD
ROOT
HETATM    1  C   UNL     1      -9.012   9.897  64.915  1.00  0.00    -0.207 C  
HETATM    2  O   UNL     2      -7.474   7.060  68.793  1.00  0.00    -0.094 OA 
HETATM    3  N   UNL     1      -8.548   9.405  66.253  1.00  0.00    -0.129 N  
HETATM    4  O   UNL     2     -10.678   8.134  68.576  1.00  0.00    -0.139 OA 
HETATM    5  H   UNL     2      -8.106   6.495  68.363  1.00  0.00     0.000 HD 
HETATM    6  C   UNL     1      -9.017   7.942  66.346  1.00  0.00    -0.166 C  
HETATM    7  C   UNL     1      -9.284  10.235  67.328  1.00  0.00    -0.141 C  
HETATM    8  C   UNL     2      -7.989   8.016  69.665  1.00  0.00    -0.117 A  
HETATM    9  O   UNL     2     -11.300   6.622  70.128  1.00  0.00    -0.327 OA 
HETATM   10  C   UNL     2      -7.077   8.832  70.286  1.00  0.00    -0.045 A  
HETATM   11  C   UNL     2     -10.469   7.407  69.599  1.00  0.00    -0.232 C  
HETATM   12  C   UNL     2      -6.986   8.729  71.665  1.00  0.00    -0.085 A  
HETATM   13  C   UNL     2      -7.883   7.910  72.345  1.00  0.00    -0.144 A  
HETATM   14  C   UNL     2      -9.142   7.594  70.326  1.00  0.00    -0.149 A  
HETATM   15  C   UNL     2      -9.013   7.426  71.687  1.00  0.00    -0.133 A  
ENDROOT
BRANCH   3  16
HETATM   16  C   UNL     1      -7.052   9.601  66.487  1.00  0.00    -0.089 C  
BRANCH  16  17
HETATM   17  C   UNL     1      -6.233  10.144  65.301  1.00  0.00    -0.118 C  
HETATM   18  O   UNL     1      -5.615  11.377  65.636  1.00  0.00    -0.487 OA 
HETATM   19  H   UNL     1      -5.110  11.713  64.904  1.00  0.00     0.000 HD 
ENDBRANCH  16  17
ENDBRANCH   3  16
TORSDOF 2
ENDMDL
MODEL      139
REMARK 921   NORMALIZED FREE ENERGY PREDICTED BY IDOCK:   -2.43 KCAL/MOL
REMARK 922        TOTAL FREE ENERGY PREDICTED BY IDOCK:   -2.90 KCAL/MOL
REMARK 923 INTER-LIGAND FREE ENERGY PREDICTED BY IDOCK:   -2.73 KCAL/MOL
REMARK 924 INTRA-LIGAND FREE ENERGY PREDICTED BY IDOCK:   -0.17 KCAL/MOL
REMARK 927      BINDING AFFINITY PREDICTED BY RF-SCORE:    0.00 PKD
ROOT
HETATM    1  C   UNL     1     -11.626   7.003  70.902  1.00  0.00    -0.328 C  
HETATM    2  O   UNL     2      -7.883  10.112  69.566  1.00  0.00    -0.131 OA 
HETATM    3  N   UNL     1     -10.454   7.650  70.226  1.00  0.00    -0.219 N  
HETATM    4  O   UNL     2     -10.810  10.069  67.865  1.00  0.00    -0.253 OA 
HETATM    5  H   UNL     2      -8.565  10.716  69.836  1.00  0.00     0.000 HD 
HETATM    6  C   UNL     1     -10.600   9.160  70.492  1.00  0.00    -0.235 C  
HETATM    7  C   UNL     1     -10.600   7.393  68.710  1.00  0.00    -0.168 C  
HETATM    8  C   UNL     2      -7.970   9.618  68.266  1.00  0.00    -0.096 A  
HETATM    9  O   UNL     2     -10.293  12.042  66.906  1.00  0.00    -0.210 OA 
HETATM   10  C   UNL     2      -6.985   8.746  67.876  1.00  0.00    -0.078 A  
HETATM   11  C   UNL     2      -9.990  10.930  67.414  1.00  0.00    -0.186 C  
HETATM   12  C   UNL     2      -6.154   9.164  66.848  1.00  0.00    -0.061 A  
HETATM   13  C   UNL     2      -6.427  10.366  66.201  1.00  0.00    -0.111 A  
HETATM   14  C   UNL     2      -8.518  10.532  67.367  1.00  0.00    -0.122 A  
HETATM   15  C   UNL     2      -7.657  10.992  66.396  1.00  0.00    -0.135 A  
ENDROOT
BRANCH   3  16
HETATM   16  C   UNL     1      -9.109   7.066  70.649  1.00  0.00    -0.158 C  
BRANCH  16  17
HETATM   17  C   UNL     1      -8.638   5.805  69.901  1.00  0.00    -0.127 C  
HETATM   18  O   UNL     1      -9.190   4.635  70.485  1.00  0.00    -0.116 OA 
HETATM   19  H   UNL     1      -8.899   3.857  70.024  1.00  0.00     0.000 HD 
ENDBRANCH  16  17
ENDBRANCH   3  16
TORSDOF 2
ENDMDL
MODEL      140
REMARK 921   NORMALIZED FREE ENERGY PREDICTED BY IDOCK:   -2.39 KCAL/MOL
REMARK 922        TOTAL FREE ENERGY PREDICTED BY IDOCK:   -2.86 KCAL/MOL
REMARK 923 INTER-LIGAND FREE ENERGY PREDICTED BY IDOCK:   -2.76 KCAL/MOL
REMARK 924 INTRA-LIGAND FREE ENERGY PREDICTED BY IDOCK:   -0.09 KCAL/MOL
REMARK 927      BINDING AFFINITY PREDICTED BY RF-SCORE:    0.00 PKD
ROOT
HETATM    1  C   UNL     1      -7.921   6.378  72.690  1.00  0.00    -0.104 C  
HETATM    2  O   UNL     2     -10.498   6.529  68.354  1.00  0.00    -0.177 OA 
HETATM    3  N   UNL     1      -8.564   6.801  71.403  1.00  0.00    -0.124 N  
HETATM    4  O   UNL     2      -7.122   6.266  68.373  1.00  0.00    -0.077 OA 
HETATM    5  H   UNL     2     -10.118   5.659  68.337  1.00  0.00     0.000 HD 
HETATM    6  C   UNL     1      -8.686   5.521  70.556  1.00  0.00    -0.135 C  
HETATM    7  C   UNL     1      -7.591   7.773  70.701  1.00  0.00    -0.078 C  
HETATM    8  C   UNL     2      -9.678   7.573  67.932  1.00  0.00    -0.146 A  
HETATM    9  O   UNL     2      -7.151   5.630  66.210  1.00  0.00    -0.068 OA 
HETATM   10  C   UNL     2     -10.226   8.830  67.956  1.00  0.00    -0.264 A  
HETATM   11  C   UNL     2      -7.611   6.261  67.198  1.00  0.00    -0.096 C  
HETATM   12  C   UNL     2     -10.377   9.468  66.735  1.00  0.00    -0.298 A  
HETATM   13  C   UNL     2      -9.871   8.865  65.586  1.00  0.00     0.006 A  
HETATM   14  C   UNL     2      -8.784   7.197  66.928  1.00  0.00    -0.126 A  
HETATM   15  C   UNL     2      -8.995   7.786  65.702  1.00  0.00    -0.050 A  
ENDROOT
BRANCH   3  16
HETATM   16  C   UNL     1      -9.879   7.551  71.599  1.00  0.00    -0.161 C  
BRANCH  16  17
HETATM   17  C   UNL     1     -10.825   7.013  72.689  1.00  0.00    -0.270 C  
HETATM   18  O   UNL     1     -11.755   8.008  73.087  1.00  0.00    -0.592 OA 
HETATM   19  H   UNL     1     -12.339   7.677  73.760  1.00  0.00     0.000 HD 
ENDBRANCH  16  17
ENDBRANCH   3  16
TORSDOF 2
ENDMDL
MODEL      141
REMARK 921   NORMALIZED FREE ENERGY PREDICTED BY IDOCK:   -2.37 KCAL/MOL
REMARK 922        TOTAL FREE ENERGY PREDICTED BY IDOCK:   -2.84 KCAL/MOL
REMARK 923 INTER-LIGAND FREE ENERGY PREDICTED BY IDOCK:   -2.70 KCAL/MOL
REMARK 924 INTRA-LIGAND FREE ENERGY PREDICTED BY IDOCK:   -0.14 KCAL/MOL
REMARK 927      BINDING AFFINITY PREDICTED BY RF-SCORE:    0.00 PKD
ROOT
HETATM    1  C   UNL     1     -11.511  10.982  69.196  1.00  0.00    -0.301 C  
HETATM    2  O   UNL     2      -6.990   8.819  68.613  1.00  0.00    -0.062 OA 
HETATM    3  N   UNL     1     -10.388  10.033  68.898  1.00  0.00    -0.191 N  
HETATM    4  O   UNL     2      -8.674  10.091  65.965  1.00  0.00    -0.134 OA 
HETATM    5  H   UNL     2      -6.819   9.721  68.367  1.00  0.00     0.000 HD 
HETATM    6  C   UNL     1      -9.168  10.917  68.580  1.00  0.00    -0.187 C  
HETATM    7  C   UNL     1     -10.779   9.245  67.628  1.00  0.00    -0.209 C  
HETATM    8  C   UNL     2      -7.536   8.000  67.627  1.00  0.00    -0.102 A  
HETATM    9  O   UNL     2      -6.788  10.041  64.730  1.00  0.00    -0.123 OA 
HETATM   10  C   UNL     2      -7.782   6.697  67.982  1.00  0.00    -0.108 A  
HETATM   11  C   UNL     2      -7.540   9.611  65.644  1.00  0.00    -0.107 C  
HETATM   12  C   UNL     2      -7.056   5.722  67.316  1.00  0.00    -0.074 A  
HETATM   13  C   UNL     2      -6.221   6.095  66.267  1.00  0.00    -0.037 A  
HETATM   14  C   UNL     2      -7.107   8.325  66.341  1.00  0.00    -0.071 A  
HETATM   15  C   UNL     2      -6.325   7.375  65.723  1.00  0.00    -0.041 A  
ENDROOT
BRANCH   3  16
HETATM   16  C   UNL     1     -10.150   9.008  70.003  1.00  0.00    -0.196 C  
BRANCH  16  17
HETATM   17  C   UNL     1     -11.375   8.597  70.841  1.00  0.00    -0.272 C  
HETATM   18  O   UNL     1     -11.881   7.342  70.414  1.00  0.00    -0.481 OA 
HETATM   19  H   UNL     1     -12.638   7.089  70.930  1.00  0.00     0.000 HD 
ENDBRANCH  16  17
ENDBRANCH   3  16
TORSDOF 2
ENDMDL
MODEL      142
REMARK 921   NORMALIZED FREE ENERGY PREDICTED BY IDOCK:   -2.34 KCAL/MOL
REMARK 922        TOTAL FREE ENERGY PREDICTED BY IDOCK:   -2.80 KCAL/MOL
REMARK 923 INTER-LIGAND FREE ENERGY PREDICTED BY IDOCK:   -2.68 KCAL/MOL
REMARK 924 INTRA-LIGAND FREE ENERGY PREDICTED BY IDOCK:   -0.12 KCAL/MOL
REMARK 927      BINDING AFFINITY PREDICTED BY RF-SCORE:    0.00 PKD
ROOT
HETATM    1  C   UNL     1      -6.079   2.374  71.396  1.00  0.00    -0.014 C  
HETATM    2  O   UNL     2      -8.431   6.741  70.470  1.00  0.00    -0.134 OA 
HETATM    3  N   UNL     1      -7.099   3.437  71.116  1.00  0.00    -0.032 N  
HETATM    4  O   UNL     2      -8.451   5.367  73.565  1.00  0.00    -0.113 OA 
HETATM    5  H   UNL     2      -7.748   7.000  71.078  1.00  0.00     0.000 HD 
HETATM    6  C   UNL     1      -6.503   4.744  71.671  1.00  0.00    -0.023 C  
HETATM    7  C   UNL     1      -8.366   3.082  71.925  1.00  0.00    -0.058 C  
HETATM    8  C   UNL     2      -9.590   6.207  71.029  1.00  0.00    -0.175 A  
HETATM    9  O   UNL     2      -9.128   7.330  74.442  1.00  0.00    -0.221 OA 
HETATM   10  C   UNL     2     -10.576   5.833  70.152  1.00  0.00    -0.377 A  
HETATM   11  C   UNL     2      -9.065   6.480  73.515  1.00  0.00    -0.126 C  
HETATM   12  C   UNL     2     -11.773   6.528  70.226  1.00  0.00    -0.430 A  
HETATM   13  C   UNL     2     -11.951   7.466  71.239  1.00  0.00    -0.343 A  
HETATM   14  C   UNL     2      -9.904   6.757  72.272  1.00  0.00    -0.166 A  
HETATM   15  C   UNL     2     -11.059   7.505  72.310  1.00  0.00    -0.319 A  
ENDROOT
BRANCH   3  16
HETATM   16  C   UNL     1      -7.513   3.510  69.649  1.00  0.00    -0.045 C  
BRANCH  16  17
HETATM   17  C   UNL     1      -6.626   4.363  68.722  1.00  0.00    -0.045 C  
HETATM   18  O   UNL     1      -6.990   4.177  67.363  1.00  0.00    -0.057 OA 
HETATM   19  H   UNL     1      -6.443   4.703  66.791  1.00  0.00     0.000 HD 
ENDBRANCH  16  17
ENDBRANCH   3  16
TORSDOF 2
ENDMDL
MODEL      143
REMARK 921   NORMALIZED FREE ENERGY PREDICTED BY IDOCK:   -2.29 KCAL/MOL
REMARK 922        TOTAL FREE ENERGY PREDICTED BY IDOCK:   -2.75 KCAL/MOL
REMARK 923 INTER-LIGAND FREE ENERGY PREDICTED BY IDOCK:   -2.66 KCAL/MOL
REMARK 924 INTRA-LIGAND FREE ENERGY PREDICTED BY IDOCK:   -0.10 KCAL/MOL
REMARK 927      BINDING AFFINITY PREDICTED BY RF-SCORE:    0.00 PKD
ROOT
HETATM    1  C   UNL     1      -8.677   9.118  65.913  1.00  0.00    -0.158 C  
HETATM    2  O   UNL     2      -9.031   8.970  70.944  1.00  0.00    -0.205 OA 
HETATM    3  N   UNL     1      -8.568   8.742  67.361  1.00  0.00    -0.125 N  
HETATM    4  O   UNL     2      -6.210  10.060  69.422  1.00  0.00    -0.043 OA 
HETATM    5  H   UNL     2      -8.948   9.900  70.771  1.00  0.00     0.000 HD 
HETATM    6  C   UNL     1      -8.687  10.062  68.145  1.00  0.00    -0.122 C  
HETATM    7  C   UNL     1      -7.156   8.157  67.578  1.00  0.00    -0.083 C  
HETATM    8  C   UNL     2      -7.846   8.238  70.981  1.00  0.00    -0.096 A  
HETATM    9  O   UNL     2      -5.510  10.980  71.357  1.00  0.00    -0.298 OA 
HETATM   10  C   UNL     2      -7.966   6.894  71.231  1.00  0.00    -0.108 A  
HETATM   11  C   UNL     2      -6.139  10.116  70.691  1.00  0.00    -0.106 C  
HETATM   12  C   UNL     2      -7.399   6.426  72.407  1.00  0.00    -0.088 A  
HETATM   13  C   UNL     2      -6.655   7.298  73.196  1.00  0.00    -0.064 A  
HETATM   14  C   UNL     2      -6.765   8.967  71.474  1.00  0.00    -0.081 A  
HETATM   15  C   UNL     2      -6.261   8.532  72.680  1.00  0.00    -0.087 A  
ENDROOT
BRANCH   3  16
HETATM   16  C   UNL     1      -9.566   7.668  67.786  1.00  0.00    -0.144 C  
BRANCH  16  17
HETATM   17  C   UNL     1     -10.879   7.589  66.985  1.00  0.00    -0.194 C  
HETATM   18  O   UNL     1     -11.457   6.296  67.088  1.00  0.00    -0.652 OA 
HETATM   19  H   UNL     1     -12.267   6.247  66.594  1.00  0.00     0.000 HD 
ENDBRANCH  16  17
ENDBRANCH   3  16
TORSDOF 2
ENDMDL
MODEL      144
REMARK 921   NORMALIZED FREE ENERGY PREDICTED BY IDOCK:   -2.25 KCAL/MOL
REMARK 922        TOTAL FREE ENERGY PREDICTED BY IDOCK:   -2.70 KCAL/MOL
REMARK 923 INTER-LIGAND FREE ENERGY PREDICTED BY IDOCK:   -2.58 KCAL/MOL
REMARK 924 INTRA-LIGAND FREE ENERGY PREDICTED BY IDOCK:   -0.12 KCAL/MOL
REMARK 927      BINDING AFFINITY PREDICTED BY RF-SCORE:    0.00 PKD
ROOT
HETATM    1  C   UNL     1     -10.408   4.728  72.833  1.00  0.00    -0.185 C  
HETATM    2  O   UNL     2      -9.548   7.280  68.566  1.00  0.00    -0.140 OA 
HETATM    3  N   UNL     1      -9.919   5.703  71.804  1.00  0.00    -0.172 N  
HETATM    4  O   UNL     2      -7.309   5.025  69.736  1.00  0.00    -0.054 OA 
HETATM    5  H   UNL     2      -9.615   6.383  68.259  1.00  0.00     0.000 HD 
HETATM    6  C   UNL     1     -10.001   4.962  70.456  1.00  0.00    -0.241 C  
HETATM    7  C   UNL     1      -8.437   6.001  72.121  1.00  0.00    -0.124 C  
HETATM    8  C   UNL     2      -8.311   7.669  69.077  1.00  0.00    -0.128 A  
HETATM    9  O   UNL     2      -6.284   4.987  67.728  1.00  0.00    -0.035 OA 
HETATM   10  C   UNL     2      -8.213   8.964  69.520  1.00  0.00    -0.107 A  
HETATM   11  C   UNL     2      -6.948   5.553  68.636  1.00  0.00    -0.060 C  
HETATM   12  C   UNL     2      -7.336   9.792  68.837  1.00  0.00    -0.073 A  
HETATM   13  C   UNL     2      -6.532   9.251  67.837  1.00  0.00    -0.059 A  
HETATM   14  C   UNL     2      -7.236   7.040  68.452  1.00  0.00    -0.088 A  
HETATM   15  C   UNL     2      -6.415   7.867  67.717  1.00  0.00    -0.052 A  
ENDROOT
BRANCH   3  16
HETATM   16  C   UNL     1     -10.658   7.038  71.832  1.00  0.00    -0.214 C  
BRANCH  16  17
HETATM   17  C   UNL     1     -12.195   6.976  71.902  1.00  0.00    -0.327 C  
HETATM   18  O   UNL     1     -12.781   7.833  70.935  1.00  0.00    -0.525 OA 
HETATM   19  H   UNL     1     -13.729   7.795  70.978  1.00  0.00     0.000 HD 
ENDBRANCH  16  17
ENDBRANCH   3  16
TORSDOF 2
ENDMDL
MODEL      145
REMARK 921   NORMALIZED FREE ENERGY PREDICTED BY IDOCK:   -2.20 KCAL/MOL
REMARK 922        TOTAL FREE ENERGY PREDICTED BY IDOCK:   -2.64 KCAL/MOL
REMARK 923 INTER-LIGAND FREE ENERGY PREDICTED BY IDOCK:   -2.47 KCAL/MOL
REMARK 924 INTRA-LIGAND FREE ENERGY PREDICTED BY IDOCK:   -0.17 KCAL/MOL
REMARK 927      BINDING AFFINITY PREDICTED BY RF-SCORE:    0.00 PKD
ROOT
HETATM    1  C   UNL     1      -6.166   7.427  71.572  1.00  0.00    -0.036 C  
HETATM    2  O   UNL     2      -9.701   9.255  68.470  1.00  0.00    -0.146 OA 
HETATM    3  N   UNL     1      -6.903   8.149  70.483  1.00  0.00    -0.037 N  
HETATM    4  O   UNL     2      -7.726   6.668  67.537  1.00  0.00    -0.105 OA 
HETATM    5  H   UNL     2     -10.011   8.374  68.638  1.00  0.00     0.000 HD 
HETATM    6  C   UNL     1      -8.169   7.315  70.212  1.00  0.00    -0.133 C  
HETATM    7  C   UNL     1      -6.007   8.121  69.226  1.00  0.00    -0.037 C  
HETATM    8  C   UNL     2      -8.728   9.393  67.482  1.00  0.00    -0.122 A  
HETATM    9  O   UNL     2      -9.139   6.186  65.848  1.00  0.00    -0.151 OA 
HETATM   10  C   UNL     2      -8.279  10.666  67.239  1.00  0.00    -0.116 A  
HETATM   11  C   UNL     2      -8.580   6.982  66.648  1.00  0.00    -0.124 C  
HETATM   12  C   UNL     2      -8.541  11.190  65.983  1.00  0.00    -0.154 A  
HETATM   13  C   UNL     2      -9.128  10.377  65.017  1.00  0.00    -0.237 A  
HETATM   14  C   UNL     2      -8.861   8.468  66.447  1.00  0.00    -0.178 A  
HETATM   15  C   UNL     2      -9.193   8.999  65.221  1.00  0.00    -0.205 A  
ENDROOT
BRANCH   3  16
HETATM   16  C   UNL     1      -7.175   9.616  70.803  1.00  0.00    -0.055 C  
BRANCH  16  17
HETATM   17  C   UNL     1      -6.096  10.629  70.374  1.00  0.00    -0.132 C  
HETATM   18  O   UNL     1      -6.531  11.959  70.607  1.00  0.00    -0.505 OA 
HETATM   19  H   UNL     1      -5.867  12.584  70.342  1.00  0.00     0.000 HD 
ENDBRANCH  16  17
ENDBRANCH   3  16
TORSDOF 2
ENDMDL
MODEL      146
REMARK 921   NORMALIZED FREE ENERGY PREDICTED BY IDOCK:   -2.19 KCAL/MOL
REMARK 922        TOTAL FREE ENERGY PREDICTED BY IDOCK:   -2.63 KCAL/MOL
REMARK 923 INTER-LIGAND FREE ENERGY PREDICTED BY IDOCK:   -2.48 KCAL/MOL
REMARK 924 INTRA-LIGAND FREE ENERGY PREDICTED BY IDOCK:   -0.15 KCAL/MOL
REMARK 927      BINDING AFFINITY PREDICTED BY RF-SCORE:    0.00 PKD
ROOT
HETATM    1  C   UNL     1      -9.834  12.498  65.699  1.00  0.00    -0.216 C  
HETATM    2  O   UNL     2      -6.918   9.098  68.023  1.00  0.00    -0.075 OA 
HETATM    3  N   UNL     1      -9.317  11.364  66.534  1.00  0.00    -0.184 N  
HETATM    4  O   UNL     2      -8.675   8.286  65.244  1.00  0.00    -0.160 OA 
HETATM    5  H   UNL     2      -6.490   9.194  67.180  1.00  0.00     0.000 HD 
HETATM    6  C   UNL     1      -8.003  10.919  65.865  1.00  0.00    -0.105 C  
HETATM    7  C   UNL     1     -10.343  10.215  66.433  1.00  0.00    -0.188 C  
HETATM    8  C   UNL     2      -8.008   8.232  68.070  1.00  0.00    -0.123 A  
HETATM    9  O   UNL     2      -7.421   6.432  64.982  1.00  0.00    -0.074 OA 
HETATM   10  C   UNL     2      -8.626   8.093  69.287  1.00  0.00    -0.135 A  
HETATM   11  C   UNL     2      -7.972   7.321  65.683  1.00  0.00    -0.123 C  
HETATM   12  C   UNL     2      -8.574   6.837  69.873  1.00  0.00    -0.141 A  
HETATM   13  C   UNL     2      -8.013   5.780  69.162  1.00  0.00    -0.097 A  
HETATM   14  C   UNL     2      -7.889   7.151  67.196  1.00  0.00    -0.110 A  
HETATM   15  C   UNL     2      -7.765   5.919  67.797  1.00  0.00    -0.097 A  
ENDROOT
BRANCH   3  16
HETATM   16  C   UNL     1      -9.182  11.712  68.014  1.00  0.00    -0.178 C  
BRANCH  16  17
HETATM   17  C   UNL     1      -8.028  12.658  68.398  1.00  0.00    -0.134 C  
HETATM   18  O   UNL     1      -8.529  13.892  68.887  1.00  0.00    -0.339 OA 
HETATM   19  H   UNL     1      -7.817  14.476  69.124  1.00  0.00     0.000 HD 
ENDBRANCH  16  17
ENDBRANCH   3  16
TORSDOF 2
ENDMDL
MODEL      147
REMARK 921   NORMALIZED FREE ENERGY PREDICTED BY IDOCK:   -2.13 KCAL/MOL
REMARK 922        TOTAL FREE ENERGY PREDICTED BY IDOCK:   -2.57 KCAL/MOL
REMARK 923 INTER-LIGAND FREE ENERGY PREDICTED BY IDOCK:   -2.47 KCAL/MOL
REMARK 924 INTRA-LIGAND FREE ENERGY PREDICTED BY IDOCK:   -0.09 KCAL/MOL
REMARK 927      BINDING AFFINITY PREDICTED BY RF-SCORE:    0.00 PKD
ROOT
HETATM    1  C   UNL     1     -10.036   5.508  73.389  1.00  0.00    -0.176 C  
HETATM    2  O   UNL     2      -7.811   4.619  68.949  1.00  0.00    -0.071 OA 
HETATM    3  N   UNL     1      -9.748   5.273  71.936  1.00  0.00    -0.155 N  
HETATM    4  O   UNL     2      -8.733   7.751  69.845  1.00  0.00    -0.139 OA 
HETATM    5  H   UNL     2      -7.171   5.163  69.393  1.00  0.00     0.000 HD 
HETATM    6  C   UNL     1      -8.296   5.734  71.718  1.00  0.00    -0.120 C  
HETATM    7  C   UNL     1     -10.691   6.189  71.126  1.00  0.00    -0.256 C  
HETATM    8  C   UNL     2      -8.859   5.285  68.318  1.00  0.00    -0.104 A  
HETATM    9  O   UNL     2      -7.427   8.611  68.221  1.00  0.00    -0.092 OA 
HETATM   10  C   UNL     2      -9.783   4.500  67.674  1.00  0.00    -0.206 A  
HETATM   11  C   UNL     2      -8.161   7.712  68.709  1.00  0.00    -0.128 C  
HETATM   12  C   UNL     2      -9.873   4.644  66.298  1.00  0.00    -0.241 A  
HETATM   13  C   UNL     2      -9.124   5.635  65.669  1.00  0.00    -0.110 A  
HETATM   14  C   UNL     2      -8.491   6.529  67.805  1.00  0.00    -0.118 A  
HETATM   15  C   UNL     2      -8.516   6.631  66.432  1.00  0.00    -0.125 A  
ENDROOT
BRANCH   3  16
HETATM   16  C   UNL     1     -10.025   3.840  71.487  1.00  0.00    -0.124 C  
BRANCH  16  17
HETATM   17  C   UNL     1      -9.816   2.734  72.538  1.00  0.00    -0.147 C  
HETATM   18  O   UNL     1     -10.473   1.537  72.149  1.00  0.00    -0.161 OA 
HETATM   19  H   UNL     1     -10.344   0.855  72.797  1.00  0.00     0.000 HD 
ENDBRANCH  16  17
ENDBRANCH   3  16
TORSDOF 2
ENDMDL
MODEL      148
REMARK 921   NORMALIZED FREE ENERGY PREDICTED BY IDOCK:   -2.13 KCAL/MOL
REMARK 922        TOTAL FREE ENERGY PREDICTED BY IDOCK:   -2.57 KCAL/MOL
REMARK 923 INTER-LIGAND FREE ENERGY PREDICTED BY IDOCK:   -2.43 KCAL/MOL
REMARK 924 INTRA-LIGAND FREE ENERGY PREDICTED BY IDOCK:   -0.14 KCAL/MOL
REMARK 927      BINDING AFFINITY PREDICTED BY RF-SCORE:    0.00 PKD
ROOT
HETATM    1  C   UNL     1      -6.112   4.697  71.695  1.00  0.00    -0.018 C  
HETATM    2  O   UNL     2     -10.283   6.547  69.541  1.00  0.00    -0.174 OA 
HETATM    3  N   UNL     1      -7.269   5.560  71.286  1.00  0.00    -0.070 N  
HETATM    4  O   UNL     2      -7.207   7.501  68.497  1.00  0.00    -0.084 OA 
HETATM    5  H   UNL     2      -9.883   6.061  68.830  1.00  0.00     0.000 HD 
HETATM    6  C   UNL     1      -7.641   5.110  69.861  1.00  0.00    -0.064 C  
HETATM    7  C   UNL     1      -6.758   7.016  71.232  1.00  0.00    -0.059 C  
HETATM    8  C   UNL     2      -9.798   7.834  69.764  1.00  0.00    -0.178 A  
HETATM    9  O   UNL     2      -8.099   8.342  66.606  1.00  0.00    -0.099 OA 
HETATM   10  C   UNL     2     -10.377   8.535  70.792  1.00  0.00    -0.238 A  
HETATM   11  C   UNL     2      -8.145   8.041  67.828  1.00  0.00    -0.128 C  
HETATM   12  C   UNL     2     -11.077   9.681  70.447  1.00  0.00    -0.346 A  
HETATM   13  C   UNL     2     -11.059  10.115  69.125  1.00  0.00    -0.257 A  
HETATM   14  C   UNL     2      -9.387   8.476  68.597  1.00  0.00    -0.142 A  
HETATM   15  C   UNL     2     -10.140   9.570  68.230  1.00  0.00    -0.210 A  
ENDROOT
BRANCH   3  16
HETATM   16  C   UNL     1      -8.429   5.531  72.277  1.00  0.00    -0.122 C  
BRANCH  16  17
HETATM   17  C   UNL     1      -9.469   4.409  72.090  1.00  0.00    -0.134 C  
HETATM   18  O   UNL     1      -9.627   3.663  73.287  1.00  0.00    -0.107 OA 
HETATM   19  H   UNL     1     -10.268   2.971  73.173  1.00  0.00     0.000 HD 
ENDBRANCH  16  17
ENDBRANCH   3  16
TORSDOF 2
ENDMDL
MODEL      149
REMARK 921   NORMALIZED FREE ENERGY PREDICTED BY IDOCK:   -2.05 KCAL/MOL
REMARK 922        TOTAL FREE ENERGY PREDICTED BY IDOCK:   -2.48 KCAL/MOL
REMARK 923 INTER-LIGAND FREE ENERGY PREDICTED BY IDOCK:   -2.34 KCAL/MOL
REMARK 924 INTRA-LIGAND FREE ENERGY PREDICTED BY IDOCK:   -0.14 KCAL/MOL
REMARK 927      BINDING AFFINITY PREDICTED BY RF-SCORE:    0.00 PKD
ROOT
HETATM    1  C   UNL     1     -11.830   7.381  71.881  1.00  0.00    -0.297 C  
HETATM    2  O   UNL     2      -6.937   7.133  70.675  1.00  0.00    -0.056 OA 
HETATM    3  N   UNL     1     -10.523   7.259  71.156  1.00  0.00    -0.210 N  
HETATM    4  O   UNL     2      -8.723   9.964  70.162  1.00  0.00    -0.200 OA 
HETATM    5  H   UNL     2      -6.946   7.787  71.365  1.00  0.00     0.000 HD 
HETATM    6  C   UNL     1      -9.499   8.028  72.011  1.00  0.00    -0.197 C  
HETATM    7  C   UNL     1     -10.682   7.978  69.799  1.00  0.00    -0.231 C  
HETATM    8  C   UNL     2      -7.255   7.579  69.394  1.00  0.00    -0.082 A  
HETATM    9  O   UNL     2      -6.812  11.136  69.917  1.00  0.00    -0.137 OA 
HETATM   10  C   UNL     2      -7.242   6.635  68.398  1.00  0.00    -0.085 A  
HETATM   11  C   UNL     2      -7.500  10.085  69.829  1.00  0.00    -0.151 C  
HETATM   12  C   UNL     2      -6.300   6.800  67.395  1.00  0.00    -0.044 A  
HETATM   13  C   UNL     2      -5.512   7.949  67.387  1.00  0.00    -0.036 A  
HETATM   14  C   UNL     2      -6.843   8.888  69.149  1.00  0.00    -0.055 A  
HETATM   15  C   UNL     2      -5.854   9.027  68.202  1.00  0.00    -0.039 A  
ENDROOT
BRANCH   3  16
HETATM   16  C   UNL     1     -10.129   5.816  70.853  1.00  0.00    -0.199 C  
BRANCH  16  17
HETATM   17  C   UNL     1      -9.621   4.974  72.039  1.00  0.00    -0.156 C  
HETATM   18  O   UNL     1     -10.177   3.669  72.008  1.00  0.00    -0.161 OA 
HETATM   19  H   UNL     1      -9.865   3.150  72.739  1.00  0.00     0.000 HD 
ENDBRANCH  16  17
ENDBRANCH   3  16
TORSDOF 2
ENDMDL
MODEL      150
REMARK 921   NORMALIZED FREE ENERGY PREDICTED BY IDOCK:   -1.99 KCAL/MOL
REMARK 922        TOTAL FREE ENERGY PREDICTED BY IDOCK:   -2.41 KCAL/MOL
REMARK 923 INTER-LIGAND FREE ENERGY PREDICTED BY IDOCK:   -2.23 KCAL/MOL
REMARK 924 INTRA-LIGAND FREE ENERGY PREDICTED BY IDOCK:   -0.17 KCAL/MOL
REMARK 927      BINDING AFFINITY PREDICTED BY RF-SCORE:    0.00 PKD
ROOT
HETATM    1  C   UNL     1     -10.519   5.984  68.979  1.00  0.00    -0.256 C  
HETATM    2  O   UNL     2      -9.020   9.933  66.220  1.00  0.00    -0.141 OA 
HETATM    3  N   UNL     1      -9.936   7.284  68.511  1.00  0.00    -0.157 N  
HETATM    4  O   UNL     2      -6.838   7.511  67.134  1.00  0.00    -0.067 OA 
HETATM    5  H   UNL     2      -8.887   9.205  65.625  1.00  0.00     0.000 HD 
HETATM    6  C   UNL     1      -9.589   7.074  67.025  1.00  0.00    -0.157 C  
HETATM    7  C   UNL     1      -8.630   7.514  69.302  1.00  0.00    -0.136 C  
HETATM    8  C   UNL     2      -8.009  10.168  67.149  1.00  0.00    -0.109 A  
HETATM    9  O   UNL     2      -5.365   8.242  65.592  1.00  0.00    -0.031 OA 
HETATM   10  C   UNL     2      -8.200  11.220  68.009  1.00  0.00    -0.134 A  
HETATM   11  C   UNL     2      -6.300   8.415  66.418  1.00  0.00    -0.057 C  
HETATM   12  C   UNL     2      -7.307  12.276  67.910  1.00  0.00    -0.111 A  
HETATM   13  C   UNL     2      -6.220  12.167  67.047  1.00  0.00    -0.098 A  
HETATM   14  C   UNL     2      -6.738   9.854  66.670  1.00  0.00    -0.080 A  
HETATM   15  C   UNL     2      -5.887  10.925  66.508  1.00  0.00    -0.106 A  
ENDROOT
BRANCH   3  16
HETATM   16  C   UNL     1     -10.838   8.486  68.780  1.00  0.00     0.043 C  
BRANCH  16  17
HETATM   17  C   UNL     1     -10.995   8.916  70.251  1.00  0.00    -0.241 C  
HETATM   18  O   UNL     1     -10.617  10.273  70.423  1.00  0.00    -0.395 OA 
HETATM   19  H   UNL     1     -10.713  10.539  71.330  1.00  0.00     0.000 HD 
ENDBRANCH  16  17
ENDBRANCH   3  16
TORSDOF 2
ENDMDL
MODEL      151
REMARK 921   NORMALIZED FREE ENERGY PREDICTED BY IDOCK:   -1.85 KCAL/MOL
REMARK 922        TOTAL FREE ENERGY PREDICTED BY IDOCK:   -2.25 KCAL/MOL
REMARK 923 INTER-LIGAND FREE ENERGY PREDICTED BY IDOCK:   -2.10 KCAL/MOL
REMARK 924 INTRA-LIGAND FREE ENERGY PREDICTED BY IDOCK:   -0.15 KCAL/MOL
REMARK 927      BINDING AFFINITY PREDICTED BY RF-SCORE:    0.00 PKD
ROOT
HETATM    1  C   UNL     1      -7.683  10.983  66.086  1.00  0.00    -0.102 C  
HETATM    2  O   UNL     2      -6.469   6.328  67.608  1.00  0.00    -0.042 OA 
HETATM    3  N   UNL     1      -7.648   9.645  66.762  1.00  0.00    -0.097 N  
HETATM    4  O   UNL     2      -8.926   6.839  65.335  1.00  0.00     0.016 OA 
HETATM    5  H   UNL     2      -6.236   6.310  66.687  1.00  0.00     0.000 HD 
HETATM    6  C   UNL     1      -6.908   8.706  65.791  1.00  0.00    -0.068 C  
HETATM    7  C   UNL     1      -9.109   9.165  66.907  1.00  0.00    -0.135 C  
HETATM    8  C   UNL     2      -7.810   6.105  67.913  1.00  0.00    -0.106 A  
HETATM    9  O   UNL     2      -8.863   4.659  64.763  1.00  0.00    -0.144 OA 
HETATM   10  C   UNL     2      -8.147   6.130  69.243  1.00  0.00    -0.109 A  
HETATM   11  C   UNL     2      -8.731   5.606  65.583  1.00  0.00    -0.151 C  
HETATM   12  C   UNL     2      -8.614   4.945  69.790  1.00  0.00    -0.102 A  
HETATM   13  C   UNL     2      -8.823   3.849  68.957  1.00  0.00    -0.151 A  
HETATM   14  C   UNL     2      -8.435   5.225  67.029  1.00  0.00    -0.106 A  
HETATM   15  C   UNL     2      -8.827   4.023  67.574  1.00  0.00    -0.131 A  
ENDROOT
BRANCH   3  16
HETATM   16  C   UNL     1      -7.053   9.690  68.167  1.00  0.00    -0.079 C  
BRANCH  16  17
HETATM   17  C   UNL     1      -8.047   9.842  69.334  1.00  0.00    -0.139 C  
HETATM   18  O   UNL     1      -7.441  10.510  70.430  1.00  0.00    -0.452 OA 
HETATM   19  H   UNL     1      -8.053  10.604  71.150  1.00  0.00     0.000 HD 
ENDBRANCH  16  17
ENDBRANCH   3  16
TORSDOF 2
ENDMDL
MODEL      152
REMARK 921   NORMALIZED FREE ENERGY PREDICTED BY IDOCK:   -1.81 KCAL/MOL
REMARK 922        TOTAL FREE ENERGY PREDICTED BY IDOCK:   -2.21 KCAL/MOL
REMARK 923 INTER-LIGAND FREE ENERGY PREDICTED BY IDOCK:   -2.01 KCAL/MOL
REMARK 924 INTRA-LIGAND FREE ENERGY PREDICTED BY IDOCK:   -0.20 KCAL/MOL
REMARK 927      BINDING AFFINITY PREDICTED BY RF-SCORE:    0.00 PKD
ROOT
HETATM    1  C   UNL     1      -7.684  12.296  68.158  1.00  0.00    -0.138 C  
HETATM    2  O   UNL     2      -5.759   8.202  65.924  1.00  0.00    -0.036 OA 
HETATM    3  N   UNL     1      -7.449  10.914  67.625  1.00  0.00    -0.094 N  
HETATM    4  O   UNL     2      -8.175  10.039  64.422  1.00  0.00    -0.150 OA 
HETATM    5  H   UNL     2      -5.490   8.901  65.339  1.00  0.00     0.000 HD 
HETATM    6  C   UNL     1      -6.523  11.089  66.407  1.00  0.00    -0.127 C  
HETATM    7  C   UNL     1      -8.812  10.370  67.143  1.00  0.00    -0.136 C  
HETATM    8  C   UNL     2      -7.053   7.716  65.755  1.00  0.00    -0.061 A  
HETATM    9  O   UNL     2      -7.720   9.045  62.451  1.00  0.00    -0.113 OA 
HETATM   10  C   UNL     2      -7.442   6.707  66.599  1.00  0.00    -0.079 A  
HETATM   11  C   UNL     2      -7.784   9.061  63.709  1.00  0.00    -0.125 C  
HETATM   12  C   UNL     2      -7.722   5.480  66.016  1.00  0.00    -0.095 A  
HETATM   13  C   UNL     2      -7.710   5.369  64.629  1.00  0.00    -0.090 A  
HETATM   14  C   UNL     2      -7.485   7.750  64.429  1.00  0.00    -0.099 A  
HETATM   15  C   UNL     2      -7.688   6.521  63.844  1.00  0.00    -0.108 A  
ENDROOT
BRANCH   3  16
HETATM   16  C   UNL     1      -6.926   9.939  68.676  1.00  0.00    -0.062 C  
BRANCH  16  17
HETATM   17  C   UNL     1      -7.982   9.213  69.531  1.00  0.00    -0.098 C  
HETATM   18  O   UNL     1      -8.139   9.850  70.789  1.00  0.00    -0.396 OA 
HETATM   19  H   UNL     1      -8.790   9.402  71.317  1.00  0.00     0.000 HD 
ENDBRANCH  16  17
ENDBRANCH   3  16
TORSDOF 2
ENDMDL
MODEL      153
REMARK 921   NORMALIZED FREE ENERGY PREDICTED BY IDOCK:   -1.62 KCAL/MOL
REMARK 922        TOTAL FREE ENERGY PREDICTED BY IDOCK:   -2.00 KCAL/MOL
REMARK 923 INTER-LIGAND FREE ENERGY PREDICTED BY IDOCK:   -1.90 KCAL/MOL
REMARK 924 INTRA-LIGAND FREE ENERGY PREDICTED BY IDOCK:   -0.10 KCAL/MOL
REMARK 927      BINDING AFFINITY PREDICTED BY RF-SCORE:    0.00 PKD
ROOT
HETATM    1  C   UNL     1      -8.060   1.676  70.180  1.00  0.00    -0.041 C  
HETATM    2  O   UNL     2      -6.840   6.563  69.880  1.00  0.00    -0.051 OA 
HETATM    3  N   UNL     1      -8.087   3.167  70.018  1.00  0.00    -0.045 N  
HETATM    4  O   UNL     2      -8.294   5.292  72.662  1.00  0.00    -0.113 OA 
HETATM    5  H   UNL     2      -6.274   6.253  70.577  1.00  0.00     0.000 HD 
HETATM    6  C   UNL     1      -6.903   3.698  70.847  1.00  0.00    -0.033 C  
HETATM    7  C   UNL     1      -9.404   3.674  70.646  1.00  0.00    -0.158 C  
HETATM    8  C   UNL     2      -8.147   6.886  70.239  1.00  0.00    -0.120 A  
HETATM    9  O   UNL     2      -7.694   7.128  73.825  1.00  0.00    -0.101 OA 
HETATM   10  C   UNL     2      -8.964   7.335  69.232  1.00  0.00    -0.135 A  
HETATM   11  C   UNL     2      -8.027   6.532  72.766  1.00  0.00    -0.102 C  
HETATM   12  C   UNL     2      -9.423   8.639  69.336  1.00  0.00    -0.161 A  
HETATM   13  C   UNL     2      -9.135   9.370  70.485  1.00  0.00    -0.308 A  
HETATM   14  C   UNL     2      -8.251   7.399  71.532  1.00  0.00    -0.104 A  
HETATM   15  C   UNL     2      -8.638   8.718  71.613  1.00  0.00    -0.228 A  
ENDROOT
BRANCH   3  16
HETATM   16  C   UNL     1      -8.085   3.619  68.560  1.00  0.00    -0.070 C  
BRANCH  16  17
HETATM   17  C   UNL     1      -7.193   2.822  67.591  1.00  0.00    -0.053 C  
HETATM   18  O   UNL     1      -7.980   2.030  66.715  1.00  0.00    -0.072 OA 
HETATM   19  H   UNL     1      -7.430   1.537  66.117  1.00  0.00     0.000 HD 
ENDBRANCH  16  17
ENDBRANCH   3  16
TORSDOF 2
ENDMDL
MODEL      154
REMARK 921   NORMALIZED FREE ENERGY PREDICTED BY IDOCK:   -1.32 KCAL/MOL
REMARK 922        TOTAL FREE ENERGY PREDICTED BY IDOCK:   -1.66 KCAL/MOL
REMARK 923 INTER-LIGAND FREE ENERGY PREDICTED BY IDOCK:   -1.48 KCAL/MOL
REMARK 924 INTRA-LIGAND FREE ENERGY PREDICTED BY IDOCK:   -0.18 KCAL/MOL
REMARK 927      BINDING AFFINITY PREDICTED BY RF-SCORE:    0.00 PKD
ROOT
HETATM    1  C   UNL     1      -6.790   3.857  72.746  1.00  0.00    -0.043 C  
HETATM    2  O   UNL     2      -6.650   5.981  68.172  1.00  0.00    -0.051 OA 
HETATM    3  N   UNL     1      -6.994   4.187  71.297  1.00  0.00    -0.035 N  
HETATM    4  O   UNL     2      -9.284   6.465  70.244  1.00  0.00    -0.153 OA 
HETATM    5  H   UNL     2      -6.631   6.736  68.749  1.00  0.00     0.000 HD 
HETATM    6  C   UNL     1      -6.772   5.707  71.181  1.00  0.00    -0.053 C  
HETATM    7  C   UNL     1      -8.466   3.870  70.956  1.00  0.00    -0.072 C  
HETATM    8  C   UNL     2      -7.904   5.434  67.906  1.00  0.00    -0.092 A  
HETATM    9  O   UNL     2      -9.962   8.212  68.989  1.00  0.00    -0.179 OA 
HETATM   10  C   UNL     2      -7.932   4.345  67.072  1.00  0.00    -0.101 A  
HETATM   11  C   UNL     2      -9.399   7.096  69.145  1.00  0.00    -0.141 C  
HETATM   12  C   UNL     2      -8.589   4.504  65.862  1.00  0.00    -0.115 A  
HETATM   13  C   UNL     2      -9.270   5.692  65.610  1.00  0.00    -0.070 A  
HETATM   14  C   UNL     2      -8.924   6.385  67.882  1.00  0.00    -0.114 A  
HETATM   15  C   UNL     2      -9.516   6.582  66.654  1.00  0.00    -0.193 A  
ENDROOT
BRANCH   3  16
HETATM   16  C   UNL     1      -6.128   3.353  70.357  1.00  0.00    -0.019 C  
BRANCH  16  17
HETATM   17  C   UNL     1      -6.634   1.937  70.025  1.00  0.00    -0.029 C  
HETATM   18  O   UNL     1      -6.203   1.535  68.734  1.00  0.00    -0.024 OA 
HETATM   19  H   UNL     1      -6.516   0.662  68.529  1.00  0.00     0.000 HD 
ENDBRANCH  16  17
ENDBRANCH   3  16
TORSDOF 2
ENDMDL
MODEL      155
REMARK 921   NORMALIZED FREE ENERGY PREDICTED BY IDOCK:   -1.28 KCAL/MOL
REMARK 922        TOTAL FREE ENERGY PREDICTED BY IDOCK:   -1.62 KCAL/MOL
REMARK 923 INTER-LIGAND FREE ENERGY PREDICTED BY IDOCK:   -2.43 KCAL/MOL
REMARK 924 INTRA-LIGAND FREE ENERGY PREDICTED BY IDOCK:    0.81 KCAL/MOL
REMARK 927      BINDING AFFINITY PREDICTED BY RF-SCORE:    0.00 PKD
ROOT
HETATM    1  C   UNL     1      -5.197  16.439  70.410  1.00  0.00    -0.194 C  
HETATM    2  O   UNL     2      -9.167  17.535  67.497  1.00  0.00    -0.239 OA 
HETATM    3  N   UNL     1      -6.319  16.392  69.417  1.00  0.00    -0.189 N  
HETATM    4  O   UNL     2      -9.520  15.674  70.304  1.00  0.00     0.092 OA 
HETATM    5  H   UNL     2      -9.377  17.985  68.307  1.00  0.00     0.000 HD 
HETATM    6  C   UNL     1      -7.366  17.402  69.923  1.00  0.00     0.932 C  
HETATM    7  C   UNL     1      -6.925  14.973  69.474  1.00  0.00    -0.187 C  
HETATM    8  C   UNL     2      -9.473  16.177  67.444  1.00  0.00    -0.226 A  
HETATM    9  O   UNL     2     -11.749  16.009  70.257  1.00  0.00    -0.338 OA 
HETATM   10  C   UNL     2      -9.171  15.528  66.274  1.00  0.00    -0.364 A  
HETATM   11  C   UNL     2     -10.624  15.879  69.706  1.00  0.00    -0.322 C  
HETATM   12  C   UNL     2     -10.238  15.017  65.551  1.00  0.00    -0.406 A  
HETATM   13  C   UNL     2     -11.518  15.083  66.093  1.00  0.00    -0.222 A  
HETATM   14  C   UNL     2     -10.608  15.840  68.181  1.00  0.00    -0.275 A  
HETATM   15  C   UNL     2     -11.683  15.403  67.440  1.00  0.00    -0.040 A  
ENDROOT
BRANCH   3  16
HETATM   16  C   UNL     1      -5.867  16.626  67.978  1.00  0.00    -0.119 C  
BRANCH  16  17
HETATM   17  C   UNL     1      -5.403  18.051  67.622  1.00  0.00    -0.145 C  
HETATM   18  O   UNL     1      -5.193  18.822  68.795  1.00  0.00    -0.186 OA 
HETATM   19  H   UNL     1      -4.907  19.701  68.577  1.00  0.00     0.000 HD 
ENDBRANCH  16  17
ENDBRANCH   3  16
TORSDOF 2
ENDMDL
MODEL      156
REMARK 921   NORMALIZED FREE ENERGY PREDICTED BY IDOCK:   -1.23 KCAL/MOL
REMARK 922        TOTAL FREE ENERGY PREDICTED BY IDOCK:   -1.56 KCAL/MOL
REMARK 923 INTER-LIGAND FREE ENERGY PREDICTED BY IDOCK:   -1.46 KCAL/MOL
REMARK 924 INTRA-LIGAND FREE ENERGY PREDICTED BY IDOCK:   -0.09 KCAL/MOL
REMARK 927      BINDING AFFINITY PREDICTED BY RF-SCORE:    0.00 PKD
ROOT
HETATM    1  C   UNL     1     -10.170   6.298  67.634  1.00  0.00    -0.169 C  
HETATM    2  O   UNL     2      -7.315   3.161  70.367  1.00  0.00    -0.040 OA 
HETATM    3  N   UNL     1      -9.252   5.696  68.656  1.00  0.00    -0.120 N  
HETATM    4  O   UNL     2     -10.396   4.088  71.422  1.00  0.00    -0.056 OA 
HETATM    5  H   UNL     2      -8.053   2.612  70.128  1.00  0.00     0.000 HD 
HETATM    6  C   UNL     1      -9.641   4.209  68.742  1.00  0.00    -0.140 C  
HETATM    7  C   UNL     1      -9.564   6.373  70.008  1.00  0.00    -0.158 C  
HETATM    8  C   UNL     2      -7.495   3.996  71.468  1.00  0.00    -0.059 A  
HETATM    9  O   UNL     2     -10.406   2.396  72.912  1.00  0.00    -0.137 OA 
HETATM   10  C   UNL     2      -6.429   4.789  71.813  1.00  0.00    -0.030 A  
HETATM   11  C   UNL     2      -9.828   3.272  72.216  1.00  0.00    -0.162 C  
HETATM   12  C   UNL     2      -5.850   4.550  73.050  1.00  0.00    -0.012 A  
HETATM   13  C   UNL     2      -6.436   3.622  73.906  1.00  0.00    -0.033 A  
HETATM   14  C   UNL     2      -8.330   3.450  72.442  1.00  0.00    -0.083 A  
HETATM   15  C   UNL     2      -7.721   3.152  73.640  1.00  0.00    -0.064 A  
ENDROOT
BRANCH   3  16
HETATM   16  C   UNL     1      -7.774   5.942  68.365  1.00  0.00    -0.094 C  
BRANCH  16  17
HETATM   17  C   UNL     1      -7.394   6.208  66.896  1.00  0.00    -0.082 C  
HETATM   18  O   UNL     1      -6.074   5.763  66.627  1.00  0.00    -0.024 OA 
HETATM   19  H   UNL     1      -5.839   5.927  65.721  1.00  0.00     0.000 HD 
ENDBRANCH  16  17
ENDBRANCH   3  16
TORSDOF 2
ENDMDL
MODEL      157
REMARK 921   NORMALIZED FREE ENERGY PREDICTED BY IDOCK:   -0.93 KCAL/MOL
REMARK 922        TOTAL FREE ENERGY PREDICTED BY IDOCK:   -1.23 KCAL/MOL
REMARK 923 INTER-LIGAND FREE ENERGY PREDICTED BY IDOCK:   -1.14 KCAL/MOL
REMARK 924 INTRA-LIGAND FREE ENERGY PREDICTED BY IDOCK:   -0.08 KCAL/MOL
REMARK 927      BINDING AFFINITY PREDICTED BY RF-SCORE:    0.00 PKD
ROOT
HETATM    1  C   UNL     1      -5.130  20.156  69.579  1.00  0.00    -0.199 C  
HETATM    2  O   UNL     2      -8.879  16.837  68.957  1.00  0.00    -0.253 OA 
HETATM    3  N   UNL     1      -6.275  19.351  69.041  1.00  0.00    -0.254 N  
HETATM    4  O   UNL     2      -5.847  16.335  67.535  1.00  0.00    -0.135 OA 
HETATM    5  H   UNL     2      -8.237  16.332  69.442  1.00  0.00     0.000 HD 
HETATM    6  C   UNL     1      -6.197  17.987  69.752  1.00  0.00    -0.164 C  
HETATM    7  C   UNL     1      -6.023  19.143  67.532  1.00  0.00    -0.190 C  
HETATM    8  C   UNL     2      -8.691  16.920  67.579  1.00  0.00    -0.208 A  
HETATM    9  O   UNL     2      -6.367  14.172  67.168  1.00  0.00    -0.195 OA 
HETATM   10  C   UNL     2      -9.619  17.648  66.878  1.00  0.00    -0.286 A  
HETATM   11  C   UNL     2      -6.665  15.389  67.301  1.00  0.00    -0.061 C  
HETATM   12  C   UNL     2     -10.395  16.954  65.963  1.00  0.00    -0.335 A  
HETATM   13  C   UNL     2     -10.121  15.610  65.722  1.00  0.00    -0.394 A  
HETATM   14  C   UNL     2      -8.116  15.773  67.033  1.00  0.00    -0.272 A  
HETATM   15  C   UNL     2      -8.927  15.056  66.182  1.00  0.00    -0.158 A  
ENDROOT
BRANCH   3  16
HETATM   16  C   UNL     1      -7.625  20.052  69.175  1.00  0.00    -0.010 C  
BRANCH  16  17
HETATM   17  C   UNL     1      -8.372  19.863  70.509  1.00  0.00     1.612 C  
HETATM   18  O   UNL     1      -7.729  20.576  71.554  1.00  0.00     0.358 OA 
HETATM   19  H   UNL     1      -8.189  20.459  72.377  1.00  0.00     0.000 HD 
ENDBRANCH  16  17
ENDBRANCH   3  16
TORSDOF 2
ENDMDL
MODEL      158
REMARK 921   NORMALIZED FREE ENERGY PREDICTED BY IDOCK:    3.22 KCAL/MOL
REMARK 922        TOTAL FREE ENERGY PREDICTED BY IDOCK:    3.41 KCAL/MOL
REMARK 923 INTER-LIGAND FREE ENERGY PREDICTED BY IDOCK:    3.39 KCAL/MOL
REMARK 924 INTRA-LIGAND FREE ENERGY PREDICTED BY IDOCK:    0.03 KCAL/MOL
REMARK 927      BINDING AFFINITY PREDICTED BY RF-SCORE:    0.00 PKD
ROOT
HETATM    1  C   UNL     1      -8.825  15.871  65.032  1.00  0.00     2.759 C  
HETATM    2  O   UNL     2      -8.425  15.976  70.060  1.00  0.00     0.367 OA 
HETATM    3  N   UNL     1      -8.353  15.734  66.449  1.00  0.00    -0.278 N  
HETATM    4  O   UNL     2      -6.855  18.277  68.134  1.00  0.00    -0.208 OA 
HETATM    5  H   UNL     2      -8.881  16.788  69.874  1.00  0.00     0.000 HD 
HETATM    6  C   UNL     1      -9.072  16.845  67.237  1.00  0.00    -0.218 C  
HETATM    7  C   UNL     1      -6.836  16.017  66.458  1.00  0.00     0.515 C  
HETATM    8  C   UNL     2      -7.038  15.999  69.925  1.00  0.00     0.138 A  
HETATM    9  O   UNL     2      -6.536  19.586  69.941  1.00  0.00    -0.305 OA 
HETATM   10  C   UNL     2      -6.379  14.826  70.195  1.00  0.00    -0.169 A  
HETATM   11  C   UNL     2      -6.672  18.467  69.378  1.00  0.00    -0.187 C  
HETATM   12  C   UNL     2      -5.510  14.834  71.275  1.00  0.00    -0.100 A  
HETATM   13  C   UNL     2      -5.268  16.031  71.943  1.00  0.00     0.246 A  
HETATM   14  C   UNL     2      -6.474  17.232  70.250  1.00  0.00     0.580 A  
HETATM   15  C   UNL     2      -5.672  17.236  71.369  1.00  0.00     0.775 A  
ENDROOT
BRANCH   3  16
HETATM   16  C   UNL     1      -8.549  14.333  67.021  1.00  0.00    -0.192 C  
BRANCH  16  17
HETATM   17  C   UNL     1      -7.275  13.502  67.265  1.00  0.00     0.013 C  
HETATM   18  O   UNL     1      -7.442  12.172  66.799  1.00  0.00    -0.352 OA 
HETATM   19  H   UNL     1      -6.656  11.659  66.950  1.00  0.00     0.000 HD 
ENDBRANCH  16  17
ENDBRANCH   3  16
TORSDOF 2
ENDMDL
MODEL      159
REMARK 921   NORMALIZED FREE ENERGY PREDICTED BY IDOCK:    3.59 KCAL/MOL
REMARK 922        TOTAL FREE ENERGY PREDICTED BY IDOCK:    3.82 KCAL/MOL
REMARK 923 INTER-LIGAND FREE ENERGY PREDICTED BY IDOCK:    3.90 KCAL/MOL
REMARK 924 INTRA-LIGAND FREE ENERGY PREDICTED BY IDOCK:   -0.08 KCAL/MOL
REMARK 927      BINDING AFFINITY PREDICTED BY RF-SCORE:    0.00 PKD
ROOT
HETATM    1  C   UNL     1     -11.431   8.662  71.165  1.00  0.00    -0.280 C  
HETATM    2  O   UNL     2      -7.568  11.363  69.364  1.00  0.00    -0.327 OA 
HETATM    3  N   UNL     1     -10.446   9.368  70.280  1.00  0.00    -0.231 N  
HETATM    4  O   UNL     2     -10.683  12.678  69.552  1.00  0.00     0.085 OA 
HETATM    5  H   UNL     2      -7.804  11.841  70.151  1.00  0.00     0.000 HD 
HETATM    6  C   UNL     1      -9.879  10.523  71.126  1.00  0.00     2.760 C  
HETATM    7  C   UNL     1     -11.237   9.959  69.093  1.00  0.00    -0.107 C  
HETATM    8  C   UNL     2      -8.321  11.634  68.224  1.00  0.00    -0.159 A  
HETATM    9  O   UNL     2      -9.834  14.750  69.285  1.00  0.00    -0.197 OA 
HETATM   10  C   UNL     2      -7.980  10.945  67.088  1.00  0.00    -0.127 A  
HETATM   11  C   UNL     2      -9.825  13.504  69.103  1.00  0.00     0.332 C  
HETATM   12  C   UNL     2      -7.503  11.693  66.023  1.00  0.00     0.432 A  
HETATM   13  C   UNL     2      -7.505  13.083  66.116  1.00  0.00     2.340 A  
HETATM   14  C   UNL     2      -8.761  12.956  68.157  1.00  0.00    -0.190 A  
HETATM   15  C   UNL     2      -8.221  13.706  67.137  1.00  0.00    -0.123 A  
ENDROOT
BRANCH   3  16
HETATM   16  C   UNL     1      -9.386   8.440  69.692  1.00  0.00    -0.161 C  
BRANCH  16  17
HETATM   17  C   UNL     1      -7.988   8.492  70.338  1.00  0.00    -0.099 C  
HETATM   18  O   UNL     1      -6.985   8.135  69.400  1.00  0.00    -0.049 OA 
HETATM   19  H   UNL     1      -6.122   8.166  69.799  1.00  0.00     0.000 HD 
ENDBRANCH  16  17
ENDBRANCH   3  16
TORSDOF 2
ENDMDL
MODEL      160
REMARK 921   NORMALIZED FREE ENERGY PREDICTED BY IDOCK:    4.08 KCAL/MOL
REMARK 922        TOTAL FREE ENERGY PREDICTED BY IDOCK:    4.37 KCAL/MOL
REMARK 923 INTER-LIGAND FREE ENERGY PREDICTED BY IDOCK:    4.05 KCAL/MOL
REMARK 924 INTRA-LIGAND FREE ENERGY PREDICTED BY IDOCK:    0.32 KCAL/MOL
REMARK 927      BINDING AFFINITY PREDICTED BY RF-SCORE:    0.00 PKD
ROOT
HETATM    1  C   UNL     1      -5.804   6.335  73.172  1.00  0.00    -0.042 C  
HETATM    2  O   UNL     2      -9.371   7.633  69.847  1.00  0.00    -0.151 OA 
HETATM    3  N   UNL     1      -7.024   6.376  72.301  1.00  0.00    -0.073 N  
HETATM    4  O   UNL     2      -9.841   8.064  73.173  1.00  0.00    -0.285 OA 
HETATM    5  H   UNL     2      -9.130   8.470  70.227  1.00  0.00     0.000 HD 
HETATM    6  C   UNL     1      -7.302   7.868  72.041  1.00  0.00    -0.081 C  
HETATM    7  C   UNL     1      -8.193   5.785  73.119  1.00  0.00    -0.117 C  
HETATM    8  C   UNL     2     -10.285   6.865  70.566  1.00  0.00    -0.192 A  
HETATM    9  O   UNL     2     -11.575   9.445  72.758  1.00  0.00     0.676 OA 
HETATM   10  C   UNL     2     -10.633   5.657  70.017  1.00  0.00    -0.388 A  
HETATM   11  C   UNL     2     -10.827   8.471  72.478  1.00  0.00    -0.234 C  
HETATM   12  C   UNL     2     -11.958   5.503  69.639  1.00  0.00     3.100 A  
HETATM   13  C   UNL     2     -12.870   6.512  69.935  1.00  0.00     2.283 A  
HETATM   14  C   UNL     2     -11.216   7.632  71.265  1.00  0.00    -0.277 A  
HETATM   15  C   UNL     2     -12.518   7.522  70.829  1.00  0.00    -0.072 A  
ENDROOT
BRANCH   3  16
HETATM   16  C   UNL     1      -6.895   5.532  71.035  1.00  0.00    -0.053 C  
BRANCH  16  17
HETATM   17  C   UNL     1      -5.798   5.948  70.037  1.00  0.00    -0.024 C  
HETATM   18  O   UNL     1      -5.990   7.285  69.603  1.00  0.00    -0.023 OA 
HETATM   19  H   UNL     1      -5.314   7.542  68.987  1.00  0.00     0.000 HD 
ENDBRANCH  16  17
ENDBRANCH   3  16
TORSDOF 2
ENDMDL
MODEL      161
REMARK 921   NORMALIZED FREE ENERGY PREDICTED BY IDOCK:    7.09 KCAL/MOL
REMARK 922        TOTAL FREE ENERGY PREDICTED BY IDOCK:    7.73 KCAL/MOL
REMARK 923 INTER-LIGAND FREE ENERGY PREDICTED BY IDOCK:    7.85 KCAL/MOL
REMARK 924 INTRA-LIGAND FREE ENERGY PREDICTED BY IDOCK:   -0.12 KCAL/MOL
REMARK 927      BINDING AFFINITY PREDICTED BY RF-SCORE:    0.00 PKD
ROOT
HETATM    1  C   UNL     1      -5.507  16.165  70.240  1.00  0.00    -0.175 C  
HETATM    2  O   UNL     2      -8.722  17.824  66.723  1.00  0.00    -0.240 OA 
HETATM    3  N   UNL     1      -6.712  16.410  69.381  1.00  0.00    -0.211 N  
HETATM    4  O   UNL     2      -8.818  19.028  69.887  1.00  0.00     0.668 OA 
HETATM    5  H   UNL     2      -8.214  18.603  66.920  1.00  0.00     0.000 HD 
HETATM    6  C   UNL     1      -6.539  17.832  68.817  1.00  0.00    -0.227 C  
HETATM    7  C   UNL     1      -7.948  16.386  70.306  1.00  0.00     1.919 C  
HETATM    8  C   UNL     2      -9.777  17.537  67.587  1.00  0.00    -0.275 A  
HETATM    9  O   UNL     2     -10.074  20.769  69.196  1.00  0.00     0.330 OA 
HETATM   10  C   UNL     2     -10.511  16.414  67.302  1.00  0.00    -0.303 A  
HETATM   11  C   UNL     2      -9.677  19.575  69.124  1.00  0.00    -0.334 C  
HETATM   12  C   UNL     2     -11.842  16.607  66.967  1.00  0.00     1.377 A  
HETATM   13  C   UNL     2     -12.383  17.888  67.047  1.00  0.00     4.642 A  
HETATM   14  C   UNL     2     -10.383  18.677  68.113  1.00  0.00    -0.402 A  
HETATM   15  C   UNL     2     -11.682  18.893  67.711  1.00  0.00     1.636 A  
ENDROOT
BRANCH   3  16
HETATM   16  C   UNL     1      -6.929  15.336  68.318  1.00  0.00    -0.117 C  
BRANCH  16  17
HETATM   17  C   UNL     1      -6.888  13.872  68.797  1.00  0.00    -0.105 C  
HETATM   18  O   UNL     1      -8.178  13.284  68.735  1.00  0.00    -0.327 OA 
HETATM   19  H   UNL     1      -8.153  12.381  69.030  1.00  0.00     0.000 HD 
ENDBRANCH  16  17
ENDBRANCH   3  16
TORSDOF 2
ENDMDL
MODEL      162
REMARK 921   NORMALIZED FREE ENERGY PREDICTED BY IDOCK:    8.41 KCAL/MOL
REMARK 922        TOTAL FREE ENERGY PREDICTED BY IDOCK:    9.21 KCAL/MOL
REMARK 923 INTER-LIGAND FREE ENERGY PREDICTED BY IDOCK:    9.36 KCAL/MOL
REMARK 924 INTRA-LIGAND FREE ENERGY PREDICTED BY IDOCK:   -0.15 KCAL/MOL
REMARK 927      BINDING AFFINITY PREDICTED BY RF-SCORE:    0.00 PKD
ROOT
HETATM    1  C   UNL     1     -11.142  19.167  66.785  1.00  0.00     0.008 C  
HETATM    2  O   UNL     2      -9.653  14.921  69.068  1.00  0.00    -0.213 OA 
HETATM    3  N   UNL     1     -11.043  17.952  67.659  1.00  0.00    -0.082 N  
HETATM    4  O   UNL     2     -11.976  14.859  66.605  1.00  0.00    -0.247 OA 
HETATM    5  H   UNL     2      -9.354  14.790  68.176  1.00  0.00     0.000 HD 
HETATM    6  C   UNL     1     -10.160  16.954  66.887  1.00  0.00    -0.289 C  
HETATM    7  C   UNL     1     -12.465  17.363  67.790  1.00  0.00     3.715 C  
HETATM    8  C   UNL     2     -10.989  14.620  69.325  1.00  0.00    -0.260 A  
HETATM    9  O   UNL     2     -11.689  12.635  66.377  1.00  0.00    -0.368 OA 
HETATM   10  C   UNL     2     -11.421  14.808  70.614  1.00  0.00    -0.283 A  
HETATM   11  C   UNL     2     -11.697  13.700  67.049  1.00  0.00    -0.384 C  
HETATM   12  C   UNL     2     -11.824  13.678  71.307  1.00  0.00     0.278 A  
HETATM   13  C   UNL     2     -11.881  12.457  70.641  1.00  0.00    -0.025 A  
HETATM   14  C   UNL     2     -11.473  13.565  68.552  1.00  0.00    -0.345 A  
HETATM   15  C   UNL     2     -11.801  12.424  69.250  1.00  0.00    -0.361 A  
ENDROOT
BRANCH   3  16
HETATM   16  C   UNL     1     -10.555  18.258  69.072  1.00  0.00     0.272 C  
BRANCH  16  17
HETATM   17  C   UNL     1     -11.583  18.875  70.039  1.00  0.00     6.232 C  
HETATM   18  O   UNL     1     -11.515  20.293  70.012  1.00  0.00     1.716 OA 
HETATM   19  H   UNL     1     -12.149  20.674  70.608  1.00  0.00     0.000 HD 
ENDBRANCH  16  17
ENDBRANCH   3  16
TORSDOF 2
ENDMDL
MODEL      163
REMARK 921   NORMALIZED FREE ENERGY PREDICTED BY IDOCK:   10.25 KCAL/MOL
REMARK 922        TOTAL FREE ENERGY PREDICTED BY IDOCK:   11.26 KCAL/MOL
REMARK 923 INTER-LIGAND FREE ENERGY PREDICTED BY IDOCK:   10.56 KCAL/MOL
REMARK 924 INTRA-LIGAND FREE ENERGY PREDICTED BY IDOCK:    0.70 KCAL/MOL
REMARK 927      BINDING AFFINITY PREDICTED BY RF-SCORE:    0.00 PKD
ROOT
HETATM    1  C   UNL     1      -7.204  14.287  67.016  1.00  0.00     0.477 C  
HETATM    2  O   UNL     2     -10.715  17.645  65.657  1.00  0.00    -0.495 OA 
HETATM    3  N   UNL     1      -8.342  15.264  66.998  1.00  0.00    -0.218 N  
HETATM    4  O   UNL     2      -7.875  18.623  67.219  1.00  0.00    -0.230 OA 
HETATM    5  H   UNL     2      -9.973  17.895  65.118  1.00  0.00     0.000 HD 
HETATM    6  C   UNL     1      -8.055  16.217  65.823  1.00  0.00     0.915 C  
HETATM    7  C   UNL     1      -8.281  16.065  68.317  1.00  0.00    -0.159 C  
HETATM    8  C   UNL     2     -10.724  18.128  66.964  1.00  0.00    -0.253 A  
HETATM    9  O   UNL     2      -8.258  20.757  66.602  1.00  0.00    -0.070 OA 
HETATM   10  C   UNL     2     -11.796  17.768  67.741  1.00  0.00     1.863 A  
HETATM   11  C   UNL     2      -8.635  19.598  66.922  1.00  0.00    -0.315 C  
HETATM   12  C   UNL     2     -12.629  18.791  68.167  1.00  0.00     6.280 A  
HETATM   13  C   UNL     2     -12.280  20.110  67.890  1.00  0.00     3.545 A  
HETATM   14  C   UNL     2     -10.136  19.386  67.089  1.00  0.00    -0.490 A  
HETATM   15  C   UNL     2     -10.993  20.405  67.441  1.00  0.00     0.504 A  
ENDROOT
BRANCH   3  16
HETATM   16  C   UNL     1      -9.714  14.597  66.944  1.00  0.00    -0.242 C  
BRANCH  16  17
HETATM   17  C   UNL     1      -9.767  13.098  67.295  1.00  0.00    -0.230 C  
HETATM   18  O   UNL     1      -8.889  12.354  66.466  1.00  0.00    -0.322 OA 
HETATM   19  H   UNL     1      -8.922  11.429  66.681  1.00  0.00     0.000 HD 
ENDBRANCH  16  17
ENDBRANCH   3  16
TORSDOF 2
ENDMDL
MODEL      164
REMARK 921   NORMALIZED FREE ENERGY PREDICTED BY IDOCK:   15.23 KCAL/MOL
REMARK 922        TOTAL FREE ENERGY PREDICTED BY IDOCK:   16.82 KCAL/MOL
REMARK 923 INTER-LIGAND FREE ENERGY PREDICTED BY IDOCK:   15.65 KCAL/MOL
REMARK 924 INTRA-LIGAND FREE ENERGY PREDICTED BY IDOCK:    1.17 KCAL/MOL
REMARK 927      BINDING AFFINITY PREDICTED BY RF-SCORE:    0.00 PKD
ROOT
HETATM    1  C   UNL     1      -6.844  18.862  72.913  1.00  0.00     4.455 C  
HETATM    2  O   UNL     2      -7.588  19.297  67.941  1.00  0.00    -0.263 OA 
HETATM    3  N   UNL     1      -6.955  18.609  71.439  1.00  0.00     2.979 N  
HETATM    4  O   UNL     2      -9.898  17.825  69.932  1.00  0.00     0.472 OA 
HETATM    5  H   UNL     2      -8.279  19.841  68.301  1.00  0.00     0.000 HD 
HETATM    6  C   UNL     1      -8.002  19.612  70.921  1.00  0.00     2.085 C  
HETATM    7  C   UNL     1      -7.503  17.177  71.258  1.00  0.00     6.295 C  
HETATM    8  C   UNL     2      -7.842  17.928  67.884  1.00  0.00    -0.230 A  
HETATM    9  O   UNL     2     -11.439  18.012  68.298  1.00  0.00     0.563 OA 
HETATM   10  C   UNL     2      -6.844  17.143  67.365  1.00  0.00    -0.179 A  
HETATM   11  C   UNL     2     -10.258  17.876  68.713  1.00  0.00    -0.360 C  
HETATM   12  C   UNL     2      -7.129  16.472  66.186  1.00  0.00     0.372 A  
HETATM   13  C   UNL     2      -8.418  16.534  65.664  1.00  0.00     0.595 A  
HETATM   14  C   UNL     2      -9.184  17.627  67.659  1.00  0.00    -0.245 A  
HETATM   15  C   UNL     2      -9.458  17.026  66.450  1.00  0.00    -0.294 A  
ENDROOT
BRANCH   3  16
HETATM   16  C   UNL     1      -5.615  18.668  70.710  1.00  0.00    -0.152 C  
BRANCH  16  17
HETATM   17  C   UNL     1      -5.264  19.998  70.015  1.00  0.00    -0.220 C  
HETATM   18  O   UNL     1      -6.145  21.031  70.429  1.00  0.00    -0.225 OA 
HETATM   19  H   UNL     1      -5.929  21.851  70.001  1.00  0.00     0.000 HD 
ENDBRANCH  16  17
ENDBRANCH   3  16
TORSDOF 2
ENDMDL
MODEL      165
REMARK 921   NORMALIZED FREE ENERGY PREDICTED BY IDOCK:   21.35 KCAL/MOL
REMARK 922        TOTAL FREE ENERGY PREDICTED BY IDOCK:   23.66 KCAL/MOL
REMARK 923 INTER-LIGAND FREE ENERGY PREDICTED BY IDOCK:   23.77 KCAL/MOL
REMARK 924 INTRA-LIGAND FREE ENERGY PREDICTED BY IDOCK:   -0.11 KCAL/MOL
REMARK 927      BINDING AFFINITY PREDICTED BY RF-SCORE:    0.00 PKD
ROOT
HETATM    1  C   UNL     1     -11.724  14.653  71.056  1.00  0.00    -0.277 C  
HETATM    2  O   UNL     2      -7.660  17.133  69.383  1.00  0.00    -0.106 OA 
HETATM    3  N   UNL     1     -10.566  15.593  70.897  1.00  0.00    -0.083 N  
HETATM    4  O   UNL     2      -7.394  14.756  71.780  1.00  0.00     1.956 OA 
HETATM    5  H   UNL     2      -7.484  16.240  69.109  1.00  0.00     0.000 HD 
HETATM    6  C   UNL     1      -9.546  14.853  70.012  1.00  0.00     0.341 C  
HETATM    7  C   UNL     1      -9.952  15.806  72.298  1.00  0.00     4.398 C  
HETATM    8  C   UNL     2      -7.342  17.451  70.701  1.00  0.00     3.330 A  
HETATM    9  O   UNL     2      -5.167  14.650  71.441  1.00  0.00    -0.131 OA 
HETATM   10  C   UNL     2      -7.597  18.740  71.097  1.00  0.00     4.300 A  
HETATM   11  C   UNL     2      -6.270  15.258  71.456  1.00  0.00     0.851 C  
HETATM   12  C   UNL     2      -6.501  19.512  71.449  1.00  0.00     0.525 A  
HETATM   13  C   UNL     2      -5.241  18.922  71.494  1.00  0.00    -0.305 A  
HETATM   14  C   UNL     2      -6.232  16.758  71.182  1.00  0.00     1.605 A  
HETATM   15  C   UNL     2      -5.127  17.533  71.457  1.00  0.00     0.103 A  
ENDROOT
BRANCH   3  16
HETATM   16  C   UNL     1     -10.969  16.970  70.374  1.00  0.00     0.507 C  
BRANCH  16  17
HETATM   17  C   UNL     1     -11.683  17.008  69.009  1.00  0.00     0.958 C  
HETATM   18  O   UNL     1     -12.688  18.011  68.993  1.00  0.00     5.804 OA 
HETATM   19  H   UNL     1     -13.129  18.034  68.152  1.00  0.00     0.000 HD 
ENDBRANCH  16  17
ENDBRANCH   3  16
TORSDOF 2
ENDMDL
MODEL      166
REMARK 921   NORMALIZED FREE ENERGY PREDICTED BY IDOCK:   22.87 KCAL/MOL
REMARK 922        TOTAL FREE ENERGY PREDICTED BY IDOCK:   25.35 KCAL/MOL
REMARK 923 INTER-LIGAND FREE ENERGY PREDICTED BY IDOCK:   25.39 KCAL/MOL
REMARK 924 INTRA-LIGAND FREE ENERGY PREDICTED BY IDOCK:   -0.04 KCAL/MOL
REMARK 927      BINDING AFFINITY PREDICTED BY RF-SCORE:    0.00 PKD
ROOT
HETATM    1  C   UNL     1     -12.167  20.367  67.541  1.00  0.00     3.989 C  
HETATM    2  O   UNL     2      -9.976  15.832  67.848  1.00  0.00    -0.224 OA 
HETATM    3  N   UNL     1     -11.464  19.128  68.012  1.00  0.00     0.728 N  
HETATM    4  O   UNL     2     -13.135  16.326  68.963  1.00  0.00     1.165 OA 
HETATM    5  H   UNL     2     -10.693  15.673  67.245  1.00  0.00     0.000 HD 
HETATM    6  C   UNL     1     -11.942  17.998  67.080  1.00  0.00     3.016 C  
HETATM    7  C   UNL     1     -11.959  18.836  69.445  1.00  0.00     7.393 C  
HETATM    8  C   UNL     2     -10.290  15.799  69.205  1.00  0.00    -0.245 A  
HETATM    9  O   UNL     2     -13.482  14.099  68.998  1.00  0.00     2.270 OA 
HETATM   10  C   UNL     2      -9.256  16.028  70.077  1.00  0.00     0.566 A  
HETATM   11  C   UNL     2     -12.750  15.120  69.090  1.00  0.00     0.369 C  
HETATM   12  C   UNL     2      -8.902  14.980  70.914  1.00  0.00     2.403 A  
HETATM   13  C   UNL     2      -9.671  13.819  70.909  1.00  0.00     5.122 A  
HETATM   14  C   UNL     2     -11.303  14.892  69.514  1.00  0.00    -0.307 A  
HETATM   15  C   UNL     2     -10.918  13.818  70.285  1.00  0.00     0.522 A  
ENDROOT
BRANCH   3  16
HETATM   16  C   UNL     1      -9.947  19.281  68.086  1.00  0.00    -0.391 C  
BRANCH  16  17
HETATM   17  C   UNL     1      -9.347  20.536  67.427  1.00  0.00    -0.375 C  
HETATM   18  O   UNL     1      -9.279  20.384  66.017  1.00  0.00    -0.609 OA 
HETATM   19  H   UNL     1      -8.908  21.158  65.610  1.00  0.00     0.000 HD 
ENDBRANCH  16  17
ENDBRANCH   3  16
TORSDOF 2
ENDMDL
