MODEL        1
REMARK 921   NORMALIZED FREE ENERGY PREDICTED BY IDOCK:   -8.17 KCAL/MOL
REMARK 922        TOTAL FREE ENERGY PREDICTED BY IDOCK:   -8.76 KCAL/MOL
REMARK 923 INTER-LIGAND FREE ENERGY PREDICTED BY IDOCK:   -8.64 KCAL/MOL
REMARK 924 INTRA-LIGAND FREE ENERGY PREDICTED BY IDOCK:   -0.12 KCAL/MOL
REMARK 927      BINDING AFFINITY PREDICTED BY RF-SCORE:    0.00 PKD
ROOT
HETATM    1  C   UNL     1     -10.450  14.319  66.169  1.00  0.00    -0.294 C  
HETATM    2  C   UNL     1      -9.169  15.240  66.182  1.00  0.00    -0.345 C  
HETATM    3  C   UNL     1     -11.523  15.088  65.329  1.00  0.00    -0.308 C  
HETATM    4  C   UNL     1     -10.286  12.577  65.725  1.00  0.00    -0.289 C  
HETATM    5  C   UNL     1      -8.195  11.116  66.680  1.00  0.00    -0.158 C  
HETATM    6  C   UNL     1     -11.712  12.298  66.204  1.00  0.00    -0.440 C  
HETATM    7  H   UNL     1      -9.226   9.882  64.147  1.00  0.00     0.000 HD 
HETATM    8  C   UNL     1     -11.588  12.076  67.702  1.00  0.00    -0.392 C  
HETATM    9  C   UNL     1     -10.764  10.829  67.670  1.00  0.00    -0.305 C  
HETATM   10  O   UNL     1      -9.067   9.227  64.816  1.00  0.00    -0.212 OA 
HETATM   11  C   UNL     1      -9.738  11.007  66.522  1.00  0.00    -0.230 C  
HETATM   12  C   UNL     1     -10.496   9.965  68.900  1.00  0.00    -0.229 C  
HETATM   13  C   UNL     1     -11.654  10.224  69.874  1.00  0.00    -0.256 C  
HETATM   14  O   UNL     1     -11.557  11.520  70.461  1.00  0.00    -0.479 OA 
HETATM   15  C   UNL     1     -11.771   9.229  70.990  1.00  0.00    -0.378 C  
HETATM   16  C   UNL     1     -11.891   7.792  70.471  1.00  0.00    -0.063 C  
HETATM   17  H   UNL     1     -12.273  11.680  71.063  1.00  0.00     0.000 HD 
HETATM   18  C   UNL     1     -12.270   6.896  71.664  1.00  0.00    -0.403 C  
HETATM   19  C   UNL     1     -11.129   6.550  72.612  1.00  0.00    -0.257 C  
HETATM   20  O   UNL     1     -11.064   7.464  73.703  1.00  0.00    -0.576 OA 
HETATM   21  C   UNL     1      -9.783   6.359  71.939  1.00  0.00    -0.162 C  
HETATM   22  C   UNL     1      -9.455   7.238  70.677  1.00  0.00    -0.164 C  
HETATM   23  H   UNL     1     -10.354   7.248  74.294  1.00  0.00     0.000 HD 
HETATM   24  C   UNL     1     -10.614   7.378  69.638  1.00  0.00    -0.243 C  
HETATM   25  C   UNL     1     -10.815   5.981  68.997  1.00  0.00    -0.412 C  
HETATM   26  C   UNL     1     -10.516   8.480  68.417  1.00  0.00    -0.215 C  
HETATM   27  C   UNL     1      -9.632   8.345  67.106  1.00  0.00    -0.233 C  
HETATM   28  C   UNL     1      -9.910   9.496  65.931  1.00  0.00    -0.290 C  
ENDROOT
BRANCH   2  29
HETATM   29  C   UNL     1      -9.427  16.590  66.936  1.00  0.00    -0.250 C  
HETATM   30  O   UNL     1      -8.824  18.884  67.173  1.00  0.00    -0.276 OA 
HETATM   31  C   UNL     1      -8.565  17.750  66.483  1.00  0.00    -0.257 C  
HETATM   32  O   UNL     1      -7.735  17.705  65.586  1.00  0.00    -0.527 OA 
ENDBRANCH   2  29
TORSDOF 1
ENDMDL
MODEL        2
REMARK 921   NORMALIZED FREE ENERGY PREDICTED BY IDOCK:   -7.86 KCAL/MOL
REMARK 922        TOTAL FREE ENERGY PREDICTED BY IDOCK:   -8.44 KCAL/MOL
REMARK 923 INTER-LIGAND FREE ENERGY PREDICTED BY IDOCK:   -8.24 KCAL/MOL
REMARK 924 INTRA-LIGAND FREE ENERGY PREDICTED BY IDOCK:   -0.20 KCAL/MOL
REMARK 927      BINDING AFFINITY PREDICTED BY RF-SCORE:    0.00 PKD
ROOT
HETATM    1  C   UNL     1     -10.544  14.271  66.171  1.00  0.00    -0.293 C  
HETATM    2  C   UNL     1      -9.282  15.219  66.145  1.00  0.00    -0.345 C  
HETATM    3  C   UNL     1     -11.646  15.001  65.334  1.00  0.00    -0.229 C  
HETATM    4  C   UNL     1     -10.349  12.525  65.756  1.00  0.00    -0.288 C  
HETATM    5  C   UNL     1      -8.213  11.127  66.704  1.00  0.00    -0.158 C  
HETATM    6  C   UNL     1     -11.761  12.225  66.264  1.00  0.00    -0.431 C  
HETATM    7  H   UNL     1      -9.257   9.824  64.211  1.00  0.00     0.000 HD 
HETATM    8  C   UNL     1     -11.608  12.034  67.763  1.00  0.00    -0.400 C  
HETATM    9  C   UNL     1     -10.758  10.804  67.741  1.00  0.00    -0.296 C  
HETATM   10  O   UNL     1      -9.073   9.184  64.889  1.00  0.00    -0.210 OA 
HETATM   11  C   UNL     1      -9.755  10.982  66.573  1.00  0.00    -0.230 C  
HETATM   12  C   UNL     1     -10.452   9.970  68.982  1.00  0.00    -0.233 C  
HETATM   13  C   UNL     1     -11.600  10.223  69.970  1.00  0.00    -0.276 C  
HETATM   14  O   UNL     1     -11.521  11.531  70.531  1.00  0.00    -0.473 OA 
HETATM   15  C   UNL     1     -11.678   9.246  71.107  1.00  0.00    -0.394 C  
HETATM   16  C   UNL     1     -11.775   7.798  70.617  1.00  0.00    -0.191 C  
HETATM   17  H   UNL     1     -12.231  11.688  71.142  1.00  0.00     0.000 HD 
HETATM   18  C   UNL     1     -12.116   6.917  71.832  1.00  0.00    -0.370 C  
HETATM   19  C   UNL     1     -10.953   6.613  72.767  1.00  0.00    -0.258 C  
HETATM   20  O   UNL     1     -10.890   7.549  73.840  1.00  0.00    -0.534 OA 
HETATM   21  C   UNL     1      -9.613   6.438  72.075  1.00  0.00    -0.157 C  
HETATM   22  C   UNL     1      -9.325   7.300  70.793  1.00  0.00    -0.160 C  
HETATM   23  H   UNL     1     -10.165   7.359  74.423  1.00  0.00     0.000 HD 
HETATM   24  C   UNL     1     -10.503   7.395  69.771  1.00  0.00    -0.235 C  
HETATM   25  C   UNL     1     -10.684   5.983  69.159  1.00  0.00    -0.399 C  
HETATM   26  C   UNL     1     -10.449   8.475  68.528  1.00  0.00    -0.205 C  
HETATM   27  C   UNL     1      -9.582   8.334  67.205  1.00  0.00    -0.234 C  
HETATM   28  C   UNL     1      -9.905   9.457  66.013  1.00  0.00    -0.296 C  
ENDROOT
BRANCH   2  29
HETATM   29  C   UNL     1      -9.557  16.577  66.877  1.00  0.00    -0.253 C  
HETATM   30  O   UNL     1      -9.446  17.792  68.925  1.00  0.00    -0.262 OA 
HETATM   31  C   UNL     1      -9.178  16.601  68.343  1.00  0.00    -0.225 C  
HETATM   32  O   UNL     1      -8.668  15.674  68.955  1.00  0.00    -0.202 OA 
ENDBRANCH   2  29
TORSDOF 1
ENDMDL
MODEL        3
REMARK 921   NORMALIZED FREE ENERGY PREDICTED BY IDOCK:   -7.69 KCAL/MOL
REMARK 922        TOTAL FREE ENERGY PREDICTED BY IDOCK:   -8.26 KCAL/MOL
REMARK 923 INTER-LIGAND FREE ENERGY PREDICTED BY IDOCK:   -8.35 KCAL/MOL
REMARK 924 INTRA-LIGAND FREE ENERGY PREDICTED BY IDOCK:    0.10 KCAL/MOL
REMARK 927      BINDING AFFINITY PREDICTED BY RF-SCORE:    0.00 PKD
ROOT
HETATM    1  C   UNL     1     -10.770  14.241  66.666  1.00  0.00    -0.290 C  
HETATM    2  C   UNL     1      -9.577  15.272  66.724  1.00  0.00    -0.257 C  
HETATM    3  C   UNL     1     -11.894  14.931  65.826  1.00  0.00    -0.118 C  
HETATM    4  C   UNL     1     -10.442  12.532  66.183  1.00  0.00    -0.272 C  
HETATM    5  C   UNL     1      -8.244  11.241  67.141  1.00  0.00    -0.149 C  
HETATM    6  C   UNL     1     -11.845  12.114  66.630  1.00  0.00    -0.314 C  
HETATM    7  H   UNL     1      -9.119   9.984  64.560  1.00  0.00     0.000 HD 
HETATM    8  C   UNL     1     -11.725  11.866  68.124  1.00  0.00    -0.388 C  
HETATM    9  C   UNL     1     -10.792  10.699  68.077  1.00  0.00    -0.309 C  
HETATM   10  O   UNL     1      -8.912   9.329  65.216  1.00  0.00    -0.191 OA 
HETATM   11  C   UNL     1      -9.768  10.998  66.952  1.00  0.00    -0.215 C  
HETATM   12  C   UNL     1     -10.466   9.832  69.290  1.00  0.00    -0.236 C  
HETATM   13  C   UNL     1     -11.659   9.961  70.249  1.00  0.00    -0.250 C  
HETATM   14  O   UNL     1     -11.687  11.245  70.869  1.00  0.00    -0.359 OA 
HETATM   15  C   UNL     1     -11.703   8.931  71.339  1.00  0.00    -0.385 C  
HETATM   16  C   UNL     1     -11.685   7.503  70.784  1.00  0.00    -0.281 C  
HETATM   17  H   UNL     1     -12.425  11.325  71.462  1.00  0.00     0.000 HD 
HETATM   18  C   UNL     1     -12.001   6.547  71.947  1.00  0.00    -0.389 C  
HETATM   19  C   UNL     1     -10.848   6.280  72.908  1.00  0.00    -0.256 C  
HETATM   20  O   UNL     1     -10.883   7.168  74.021  1.00  0.00    -0.509 OA 
HETATM   21  C   UNL     1      -9.480   6.228  72.254  1.00  0.00    -0.152 C  
HETATM   22  C   UNL     1      -9.213   7.165  71.020  1.00  0.00    -0.158 C  
HETATM   23  H   UNL     1     -10.165   7.002  74.620  1.00  0.00     0.000 HD 
HETATM   24  C   UNL     1     -10.363   7.226  69.964  1.00  0.00    -0.222 C  
HETATM   25  C   UNL     1     -10.427   5.834  69.286  1.00  0.00    -0.358 C  
HETATM   26  C   UNL     1     -10.345   8.363  68.772  1.00  0.00    -0.225 C  
HETATM   27  C   UNL     1      -9.432   8.342  67.474  1.00  0.00    -0.182 C  
HETATM   28  C   UNL     1      -9.794   9.493  66.322  1.00  0.00    -0.266 C  
ENDROOT
BRANCH   2  29
HETATM   29  C   UNL     1      -9.968  16.574  67.505  1.00  0.00    -0.255 C  
HETATM   30  O   UNL     1     -10.618  18.862  67.360  1.00  0.00    -0.422 OA 
HETATM   31  C   UNL     1     -10.298  17.767  66.633  1.00  0.00    -0.345 C  
HETATM   32  O   UNL     1     -10.304  17.768  65.411  1.00  0.00    -0.602 OA 
ENDBRANCH   2  29
TORSDOF 1
ENDMDL
MODEL        4
REMARK 921   NORMALIZED FREE ENERGY PREDICTED BY IDOCK:   -7.42 KCAL/MOL
REMARK 922        TOTAL FREE ENERGY PREDICTED BY IDOCK:   -7.97 KCAL/MOL
REMARK 923 INTER-LIGAND FREE ENERGY PREDICTED BY IDOCK:   -7.87 KCAL/MOL
REMARK 924 INTRA-LIGAND FREE ENERGY PREDICTED BY IDOCK:   -0.11 KCAL/MOL
REMARK 927      BINDING AFFINITY PREDICTED BY RF-SCORE:    0.00 PKD
ROOT
HETATM    1  C   UNL     1      -9.397   9.765  69.448  1.00  0.00    -0.212 C  
HETATM    2  C   UNL     1     -10.265   9.221  70.648  1.00  0.00    -0.335 C  
HETATM    3  C   UNL     1      -8.592   8.537  68.909  1.00  0.00    -0.127 C  
HETATM    4  C   UNL     1     -10.189  10.744  68.153  1.00  0.00    -0.194 C  
HETATM    5  C   UNL     1     -12.023  12.646  68.811  1.00  0.00    -0.279 C  
HETATM    6  C   UNL     1      -8.823  11.143  67.589  1.00  0.00    -0.136 C  
HETATM    7  H   UNL     1     -12.478  11.724  65.992  1.00  0.00     0.000 HD 
HETATM    8  C   UNL     1      -8.387  12.335  68.424  1.00  0.00    -0.144 C  
HETATM    9  C   UNL     1      -9.455  13.295  68.009  1.00  0.00    -0.219 C  
HETATM   10  O   UNL     1     -12.523  12.671  66.062  1.00  0.00    -0.555 OA 
HETATM   11  C   UNL     1     -10.768  12.477  67.909  1.00  0.00    -0.239 C  
HETATM   12  C   UNL     1      -9.425  14.784  68.342  1.00  0.00    -0.213 C  
HETATM   13  C   UNL     1      -7.949  15.153  68.549  1.00  0.00    -0.142 C  
HETATM   14  O   UNL     1      -7.449  14.620  69.773  1.00  0.00    -0.360 OA 
HETATM   15  C   UNL     1      -7.663  16.626  68.546  1.00  0.00    -0.215 C  
HETATM   16  C   UNL     1      -8.154  17.306  67.264  1.00  0.00    -0.210 C  
HETATM   17  H   UNL     1      -6.535  14.848  69.900  1.00  0.00     0.000 HD 
HETATM   18  C   UNL     1      -7.582  18.734  67.246  1.00  0.00    -0.232 C  
HETATM   19  C   UNL     1      -8.289  19.736  68.150  1.00  0.00    -0.289 C  
HETATM   20  O   UNL     1      -7.659  19.820  69.425  1.00  0.00    -0.263 OA 
HETATM   21  C   UNL     1      -9.790  19.539  68.260  1.00  0.00    -0.512 C  
HETATM   22  C   UNL     1     -10.350  18.071  68.201  1.00  0.00    -0.398 C  
HETATM   23  H   UNL     1      -8.100  20.444  69.989  1.00  0.00     0.000 HD 
HETATM   24  C   UNL     1      -9.719  17.156  67.102  1.00  0.00    -0.261 C  
HETATM   25  C   UNL     1     -10.178  17.717  65.732  1.00  0.00    -0.160 C  
HETATM   26  C   UNL     1     -10.001  15.533  67.099  1.00  0.00    -0.242 C  
HETATM   27  C   UNL     1     -11.341  14.819  66.634  1.00  0.00    -0.347 C  
HETATM   28  C   UNL     1     -11.263  13.157  66.511  1.00  0.00    -0.310 C  
ENDROOT
BRANCH   2  29
HETATM   29  C   UNL     1      -9.371   8.729  71.839  1.00  0.00    -0.343 C  
HETATM   30  O   UNL     1      -9.289   7.566  73.917  1.00  0.00    -0.254 OA 
HETATM   31  C   UNL     1     -10.107   7.956  72.913  1.00  0.00    -0.310 C  
HETATM   32  O   UNL     1     -11.298   7.681  72.895  1.00  0.00    -0.369 OA 
ENDBRANCH   2  29
TORSDOF 1
ENDMDL
MODEL        5
REMARK 921   NORMALIZED FREE ENERGY PREDICTED BY IDOCK:   -7.42 KCAL/MOL
REMARK 922        TOTAL FREE ENERGY PREDICTED BY IDOCK:   -7.97 KCAL/MOL
REMARK 923 INTER-LIGAND FREE ENERGY PREDICTED BY IDOCK:   -7.85 KCAL/MOL
REMARK 924 INTRA-LIGAND FREE ENERGY PREDICTED BY IDOCK:   -0.12 KCAL/MOL
REMARK 927      BINDING AFFINITY PREDICTED BY RF-SCORE:    0.00 PKD
ROOT
HETATM    1  C   UNL     1     -10.739  14.190  66.313  1.00  0.00    -0.293 C  
HETATM    2  C   UNL     1      -9.710  15.378  66.452  1.00  0.00    -0.311 C  
HETATM    3  C   UNL     1     -11.826  14.681  65.301  1.00  0.00    -0.324 C  
HETATM    4  C   UNL     1     -10.129  12.524  65.977  1.00  0.00    -0.268 C  
HETATM    5  C   UNL     1      -7.921  11.593  67.271  1.00  0.00    -0.157 C  
HETATM    6  C   UNL     1     -11.510  11.935  66.274  1.00  0.00    -0.367 C  
HETATM    7  H   UNL     1      -8.282  10.117  64.684  1.00  0.00     0.000 HD 
HETATM    8  C   UNL     1     -11.551  11.772  67.784  1.00  0.00    -0.374 C  
HETATM    9  C   UNL     1     -10.473  10.744  67.921  1.00  0.00    -0.233 C  
HETATM   10  O   UNL     1      -8.077   9.526  65.399  1.00  0.00    -0.118 OA 
HETATM   11  C   UNL     1      -9.362  11.133  66.913  1.00  0.00    -0.189 C  
HETATM   12  C   UNL     1     -10.195   9.984  69.216  1.00  0.00    -0.229 C  
HETATM   13  C   UNL     1     -11.508   9.988  70.013  1.00  0.00    -0.248 C  
HETATM   14  O   UNL     1     -11.785  11.281  70.545  1.00  0.00    -0.385 OA 
HETATM   15  C   UNL     1     -11.556   9.010  71.150  1.00  0.00    -0.372 C  
HETATM   16  C   UNL     1     -11.278   7.575  70.688  1.00  0.00    -0.286 C  
HETATM   17  H   UNL     1     -12.597  11.283  71.038  1.00  0.00     0.000 HD 
HETATM   18  C   UNL     1     -11.611   6.636  71.860  1.00  0.00    -0.344 C  
HETATM   19  C   UNL     1     -10.567   6.573  72.968  1.00  0.00    -0.250 C  
HETATM   20  O   UNL     1     -10.862   7.496  74.013  1.00  0.00    -0.511 OA 
HETATM   21  C   UNL     1      -9.131   6.683  72.490  1.00  0.00    -0.140 C  
HETATM   22  C   UNL     1      -8.833   7.594  71.244  1.00  0.00    -0.139 C  
HETATM   23  H   UNL     1     -10.211   7.456  74.704  1.00  0.00     0.000 HD 
HETATM   24  C   UNL     1      -9.836   7.450  70.053  1.00  0.00    -0.179 C  
HETATM   25  C   UNL     1      -9.627   6.034  69.458  1.00  0.00    -0.171 C  
HETATM   26  C   UNL     1      -9.815   8.525  68.805  1.00  0.00    -0.180 C  
HETATM   27  C   UNL     1      -8.747   8.574  67.632  1.00  0.00    -0.136 C  
HETATM   28  C   UNL     1      -9.108   9.613  66.377  1.00  0.00    -0.156 C  
ENDROOT
BRANCH   2  29
HETATM   29  C   UNL     1     -10.367  16.646  67.100  1.00  0.00    -0.300 C  
HETATM   30  O   UNL     1     -10.393  19.026  67.233  1.00  0.00    -0.371 OA 
HETATM   31  C   UNL     1      -9.796  17.969  66.635  1.00  0.00    -0.352 C  
HETATM   32  O   UNL     1      -8.912  18.103  65.802  1.00  0.00    -0.462 OA 
ENDBRANCH   2  29
TORSDOF 1
ENDMDL
MODEL        6
REMARK 921   NORMALIZED FREE ENERGY PREDICTED BY IDOCK:   -7.28 KCAL/MOL
REMARK 922        TOTAL FREE ENERGY PREDICTED BY IDOCK:   -7.82 KCAL/MOL
REMARK 923 INTER-LIGAND FREE ENERGY PREDICTED BY IDOCK:   -7.71 KCAL/MOL
REMARK 924 INTRA-LIGAND FREE ENERGY PREDICTED BY IDOCK:   -0.12 KCAL/MOL
REMARK 927      BINDING AFFINITY PREDICTED BY RF-SCORE:    0.00 PKD
ROOT
HETATM    1  C   UNL     1     -10.864  10.897  68.874  1.00  0.00    -0.262 C  
HETATM    2  C   UNL     1     -12.122  10.747  69.814  1.00  0.00    -0.389 C  
HETATM    3  C   UNL     1     -10.528   9.454  68.372  1.00  0.00    -0.256 C  
HETATM    4  C   UNL     1     -10.880  12.140  67.564  1.00  0.00    -0.283 C  
HETATM    5  C   UNL     1     -11.881  14.625  68.052  1.00  0.00    -0.343 C  
HETATM    6  C   UNL     1      -9.381  11.939  67.325  1.00  0.00    -0.177 C  
HETATM    7  H   UNL     1     -12.028  14.027  65.115  1.00  0.00     0.000 HD 
HETATM    8  C   UNL     1      -8.697  12.823  68.354  1.00  0.00    -0.119 C  
HETATM    9  C   UNL     1      -9.163  14.150  67.844  1.00  0.00    -0.196 C  
HETATM   10  O   UNL     1     -11.700  14.904  65.278  1.00  0.00    -0.335 OA 
HETATM   11  C   UNL     1     -10.636  13.960  67.401  1.00  0.00    -0.267 C  
HETATM   12  C   UNL     1      -8.607  15.483  68.338  1.00  0.00    -0.168 C  
HETATM   13  C   UNL     1      -7.194  15.196  68.868  1.00  0.00    -0.133 C  
HETATM   14  O   UNL     1      -7.241  14.481  70.101  1.00  0.00    -0.395 OA 
HETATM   15  C   UNL     1      -6.343  16.413  69.082  1.00  0.00    -0.177 C  
HETATM   16  C   UNL     1      -6.216  17.258  67.810  1.00  0.00    -0.160 C  
HETATM   17  H   UNL     1      -6.367  14.303  70.429  1.00  0.00     0.000 HD 
HETATM   18  C   UNL     1      -5.126  18.314  68.060  1.00  0.00    -0.164 C  
HETATM   19  C   UNL     1      -5.549  19.505  68.912  1.00  0.00    -0.205 C  
HETATM   20  O   UNL     1      -5.242  19.295  70.287  1.00  0.00    -0.191 OA 
HETATM   21  C   UNL     1      -6.984  19.953  68.703  1.00  0.00    -0.353 C  
HETATM   22  C   UNL     1      -8.062  18.857  68.377  1.00  0.00    -0.376 C  
HETATM   23  H   UNL     1      -5.505  20.037  70.818  1.00  0.00     0.000 HD 
HETATM   24  C   UNL     1      -7.628  17.781  67.329  1.00  0.00    -0.217 C  
HETATM   25  C   UNL     1      -7.502  18.506  65.965  1.00  0.00    -0.259 C  
HETATM   26  C   UNL     1      -8.536  16.426  67.094  1.00  0.00    -0.208 C  
HETATM   27  C   UNL     1      -9.909  16.348  66.301  1.00  0.00    -0.336 C  
HETATM   28  C   UNL     1     -10.486  14.809  66.016  1.00  0.00    -0.303 C  
ENDROOT
BRANCH   2  29
HETATM   29  C   UNL     1     -11.795   9.905  71.096  1.00  0.00    -0.472 C  
HETATM   30  O   UNL     1     -12.642   8.492  72.818  1.00  0.00    -0.307 OA 
HETATM   31  C   UNL     1     -12.980   9.193  71.712  1.00  0.00    -0.380 C  
HETATM   32  O   UNL     1     -14.121   9.212  71.273  1.00  0.00    -0.275 OA 
ENDBRANCH   2  29
TORSDOF 1
ENDMDL
MODEL        7
REMARK 921   NORMALIZED FREE ENERGY PREDICTED BY IDOCK:   -7.05 KCAL/MOL
REMARK 922        TOTAL FREE ENERGY PREDICTED BY IDOCK:   -7.58 KCAL/MOL
REMARK 923 INTER-LIGAND FREE ENERGY PREDICTED BY IDOCK:   -7.38 KCAL/MOL
REMARK 924 INTRA-LIGAND FREE ENERGY PREDICTED BY IDOCK:   -0.19 KCAL/MOL
REMARK 927      BINDING AFFINITY PREDICTED BY RF-SCORE:    0.00 PKD
ROOT
HETATM    1  C   UNL     1      -9.880  17.988  67.313  1.00  0.00    -0.306 C  
HETATM    2  C   UNL     1      -9.729  19.037  66.144  1.00  0.00    -0.333 C  
HETATM    3  C   UNL     1     -10.159  18.823  68.606  1.00  0.00    -0.432 C  
HETATM    4  C   UNL     1     -10.989  16.579  67.102  1.00  0.00    -0.049 C  
HETATM    5  C   UNL     1     -11.050  15.233  64.735  1.00  0.00    -0.407 C  
HETATM    6  C   UNL     1     -10.422  15.916  68.359  1.00  0.00    -0.254 C  
HETATM    7  H   UNL     1     -13.648  14.855  66.188  1.00  0.00     0.000 HD 
HETATM    8  C   UNL     1      -9.173  15.188  67.889  1.00  0.00    -0.184 C  
HETATM    9  C   UNL     1      -9.829  14.190  66.989  1.00  0.00    -0.258 C  
HETATM   10  O   UNL     1     -13.325  14.037  65.830  1.00  0.00    -0.543 OA 
HETATM   11  C   UNL     1     -10.973  14.939  66.260  1.00  0.00    -0.338 C  
HETATM   12  C   UNL     1      -9.097  12.995  66.383  1.00  0.00    -0.073 C  
HETATM   13  C   UNL     1      -7.917  12.688  67.317  1.00  0.00    -0.166 C  
HETATM   14  O   UNL     1      -6.898  13.679  67.204  1.00  0.00    -0.420 OA 
HETATM   15  C   UNL     1      -7.275  11.350  67.100  1.00  0.00    -0.134 C  
HETATM   16  C   UNL     1      -8.284  10.202  67.208  1.00  0.00    -0.117 C  
HETATM   17  H   UNL     1      -6.168  13.489  67.782  1.00  0.00     0.000 HD 
HETATM   18  C   UNL     1      -7.489   8.885  67.237  1.00  0.00    -0.084 C  
HETATM   19  C   UNL     1      -6.960   8.408  65.890  1.00  0.00    -0.068 C  
HETATM   20  O   UNL     1      -5.627   8.860  65.665  1.00  0.00    -0.047 OA 
HETATM   21  C   UNL     1      -7.873   8.698  64.713  1.00  0.00    -0.123 C  
HETATM   22  C   UNL     1      -8.728  10.017  64.747  1.00  0.00    -0.206 C  
HETATM   23  H   UNL     1      -5.297   8.563  64.826  1.00  0.00     0.000 HD 
HETATM   24  C   UNL     1      -9.417  10.334  66.114  1.00  0.00    -0.229 C  
HETATM   25  C   UNL     1     -10.507   9.254  66.330  1.00  0.00    -0.157 C  
HETATM   26  C   UNL     1     -10.109  11.804  66.382  1.00  0.00    -0.239 C  
HETATM   27  C   UNL     1     -11.500  12.302  65.799  1.00  0.00    -0.417 C  
HETATM   28  C   UNL     1     -12.067  13.740  66.428  1.00  0.00    -0.444 C  
ENDROOT
BRANCH   2  29
HETATM   29  C   UNL     1      -8.477  19.959  66.345  1.00  0.00    -0.379 C  
HETATM   30  O   UNL     1      -6.129  20.222  66.033  1.00  0.00    -0.180 OA 
HETATM   31  C   UNL     1      -7.174  19.390  65.824  1.00  0.00    -0.280 C  
HETATM   32  O   UNL     1      -7.051  18.314  65.256  1.00  0.00    -0.516 OA 
ENDBRANCH   2  29
TORSDOF 1
ENDMDL
MODEL        8
REMARK 921   NORMALIZED FREE ENERGY PREDICTED BY IDOCK:   -7.05 KCAL/MOL
REMARK 922        TOTAL FREE ENERGY PREDICTED BY IDOCK:   -7.57 KCAL/MOL
REMARK 923 INTER-LIGAND FREE ENERGY PREDICTED BY IDOCK:   -7.69 KCAL/MOL
REMARK 924 INTRA-LIGAND FREE ENERGY PREDICTED BY IDOCK:    0.11 KCAL/MOL
REMARK 927      BINDING AFFINITY PREDICTED BY RF-SCORE:    0.00 PKD
ROOT
HETATM    1  C   UNL     1     -10.692  14.006  66.309  1.00  0.00    -0.289 C  
HETATM    2  C   UNL     1      -9.535  15.079  66.337  1.00  0.00    -0.325 C  
HETATM    3  C   UNL     1     -11.880  14.678  65.545  1.00  0.00    -0.292 C  
HETATM    4  C   UNL     1     -10.329  12.324  65.761  1.00  0.00    -0.287 C  
HETATM    5  C   UNL     1      -8.041  11.089  66.571  1.00  0.00    -0.161 C  
HETATM    6  C   UNL     1     -11.692  11.843  66.263  1.00  0.00    -0.223 C  
HETATM    7  H   UNL     1      -8.999   9.873  64.001  1.00  0.00     0.000 HD 
HETATM    8  C   UNL     1     -11.488  11.559  67.741  1.00  0.00    -0.357 C  
HETATM    9  C   UNL     1     -10.518  10.429  67.614  1.00  0.00    -0.277 C  
HETATM   10  O   UNL     1      -8.737   9.207  64.626  1.00  0.00    -0.182 OA 
HETATM   11  C   UNL     1      -9.563  10.796  66.450  1.00  0.00    -0.226 C  
HETATM   12  C   UNL     1     -10.101   9.541  68.785  1.00  0.00    -0.202 C  
HETATM   13  C   UNL     1     -11.248   9.600  69.804  1.00  0.00    -0.174 C  
HETATM   14  O   UNL     1     -11.291  10.865  70.462  1.00  0.00    -0.425 OA 
HETATM   15  C   UNL     1     -11.202   8.540  70.865  1.00  0.00    -0.304 C  
HETATM   16  C   UNL     1     -11.161   7.129  70.268  1.00  0.00    -0.303 C  
HETATM   17  H   UNL     1     -12.001  10.901  71.092  1.00  0.00     0.000 HD 
HETATM   18  C   UNL     1     -11.384   6.131  71.417  1.00  0.00    -0.336 C  
HETATM   19  C   UNL     1     -10.176   5.880  72.312  1.00  0.00    -0.189 C  
HETATM   20  O   UNL     1     -10.186   6.736  73.450  1.00  0.00    -0.213 OA 
HETATM   21  C   UNL     1      -8.841   5.896  71.590  1.00  0.00    -0.139 C  
HETATM   22  C   UNL     1      -8.669   6.876  70.373  1.00  0.00    -0.147 C  
HETATM   23  H   UNL     1      -9.434   6.580  74.009  1.00  0.00     0.000 HD 
HETATM   24  C   UNL     1      -9.872   6.924  69.377  1.00  0.00    -0.161 C  
HETATM   25  C   UNL     1      -9.921   5.550  68.662  1.00  0.00    -0.222 C  
HETATM   26  C   UNL     1      -9.955   8.093  68.218  1.00  0.00    -0.212 C  
HETATM   27  C   UNL     1      -9.107   8.140  66.877  1.00  0.00    -0.185 C  
HETATM   28  C   UNL     1      -9.568   9.309  65.778  1.00  0.00    -0.271 C  
ENDROOT
BRANCH   2  29
HETATM   29  C   UNL     1      -9.932  16.344  67.174  1.00  0.00    -0.260 C  
HETATM   30  O   UNL     1     -10.681  18.605  67.128  1.00  0.00    -0.421 OA 
HETATM   31  C   UNL     1     -10.360  17.543  66.356  1.00  0.00    -0.334 C  
HETATM   32  O   UNL     1     -10.438  17.574  65.136  1.00  0.00    -0.573 OA 
ENDBRANCH   2  29
TORSDOF 1
ENDMDL
MODEL        9
REMARK 921   NORMALIZED FREE ENERGY PREDICTED BY IDOCK:   -7.00 KCAL/MOL
REMARK 922        TOTAL FREE ENERGY PREDICTED BY IDOCK:   -7.53 KCAL/MOL
REMARK 923 INTER-LIGAND FREE ENERGY PREDICTED BY IDOCK:   -7.42 KCAL/MOL
REMARK 924 INTRA-LIGAND FREE ENERGY PREDICTED BY IDOCK:   -0.11 KCAL/MOL
REMARK 927      BINDING AFFINITY PREDICTED BY RF-SCORE:    0.00 PKD
ROOT
HETATM    1  C   UNL     1      -9.493   8.931  67.029  1.00  0.00    -0.215 C  
HETATM    2  C   UNL     1     -10.151   8.093  68.193  1.00  0.00    -0.237 C  
HETATM    3  C   UNL     1      -8.868   7.886  66.047  1.00  0.00    -0.191 C  
HETATM    4  C   UNL     1     -10.457  10.218  66.209  1.00  0.00    -0.214 C  
HETATM    5  C   UNL     1     -12.034  11.886  67.674  1.00  0.00    -0.127 C  
HETATM    6  C   UNL     1      -9.200  10.748  65.514  1.00  0.00    -0.230 C  
HETATM    7  H   UNL     1     -13.051  11.740  64.855  1.00  0.00     0.000 HD 
HETATM    8  C   UNL     1      -8.553  11.677  66.527  1.00  0.00    -0.164 C  
HETATM    9  C   UNL     1      -9.628  12.715  66.587  1.00  0.00    -0.249 C  
HETATM   10  O   UNL     1     -13.032  12.634  65.174  1.00  0.00    -0.754 OA 
HETATM   11  C   UNL     1     -10.978  11.956  66.535  1.00  0.00    -0.337 C  
HETATM   12  C   UNL     1      -9.457  14.064  67.281  1.00  0.00    -0.231 C  
HETATM   13  C   UNL     1      -7.950  14.362  67.287  1.00  0.00    -0.180 C  
HETATM   14  O   UNL     1      -7.261  13.524  68.212  1.00  0.00    -0.089 OA 
HETATM   15  C   UNL     1      -7.592  15.783  67.609  1.00  0.00    -0.177 C  
HETATM   16  C   UNL     1      -8.275  16.778  66.665  1.00  0.00    -0.296 C  
HETATM   17  H   UNL     1      -6.329  13.708  68.216  1.00  0.00     0.000 HD 
HETATM   18  C   UNL     1      -7.640  18.159  66.905  1.00  0.00    -0.239 C  
HETATM   19  C   UNL     1      -8.114  18.889  68.156  1.00  0.00    -0.302 C  
HETATM   20  O   UNL     1      -7.255  18.633  69.263  1.00  0.00    -0.239 OA 
HETATM   21  C   UNL     1      -9.577  18.674  68.498  1.00  0.00    -0.399 C  
HETATM   22  C   UNL     1     -10.215  17.275  68.172  1.00  0.00    -0.343 C  
HETATM   23  H   UNL     1      -7.550  19.088  70.043  1.00  0.00     0.000 HD 
HETATM   24  C   UNL     1      -9.848  16.680  66.774  1.00  0.00    -0.280 C  
HETATM   25  C   UNL     1     -10.522  17.583  65.710  1.00  0.00    -0.212 C  
HETATM   26  C   UNL     1     -10.213  15.116  66.408  1.00  0.00    -0.291 C  
HETATM   27  C   UNL     1     -11.651  14.553  66.042  1.00  0.00    -0.356 C  
HETATM   28  C   UNL     1     -11.686  12.982  65.482  1.00  0.00    -0.368 C  
ENDROOT
BRANCH   2  29
HETATM   29  C   UNL     1      -9.080   7.303  69.021  1.00  0.00    -0.133 C  
HETATM   30  O   UNL     1      -8.678   5.661  70.702  1.00  0.00    -0.130 OA 
HETATM   31  C   UNL     1      -9.646   6.305  70.010  1.00  0.00    -0.158 C  
HETATM   32  O   UNL     1     -10.834   6.070  70.174  1.00  0.00    -0.280 OA 
ENDBRANCH   2  29
TORSDOF 1
ENDMDL
MODEL       10
REMARK 921   NORMALIZED FREE ENERGY PREDICTED BY IDOCK:   -6.88 KCAL/MOL
REMARK 922        TOTAL FREE ENERGY PREDICTED BY IDOCK:   -7.40 KCAL/MOL
REMARK 923 INTER-LIGAND FREE ENERGY PREDICTED BY IDOCK:   -7.29 KCAL/MOL
REMARK 924 INTRA-LIGAND FREE ENERGY PREDICTED BY IDOCK:   -0.11 KCAL/MOL
REMARK 927      BINDING AFFINITY PREDICTED BY RF-SCORE:    0.00 PKD
ROOT
HETATM    1  C   UNL     1     -10.342   9.805  68.832  1.00  0.00    -0.225 C  
HETATM    2  C   UNL     1     -11.335   9.368  69.977  1.00  0.00    -0.172 C  
HETATM    3  C   UNL     1      -9.909   8.486  68.112  1.00  0.00    -0.192 C  
HETATM    4  C   UNL     1     -10.819  11.131  67.702  1.00  0.00    -0.295 C  
HETATM    5  C   UNL     1     -12.053  13.361  68.660  1.00  0.00    -0.281 C  
HETATM    6  C   UNL     1      -9.393  11.206  67.153  1.00  0.00    -0.176 C  
HETATM    7  H   UNL     1     -12.728  12.991  65.760  1.00  0.00     0.000 HD 
HETATM    8  C   UNL     1      -8.646  12.106  68.123  1.00  0.00    -0.177 C  
HETATM    9  C   UNL     1      -9.401  13.372  67.870  1.00  0.00    -0.216 C  
HETATM   10  O   UNL     1     -12.508  13.894  65.955  1.00  0.00    -0.463 OA 
HETATM   11  C   UNL     1     -10.889  12.973  67.705  1.00  0.00    -0.257 C  
HETATM   12  C   UNL     1      -8.957  14.736  68.395  1.00  0.00    -0.187 C  
HETATM   13  C   UNL     1      -7.438  14.649  68.602  1.00  0.00    -0.125 C  
HETATM   14  O   UNL     1      -7.115  13.838  69.729  1.00  0.00    -0.339 OA 
HETATM   15  C   UNL     1      -6.751  15.971  68.783  1.00  0.00    -0.129 C  
HETATM   16  C   UNL     1      -7.024  16.926  67.617  1.00  0.00    -0.156 C  
HETATM   17  H   UNL     1      -6.175  13.784  69.857  1.00  0.00     0.000 HD 
HETATM   18  C   UNL     1      -6.075  18.128  67.768  1.00  0.00    -0.164 C  
HETATM   19  C   UNL     1      -6.480  19.155  68.818  1.00  0.00    -0.257 C  
HETATM   20  O   UNL     1      -5.861  18.888  70.072  1.00  0.00    -0.248 OA 
HETATM   21  C   UNL     1      -7.977  19.370  68.948  1.00  0.00    -0.360 C  
HETATM   22  C   UNL     1      -8.925  18.138  68.715  1.00  0.00    -0.231 C  
HETATM   23  H   UNL     1      -6.113  19.529  70.727  1.00  0.00     0.000 HD 
HETATM   24  C   UNL     1      -8.567  17.240  67.486  1.00  0.00    -0.213 C  
HETATM   25  C   UNL     1      -8.842  18.086  66.216  1.00  0.00    -0.194 C  
HETATM   26  C   UNL     1      -9.293  15.776  67.279  1.00  0.00    -0.219 C  
HETATM   27  C   UNL     1     -10.775  15.532  66.767  1.00  0.00    -0.305 C  
HETATM   28  C   UNL     1     -11.164  13.945  66.424  1.00  0.00    -0.315 C  
ENDROOT
BRANCH   2  29
HETATM   29  C   UNL     1     -10.623   8.491  71.064  1.00  0.00    -0.267 C  
HETATM   30  O   UNL     1     -10.725   7.575  73.262  1.00  0.00    -0.375 OA 
HETATM   31  C   UNL     1     -11.391   8.330  72.359  1.00  0.00    -0.388 C  
HETATM   32  O   UNL     1     -12.497   8.800  72.587  1.00  0.00    -0.361 OA 
ENDBRANCH   2  29
TORSDOF 1
ENDMDL
MODEL       11
REMARK 921   NORMALIZED FREE ENERGY PREDICTED BY IDOCK:   -6.70 KCAL/MOL
REMARK 922        TOTAL FREE ENERGY PREDICTED BY IDOCK:   -7.21 KCAL/MOL
REMARK 923 INTER-LIGAND FREE ENERGY PREDICTED BY IDOCK:   -7.06 KCAL/MOL
REMARK 924 INTRA-LIGAND FREE ENERGY PREDICTED BY IDOCK:   -0.15 KCAL/MOL
REMARK 927      BINDING AFFINITY PREDICTED BY RF-SCORE:    0.00 PKD
ROOT
HETATM    1  C   UNL     1     -10.529  14.183  66.641  1.00  0.00    -0.278 C  
HETATM    2  C   UNL     1      -9.301  15.174  66.622  1.00  0.00    -0.291 C  
HETATM    3  C   UNL     1     -11.763  15.019  66.170  1.00  0.00    -0.091 C  
HETATM    4  C   UNL     1     -10.383  12.576  65.831  1.00  0.00    -0.284 C  
HETATM    5  C   UNL     1      -8.102  11.113  66.099  1.00  0.00    -0.111 C  
HETATM    6  C   UNL     1     -11.688  12.106  66.479  1.00  0.00    -0.392 C  
HETATM    7  H   UNL     1      -9.528  10.321  63.581  1.00  0.00     0.000 HD 
HETATM    8  C   UNL     1     -11.286  11.609  67.857  1.00  0.00    -0.334 C  
HETATM    9  C   UNL     1     -10.436  10.454  67.432  1.00  0.00    -0.299 C  
HETATM   10  O   UNL     1      -9.226   9.562  64.066  1.00  0.00    -0.219 OA 
HETATM   11  C   UNL     1      -9.642  10.925  66.187  1.00  0.00    -0.239 C  
HETATM   12  C   UNL     1      -9.917   9.391  68.397  1.00  0.00    -0.191 C  
HETATM   13  C   UNL     1     -10.889   9.372  69.586  1.00  0.00    -0.228 C  
HETATM   14  O   UNL     1     -10.734  10.533  70.399  1.00  0.00    -0.437 OA 
HETATM   15  C   UNL     1     -10.765   8.174  70.481  1.00  0.00    -0.233 C  
HETATM   16  C   UNL     1     -10.923   6.860  69.709  1.00  0.00    -0.310 C  
HETATM   17  H   UNL     1     -11.335  10.522  71.134  1.00  0.00     0.000 HD 
HETATM   18  C   UNL     1     -11.046   5.726  70.741  1.00  0.00    -0.272 C  
HETATM   19  C   UNL     1      -9.740   5.286  71.391  1.00  0.00    -0.164 C  
HETATM   20  O   UNL     1      -9.513   5.974  72.617  1.00  0.00    -0.147 OA 
HETATM   21  C   UNL     1      -8.532   5.327  70.473  1.00  0.00    -0.120 C  
HETATM   22  C   UNL     1      -8.471   6.455  69.380  1.00  0.00    -0.126 C  
HETATM   23  H   UNL     1      -8.699   5.700  73.023  1.00  0.00     0.000 HD 
HETATM   24  C   UNL     1      -9.804   6.708  68.604  1.00  0.00    -0.138 C  
HETATM   25  C   UNL     1     -10.066   5.451  67.736  1.00  0.00    -0.215 C  
HETATM   26  C   UNL     1      -9.970   8.029  67.634  1.00  0.00    -0.234 C  
HETATM   27  C   UNL     1      -9.334   8.215  66.191  1.00  0.00    -0.232 C  
HETATM   28  C   UNL     1      -9.863   9.549  65.339  1.00  0.00    -0.177 C  
ENDROOT
BRANCH   2  29
HETATM   29  C   UNL     1      -9.468  16.331  67.667  1.00  0.00    -0.221 C  
HETATM   30  O   UNL     1      -9.590  18.683  68.030  1.00  0.00    -0.295 OA 
HETATM   31  C   UNL     1      -9.452  17.727  67.083  1.00  0.00    -0.265 C  
HETATM   32  O   UNL     1      -9.347  17.994  65.894  1.00  0.00    -0.520 OA 
ENDBRANCH   2  29
TORSDOF 1
ENDMDL
MODEL       12
REMARK 921   NORMALIZED FREE ENERGY PREDICTED BY IDOCK:   -6.65 KCAL/MOL
REMARK 922        TOTAL FREE ENERGY PREDICTED BY IDOCK:   -7.16 KCAL/MOL
REMARK 923 INTER-LIGAND FREE ENERGY PREDICTED BY IDOCK:   -7.01 KCAL/MOL
REMARK 924 INTRA-LIGAND FREE ENERGY PREDICTED BY IDOCK:   -0.15 KCAL/MOL
REMARK 927      BINDING AFFINITY PREDICTED BY RF-SCORE:    0.00 PKD
ROOT
HETATM    1  C   UNL     1      -9.079   6.738  70.458  1.00  0.00    -0.156 C  
HETATM    2  C   UNL     1     -10.034   5.520  70.768  1.00  0.00    -0.263 C  
HETATM    3  C   UNL     1      -7.939   6.672  71.526  1.00  0.00    -0.103 C  
HETATM    4  C   UNL     1      -8.487   6.994  68.772  1.00  0.00    -0.122 C  
HETATM    5  C   UNL     1     -10.186   6.686  66.667  1.00  0.00    -0.208 C  
HETATM    6  C   UNL     1      -7.955   8.379  69.146  1.00  0.00    -0.110 C  
HETATM    7  H   UNL     1      -7.356   6.279  65.758  1.00  0.00     0.000 HD 
HETATM    8  C   UNL     1      -9.152   9.307  69.019  1.00  0.00    -0.147 C  
HETATM    9  C   UNL     1      -9.371   9.180  67.545  1.00  0.00    -0.157 C  
HETATM   10  O   UNL     1      -7.842   6.828  65.153  1.00  0.00    -0.105 OA 
HETATM   11  C   UNL     1      -9.123   7.692  67.189  1.00  0.00    -0.146 C  
HETATM   12  C   UNL     1     -10.318  10.079  66.754  1.00  0.00    -0.283 C  
HETATM   13  C   UNL     1     -10.438  11.389  67.548  1.00  0.00    -0.201 C  
HETATM   14  O   UNL     1     -11.210  11.206  68.733  1.00  0.00    -0.208 OA 
HETATM   15  C   UNL     1     -11.041  12.532  66.786  1.00  0.00    -0.323 C  
HETATM   16  C   UNL     1     -10.281  12.824  65.488  1.00  0.00    -0.293 C  
HETATM   17  H   UNL     1     -11.284  12.016  69.224  1.00  0.00     0.000 HD 
HETATM   18  C   UNL     1     -10.808  14.159  64.932  1.00  0.00    -0.423 C  
HETATM   19  C   UNL     1     -12.157  14.089  64.227  1.00  0.00    -0.445 C  
HETATM   20  O   UNL     1     -13.226  14.383  65.122  1.00  0.00    -0.602 OA 
HETATM   21  C   UNL     1     -12.396  12.811  63.443  1.00  0.00    -0.531 C  
HETATM   22  C   UNL     1     -11.783  11.476  64.001  1.00  0.00    -0.226 C  
HETATM   23  H   UNL     1     -14.067  14.341  64.683  1.00  0.00     0.000 HD 
HETATM   24  C   UNL     1     -10.311  11.578  64.517  1.00  0.00    -0.354 C  
HETATM   25  C   UNL     1      -9.416  11.835  63.278  1.00  0.00    -0.194 C  
HETATM   26  C   UNL     1      -9.636  10.344  65.374  1.00  0.00    -0.303 C  
HETATM   27  C   UNL     1      -9.115   8.968  64.778  1.00  0.00    -0.088 C  
HETATM   28  C   UNL     1      -8.261   8.003  65.839  1.00  0.00    -0.127 C  
ENDROOT
BRANCH   2  29
HETATM   29  C   UNL     1     -10.734   5.667  72.163  1.00  0.00    -0.287 C  
HETATM   30  O   UNL     1     -11.115   4.704  74.309  1.00  0.00    -0.287 OA 
HETATM   31  C   UNL     1     -10.480   4.529  73.128  1.00  0.00    -0.195 C  
HETATM   32  O   UNL     1      -9.770   3.558  72.905  1.00  0.00    -0.124 OA 
ENDBRANCH   2  29
TORSDOF 1
ENDMDL
MODEL       13
REMARK 921   NORMALIZED FREE ENERGY PREDICTED BY IDOCK:   -6.65 KCAL/MOL
REMARK 922        TOTAL FREE ENERGY PREDICTED BY IDOCK:   -7.15 KCAL/MOL
REMARK 923 INTER-LIGAND FREE ENERGY PREDICTED BY IDOCK:   -6.98 KCAL/MOL
REMARK 924 INTRA-LIGAND FREE ENERGY PREDICTED BY IDOCK:   -0.18 KCAL/MOL
REMARK 927      BINDING AFFINITY PREDICTED BY RF-SCORE:    0.00 PKD
ROOT
HETATM    1  C   UNL     1      -8.845   4.950  67.889  1.00  0.00    -0.110 C  
HETATM    2  C   UNL     1      -7.356   4.510  68.176  1.00  0.00    -0.065 C  
HETATM    3  C   UNL     1      -9.656   3.625  67.703  1.00  0.00    -0.193 C  
HETATM    4  C   UNL     1      -9.641   6.146  68.983  1.00  0.00    -0.144 C  
HETATM    5  C   UNL     1      -8.261   8.323  69.860  1.00  0.00    -0.123 C  
HETATM    6  C   UNL     1     -10.802   6.306  67.999  1.00  0.00    -0.409 C  
HETATM    7  H   UNL     1     -10.486   7.692  71.771  1.00  0.00     0.000 HD 
HETATM    8  C   UNL     1     -10.321   7.333  66.988  1.00  0.00    -0.376 C  
HETATM    9  C   UNL     1     -10.213   8.508  67.907  1.00  0.00    -0.273 C  
HETATM   10  O   UNL     1     -10.438   8.622  71.585  1.00  0.00    -0.243 OA 
HETATM   11  C   UNL     1      -9.644   7.971  69.245  1.00  0.00    -0.157 C  
HETATM   12  C   UNL     1      -9.989   9.938  67.422  1.00  0.00    -0.235 C  
HETATM   13  C   UNL     1     -10.525   9.998  65.983  1.00  0.00    -0.074 C  
HETATM   14  O   UNL     1      -9.668   9.300  65.083  1.00  0.00    -0.456 OA 
HETATM   15  C   UNL     1     -10.719  11.384  65.442  1.00  0.00    -0.313 C  
HETATM   16  C   UNL     1     -11.637  12.228  66.333  1.00  0.00    -0.445 C  
HETATM   17  H   UNL     1     -10.000   9.337  64.194  1.00  0.00     0.000 HD 
HETATM   18  C   UNL     1     -11.978  13.515  65.562  1.00  0.00    -0.420 C  
HETATM   19  C   UNL     1     -10.884  14.575  65.537  1.00  0.00    -0.336 C  
HETATM   20  O   UNL     1     -10.067  14.452  64.377  1.00  0.00    -0.610 OA 
HETATM   21  C   UNL     1     -10.065  14.668  66.812  1.00  0.00    -0.266 C  
HETATM   22  C   UNL     1      -9.796  13.345  67.616  1.00  0.00    -0.226 C  
HETATM   23  H   UNL     1      -9.385  15.113  64.361  1.00  0.00     0.000 HD 
HETATM   24  C   UNL     1     -11.028  12.397  67.781  1.00  0.00    -0.267 C  
HETATM   25  C   UNL     1     -12.033  13.124  68.710  1.00  0.00    -0.316 C  
HETATM   26  C   UNL     1     -10.835  10.864  68.353  1.00  0.00    -0.266 C  
HETATM   27  C   UNL     1     -10.579  10.457  69.866  1.00  0.00    -0.299 C  
HETATM   28  C   UNL     1     -10.662   8.823  70.193  1.00  0.00    -0.224 C  
ENDROOT
BRANCH   2  29
HETATM   29  C   UNL     1      -6.718   3.777  66.945  1.00  0.00    -0.046 C  
HETATM   30  O   UNL     1      -5.683   4.006  64.810  1.00  0.00    -0.013 OA 
HETATM   31  C   UNL     1      -6.213   4.691  65.849  1.00  0.00    -0.035 C  
HETATM   32  O   UNL     1      -6.248   5.913  65.876  1.00  0.00    -0.034 OA 
ENDBRANCH   2  29
TORSDOF 1
ENDMDL
MODEL       14
REMARK 921   NORMALIZED FREE ENERGY PREDICTED BY IDOCK:   -6.53 KCAL/MOL
REMARK 922        TOTAL FREE ENERGY PREDICTED BY IDOCK:   -7.02 KCAL/MOL
REMARK 923 INTER-LIGAND FREE ENERGY PREDICTED BY IDOCK:   -6.88 KCAL/MOL
REMARK 924 INTRA-LIGAND FREE ENERGY PREDICTED BY IDOCK:   -0.15 KCAL/MOL
REMARK 927      BINDING AFFINITY PREDICTED BY RF-SCORE:    0.00 PKD
ROOT
HETATM    1  C   UNL     1      -8.843   4.878  67.900  1.00  0.00    -0.110 C  
HETATM    2  C   UNL     1      -7.355   4.439  68.186  1.00  0.00    -0.065 C  
HETATM    3  C   UNL     1      -9.654   3.553  67.719  1.00  0.00    -0.179 C  
HETATM    4  C   UNL     1      -9.638   6.077  68.991  1.00  0.00    -0.153 C  
HETATM    5  C   UNL     1      -8.258   8.258  69.860  1.00  0.00    -0.123 C  
HETATM    6  C   UNL     1     -10.800   6.234  68.008  1.00  0.00    -0.409 C  
HETATM    7  H   UNL     1     -10.481   7.631  71.775  1.00  0.00     0.000 HD 
HETATM    8  C   UNL     1     -10.321   7.259  66.993  1.00  0.00    -0.376 C  
HETATM    9  C   UNL     1     -10.211   8.436  67.908  1.00  0.00    -0.273 C  
HETATM   10  O   UNL     1     -10.434   8.561  71.586  1.00  0.00    -0.229 OA 
HETATM   11  C   UNL     1      -9.642   7.903  69.248  1.00  0.00    -0.157 C  
HETATM   12  C   UNL     1      -9.989   9.865  67.419  1.00  0.00    -0.235 C  
HETATM   13  C   UNL     1     -10.526   9.921  65.981  1.00  0.00    -0.042 C  
HETATM   14  O   UNL     1      -9.670   9.220  65.082  1.00  0.00    -0.456 OA 
HETATM   15  C   UNL     1     -10.720  11.305  65.435  1.00  0.00    -0.291 C  
HETATM   16  C   UNL     1     -11.637  12.151  66.325  1.00  0.00    -0.424 C  
HETATM   17  H   UNL     1     -10.002   9.254  64.193  1.00  0.00     0.000 HD 
HETATM   18  C   UNL     1     -11.980  13.436  65.550  1.00  0.00    -0.433 C  
HETATM   19  C   UNL     1     -10.886  14.496  65.522  1.00  0.00    -0.336 C  
HETATM   20  O   UNL     1     -10.070  14.369  64.361  1.00  0.00    -0.610 OA 
HETATM   21  C   UNL     1     -10.066  14.593  66.795  1.00  0.00    -0.266 C  
HETATM   22  C   UNL     1      -9.795  13.272  67.603  1.00  0.00    -0.230 C  
HETATM   23  H   UNL     1      -9.388  15.031  64.343  1.00  0.00     0.000 HD 
HETATM   24  C   UNL     1     -11.027  12.325  67.772  1.00  0.00    -0.274 C  
HETATM   25  C   UNL     1     -12.032  13.054  68.699  1.00  0.00    -0.298 C  
HETATM   26  C   UNL     1     -10.834  10.794  68.348  1.00  0.00    -0.276 C  
HETATM   27  C   UNL     1     -10.576  10.391  69.862  1.00  0.00    -0.299 C  
HETATM   28  C   UNL     1     -10.659   8.758  70.194  1.00  0.00    -0.221 C  
ENDROOT
BRANCH   2  29
HETATM   29  C   UNL     1      -6.717   3.703  66.957  1.00  0.00    -0.046 C  
HETATM   30  O   UNL     1      -5.701   1.708  66.141  1.00  0.00    -0.016 OA 
HETATM   31  C   UNL     1      -6.250   2.289  67.231  1.00  0.00    -0.027 C  
HETATM   32  O   UNL     1      -6.360   1.704  68.299  1.00  0.00    -0.024 OA 
ENDBRANCH   2  29
TORSDOF 1
ENDMDL
MODEL       15
REMARK 921   NORMALIZED FREE ENERGY PREDICTED BY IDOCK:   -6.52 KCAL/MOL
REMARK 922        TOTAL FREE ENERGY PREDICTED BY IDOCK:   -7.02 KCAL/MOL
REMARK 923 INTER-LIGAND FREE ENERGY PREDICTED BY IDOCK:   -6.88 KCAL/MOL
REMARK 924 INTRA-LIGAND FREE ENERGY PREDICTED BY IDOCK:   -0.14 KCAL/MOL
REMARK 927      BINDING AFFINITY PREDICTED BY RF-SCORE:    0.00 PKD
ROOT
HETATM    1  C   UNL     1      -9.739  17.319  67.544  1.00  0.00    -0.264 C  
HETATM    2  C   UNL     1      -9.188  18.292  66.431  1.00  0.00    -0.272 C  
HETATM    3  C   UNL     1     -10.320  18.239  68.669  1.00  0.00    -0.301 C  
HETATM    4  C   UNL     1     -10.833  15.963  67.073  1.00  0.00    -0.252 C  
HETATM    5  C   UNL     1     -10.303  14.493  64.842  1.00  0.00    -0.401 C  
HETATM    6  C   UNL     1     -10.697  15.340  68.464  1.00  0.00    -0.247 C  
HETATM    7  H   UNL     1     -13.228  14.338  65.492  1.00  0.00     0.000 HD 
HETATM    8  C   UNL     1      -9.419  14.521  68.405  1.00  0.00    -0.209 C  
HETATM    9  C   UNL     1      -9.854  13.512  67.391  1.00  0.00    -0.227 C  
HETATM   10  O   UNL     1     -12.872  13.484  65.274  1.00  0.00    -0.660 OA 
HETATM   11  C   UNL     1     -10.687  14.280  66.333  1.00  0.00    -0.297 C  
HETATM   12  C   UNL     1      -9.063  12.247  67.069  1.00  0.00    -0.201 C  
HETATM   13  C   UNL     1      -8.225  11.929  68.316  1.00  0.00    -0.157 C  
HETATM   14  O   UNL     1      -7.151  12.855  68.467  1.00  0.00    -0.090 OA 
HETATM   15  C   UNL     1      -7.639  10.548  68.345  1.00  0.00    -0.097 C  
HETATM   16  C   UNL     1      -8.712   9.464  68.198  1.00  0.00    -0.124 C  
HETATM   17  H   UNL     1      -6.633  12.659  69.238  1.00  0.00     0.000 HD 
HETATM   18  C   UNL     1      -8.050   8.110  68.505  1.00  0.00    -0.124 C  
HETATM   19  C   UNL     1      -7.190   7.531  67.389  1.00  0.00    -0.087 C  
HETATM   20  O   UNL     1      -5.822   7.897  67.544  1.00  0.00    -0.036 OA 
HETATM   21  C   UNL     1      -7.705   7.804  65.987  1.00  0.00    -0.093 C  
HETATM   22  C   UNL     1      -8.442   9.167  65.723  1.00  0.00    -0.152 C  
HETATM   23  H   UNL     1      -5.285   7.536  66.848  1.00  0.00     0.000 HD 
HETATM   24  C   UNL     1      -9.471   9.597  66.818  1.00  0.00    -0.209 C  
HETATM   25  C   UNL     1     -10.648   8.591  66.749  1.00  0.00    -0.227 C  
HETATM   26  C   UNL     1     -10.110  11.115  66.818  1.00  0.00    -0.255 C  
HETATM   27  C   UNL     1     -11.237  11.654  65.839  1.00  0.00    -0.296 C  
HETATM   28  C   UNL     1     -11.862  13.154  66.221  1.00  0.00    -0.401 C  
ENDROOT
BRANCH   2  29
HETATM   29  C   UNL     1      -7.986  19.155  66.953  1.00  0.00    -0.273 C  
HETATM   30  O   UNL     1      -5.813  20.020  66.497  1.00  0.00    -0.171 OA 
HETATM   31  C   UNL     1      -6.822  19.275  65.992  1.00  0.00    -0.245 C  
HETATM   32  O   UNL     1      -6.777  18.785  64.873  1.00  0.00    -0.508 OA 
ENDBRANCH   2  29
TORSDOF 1
ENDMDL
MODEL       16
REMARK 921   NORMALIZED FREE ENERGY PREDICTED BY IDOCK:   -6.50 KCAL/MOL
REMARK 922        TOTAL FREE ENERGY PREDICTED BY IDOCK:   -7.00 KCAL/MOL
REMARK 923 INTER-LIGAND FREE ENERGY PREDICTED BY IDOCK:   -6.85 KCAL/MOL
REMARK 924 INTRA-LIGAND FREE ENERGY PREDICTED BY IDOCK:   -0.14 KCAL/MOL
REMARK 927      BINDING AFFINITY PREDICTED BY RF-SCORE:    0.00 PKD
ROOT
HETATM    1  C   UNL     1      -9.716  11.660  66.872  1.00  0.00    -0.211 C  
HETATM    2  C   UNL     1      -8.986  10.555  66.014  1.00  0.00    -0.185 C  
HETATM    3  C   UNL     1     -11.071  11.025  67.326  1.00  0.00    -0.359 C  
HETATM    4  C   UNL     1      -8.816  12.489  68.200  1.00  0.00    -0.191 C  
HETATM    5  C   UNL     1      -6.236  13.271  67.820  1.00  0.00    -0.159 C  
HETATM    6  C   UNL     1      -9.932  13.528  68.336  1.00  0.00    -0.232 C  
HETATM    7  H   UNL     1      -6.765  12.898  70.750  1.00  0.00     0.000 HD 
HETATM    8  C   UNL     1      -9.624  14.575  67.279  1.00  0.00    -0.226 C  
HETATM    9  C   UNL     1      -8.332  15.078  67.840  1.00  0.00    -0.151 C  
HETATM   10  O   UNL     1      -6.286  13.701  70.580  1.00  0.00    -0.131 OA 
HETATM   11  C   UNL     1      -7.572  13.838  68.376  1.00  0.00    -0.135 C  
HETATM   12  C   UNL     1      -7.625  16.332  67.333  1.00  0.00    -0.183 C  
HETATM   13  C   UNL     1      -8.711  17.219  66.705  1.00  0.00    -0.251 C  
HETATM   14  O   UNL     1      -9.167  16.680  65.467  1.00  0.00    -0.438 OA 
HETATM   15  C   UNL     1      -8.296  18.640  66.456  1.00  0.00    -0.304 C  
HETATM   16  C   UNL     1      -7.792  19.325  67.730  1.00  0.00    -0.310 C  
HETATM   17  H   UNL     1      -9.839  17.228  65.079  1.00  0.00     0.000 HD 
HETATM   18  C   UNL     1      -7.651  20.826  67.426  1.00  0.00    -0.349 C  
HETATM   19  C   UNL     1      -6.417  21.220  66.624  1.00  0.00    -0.248 C  
HETATM   20  O   UNL     1      -6.698  21.268  65.228  1.00  0.00    -0.487 OA 
HETATM   21  C   UNL     1      -5.174  20.404  66.934  1.00  0.00    -0.186 C  
HETATM   22  C   UNL     1      -5.359  18.890  67.313  1.00  0.00    -0.157 C  
HETATM   23  H   UNL     1      -5.929  21.513  64.727  1.00  0.00     0.000 HD 
HETATM   24  C   UNL     1      -6.522  18.586  68.311  1.00  0.00    -0.217 C  
HETATM   25  C   UNL     1      -6.116  19.199  69.676  1.00  0.00    -0.295 C  
HETATM   26  C   UNL     1      -7.009  17.036  68.584  1.00  0.00    -0.202 C  
HETATM   27  C   UNL     1      -6.245  15.958  69.464  1.00  0.00    -0.163 C  
HETATM   28  C   UNL     1      -7.086  14.548  69.762  1.00  0.00    -0.052 C  
ENDROOT
BRANCH   2  29
HETATM   29  C   UNL     1      -9.773  10.221  64.700  1.00  0.00    -0.398 C  
HETATM   30  O   UNL     1      -9.656   9.864  62.347  1.00  0.00    -0.235 OA 
HETATM   31  C   UNL     1      -8.924  10.144  63.449  1.00  0.00    -0.246 C  
HETATM   32  O   UNL     1      -7.711  10.293  63.408  1.00  0.00    -0.152 OA 
ENDBRANCH   2  29
TORSDOF 1
ENDMDL
MODEL       17
REMARK 921   NORMALIZED FREE ENERGY PREDICTED BY IDOCK:   -6.46 KCAL/MOL
REMARK 922        TOTAL FREE ENERGY PREDICTED BY IDOCK:   -6.96 KCAL/MOL
REMARK 923 INTER-LIGAND FREE ENERGY PREDICTED BY IDOCK:   -6.77 KCAL/MOL
REMARK 924 INTRA-LIGAND FREE ENERGY PREDICTED BY IDOCK:   -0.19 KCAL/MOL
REMARK 927      BINDING AFFINITY PREDICTED BY RF-SCORE:    0.00 PKD
ROOT
HETATM    1  C   UNL     1      -8.605   5.600  70.105  1.00  0.00    -0.127 C  
HETATM    2  C   UNL     1      -9.658   4.449  70.342  1.00  0.00    -0.266 C  
HETATM    3  C   UNL     1      -7.280   5.115  70.778  1.00  0.00    -0.064 C  
HETATM    4  C   UNL     1      -8.379   6.265  68.441  1.00  0.00    -0.115 C  
HETATM    5  C   UNL     1     -10.542   6.747  66.858  1.00  0.00    -0.374 C  
HETATM    6  C   UNL     1      -7.547   7.425  68.995  1.00  0.00    -0.102 C  
HETATM    7  H   UNL     1      -8.106   6.331  65.155  1.00  0.00     0.000 HD 
HETATM    8  C   UNL     1      -8.565   8.466  69.428  1.00  0.00    -0.129 C  
HETATM    9  C   UNL     1      -9.133   8.789  68.083  1.00  0.00    -0.142 C  
HETATM   10  O   UNL     1      -8.616   7.076  64.860  1.00  0.00     0.003 OA 
HETATM   11  C   UNL     1      -9.231   7.448  67.312  1.00  0.00    -0.150 C  
HETATM   12  C   UNL     1     -10.067   9.969  67.825  1.00  0.00    -0.222 C  
HETATM   13  C   UNL     1      -9.776  11.002  68.924  1.00  0.00    -0.172 C  
HETATM   14  O   UNL     1     -10.276  10.568  70.187  1.00  0.00    -0.433 OA 
HETATM   15  C   UNL     1     -10.333  12.371  68.663  1.00  0.00    -0.198 C  
HETATM   16  C   UNL     1      -9.851  12.943  67.325  1.00  0.00    -0.218 C  
HETATM   17  H   UNL     1     -10.096  11.207  70.866  1.00  0.00     0.000 HD 
HETATM   18  C   UNL     1     -10.254  14.427  67.282  1.00  0.00    -0.252 C  
HETATM   19  C   UNL     1     -11.720  14.700  66.969  1.00  0.00    -0.362 C  
HETATM   20  O   UNL     1     -12.489  14.834  68.160  1.00  0.00    -0.574 OA 
HETATM   21  C   UNL     1     -12.347  13.731  65.983  1.00  0.00    -0.499 C  
HETATM   22  C   UNL     1     -11.860  12.237  66.003  1.00  0.00    -0.409 C  
HETATM   23  H   UNL     1     -13.403  15.004  67.965  1.00  0.00     0.000 HD 
HETATM   24  C   UNL     1     -10.314  12.036  66.117  1.00  0.00    -0.257 C  
HETATM   25  C   UNL     1      -9.696  12.544  64.790  1.00  0.00     0.025 C  
HETATM   26  C   UNL     1      -9.683  10.546  66.425  1.00  0.00    -0.245 C  
HETATM   27  C   UNL     1      -9.555   9.353  65.386  1.00  0.00    -0.296 C  
HETATM   28  C   UNL     1      -8.660   8.043  65.904  1.00  0.00    -0.152 C  
ENDROOT
BRANCH   2  29
HETATM   29  C   UNL     1      -9.985   4.261  71.864  1.00  0.00    -0.255 C  
HETATM   30  O   UNL     1     -11.250   5.021  73.735  1.00  0.00    -0.287 OA 
HETATM   31  C   UNL     1     -11.015   5.223  72.419  1.00  0.00    -0.212 C  
HETATM   32  O   UNL     1     -11.601   6.080  71.773  1.00  0.00    -0.287 OA 
ENDBRANCH   2  29
TORSDOF 1
ENDMDL
MODEL       18
REMARK 921   NORMALIZED FREE ENERGY PREDICTED BY IDOCK:   -6.42 KCAL/MOL
REMARK 922        TOTAL FREE ENERGY PREDICTED BY IDOCK:   -6.91 KCAL/MOL
REMARK 923 INTER-LIGAND FREE ENERGY PREDICTED BY IDOCK:   -6.75 KCAL/MOL
REMARK 924 INTRA-LIGAND FREE ENERGY PREDICTED BY IDOCK:   -0.17 KCAL/MOL
REMARK 927      BINDING AFFINITY PREDICTED BY RF-SCORE:    0.00 PKD
ROOT
HETATM    1  C   UNL     1      -9.710  14.188  67.438  1.00  0.00    -0.232 C  
HETATM    2  C   UNL     1     -11.025  15.003  67.127  1.00  0.00    -0.329 C  
HETATM    3  C   UNL     1      -8.612  15.253  67.763  1.00  0.00    -0.163 C  
HETATM    4  C   UNL     1      -9.773  12.820  68.615  1.00  0.00    -0.050 C  
HETATM    5  C   UNL     1     -11.866  11.079  68.575  1.00  0.00    -0.286 C  
HETATM    6  C   UNL     1      -8.374  12.365  68.194  1.00  0.00    -0.178 C  
HETATM    7  H   UNL     1     -10.609  11.096  71.299  1.00  0.00     0.000 HD 
HETATM    8  C   UNL     1      -8.596  11.503  66.962  1.00  0.00    -0.161 C  
HETATM    9  C   UNL     1      -9.365  10.395  67.607  1.00  0.00    -0.161 C  
HETATM   10  O   UNL     1     -10.789  10.212  71.003  1.00  0.00    -0.240 OA 
HETATM   11  C   UNL     1     -10.313  11.058  68.639  1.00  0.00    -0.209 C  
HETATM   12  C   UNL     1      -9.686   9.076  66.909  1.00  0.00    -0.260 C  
HETATM   13  C   UNL     1      -8.611   8.883  65.829  1.00  0.00    -0.160 C  
HETATM   14  O   UNL     1      -8.802   9.785  64.742  1.00  0.00    -0.176 OA 
HETATM   15  C   UNL     1      -8.535   7.497  65.259  1.00  0.00    -0.075 C  
HETATM   16  C   UNL     1      -8.321   6.438  66.346  1.00  0.00    -0.119 C  
HETATM   17  H   UNL     1      -8.137   9.666  64.074  1.00  0.00     0.000 HD 
HETATM   18  C   UNL     1      -7.993   5.109  65.642  1.00  0.00    -0.108 C  
HETATM   19  C   UNL     1      -9.184   4.374  65.040  1.00  0.00    -0.157 C  
HETATM   20  O   UNL     1      -9.363   4.712  63.668  1.00  0.00    -0.296 OA 
HETATM   21  C   UNL     1     -10.470   4.495  65.836  1.00  0.00    -0.262 C  
HETATM   22  C   UNL     1     -10.741   5.840  66.604  1.00  0.00    -0.333 C  
HETATM   23  H   UNL     1     -10.105   4.254  63.292  1.00  0.00     0.000 HD 
HETATM   24  C   UNL     1      -9.517   6.429  67.377  1.00  0.00    -0.123 C  
HETATM   25  C   UNL     1      -9.216   5.460  68.549  1.00  0.00    -0.130 C  
HETATM   26  C   UNL     1      -9.572   7.956  67.992  1.00  0.00    -0.168 C  
HETATM   27  C   UNL     1     -10.354   8.411  69.296  1.00  0.00    -0.220 C  
HETATM   28  C   UNL     1     -10.038   9.964  69.818  1.00  0.00    -0.242 C  
ENDROOT
BRANCH   2  29
HETATM   29  C   UNL     1     -10.875  15.882  65.837  1.00  0.00    -0.237 C  
HETATM   30  O   UNL     1     -11.577  16.256  63.591  1.00  0.00    -0.836 OA 
HETATM   31  C   UNL     1     -11.756  15.470  64.677  1.00  0.00    -0.226 C  
HETATM   32  O   UNL     1     -12.561  14.550  64.693  1.00  0.00    -0.607 OA 
ENDBRANCH   2  29
TORSDOF 1
ENDMDL
MODEL       19
REMARK 921   NORMALIZED FREE ENERGY PREDICTED BY IDOCK:   -6.33 KCAL/MOL
REMARK 922        TOTAL FREE ENERGY PREDICTED BY IDOCK:   -6.81 KCAL/MOL
REMARK 923 INTER-LIGAND FREE ENERGY PREDICTED BY IDOCK:   -6.74 KCAL/MOL
REMARK 924 INTRA-LIGAND FREE ENERGY PREDICTED BY IDOCK:   -0.07 KCAL/MOL
REMARK 927      BINDING AFFINITY PREDICTED BY RF-SCORE:    0.00 PKD
ROOT
HETATM    1  C   UNL     1     -11.191  13.400  67.804  1.00  0.00    -0.306 C  
HETATM    2  C   UNL     1     -10.631  14.770  68.351  1.00  0.00    -0.242 C  
HETATM    3  C   UNL     1     -12.200  13.771  66.668  1.00  0.00    -0.454 C  
HETATM    4  C   UNL     1     -10.035  12.087  67.354  1.00  0.00    -0.200 C  
HETATM    5  C   UNL     1      -7.885  11.559  68.939  1.00  0.00    -0.071 C  
HETATM    6  C   UNL     1     -11.185  11.083  67.244  1.00  0.00    -0.330 C  
HETATM    7  H   UNL     1      -7.335  10.637  66.137  1.00  0.00     0.000 HD 
HETATM    8  C   UNL     1     -11.415  10.592  68.664  1.00  0.00    -0.332 C  
HETATM    9  C   UNL     1     -10.103   9.905  68.872  1.00  0.00    -0.194 C  
HETATM   10  O   UNL     1      -7.070   9.987  66.778  1.00  0.00    -0.087 OA 
HETATM   11  C   UNL     1      -9.027  10.800  68.206  1.00  0.00    -0.143 C  
HETATM   12  C   UNL     1      -9.810   8.993  70.060  1.00  0.00    -0.203 C  
HETATM   13  C   UNL     1     -11.166   8.454  70.540  1.00  0.00    -0.238 C  
HETATM   14  O   UNL     1     -11.923   9.470  71.194  1.00  0.00    -0.304 OA 
HETATM   15  C   UNL     1     -11.082   7.281  71.471  1.00  0.00    -0.264 C  
HETATM   16  C   UNL     1     -10.290   6.118  70.862  1.00  0.00    -0.267 C  
HETATM   17  H   UNL     1     -12.762   9.137  71.491  1.00  0.00     0.000 HD 
HETATM   18  C   UNL     1     -10.492   4.893  71.771  1.00  0.00    -0.214 C  
HETATM   19  C   UNL     1      -9.675   4.889  73.057  1.00  0.00    -0.143 C  
HETATM   20  O   UNL     1     -10.413   5.442  74.143  1.00  0.00    -0.265 OA 
HETATM   21  C   UNL     1      -8.291   5.499  72.930  1.00  0.00    -0.116 C  
HETATM   22  C   UNL     1      -8.103   6.704  71.937  1.00  0.00    -0.103 C  
HETATM   23  H   UNL     1      -9.904   5.439  74.945  1.00  0.00     0.000 HD 
HETATM   24  C   UNL     1      -8.802   6.544  70.549  1.00  0.00    -0.151 C  
HETATM   25  C   UNL     1      -8.059   5.408  69.799  1.00  0.00    -0.096 C  
HETATM   26  C   UNL     1      -8.924   7.825  69.520  1.00  0.00    -0.142 C  
HETATM   27  C   UNL     1      -7.753   8.426  68.632  1.00  0.00    -0.107 C  
HETATM   28  C   UNL     1      -8.218   9.567  67.507  1.00  0.00    -0.121 C  
ENDROOT
BRANCH   2  29
HETATM   29  C   UNL     1     -11.753  15.630  69.029  1.00  0.00    -0.408 C  
HETATM   30  O   UNL     1     -13.290  15.825  70.840  1.00  0.00    -0.576 OA 
HETATM   31  C   UNL     1     -12.321  15.047  70.305  1.00  0.00    -0.342 C  
HETATM   32  O   UNL     1     -11.954  14.006  70.830  1.00  0.00    -0.324 OA 
ENDBRANCH   2  29
TORSDOF 1
ENDMDL
MODEL       20
REMARK 921   NORMALIZED FREE ENERGY PREDICTED BY IDOCK:   -6.31 KCAL/MOL
REMARK 922        TOTAL FREE ENERGY PREDICTED BY IDOCK:   -6.80 KCAL/MOL
REMARK 923 INTER-LIGAND FREE ENERGY PREDICTED BY IDOCK:   -6.61 KCAL/MOL
REMARK 924 INTRA-LIGAND FREE ENERGY PREDICTED BY IDOCK:   -0.19 KCAL/MOL
REMARK 927      BINDING AFFINITY PREDICTED BY RF-SCORE:    0.00 PKD
ROOT
HETATM    1  C   UNL     1     -11.223  12.267  65.543  1.00  0.00    -0.376 C  
HETATM    2  C   UNL     1     -10.661  10.872  66.022  1.00  0.00    -0.254 C  
HETATM    3  C   UNL     1     -12.282  11.947  64.438  1.00  0.00    -0.277 C  
HETATM    4  C   UNL     1     -11.787  13.463  66.772  1.00  0.00    -0.452 C  
HETATM    5  C   UNL     1     -10.353  13.858  69.052  1.00  0.00    -0.108 C  
HETATM    6  C   UNL     1     -11.866  14.556  65.704  1.00  0.00    -0.326 C  
HETATM    7  H   UNL     1     -13.214  14.643  69.501  1.00  0.00     0.000 HD 
HETATM    8  C   UNL     1     -10.454  15.109  65.603  1.00  0.00    -0.378 C  
HETATM    9  C   UNL     1     -10.349  15.689  66.977  1.00  0.00    -0.289 C  
HETATM   10  O   UNL     1     -12.614  15.287  69.858  1.00  0.00    -0.275 OA 
HETATM   11  C   UNL     1     -11.044  14.687  67.934  1.00  0.00    -0.301 C  
HETATM   12  C   UNL     1      -9.214  16.610  67.418  1.00  0.00    -0.216 C  
HETATM   13  C   UNL     1      -8.674  17.276  66.143  1.00  0.00    -0.162 C  
HETATM   14  O   UNL     1      -7.940  16.349  65.347  1.00  0.00     0.731 OA 
HETATM   15  C   UNL     1      -7.793  18.467  66.381  1.00  0.00    -0.291 C  
HETATM   16  C   UNL     1      -8.489  19.539  67.225  1.00  0.00    -0.333 C  
HETATM   17  H   UNL     1      -7.606  16.760  64.559  1.00  0.00     0.000 HD 
HETATM   18  C   UNL     1      -7.616  20.805  67.182  1.00  0.00    -0.343 C  
HETATM   19  C   UNL     1      -6.381  20.780  68.075  1.00  0.00    -0.327 C  
HETATM   20  O   UNL     1      -5.234  20.326  67.363  1.00  0.00    -0.165 OA 
HETATM   21  C   UNL     1      -6.568  20.052  69.393  1.00  0.00    -0.348 C  
HETATM   22  C   UNL     1      -7.525  18.805  69.420  1.00  0.00    -0.003 C  
HETATM   23  H   UNL     1      -4.464  20.311  67.919  1.00  0.00     0.000 HD 
HETATM   24  C   UNL     1      -8.875  18.980  68.652  1.00  0.00    -0.388 C  
HETATM   25  C   UNL     1      -9.707  20.025  69.437  1.00  0.00    -0.012 C  
HETATM   26  C   UNL     1      -9.847  17.682  68.361  1.00  0.00    -0.334 C  
HETATM   27  C   UNL     1     -10.780  16.958  69.422  1.00  0.00    -0.258 C  
HETATM   28  C   UNL     1     -11.834  15.825  68.796  1.00  0.00    -0.309 C  
ENDROOT
BRANCH   2  29
HETATM   29  C   UNL     1      -9.887  10.131  64.877  1.00  0.00    -0.390 C  
HETATM   30  O   UNL     1      -7.768   9.634  63.906  1.00  0.00    -0.119 OA 
HETATM   31  C   UNL     1      -8.381  10.285  64.921  1.00  0.00    -0.172 C  
HETATM   32  O   UNL     1      -7.759  10.903  65.773  1.00  0.00    -0.130 OA 
ENDBRANCH   2  29
TORSDOF 1
ENDMDL
MODEL       21
REMARK 921   NORMALIZED FREE ENERGY PREDICTED BY IDOCK:   -6.29 KCAL/MOL
REMARK 922        TOTAL FREE ENERGY PREDICTED BY IDOCK:   -6.77 KCAL/MOL
REMARK 923 INTER-LIGAND FREE ENERGY PREDICTED BY IDOCK:   -6.59 KCAL/MOL
REMARK 924 INTRA-LIGAND FREE ENERGY PREDICTED BY IDOCK:   -0.18 KCAL/MOL
REMARK 927      BINDING AFFINITY PREDICTED BY RF-SCORE:    0.00 PKD
ROOT
HETATM    1  C   UNL     1      -9.762  13.301  67.048  1.00  0.00    -0.238 C  
HETATM    2  C   UNL     1     -11.218  13.910  67.093  1.00  0.00    -0.328 C  
HETATM    3  C   UNL     1      -8.789  14.522  66.949  1.00  0.00    -0.257 C  
HETATM    4  C   UNL     1      -9.275  12.077  68.282  1.00  0.00    -0.192 C  
HETATM    5  C   UNL     1     -11.005  10.100  69.001  1.00  0.00    -0.265 C  
HETATM    6  C   UNL     1      -8.007  11.750  67.489  1.00  0.00    -0.148 C  
HETATM    7  H   UNL     1      -9.028  10.574  71.208  1.00  0.00     0.000 HD 
HETATM    8  C   UNL     1      -8.447  10.736  66.447  1.00  0.00    -0.158 C  
HETATM    9  C   UNL     1      -8.820   9.621  67.371  1.00  0.00    -0.134 C  
HETATM   10  O   UNL     1      -9.152   9.647  71.043  1.00  0.00    -0.180 OA 
HETATM   11  C   UNL     1      -9.515  10.275  68.592  1.00  0.00    -0.169 C  
HETATM   12  C   UNL     1      -9.129   8.203  66.898  1.00  0.00    -0.185 C  
HETATM   13  C   UNL     1      -8.397   8.022  65.559  1.00  0.00    -0.147 C  
HETATM   14  O   UNL     1      -9.029   8.768  64.521  1.00  0.00    -0.422 OA 
HETATM   15  C   UNL     1      -8.283   6.601  65.092  1.00  0.00    -0.118 C  
HETATM   16  C   UNL     1      -7.607   5.705  66.134  1.00  0.00    -0.091 C  
HETATM   17  H   UNL     1      -8.576   8.656  63.693  1.00  0.00     0.000 HD 
HETATM   18  C   UNL     1      -7.302   4.355  65.460  1.00  0.00    -0.076 C  
HETATM   19  C   UNL     1      -8.493   3.418  65.301  1.00  0.00    -0.100 C  
HETATM   20  O   UNL     1      -9.111   3.576  64.027  1.00  0.00    -0.112 OA 
HETATM   21  C   UNL     1      -9.496   3.470  66.439  1.00  0.00    -0.164 C  
HETATM   22  C   UNL     1      -9.730   4.849  67.156  1.00  0.00    -0.194 C  
HETATM   23  H   UNL     1      -9.853   2.992  63.927  1.00  0.00     0.000 HD 
HETATM   24  C   UNL     1      -8.437   5.666  67.478  1.00  0.00    -0.102 C  
HETATM   25  C   UNL     1      -7.667   4.878  68.568  1.00  0.00    -0.078 C  
HETATM   26  C   UNL     1      -8.539   7.234  67.972  1.00  0.00    -0.125 C  
HETATM   27  C   UNL     1      -8.967   7.733  69.416  1.00  0.00    -0.142 C  
HETATM   28  C   UNL     1      -8.750   9.362  69.707  1.00  0.00    -0.181 C  
ENDROOT
BRANCH   2  29
HETATM   29  C   UNL     1     -11.582  14.651  65.760  1.00  0.00    -0.328 C  
HETATM   30  O   UNL     1     -12.780  14.570  63.702  1.00  0.00    -0.754 OA 
HETATM   31  C   UNL     1     -12.508  13.888  64.838  1.00  0.00    -0.391 C  
HETATM   32  O   UNL     1     -12.989  12.788  65.072  1.00  0.00    -0.811 OA 
ENDBRANCH   2  29
TORSDOF 1
ENDMDL
MODEL       22
REMARK 921   NORMALIZED FREE ENERGY PREDICTED BY IDOCK:   -6.28 KCAL/MOL
REMARK 922        TOTAL FREE ENERGY PREDICTED BY IDOCK:   -6.76 KCAL/MOL
REMARK 923 INTER-LIGAND FREE ENERGY PREDICTED BY IDOCK:   -6.57 KCAL/MOL
REMARK 924 INTRA-LIGAND FREE ENERGY PREDICTED BY IDOCK:   -0.19 KCAL/MOL
REMARK 927      BINDING AFFINITY PREDICTED BY RF-SCORE:    0.00 PKD
ROOT
HETATM    1  C   UNL     1     -10.149  13.564  66.678  1.00  0.00    -0.277 C  
HETATM    2  C   UNL     1      -9.157  14.776  66.874  1.00  0.00    -0.268 C  
HETATM    3  C   UNL     1     -11.181  14.024  65.597  1.00  0.00    -0.310 C  
HETATM    4  C   UNL     1      -9.482  11.910  66.393  1.00  0.00    -0.238 C  
HETATM    5  C   UNL     1      -7.339  11.037  67.830  1.00  0.00    -0.093 C  
HETATM    6  C   UNL     1     -10.865  11.292  66.606  1.00  0.00    -0.325 C  
HETATM    7  H   UNL     1      -7.504   9.538  65.235  1.00  0.00     0.000 HD 
HETATM    8  C   UNL     1     -10.998  11.136  68.112  1.00  0.00    -0.292 C  
HETATM    9  C   UNL     1      -9.908  10.134  68.324  1.00  0.00    -0.162 C  
HETATM   10  O   UNL     1      -7.331   8.956  65.965  1.00  0.00    -0.087 OA 
HETATM   11  C   UNL     1      -8.744  10.542  67.385  1.00  0.00    -0.125 C  
HETATM   12  C   UNL     1      -9.695   9.387  69.638  1.00  0.00    -0.202 C  
HETATM   13  C   UNL     1     -11.055   9.365  70.351  1.00  0.00    -0.261 C  
HETATM   14  O   UNL     1     -11.394  10.655  70.857  1.00  0.00    -0.354 OA 
HETATM   15  C   UNL     1     -11.153   8.393  71.490  1.00  0.00    -0.329 C  
HETATM   16  C   UNL     1     -10.814   6.963  71.056  1.00  0.00    -0.272 C  
HETATM   17  H   UNL     1     -12.236  10.641  71.298  1.00  0.00     0.000 HD 
HETATM   18  C   UNL     1     -11.200   6.023  72.211  1.00  0.00    -0.341 C  
HETATM   19  C   UNL     1     -10.226   5.989  73.383  1.00  0.00    -0.216 C  
HETATM   20  O   UNL     1     -10.607   6.911  74.401  1.00  0.00    -0.492 OA 
HETATM   21  C   UNL     1      -8.765   6.129  72.995  1.00  0.00    -0.121 C  
HETATM   22  C   UNL     1      -8.411   7.040  71.764  1.00  0.00    -0.110 C  
HETATM   23  H   UNL     1     -10.000   6.890  75.132  1.00  0.00     0.000 HD 
HETATM   24  C   UNL     1      -9.333   6.866  70.514  1.00  0.00    -0.159 C  
HETATM   25  C   UNL     1      -9.056   5.452  69.943  1.00  0.00    -0.165 C  
HETATM   26  C   UNL     1      -9.258   7.935  69.263  1.00  0.00    -0.148 C  
HETATM   27  C   UNL     1      -8.120   8.002  68.158  1.00  0.00    -0.129 C  
HETATM   28  C   UNL     1      -8.423   9.026  66.876  1.00  0.00    -0.119 C  
ENDROOT
BRANCH   2  29
HETATM   29  C   UNL     1      -9.882  16.032  67.470  1.00  0.00    -0.235 C  
HETATM   30  O   UNL     1     -10.660  17.134  69.435  1.00  0.00    -0.321 OA 
HETATM   31  C   UNL     1     -10.020  16.033  68.978  1.00  0.00    -0.242 C  
HETATM   32  O   UNL     1      -9.596  15.165  69.727  1.00  0.00    -0.174 OA 
ENDBRANCH   2  29
TORSDOF 1
ENDMDL
MODEL       23
REMARK 921   NORMALIZED FREE ENERGY PREDICTED BY IDOCK:   -6.21 KCAL/MOL
REMARK 922        TOTAL FREE ENERGY PREDICTED BY IDOCK:   -6.69 KCAL/MOL
REMARK 923 INTER-LIGAND FREE ENERGY PREDICTED BY IDOCK:   -6.58 KCAL/MOL
REMARK 924 INTRA-LIGAND FREE ENERGY PREDICTED BY IDOCK:   -0.12 KCAL/MOL
REMARK 927      BINDING AFFINITY PREDICTED BY RF-SCORE:    0.00 PKD
ROOT
HETATM    1  C   UNL     1      -9.787   6.198  72.984  1.00  0.00    -0.173 C  
HETATM    2  C   UNL     1      -9.813   4.666  72.603  1.00  0.00    -0.197 C  
HETATM    3  C   UNL     1      -9.837   6.253  74.546  1.00  0.00    -0.338 C  
HETATM    4  C   UNL     1      -8.530   7.270  72.256  1.00  0.00    -0.129 C  
HETATM    5  C   UNL     1      -7.897   7.035  69.617  1.00  0.00    -0.119 C  
HETATM    6  C   UNL     1      -9.259   8.512  72.773  1.00  0.00    -0.230 C  
HETATM    7  H   UNL     1      -5.595   8.248  71.112  1.00  0.00     0.000 HD 
HETATM    8  C   UNL     1     -10.322   8.807  71.728  1.00  0.00    -0.413 C  
HETATM    9  C   UNL     1      -9.417   9.136  70.584  1.00  0.00    -0.316 C  
HETATM   10  O   UNL     1      -5.766   8.709  70.298  1.00  0.00    -0.024 OA 
HETATM   11  C   UNL     1      -8.232   8.140  70.658  1.00  0.00    -0.114 C  
HETATM   12  C   UNL     1      -9.905   9.755  69.276  1.00  0.00    -0.208 C  
HETATM   13  C   UNL     1     -11.205  10.502  69.606  1.00  0.00    -0.282 C  
HETATM   14  O   UNL     1     -12.274   9.592  69.859  1.00  0.00    -0.444 OA 
HETATM   15  C   UNL     1     -11.666  11.460  68.548  1.00  0.00    -0.386 C  
HETATM   16  C   UNL     1     -10.592  12.496  68.201  1.00  0.00    -0.239 C  
HETATM   17  H   UNL     1     -13.078  10.054  70.063  1.00  0.00     0.000 HD 
HETATM   18  C   UNL     1     -11.250  13.572  67.320  1.00  0.00    -0.319 C  
HETATM   19  C   UNL     1     -11.468  13.184  65.863  1.00  0.00    -0.333 C  
HETATM   20  O   UNL     1     -12.771  12.644  65.659  1.00  0.00    -0.540 OA 
HETATM   21  C   UNL     1     -10.381  12.304  65.273  1.00  0.00    -0.311 C  
HETATM   22  C   UNL     1      -9.676  11.265  66.218  1.00  0.00    -0.246 C  
HETATM   23  H   UNL     1     -12.907  12.403  64.750  1.00  0.00     0.000 HD 
HETATM   24  C   UNL     1      -9.291  11.800  67.635  1.00  0.00    -0.180 C  
HETATM   25  C   UNL     1      -8.164  12.844  67.430  1.00  0.00    -0.187 C  
HETATM   26  C   UNL     1      -8.803  10.763  68.819  1.00  0.00    -0.163 C  
HETATM   27  C   UNL     1      -7.381  10.064  68.921  1.00  0.00    -0.080 C  
HETATM   28  C   UNL     1      -7.080   9.255  70.349  1.00  0.00    -0.091 C  
ENDROOT
BRANCH   2  29
HETATM   29  C   UNL     1     -11.163   3.985  73.020  1.00  0.00    -0.131 C  
HETATM   30  O   UNL     1     -12.260   1.967  73.656  1.00  0.00    -0.150 OA 
HETATM   31  C   UNL     1     -11.066   2.503  73.312  1.00  0.00    -0.145 C  
HETATM   32  O   UNL     1     -10.040   1.840  73.270  1.00  0.00    -0.088 OA 
ENDBRANCH   2  29
TORSDOF 1
ENDMDL
MODEL       24
REMARK 921   NORMALIZED FREE ENERGY PREDICTED BY IDOCK:   -6.19 KCAL/MOL
REMARK 922        TOTAL FREE ENERGY PREDICTED BY IDOCK:   -6.67 KCAL/MOL
REMARK 923 INTER-LIGAND FREE ENERGY PREDICTED BY IDOCK:   -6.52 KCAL/MOL
REMARK 924 INTRA-LIGAND FREE ENERGY PREDICTED BY IDOCK:   -0.14 KCAL/MOL
REMARK 927      BINDING AFFINITY PREDICTED BY RF-SCORE:    0.00 PKD
ROOT
HETATM    1  C   UNL     1      -8.935   6.713  71.385  1.00  0.00    -0.139 C  
HETATM    2  C   UNL     1      -8.761   5.281  70.745  1.00  0.00    -0.140 C  
HETATM    3  C   UNL     1      -8.878   6.501  72.934  1.00  0.00    -0.127 C  
HETATM    4  C   UNL     1      -7.909   8.077  70.797  1.00  0.00    -0.091 C  
HETATM    5  C   UNL     1      -7.445   8.385  68.131  1.00  0.00    -0.097 C  
HETATM    6  C   UNL     1      -8.775   9.085  71.556  1.00  0.00    -0.145 C  
HETATM    7  H   UNL     1      -5.246   9.686  69.704  1.00  0.00     0.000 HD 
HETATM    8  C   UNL     1      -9.944   9.375  70.630  1.00  0.00    -0.349 C  
HETATM    9  C   UNL     1      -9.186  10.028  69.520  1.00  0.00    -0.238 C  
HETATM   10  O   UNL     1      -5.543  10.241  68.992  1.00  0.00    -0.038 OA 
HETATM   11  C   UNL     1      -7.863   9.236  69.363  1.00  0.00    -0.083 C  
HETATM   12  C   UNL     1      -9.855  10.768  68.364  1.00  0.00    -0.177 C  
HETATM   13  C   UNL     1     -11.225  11.233  68.881  1.00  0.00    -0.253 C  
HETATM   14  O   UNL     1     -12.124  10.136  69.021  1.00  0.00    -0.545 OA 
HETATM   15  C   UNL     1     -11.900  12.267  68.029  1.00  0.00    -0.368 C  
HETATM   16  C   UNL     1     -11.021  13.503  67.818  1.00  0.00    -0.284 C  
HETATM   17  H   UNL     1     -12.971  10.423  69.341  1.00  0.00     0.000 HD 
HETATM   18  C   UNL     1     -11.895  14.591  67.170  1.00  0.00    -0.412 C  
HETATM   19  C   UNL     1     -12.160  14.419  65.680  1.00  0.00    -0.354 C  
HETATM   20  O   UNL     1     -13.379  13.720  65.446  1.00  0.00    -0.669 OA 
HETATM   21  C   UNL     1     -11.000  13.834  64.895  1.00  0.00    -0.378 C  
HETATM   22  C   UNL     1     -10.081  12.778  65.610  1.00  0.00    -0.281 C  
HETATM   23  H   UNL     1     -13.545  13.613  64.517  1.00  0.00     0.000 HD 
HETATM   24  C   UNL     1      -9.676  13.127  67.079  1.00  0.00    -0.241 C  
HETATM   25  C   UNL     1      -8.735  14.357  67.006  1.00  0.00    -0.244 C  
HETATM   26  C   UNL     1      -8.953  12.000  68.039  1.00  0.00    -0.187 C  
HETATM   27  C   UNL     1      -7.439  11.530  67.950  1.00  0.00    -0.103 C  
HETATM   28  C   UNL     1      -6.917  10.555  69.199  1.00  0.00    -0.080 C  
ENDROOT
BRANCH   2  29
HETATM   29  C   UNL     1      -9.959   4.334  71.100  1.00  0.00    -0.226 C  
HETATM   30  O   UNL     1     -10.652   2.309  72.148  1.00  0.00    -0.056 OA 
HETATM   31  C   UNL     1      -9.583   3.092  71.880  1.00  0.00    -0.152 C  
HETATM   32  O   UNL     1      -8.454   2.809  72.256  1.00  0.00    -0.065 OA 
ENDBRANCH   2  29
TORSDOF 1
ENDMDL
MODEL       25
REMARK 921   NORMALIZED FREE ENERGY PREDICTED BY IDOCK:   -6.14 KCAL/MOL
REMARK 922        TOTAL FREE ENERGY PREDICTED BY IDOCK:   -6.62 KCAL/MOL
REMARK 923 INTER-LIGAND FREE ENERGY PREDICTED BY IDOCK:   -6.42 KCAL/MOL
REMARK 924 INTRA-LIGAND FREE ENERGY PREDICTED BY IDOCK:   -0.20 KCAL/MOL
REMARK 927      BINDING AFFINITY PREDICTED BY RF-SCORE:    0.00 PKD
ROOT
HETATM    1  C   UNL     1      -9.165  18.764  68.799  1.00  0.00    -0.342 C  
HETATM    2  C   UNL     1      -7.851  19.588  68.503  1.00  0.00    -0.382 C  
HETATM    3  C   UNL     1     -10.022  19.654  69.759  1.00  0.00     0.128 C  
HETATM    4  C   UNL     1     -10.100  18.063  67.423  1.00  0.00    -0.354 C  
HETATM    5  C   UNL     1      -8.794  16.871  65.352  1.00  0.00     1.167 C  
HETATM    6  C   UNL     1     -10.944  17.231  68.392  1.00  0.00    -0.171 C  
HETATM    7  H   UNL     1     -11.490  17.823  64.442  1.00  0.00     0.000 HD 
HETATM    8  C   UNL     1     -10.120  15.982  68.657  1.00  0.00    -0.220 C  
HETATM    9  C   UNL     1     -10.143  15.409  67.276  1.00  0.00    -0.238 C  
HETATM   10  O   UNL     1     -11.306  16.944  64.132  1.00  0.00    -1.208 OA 
HETATM   11  C   UNL     1      -9.997  16.604  66.300  1.00  0.00    -0.336 C  
HETATM   12  C   UNL     1      -9.665  13.998  66.942  1.00  0.00    -0.272 C  
HETATM   13  C   UNL     1      -9.800  13.177  68.233  1.00  0.00    -0.227 C  
HETATM   14  O   UNL     1      -8.809  13.549  69.188  1.00  0.00    -0.302 OA 
HETATM   15  C   UNL     1      -9.712  11.691  68.045  1.00  0.00    -0.182 C  
HETATM   16  C   UNL     1     -10.745  11.176  67.037  1.00  0.00    -0.316 C  
HETATM   17  H   UNL     1      -8.893  13.041  69.987  1.00  0.00     0.000 HD 
HETATM   18  C   UNL     1     -10.750   9.639  67.120  1.00  0.00    -0.258 C  
HETATM   19  C   UNL     1      -9.591   8.941  66.419  1.00  0.00    -0.238 C  
HETATM   20  O   UNL     1      -8.516   8.689  67.319  1.00  0.00    -0.114 OA 
HETATM   21  C   UNL     1      -9.127   9.615  65.140  1.00  0.00    -0.279 C  
HETATM   22  C   UNL     1      -9.204  11.183  65.060  1.00  0.00    -0.190 C  
HETATM   23  H   UNL     1      -7.793   8.254  66.882  1.00  0.00     0.000 HD 
HETATM   24  C   UNL     1     -10.521  11.819  65.612  1.00  0.00    -0.308 C  
HETATM   25  C   UNL     1     -11.660  11.404  64.645  1.00  0.00    -0.014 C  
HETATM   26  C   UNL     1     -10.632  13.446  65.847  1.00  0.00    -0.286 C  
HETATM   27  C   UNL     1     -10.818  14.543  64.714  1.00  0.00    -0.410 C  
HETATM   28  C   UNL     1     -11.140  16.087  65.258  1.00  0.00    -0.213 C  
ENDROOT
BRANCH   2  29
HETATM   29  C   UNL     1      -6.988  19.793  69.796  1.00  0.00    -0.197 C  
HETATM   30  O   UNL     1      -5.264  18.927  71.195  1.00  0.00    -0.259 OA 
HETATM   31  C   UNL     1      -5.972  18.703  70.065  1.00  0.00    -0.201 C  
HETATM   32  O   UNL     1      -5.775  17.729  69.351  1.00  0.00    -0.199 OA 
ENDBRANCH   2  29
TORSDOF 1
ENDMDL
MODEL       26
REMARK 921   NORMALIZED FREE ENERGY PREDICTED BY IDOCK:   -6.02 KCAL/MOL
REMARK 922        TOTAL FREE ENERGY PREDICTED BY IDOCK:   -6.49 KCAL/MOL
REMARK 923 INTER-LIGAND FREE ENERGY PREDICTED BY IDOCK:   -6.35 KCAL/MOL
REMARK 924 INTRA-LIGAND FREE ENERGY PREDICTED BY IDOCK:   -0.15 KCAL/MOL
REMARK 927      BINDING AFFINITY PREDICTED BY RF-SCORE:    0.00 PKD
ROOT
HETATM    1  C   UNL     1      -8.965   6.716  67.559  1.00  0.00    -0.114 C  
HETATM    2  C   UNL     1      -7.752   6.106  68.362  1.00  0.00    -0.103 C  
HETATM    3  C   UNL     1      -9.600   5.525  66.768  1.00  0.00    -0.156 C  
HETATM    4  C   UNL     1     -10.172   7.745  68.423  1.00  0.00    -0.230 C  
HETATM    5  C   UNL     1      -9.338   9.590  70.243  1.00  0.00    -0.305 C  
HETATM    6  C   UNL     1     -10.782   8.187  67.091  1.00  0.00    -0.264 C  
HETATM    7  H   UNL     1     -12.172   8.796  70.825  1.00  0.00     0.000 HD 
HETATM    8  C   UNL     1      -9.913   9.344  66.627  1.00  0.00    -0.326 C  
HETATM    9  C   UNL     1     -10.231  10.309  67.724  1.00  0.00    -0.225 C  
HETATM   10  O   UNL     1     -12.055   9.737  70.877  1.00  0.00    -0.296 OA 
HETATM   11  C   UNL     1     -10.306   9.480  69.032  1.00  0.00    -0.219 C  
HETATM   12  C   UNL     1      -9.829  11.781  67.694  1.00  0.00    -0.192 C  
HETATM   13  C   UNL     1      -9.676  12.159  66.213  1.00  0.00    -0.238 C  
HETATM   14  O   UNL     1      -8.504  11.576  65.648  1.00  0.00    -0.380 OA 
HETATM   15  C   UNL     1      -9.623  13.635  65.943  1.00  0.00    -0.140 C  
HETATM   16  C   UNL     1     -10.847  14.367  66.503  1.00  0.00    -0.310 C  
HETATM   17  H   UNL     1      -8.410  11.810  64.732  1.00  0.00     0.000 HD 
HETATM   18  C   UNL     1     -10.824  15.802  65.948  1.00  0.00    -0.272 C  
HETATM   19  C   UNL     1      -9.841  16.751  66.621  1.00  0.00    -0.277 C  
HETATM   20  O   UNL     1      -8.595  16.783  65.931  1.00  0.00    -0.500 OA 
HETATM   21  C   UNL     1      -9.668  16.529  68.113  1.00  0.00    -0.234 C  
HETATM   22  C   UNL     1      -9.769  15.059  68.659  1.00  0.00    -0.219 C  
HETATM   23  H   UNL     1      -7.981  17.375  66.350  1.00  0.00     0.000 HD 
HETATM   24  C   UNL     1     -10.940  14.205  68.072  1.00  0.00    -0.269 C  
HETATM   25  C   UNL     1     -12.258  14.823  68.604  1.00  0.00    -0.112 C  
HETATM   26  C   UNL     1     -11.006  12.580  68.338  1.00  0.00    -0.277 C  
HETATM   27  C   UNL     1     -11.439  11.872  69.691  1.00  0.00    -0.337 C  
HETATM   28  C   UNL     1     -11.645  10.218  69.601  1.00  0.00    -0.201 C  
ENDROOT
BRANCH   2  29
HETATM   29  C   UNL     1      -6.630   5.570  67.406  1.00  0.00    -0.053 C  
HETATM   30  O   UNL     1      -5.336   3.693  66.711  1.00  0.00    -0.012 OA 
HETATM   31  C   UNL     1      -6.316   4.096  67.552  1.00  0.00    -0.037 C  
HETATM   32  O   UNL     1      -6.878   3.327  68.318  1.00  0.00    -0.047 OA 
ENDBRANCH   2  29
TORSDOF 1
ENDMDL
MODEL       27
REMARK 921   NORMALIZED FREE ENERGY PREDICTED BY IDOCK:   -5.95 KCAL/MOL
REMARK 922        TOTAL FREE ENERGY PREDICTED BY IDOCK:   -6.42 KCAL/MOL
REMARK 923 INTER-LIGAND FREE ENERGY PREDICTED BY IDOCK:   -6.32 KCAL/MOL
REMARK 924 INTRA-LIGAND FREE ENERGY PREDICTED BY IDOCK:   -0.10 KCAL/MOL
REMARK 927      BINDING AFFINITY PREDICTED BY RF-SCORE:    0.00 PKD
ROOT
HETATM    1  C   UNL     1     -10.306   6.976  68.041  1.00  0.00    -0.234 C  
HETATM    2  C   UNL     1      -9.669   5.981  66.996  1.00  0.00    -0.159 C  
HETATM    3  C   UNL     1     -11.159   6.093  69.011  1.00  0.00    -0.437 C  
HETATM    4  C   UNL     1      -9.249   8.173  68.883  1.00  0.00    -0.147 C  
HETATM    5  C   UNL     1      -7.326   9.511  67.494  1.00  0.00    -0.090 C  
HETATM    6  C   UNL     1     -10.477   8.913  69.420  1.00  0.00    -0.228 C  
HETATM    7  H   UNL     1      -6.600   9.417  70.404  1.00  0.00     0.000 HD 
HETATM    8  C   UNL     1     -10.891   9.851  68.299  1.00  0.00    -0.275 C  
HETATM    9  C   UNL     1      -9.680  10.728  68.290  1.00  0.00    -0.172 C  
HETATM   10  O   UNL     1      -6.464  10.283  70.037  1.00  0.00    -0.083 OA 
HETATM   11  C   UNL     1      -8.460   9.799  68.517  1.00  0.00    -0.115 C  
HETATM   12  C   UNL     1      -9.595  12.039  67.511  1.00  0.00    -0.177 C  
HETATM   13  C   UNL     1     -11.038  12.536  67.339  1.00  0.00    -0.272 C  
HETATM   14  O   UNL     1     -11.751  11.739  66.397  1.00  0.00    -0.511 OA 
HETATM   15  C   UNL     1     -11.162  13.968  66.907  1.00  0.00    -0.323 C  
HETATM   16  C   UNL     1     -10.434  14.922  67.860  1.00  0.00    -0.250 C  
HETATM   17  H   UNL     1     -12.644  12.047  66.290  1.00  0.00     0.000 HD 
HETATM   18  C   UNL     1     -10.843  16.357  67.484  1.00  0.00    -0.249 C  
HETATM   19  C   UNL     1     -10.160  16.931  66.249  1.00  0.00    -0.324 C  
HETATM   20  O   UNL     1     -10.942  16.719  65.077  1.00  0.00    -0.584 OA 
HETATM   21  C   UNL     1      -8.717  16.498  66.066  1.00  0.00    -0.255 C  
HETATM   22  C   UNL     1      -8.315  15.051  66.528  1.00  0.00    -0.002 C  
HETATM   23  H   UNL     1     -10.516  17.078  64.307  1.00  0.00     0.000 HD 
HETATM   24  C   UNL     1      -8.887  14.606  67.913  1.00  0.00    -0.170 C  
HETATM   25  C   UNL     1      -8.192  15.478  68.988  1.00  0.00    -0.227 C  
HETATM   26  C   UNL     1      -8.782  13.035  68.397  1.00  0.00    -0.115 C  
HETATM   27  C   UNL     1      -7.476  12.309  68.934  1.00  0.00    -0.012 C  
HETATM   28  C   UNL     1      -7.714  10.788  69.579  1.00  0.00    -0.066 C  
ENDROOT
BRANCH   2  29
HETATM   29  C   UNL     1     -10.761   5.289  66.108  1.00  0.00    -0.211 C  
HETATM   30  O   UNL     1     -11.209   3.769  64.328  1.00  0.00    -0.306 OA 
HETATM   31  C   UNL     1     -10.225   4.328  65.069  1.00  0.00    -0.196 C  
HETATM   32  O   UNL     1      -9.045   4.051  64.905  1.00  0.00    -0.127 OA 
ENDBRANCH   2  29
TORSDOF 1
ENDMDL
MODEL       28
REMARK 921   NORMALIZED FREE ENERGY PREDICTED BY IDOCK:   -5.90 KCAL/MOL
REMARK 922        TOTAL FREE ENERGY PREDICTED BY IDOCK:   -6.36 KCAL/MOL
REMARK 923 INTER-LIGAND FREE ENERGY PREDICTED BY IDOCK:   -6.31 KCAL/MOL
REMARK 924 INTRA-LIGAND FREE ENERGY PREDICTED BY IDOCK:   -0.05 KCAL/MOL
REMARK 927      BINDING AFFINITY PREDICTED BY RF-SCORE:    0.00 PKD
ROOT
HETATM    1  C   UNL     1     -10.463  11.231  68.555  1.00  0.00    -0.218 C  
HETATM    2  C   UNL     1     -10.044  10.426  69.846  1.00  0.00    -0.144 C  
HETATM    3  C   UNL     1     -11.205  10.208  67.633  1.00  0.00    -0.169 C  
HETATM    4  C   UNL     1     -11.323  12.809  68.735  1.00  0.00    -0.332 C  
HETATM    5  C   UNL     1     -10.520  14.592  70.629  1.00  0.00     0.559 C  
HETATM    6  C   UNL     1     -11.124  13.111  67.248  1.00  0.00    -0.305 C  
HETATM    7  H   UNL     1     -13.400  15.071  69.936  1.00  0.00     0.000 HD 
HETATM    8  C   UNL     1      -9.733  13.716  67.153  1.00  0.00    -0.245 C  
HETATM    9  C   UNL     1      -9.983  14.962  67.939  1.00  0.00    -0.219 C  
HETATM   10  O   UNL     1     -12.911  15.884  69.982  1.00  0.00    -0.158 OA 
HETATM   11  C   UNL     1     -10.901  14.561  69.122  1.00  0.00    -0.278 C  
HETATM   12  C   UNL     1      -8.998  16.127  68.007  1.00  0.00    -0.185 C  
HETATM   13  C   UNL     1      -8.150  16.053  66.729  1.00  0.00    -0.267 C  
HETATM   14  O   UNL     1      -7.237  14.960  66.777  1.00  0.00    -0.282 OA 
HETATM   15  C   UNL     1      -7.358  17.292  66.429  1.00  0.00    -0.336 C  
HETATM   16  C   UNL     1      -8.246  18.538  66.346  1.00  0.00    -0.289 C  
HETATM   17  H   UNL     1      -6.712  14.914  65.986  1.00  0.00     0.000 HD 
HETATM   18  C   UNL     1      -7.390  19.683  65.778  1.00  0.00    -0.320 C  
HETATM   19  C   UNL     1      -6.425  20.331  66.763  1.00  0.00    -0.213 C  
HETATM   20  O   UNL     1      -5.134  19.732  66.696  1.00  0.00    -0.161 OA 
HETATM   21  C   UNL     1      -6.944  20.427  68.186  1.00  0.00    -0.286 C  
HETATM   22  C   UNL     1      -7.877  19.277  68.712  1.00  0.00    -0.388 C  
HETATM   23  H   UNL     1      -4.532  20.136  67.310  1.00  0.00     0.000 HD 
HETATM   24  C   UNL     1      -8.985  18.804  67.717  1.00  0.00    -0.308 C  
HETATM   25  C   UNL     1      -9.990  19.975  67.572  1.00  0.00    -0.565 C  
HETATM   26  C   UNL     1      -9.851  17.435  68.016  1.00  0.00    -0.288 C  
HETATM   27  C   UNL     1     -11.026  17.285  69.074  1.00  0.00     0.098 C  
HETATM   28  C   UNL     1     -11.884  15.857  68.996  1.00  0.00    -0.318 C  
ENDROOT
BRANCH   2  29
HETATM   29  C   UNL     1      -9.003   9.300  69.519  1.00  0.00    -0.154 C  
HETATM   30  O   UNL     1      -8.603   6.960  69.306  1.00  0.00    -0.131 OA 
HETATM   31  C   UNL     1      -9.546   7.888  69.587  1.00  0.00    -0.164 C  
HETATM   32  O   UNL     1     -10.703   7.589  69.844  1.00  0.00    -0.240 OA 
ENDBRANCH   2  29
TORSDOF 1
ENDMDL
MODEL       29
REMARK 921   NORMALIZED FREE ENERGY PREDICTED BY IDOCK:   -5.86 KCAL/MOL
REMARK 922        TOTAL FREE ENERGY PREDICTED BY IDOCK:   -6.31 KCAL/MOL
REMARK 923 INTER-LIGAND FREE ENERGY PREDICTED BY IDOCK:   -6.19 KCAL/MOL
REMARK 924 INTRA-LIGAND FREE ENERGY PREDICTED BY IDOCK:   -0.13 KCAL/MOL
REMARK 927      BINDING AFFINITY PREDICTED BY RF-SCORE:    0.00 PKD
ROOT
HETATM    1  C   UNL     1      -8.160   6.520  70.362  1.00  0.00    -0.117 C  
HETATM    2  C   UNL     1      -9.133   5.373  70.841  1.00  0.00    -0.164 C  
HETATM    3  C   UNL     1      -6.812   6.283  71.119  1.00  0.00    -0.067 C  
HETATM    4  C   UNL     1      -7.961   6.833  68.595  1.00  0.00    -0.119 C  
HETATM    5  C   UNL     1     -10.132   6.815  66.952  1.00  0.00    -0.268 C  
HETATM    6  C   UNL     1      -7.218   8.139  68.888  1.00  0.00    -0.078 C  
HETATM    7  H   UNL     1      -7.653   6.221  65.369  1.00  0.00     0.000 HD 
HETATM    8  C   UNL     1      -8.311   9.174  69.094  1.00  0.00    -0.123 C  
HETATM    9  C   UNL     1      -8.884   9.164  67.713  1.00  0.00    -0.125 C  
HETATM   10  O   UNL     1      -8.210   6.849  64.924  1.00  0.00    -0.130 OA 
HETATM   11  C   UNL     1      -8.879   7.687  67.244  1.00  0.00    -0.122 C  
HETATM   12  C   UNL     1      -9.895  10.194  67.214  1.00  0.00    -0.226 C  
HETATM   13  C   UNL     1      -9.690  11.454  68.068  1.00  0.00    -0.186 C  
HETATM   14  O   UNL     1     -10.174  11.262  69.395  1.00  0.00    -0.421 OA 
HETATM   15  C   UNL     1     -10.337  12.694  67.524  1.00  0.00    -0.220 C  
HETATM   16  C   UNL     1      -9.880  13.002  66.095  1.00  0.00    -0.275 C  
HETATM   17  H   UNL     1     -10.047  12.042  69.924  1.00  0.00     0.000 HD 
HETATM   18  C   UNL     1     -10.385  14.412  65.739  1.00  0.00    -0.340 C  
HETATM   19  C   UNL     1     -11.863  14.508  65.380  1.00  0.00    -0.344 C  
HETATM   20  O   UNL     1     -12.654  14.836  66.518  1.00  0.00    -0.262 OA 
HETATM   21  C   UNL     1     -12.409  13.311  64.623  1.00  0.00    -0.447 C  
HETATM   22  C   UNL     1     -11.820  11.892  64.958  1.00  0.00    -0.213 C  
HETATM   23  H   UNL     1     -13.575  14.896  66.294  1.00  0.00     0.000 HD 
HETATM   24  C   UNL     1     -10.265  11.830  65.107  1.00  0.00    -0.309 C  
HETATM   25  C   UNL     1      -9.668  12.088  63.701  1.00  0.00    -0.218 C  
HETATM   26  C   UNL     1      -9.535  10.487  65.722  1.00  0.00    -0.249 C  
HETATM   27  C   UNL     1      -9.312   9.113  64.959  1.00  0.00    -0.120 C  
HETATM   28  C   UNL     1      -8.334   8.009  65.740  1.00  0.00    -0.138 C  
ENDROOT
BRANCH   2  29
HETATM   29  C   UNL     1      -9.465   5.490  72.369  1.00  0.00    -0.160 C  
HETATM   30  O   UNL     1     -10.633   6.687  74.066  1.00  0.00    -0.323 OA 
HETATM   31  C   UNL     1     -10.391   6.630  72.737  1.00  0.00    -0.203 C  
HETATM   32  O   UNL     1     -10.894   7.414  71.945  1.00  0.00    -0.224 OA 
ENDBRANCH   2  29
TORSDOF 1
ENDMDL
MODEL       30
REMARK 921   NORMALIZED FREE ENERGY PREDICTED BY IDOCK:   -5.84 KCAL/MOL
REMARK 922        TOTAL FREE ENERGY PREDICTED BY IDOCK:   -6.30 KCAL/MOL
REMARK 923 INTER-LIGAND FREE ENERGY PREDICTED BY IDOCK:   -6.69 KCAL/MOL
REMARK 924 INTRA-LIGAND FREE ENERGY PREDICTED BY IDOCK:    0.39 KCAL/MOL
REMARK 927      BINDING AFFINITY PREDICTED BY RF-SCORE:    0.00 PKD
ROOT
HETATM    1  C   UNL     1     -10.795  13.721  68.340  1.00  0.00    -0.268 C  
HETATM    2  C   UNL     1      -9.758  14.845  68.730  1.00  0.00    -0.225 C  
HETATM    3  C   UNL     1     -11.881  14.426  67.462  1.00  0.00    -0.418 C  
HETATM    4  C   UNL     1     -10.196  12.164  67.649  1.00  0.00    -0.206 C  
HETATM    5  C   UNL     1      -7.993  10.961  68.704  1.00  0.00    -0.140 C  
HETATM    6  C   UNL     1     -11.581  11.533  67.816  1.00  0.00    -0.338 C  
HETATM    7  H   UNL     1      -8.368  10.083  65.859  1.00  0.00     0.000 HD 
HETATM    8  C   UNL     1     -11.621  11.046  69.254  1.00  0.00    -0.384 C  
HETATM    9  C   UNL     1     -10.549  10.007  69.162  1.00  0.00    -0.240 C  
HETATM   10  O   UNL     1      -8.165   9.349  66.428  1.00  0.00    -0.110 OA 
HETATM   11  C   UNL     1      -9.437  10.598  68.259  1.00  0.00    -0.161 C  
HETATM   12  C   UNL     1     -10.274   8.983  70.260  1.00  0.00    -0.235 C  
HETATM   13  C   UNL     1     -11.585   8.821  71.043  1.00  0.00    -0.288 C  
HETATM   14  O   UNL     1     -11.853   9.970  71.845  1.00  0.00    -0.239 OA 
HETATM   15  C   UNL     1     -11.638   7.620  71.942  1.00  0.00    -0.321 C  
HETATM   16  C   UNL     1     -11.370   6.319  71.179  1.00  0.00    -0.364 C  
HETATM   17  H   UNL     1     -12.664   9.870  72.329  1.00  0.00     0.000 HD 
HETATM   18  C   UNL     1     -11.707   5.150  72.121  1.00  0.00     0.317 C  
HETATM   19  C   UNL     1     -10.662   4.842  73.185  1.00  0.00    -0.254 C  
HETATM   20  O   UNL     1     -10.949   5.518  74.406  1.00  0.00    -0.391 OA 
HETATM   21  C   UNL     1      -9.225   5.044  72.738  1.00  0.00    -0.144 C  
HETATM   22  C   UNL     1      -8.924   6.202  71.718  1.00  0.00    -0.141 C  
HETATM   23  H   UNL     1     -10.297   5.326  75.070  1.00  0.00     0.000 HD 
HETATM   24  C   UNL     1      -9.930   6.325  70.528  1.00  0.00    -0.221 C  
HETATM   25  C   UNL     1      -9.732   5.071  69.639  1.00  0.00    -0.266 C  
HETATM   26  C   UNL     1      -9.905   7.645  69.543  1.00  0.00    -0.178 C  
HETATM   27  C   UNL     1      -8.838   7.941  68.404  1.00  0.00    -0.130 C  
HETATM   28  C   UNL     1      -9.194   9.229  67.405  1.00  0.00    -0.126 C  
ENDROOT
BRANCH   2  29
HETATM   29  C   UNL     1     -10.405  15.946  69.640  1.00  0.00    -0.299 C  
HETATM   30  O   UNL     1     -11.834  16.412  71.489  1.00  0.00    -0.427 OA 
HETATM   31  C   UNL     1     -11.296  15.419  70.744  1.00  0.00    -0.345 C  
HETATM   32  O   UNL     1     -11.511  14.238  70.976  1.00  0.00    -0.146 OA 
ENDBRANCH   2  29
TORSDOF 1
ENDMDL
MODEL       31
REMARK 921   NORMALIZED FREE ENERGY PREDICTED BY IDOCK:   -5.73 KCAL/MOL
REMARK 922        TOTAL FREE ENERGY PREDICTED BY IDOCK:   -6.18 KCAL/MOL
REMARK 923 INTER-LIGAND FREE ENERGY PREDICTED BY IDOCK:   -6.09 KCAL/MOL
REMARK 924 INTRA-LIGAND FREE ENERGY PREDICTED BY IDOCK:   -0.09 KCAL/MOL
REMARK 927      BINDING AFFINITY PREDICTED BY RF-SCORE:    0.00 PKD
ROOT
HETATM    1  C   UNL     1      -9.024   5.129  70.272  1.00  0.00    -0.156 C  
HETATM    2  C   UNL     1      -7.647   4.944  71.021  1.00  0.00    -0.078 C  
HETATM    3  C   UNL     1      -9.773   3.762  70.406  1.00  0.00    -0.225 C  
HETATM    4  C   UNL     1     -10.052   6.565  70.648  1.00  0.00    -0.212 C  
HETATM    5  C   UNL     1      -8.910   9.018  70.953  1.00  0.00    -0.294 C  
HETATM    6  C   UNL     1     -10.946   6.268  69.443  1.00  0.00    -0.440 C  
HETATM    7  H   UNL     1     -11.527   8.924  72.418  1.00  0.00     0.000 HD 
HETATM    8  C   UNL     1     -10.236   6.906  68.260  1.00  0.00    -0.201 C  
HETATM    9  C   UNL     1     -10.344   8.335  68.687  1.00  0.00    -0.225 C  
HETATM   10  O   UNL     1     -11.433   9.728  71.922  1.00  0.00    -0.238 OA 
HETATM   11  C   UNL     1     -10.110   8.357  70.219  1.00  0.00    -0.196 C  
HETATM   12  C   UNL     1     -10.007   9.513  67.776  1.00  0.00    -0.216 C  
HETATM   13  C   UNL     1     -10.187   9.013  66.335  1.00  0.00    -0.227 C  
HETATM   14  O   UNL     1      -9.144   8.114  65.965  1.00  0.00    -0.183 OA 
HETATM   15  C   UNL     1     -10.242  10.095  65.297  1.00  0.00    -0.261 C  
HETATM   16  C   UNL     1     -11.341  11.121  65.591  1.00  0.00     0.130 C  
HETATM   17  H   UNL     1      -9.255   7.805  65.074  1.00  0.00     0.000 HD 
HETATM   18  C   UNL     1     -11.486  12.017  64.349  1.00  0.00    -0.413 C  
HETATM   19  C   UNL     1     -10.413  13.087  64.183  1.00  0.00    -0.372 C  
HETATM   20  O   UNL     1      -9.345  12.628  63.359  1.00  0.00    -0.338 OA 
HETATM   21  C   UNL     1      -9.919  13.694  65.483  1.00  0.00    -0.244 C  
HETATM   22  C   UNL     1      -9.852  12.770  66.753  1.00  0.00    -0.242 C  
HETATM   23  H   UNL     1      -8.676  13.294  63.255  1.00  0.00     0.000 HD 
HETATM   24  C   UNL     1     -11.091  11.844  66.974  1.00  0.00    -0.354 C  
HETATM   25  C   UNL     1     -12.285  12.767  67.326  1.00  0.00    -0.042 C  
HETATM   26  C   UNL     1     -11.045  10.635  68.093  1.00  0.00    -0.343 C  
HETATM   27  C   UNL     1     -11.156  10.815  69.666  1.00  0.00    -0.339 C  
HETATM   28  C   UNL     1     -11.320   9.403  70.540  1.00  0.00    -0.274 C  
ENDROOT
BRANCH   2  29
HETATM   29  C   UNL     1      -6.738   3.878  70.316  1.00  0.00    -0.033 C  
HETATM   30  O   UNL     1      -5.435   3.329  68.398  1.00  0.00    -0.012 OA 
HETATM   31  C   UNL     1      -6.203   4.290  68.961  1.00  0.00    -0.031 C  
HETATM   32  O   UNL     1      -6.406   5.367  68.420  1.00  0.00    -0.032 OA 
ENDBRANCH   2  29
TORSDOF 1
ENDMDL
MODEL       32
REMARK 921   NORMALIZED FREE ENERGY PREDICTED BY IDOCK:   -5.69 KCAL/MOL
REMARK 922        TOTAL FREE ENERGY PREDICTED BY IDOCK:   -6.14 KCAL/MOL
REMARK 923 INTER-LIGAND FREE ENERGY PREDICTED BY IDOCK:   -5.94 KCAL/MOL
REMARK 924 INTRA-LIGAND FREE ENERGY PREDICTED BY IDOCK:   -0.20 KCAL/MOL
REMARK 927      BINDING AFFINITY PREDICTED BY RF-SCORE:    0.00 PKD
ROOT
HETATM    1  C   UNL     1      -7.290   6.522  66.662  1.00  0.00    -0.078 C  
HETATM    2  C   UNL     1      -5.887   6.248  65.994  1.00  0.00    -0.024 C  
HETATM    3  C   UNL     1      -7.750   5.157  67.270  1.00  0.00    -0.092 C  
HETATM    4  C   UNL     1      -7.477   7.923  67.786  1.00  0.00    -0.097 C  
HETATM    5  C   UNL     1      -6.336  10.321  67.181  1.00  0.00    -0.067 C  
HETATM    6  C   UNL     1      -8.999   7.761  67.770  1.00  0.00    -0.128 C  
HETATM    7  H   UNL     1      -6.739  10.105  70.146  1.00  0.00     0.000 HD 
HETATM    8  C   UNL     1      -9.461   8.508  66.530  1.00  0.00    -0.282 C  
HETATM    9  C   UNL     1      -9.059   9.887  66.946  1.00  0.00    -0.162 C  
HETATM   10  O   UNL     1      -7.008  10.954  69.818  1.00  0.00    -0.142 OA 
HETATM   11  C   UNL     1      -7.696   9.750  67.671  1.00  0.00    -0.094 C  
HETATM   12  C   UNL     1      -9.480  11.149  66.196  1.00  0.00    -0.229 C  
HETATM   13  C   UNL     1     -10.781  10.801  65.456  1.00  0.00    -0.075 C  
HETATM   14  O   UNL     1     -10.532   9.934  64.353  1.00  0.00    -0.193 OA 
HETATM   15  C   UNL     1     -11.545  11.984  64.939  1.00  0.00    -0.332 C  
HETATM   16  C   UNL     1     -11.877  12.986  66.050  1.00  0.00    -0.471 C  
HETATM   17  H   UNL     1     -11.336   9.719  63.895  1.00  0.00     0.000 HD 
HETATM   18  C   UNL     1     -12.874  14.006  65.475  1.00  0.00    -0.453 C  
HETATM   19  C   UNL     1     -12.272  15.075  64.572  1.00  0.00    -0.331 C  
HETATM   20  O   UNL     1     -12.331  14.692  63.201  1.00  0.00    -0.685 OA 
HETATM   21  C   UNL     1     -10.886  15.541  64.981  1.00  0.00    -0.468 C  
HETATM   22  C   UNL     1      -9.916  14.492  65.634  1.00  0.00    -0.376 C  
HETATM   23  H   UNL     1     -11.956  15.358  62.638  1.00  0.00     0.000 HD 
HETATM   24  C   UNL     1     -10.562  13.561  66.711  1.00  0.00    -0.272 C  
HETATM   25  C   UNL     1     -10.912  14.455  67.927  1.00  0.00    -0.272 C  
HETATM   26  C   UNL     1      -9.749  12.244  67.277  1.00  0.00    -0.195 C  
HETATM   27  C   UNL     1      -8.544  12.263  68.311  1.00  0.00    -0.172 C  
HETATM   28  C   UNL     1      -8.071  10.770  68.888  1.00  0.00    -0.145 C  
ENDROOT
BRANCH   2  29
HETATM   29  C   UNL     1      -6.000   5.250  64.789  1.00  0.00    -0.022 C  
HETATM   30  O   UNL     1      -6.303   4.993  62.440  1.00  0.00    -0.020 OA 
HETATM   31  C   UNL     1      -6.203   5.900  63.438  1.00  0.00    -0.025 C  
HETATM   32  O   UNL     1      -6.255   7.105  63.234  1.00  0.00    -0.043 OA 
ENDBRANCH   2  29
TORSDOF 1
ENDMDL
MODEL       33
REMARK 921   NORMALIZED FREE ENERGY PREDICTED BY IDOCK:   -5.63 KCAL/MOL
REMARK 922        TOTAL FREE ENERGY PREDICTED BY IDOCK:   -6.08 KCAL/MOL
REMARK 923 INTER-LIGAND FREE ENERGY PREDICTED BY IDOCK:   -5.97 KCAL/MOL
REMARK 924 INTRA-LIGAND FREE ENERGY PREDICTED BY IDOCK:   -0.10 KCAL/MOL
REMARK 927      BINDING AFFINITY PREDICTED BY RF-SCORE:    0.00 PKD
ROOT
HETATM    1  C   UNL     1      -9.241  14.578  67.863  1.00  0.00    -0.196 C  
HETATM    2  C   UNL     1      -7.819  15.256  67.773  1.00  0.00    -0.161 C  
HETATM    3  C   UNL     1     -10.276  15.750  67.872  1.00  0.00    -0.242 C  
HETATM    4  C   UNL     1      -9.660  13.242  66.721  1.00  0.00    -0.258 C  
HETATM    5  C   UNL     1      -7.828  11.311  66.150  1.00  0.00    -0.016 C  
HETATM    6  C   UNL     1     -10.912  12.910  67.536  1.00  0.00    -0.283 C  
HETATM    7  H   UNL     1      -9.819  11.520  63.914  1.00  0.00     0.000 HD 
HETATM    8  C   UNL     1     -10.425  11.998  68.650  1.00  0.00    -0.238 C  
HETATM    9  C   UNL     1      -9.991  10.840  67.810  1.00  0.00    -0.195 C  
HETATM   10  O   UNL     1      -9.647  10.615  64.146  1.00  0.00    -0.246 OA 
HETATM   11  C   UNL     1      -9.326  11.438  66.544  1.00  0.00    -0.204 C  
HETATM   12  C   UNL     1      -9.612   9.478  68.386  1.00  0.00    -0.152 C  
HETATM   13  C   UNL     1     -10.338   9.358  69.734  1.00  0.00    -0.223 C  
HETATM   14  O   UNL     1      -9.750  10.209  70.715  1.00  0.00    -0.220 OA 
HETATM   15  C   UNL     1     -10.381   7.971  70.304  1.00  0.00    -0.212 C  
HETATM   16  C   UNL     1     -11.006   6.967  69.330  1.00  0.00    -0.274 C  
HETATM   17  H   UNL     1     -10.199  10.135  71.549  1.00  0.00     0.000 HD 
HETATM   18  C   UNL     1     -11.243   5.657  70.101  1.00  0.00    -0.056 C  
HETATM   19  C   UNL     1     -10.006   4.797  70.329  1.00  0.00    -0.250 C  
HETATM   20  O   UNL     1      -9.402   5.079  71.588  1.00  0.00    -0.142 OA 
HETATM   21  C   UNL     1      -9.003   4.816  69.190  1.00  0.00    -0.133 C  
HETATM   22  C   UNL     1      -8.837   6.149  68.374  1.00  0.00    -0.113 C  
HETATM   23  H   UNL     1      -8.631   4.543  71.730  1.00  0.00     0.000 HD 
HETATM   24  C   UNL     1     -10.169   6.873  67.993  1.00  0.00    -0.209 C  
HETATM   25  C   UNL     1     -10.894   5.969  66.963  1.00  0.00    -0.413 C  
HETATM   26  C   UNL     1     -10.147   8.404  67.386  1.00  0.00    -0.301 C  
HETATM   27  C   UNL     1      -9.739   8.818  65.908  1.00  0.00    -0.211 C  
HETATM   28  C   UNL     1     -10.040  10.407  65.499  1.00  0.00    -0.283 C  
ENDROOT
BRANCH   2  29
HETATM   29  C   UNL     1      -7.498  16.110  69.048  1.00  0.00    -0.210 C  
HETATM   30  O   UNL     1      -5.979  17.609  70.108  1.00  0.00    -0.236 OA 
HETATM   31  C   UNL     1      -6.209  16.900  68.980  1.00  0.00    -0.187 C  
HETATM   32  O   UNL     1      -5.449  16.931  68.022  1.00  0.00    -0.114 OA 
ENDBRANCH   2  29
TORSDOF 1
ENDMDL
MODEL       34
REMARK 921   NORMALIZED FREE ENERGY PREDICTED BY IDOCK:   -5.61 KCAL/MOL
REMARK 922        TOTAL FREE ENERGY PREDICTED BY IDOCK:   -6.06 KCAL/MOL
REMARK 923 INTER-LIGAND FREE ENERGY PREDICTED BY IDOCK:   -5.95 KCAL/MOL
REMARK 924 INTRA-LIGAND FREE ENERGY PREDICTED BY IDOCK:   -0.11 KCAL/MOL
REMARK 927      BINDING AFFINITY PREDICTED BY RF-SCORE:    0.00 PKD
ROOT
HETATM    1  C   UNL     1     -10.616  14.069  67.356  1.00  0.00    -0.278 C  
HETATM    2  C   UNL     1     -10.682  14.847  68.727  1.00  0.00    -0.252 C  
HETATM    3  C   UNL     1     -11.270  15.013  66.295  1.00  0.00    -0.309 C  
HETATM    4  C   UNL     1      -9.050  13.346  66.822  1.00  0.00    -0.221 C  
HETATM    5  C   UNL     1      -7.464  12.048  68.615  1.00  0.00    -0.113 C  
HETATM    6  C   UNL     1      -9.761  12.571  65.710  1.00  0.00    -0.196 C  
HETATM    7  H   UNL     1      -5.804  13.040  66.320  1.00  0.00     0.000 HD 
HETATM    8  C   UNL     1     -10.280  11.310  66.381  1.00  0.00    -0.273 C  
HETATM    9  C   UNL     1      -8.964  10.690  66.728  1.00  0.00    -0.149 C  
HETATM   10  O   UNL     1      -5.582  12.146  66.552  1.00  0.00    -0.277 OA 
HETATM   11  C   UNL     1      -8.039  11.847  67.186  1.00  0.00    -0.172 C  
HETATM   12  C   UNL     1      -8.816   9.257  67.230  1.00  0.00    -0.132 C  
HETATM   13  C   UNL     1     -10.036   8.484  66.709  1.00  0.00    -0.299 C  
HETATM   14  O   UNL     1     -11.223   8.863  67.403  1.00  0.00    -0.337 OA 
HETATM   15  C   UNL     1      -9.919   6.991  66.793  1.00  0.00    -0.266 C  
HETATM   16  C   UNL     1      -8.674   6.469  66.069  1.00  0.00    -0.155 C  
HETATM   17  H   UNL     1     -11.978   8.385  67.080  1.00  0.00     0.000 HD 
HETATM   18  C   UNL     1      -8.791   4.937  65.987  1.00  0.00    -0.126 C  
HETATM   19  C   UNL     1      -8.464   4.185  67.271  1.00  0.00    -0.100 C  
HETATM   20  O   UNL     1      -9.637   3.935  68.040  1.00  0.00    -0.174 OA 
HETATM   21  C   UNL     1      -7.352   4.801  68.100  1.00  0.00    -0.066 C  
HETATM   22  C   UNL     1      -7.213   6.367  68.104  1.00  0.00    -0.085 C  
HETATM   23  H   UNL     1      -9.434   3.466  68.840  1.00  0.00     0.000 HD 
HETATM   24  C   UNL     1      -7.353   7.056  66.708  1.00  0.00    -0.077 C  
HETATM   25  C   UNL     1      -6.115   6.639  65.874  1.00  0.00    -0.034 C  
HETATM   26  C   UNL     1      -7.506   8.693  66.593  1.00  0.00    -0.089 C  
HETATM   27  C   UNL     1      -6.339   9.754  66.772  1.00  0.00    -0.065 C  
HETATM   28  C   UNL     1      -6.730  11.325  66.365  1.00  0.00    -0.065 C  
ENDROOT
BRANCH   2  29
HETATM   29  C   UNL     1     -12.160  15.073  69.199  1.00  0.00    -0.261 C  
HETATM   30  O   UNL     1     -13.603  15.715  70.983  1.00  0.00    -0.588 OA 
HETATM   31  C   UNL     1     -12.309  15.547  70.629  1.00  0.00    -0.416 C  
HETATM   32  O   UNL     1     -11.385  15.779  71.396  1.00  0.00    -0.375 OA 
ENDBRANCH   2  29
TORSDOF 1
ENDMDL
MODEL       35
REMARK 921   NORMALIZED FREE ENERGY PREDICTED BY IDOCK:   -5.60 KCAL/MOL
REMARK 922        TOTAL FREE ENERGY PREDICTED BY IDOCK:   -6.04 KCAL/MOL
REMARK 923 INTER-LIGAND FREE ENERGY PREDICTED BY IDOCK:   -5.92 KCAL/MOL
REMARK 924 INTRA-LIGAND FREE ENERGY PREDICTED BY IDOCK:   -0.12 KCAL/MOL
REMARK 927      BINDING AFFINITY PREDICTED BY RF-SCORE:    0.00 PKD
ROOT
HETATM    1  C   UNL     1     -10.992  12.860  67.719  1.00  0.00    -0.269 C  
HETATM    2  C   UNL     1     -10.673  13.724  69.000  1.00  0.00    -0.209 C  
HETATM    3  C   UNL     1     -11.962  13.724  66.848  1.00  0.00    -0.460 C  
HETATM    4  C   UNL     1      -9.632  12.124  66.786  1.00  0.00    -0.216 C  
HETATM    5  C   UNL     1      -7.545  10.968  68.098  1.00  0.00    -0.095 C  
HETATM    6  C   UNL     1     -10.617  11.268  65.985  1.00  0.00    -0.314 C  
HETATM    7  H   UNL     1      -6.674  11.828  65.359  1.00  0.00     0.000 HD 
HETATM    8  C   UNL     1     -10.873  10.047  66.852  1.00  0.00    -0.152 C  
HETATM    9  C   UNL     1      -9.494   9.469  66.827  1.00  0.00    -0.217 C  
HETATM   10  O   UNL     1      -6.364  10.955  65.566  1.00  0.00    -0.075 OA 
HETATM   11  C   UNL     1      -8.512  10.665  66.919  1.00  0.00    -0.127 C  
HETATM   12  C   UNL     1      -9.157   8.073  67.345  1.00  0.00    -0.147 C  
HETATM   13  C   UNL     1     -10.452   7.253  67.257  1.00  0.00    -0.310 C  
HETATM   14  O   UNL     1     -11.390   7.660  68.250  1.00  0.00    -0.227 OA 
HETATM   15  C   UNL     1     -10.267   5.769  67.390  1.00  0.00    -0.243 C  
HETATM   16  C   UNL     1      -9.276   5.218  66.359  1.00  0.00    -0.145 C  
HETATM   17  H   UNL     1     -12.192   7.152  68.196  1.00  0.00     0.000 HD 
HETATM   18  C   UNL     1      -9.363   3.682  66.406  1.00  0.00    -0.194 C  
HETATM   19  C   UNL     1      -8.646   3.020  67.576  1.00  0.00    -0.103 C  
HETATM   20  O   UNL     1      -9.530   2.806  68.673  1.00  0.00    -0.187 OA 
HETATM   21  C   UNL     1      -7.359   3.704  67.998  1.00  0.00    -0.061 C  
HETATM   22  C   UNL     1      -7.276   5.269  67.869  1.00  0.00    -0.071 C  
HETATM   23  H   UNL     1      -9.084   2.393  69.402  1.00  0.00     0.000 HD 
HETATM   24  C   UNL     1      -7.846   5.863  66.540  1.00  0.00    -0.101 C  
HETATM   25  C   UNL     1      -6.898   5.408  65.401  1.00  0.00    -0.060 C  
HETATM   26  C   UNL     1      -8.078   7.486  66.380  1.00  0.00    -0.114 C  
HETATM   27  C   UNL     1      -6.945   8.573  66.141  1.00  0.00    -0.076 C  
HETATM   28  C   UNL     1      -7.489  10.108  65.777  1.00  0.00    -0.131 C  
ENDROOT
BRANCH   2  29
HETATM   29  C   UNL     1     -11.952  13.962  69.877  1.00  0.00    -0.405 C  
HETATM   30  O   UNL     1     -13.164  15.479  71.258  1.00  0.00    -0.480 OA 
HETATM   31  C   UNL     1     -12.049  15.335  70.506  1.00  0.00    -0.354 C  
HETATM   32  O   UNL     1     -11.239  16.239  70.357  1.00  0.00    -0.373 OA 
ENDBRANCH   2  29
TORSDOF 1
ENDMDL
MODEL       36
REMARK 921   NORMALIZED FREE ENERGY PREDICTED BY IDOCK:   -5.59 KCAL/MOL
REMARK 922        TOTAL FREE ENERGY PREDICTED BY IDOCK:   -6.03 KCAL/MOL
REMARK 923 INTER-LIGAND FREE ENERGY PREDICTED BY IDOCK:   -5.91 KCAL/MOL
REMARK 924 INTRA-LIGAND FREE ENERGY PREDICTED BY IDOCK:   -0.12 KCAL/MOL
REMARK 927      BINDING AFFINITY PREDICTED BY RF-SCORE:    0.00 PKD
ROOT
HETATM    1  C   UNL     1      -9.110   6.739  67.474  1.00  0.00    -0.117 C  
HETATM    2  C   UNL     1      -7.849   6.140  68.208  1.00  0.00    -0.104 C  
HETATM    3  C   UNL     1      -9.788   5.538  66.736  1.00  0.00    -0.186 C  
HETATM    4  C   UNL     1     -10.266   7.774  68.398  1.00  0.00    -0.230 C  
HETATM    5  C   UNL     1      -9.329   9.641  70.144  1.00  0.00    -0.294 C  
HETATM    6  C   UNL     1     -10.956   8.200  67.100  1.00  0.00     0.093 C  
HETATM    7  H   UNL     1     -12.121   8.847  70.905  1.00  0.00     0.000 HD 
HETATM    8  C   UNL     1     -10.121   9.354  66.572  1.00  0.00    -0.332 C  
HETATM    9  C   UNL     1     -10.375  10.330  67.676  1.00  0.00    -0.264 C  
HETATM   10  O   UNL     1     -12.004   9.789  70.939  1.00  0.00    -0.292 OA 
HETATM   11  C   UNL     1     -10.368   9.515  68.995  1.00  0.00    -0.219 C  
HETATM   12  C   UNL     1      -9.980  11.803  67.605  1.00  0.00    -0.204 C  
HETATM   13  C   UNL     1      -9.919  12.165  66.114  1.00  0.00    -0.233 C  
HETATM   14  O   UNL     1      -8.781  11.578  65.486  1.00  0.00    -0.392 OA 
HETATM   15  C   UNL     1      -9.886  13.637  65.826  1.00  0.00    -0.230 C  
HETATM   16  C   UNL     1     -11.076  14.373  66.451  1.00  0.00    -0.326 C  
HETATM   17  H   UNL     1      -8.743  11.802  64.564  1.00  0.00     0.000 HD 
HETATM   18  C   UNL     1     -11.092  15.802  65.879  1.00  0.00    -0.103 C  
HETATM   19  C   UNL     1     -10.072  16.760  66.481  1.00  0.00    -0.315 C  
HETATM   20  O   UNL     1      -8.870  16.788  65.717  1.00  0.00    -0.505 OA 
HETATM   21  C   UNL     1      -9.809  16.556  67.962  1.00  0.00    -0.240 C  
HETATM   22  C   UNL     1      -9.873  15.091  68.529  1.00  0.00    -0.217 C  
HETATM   23  H   UNL     1      -8.235  17.386  66.092  1.00  0.00     0.000 HD 
HETATM   24  C   UNL     1     -11.074  14.228  68.024  1.00  0.00    -0.286 C  
HETATM   25  C   UNL     1     -12.359  14.849  68.627  1.00  0.00     0.023 C  
HETATM   26  C   UNL     1     -11.119  12.606  68.311  1.00  0.00    -0.295 C  
HETATM   27  C   UNL     1     -11.467  11.912  69.695  1.00  0.00    -0.337 C  
HETATM   28  C   UNL     1     -11.672  10.257  69.636  1.00  0.00    -0.160 C  
ENDROOT
BRANCH   2  29
HETATM   29  C   UNL     1      -6.785   5.597  67.192  1.00  0.00    -0.062 C  
HETATM   30  O   UNL     1      -5.142   6.137  65.552  1.00  0.00    -0.012 OA 
HETATM   31  C   UNL     1      -6.038   6.663  66.419  1.00  0.00    -0.033 C  
HETATM   32  O   UNL     1      -6.188   7.869  66.553  1.00  0.00    -0.044 OA 
ENDBRANCH   2  29
TORSDOF 1
ENDMDL
MODEL       37
REMARK 921   NORMALIZED FREE ENERGY PREDICTED BY IDOCK:   -5.45 KCAL/MOL
REMARK 922        TOTAL FREE ENERGY PREDICTED BY IDOCK:   -5.88 KCAL/MOL
REMARK 923 INTER-LIGAND FREE ENERGY PREDICTED BY IDOCK:   -5.77 KCAL/MOL
REMARK 924 INTRA-LIGAND FREE ENERGY PREDICTED BY IDOCK:   -0.12 KCAL/MOL
REMARK 927      BINDING AFFINITY PREDICTED BY RF-SCORE:    0.00 PKD
ROOT
HETATM    1  C   UNL     1      -9.848  11.313  66.380  1.00  0.00    -0.243 C  
HETATM    2  C   UNL     1      -9.255  12.746  66.674  1.00  0.00    -0.212 C  
HETATM    3  C   UNL     1     -10.596  11.431  65.011  1.00  0.00    -0.359 C  
HETATM    4  C   UNL     1      -8.773   9.868  66.502  1.00  0.00    -0.139 C  
HETATM    5  C   UNL     1      -7.003   9.654  68.561  1.00  0.00    -0.065 C  
HETATM    6  C   UNL     1      -9.982   8.934  66.417  1.00  0.00    -0.354 C  
HETATM    7  H   UNL     1      -6.064   8.006  66.236  1.00  0.00     0.000 HD 
HETATM    8  C   UNL     1     -10.509   8.842  67.839  1.00  0.00    -0.281 C  
HETATM    9  C   UNL     1      -9.333   8.163  68.464  1.00  0.00    -0.138 C  
HETATM   10  O   UNL     1      -5.984   7.532  67.056  1.00  0.00    -0.042 OA 
HETATM   11  C   UNL     1      -8.069   8.794  67.825  1.00  0.00    -0.107 C  
HETATM   12  C   UNL     1      -9.350   7.576  69.873  1.00  0.00    -0.150 C  
HETATM   13  C   UNL     1     -10.817   7.255  70.193  1.00  0.00    -0.256 C  
HETATM   14  O   UNL     1     -11.570   8.446  70.416  1.00  0.00    -0.439 OA 
HETATM   15  C   UNL     1     -11.021   6.361  71.380  1.00  0.00    -0.316 C  
HETATM   16  C   UNL     1     -10.258   5.040  71.244  1.00  0.00    -0.273 C  
HETATM   17  H   UNL     1     -12.478   8.247  70.613  1.00  0.00     0.000 HD 
HETATM   18  C   UNL     1     -10.742   4.105  72.366  1.00  0.00    -0.050 C  
HETATM   19  C   UNL     1     -10.171   4.391  73.750  1.00  0.00    -0.174 C  
HETATM   20  O   UNL     1     -11.029   5.247  74.499  1.00  0.00    -0.367 OA 
HETATM   21  C   UNL     1      -8.731   4.872  73.752  1.00  0.00    -0.105 C  
HETATM   22  C   UNL     1      -8.247   5.765  72.553  1.00  0.00    -0.117 C  
HETATM   23  H   UNL     1     -10.673   5.425  75.362  1.00  0.00     0.000 HD 
HETATM   24  C   UNL     1      -8.702   5.288  71.136  1.00  0.00    -0.136 C  
HETATM   25  C   UNL     1      -7.959   3.958  70.849  1.00  0.00    -0.058 C  
HETATM   26  C   UNL     1      -8.507   6.262  69.821  1.00  0.00    -0.126 C  
HETATM   27  C   UNL     1      -7.142   6.546  69.063  1.00  0.00    -0.085 C  
HETATM   28  C   UNL     1      -7.281   7.379  67.624  1.00  0.00    -0.094 C  
ENDROOT
BRANCH   2  29
HETATM   29  C   UNL     1     -10.386  13.813  66.885  1.00  0.00    -0.266 C  
HETATM   30  O   UNL     1     -10.994  16.114  66.779  1.00  0.00    -0.229 OA 
HETATM   31  C   UNL     1      -9.985  15.238  66.570  1.00  0.00    -0.265 C  
HETATM   32  O   UNL     1      -8.891  15.589  66.153  1.00  0.00    -0.320 OA 
ENDBRANCH   2  29
TORSDOF 1
ENDMDL
MODEL       38
REMARK 921   NORMALIZED FREE ENERGY PREDICTED BY IDOCK:   -5.42 KCAL/MOL
REMARK 922        TOTAL FREE ENERGY PREDICTED BY IDOCK:   -5.85 KCAL/MOL
REMARK 923 INTER-LIGAND FREE ENERGY PREDICTED BY IDOCK:   -5.65 KCAL/MOL
REMARK 924 INTRA-LIGAND FREE ENERGY PREDICTED BY IDOCK:   -0.20 KCAL/MOL
REMARK 927      BINDING AFFINITY PREDICTED BY RF-SCORE:    0.00 PKD
ROOT
HETATM    1  C   UNL     1      -9.732   4.508  72.851  1.00  0.00    -0.172 C  
HETATM    2  C   UNL     1      -8.719   4.543  74.060  1.00  0.00    -0.104 C  
HETATM    3  C   UNL     1     -10.445   3.118  72.928  1.00  0.00    -0.238 C  
HETATM    4  C   UNL     1     -10.861   5.895  72.601  1.00  0.00    -0.290 C  
HETATM    5  C   UNL     1      -9.969   8.451  72.893  1.00  0.00    -0.209 C  
HETATM    6  C   UNL     1     -11.248   5.359  71.220  1.00  0.00     0.053 C  
HETATM    7  H   UNL     1     -12.937   8.352  73.326  1.00  0.00     0.000 HD 
HETATM    8  C   UNL     1     -10.172   5.879  70.282  1.00  0.00    -0.279 C  
HETATM    9  C   UNL     1     -10.462   7.341  70.406  1.00  0.00    -0.232 C  
HETATM   10  O   UNL     1     -12.688   9.083  72.773  1.00  0.00    -0.309 OA 
HETATM   11  C   UNL     1     -10.803   7.597  71.897  1.00  0.00    -0.274 C  
HETATM   12  C   UNL     1      -9.846   8.402  69.498  1.00  0.00    -0.181 C  
HETATM   13  C   UNL     1      -9.476   7.691  68.188  1.00  0.00    -0.145 C  
HETATM   14  O   UNL     1      -8.349   6.837  68.363  1.00  0.00    -0.121 OA 
HETATM   15  C   UNL     1      -9.176   8.608  67.039  1.00  0.00    -0.186 C  
HETATM   16  C   UNL     1     -10.331   9.573  66.754  1.00  0.00    -0.298 C  
HETATM   17  H   UNL     1      -8.120   6.397  67.553  1.00  0.00     0.000 HD 
HETATM   18  C   UNL     1     -10.036  10.270  65.415  1.00  0.00    -0.371 C  
HETATM   19  C   UNL     1      -9.003  11.389  65.471  1.00  0.00    -0.088 C  
HETATM   20  O   UNL     1      -7.697  10.907  65.167  1.00  0.00    -0.357 OA 
HETATM   21  C   UNL     1      -9.031  12.212  66.747  1.00  0.00    -0.203 C  
HETATM   22  C   UNL     1      -9.408  11.484  68.088  1.00  0.00    -0.185 C  
HETATM   23  H   UNL     1      -7.053  11.604  65.202  1.00  0.00     0.000 HD 
HETATM   24  C   UNL     1     -10.620  10.501  67.999  1.00  0.00    -0.251 C  
HETATM   25  C   UNL     1     -11.883  11.365  67.751  1.00  0.00    -0.196 C  
HETATM   26  C   UNL     1     -10.956   9.470  69.240  1.00  0.00    -0.167 C  
HETATM   27  C   UNL     1     -11.636   9.860  70.621  1.00  0.00    -0.413 C  
HETATM   28  C   UNL     1     -12.073   8.576  71.593  1.00  0.00    -0.321 C  
ENDROOT
BRANCH   2  29
HETATM   29  C   UNL     1      -7.590   3.465  73.906  1.00  0.00    -0.061 C  
HETATM   30  O   UNL     1      -5.443   2.946  73.010  1.00  0.00     0.000 OA 
HETATM   31  C   UNL     1      -6.378   3.917  73.119  1.00  0.00    -0.027 C  
HETATM   32  O   UNL     1      -6.223   5.031  72.640  1.00  0.00    -0.028 OA 
ENDBRANCH   2  29
TORSDOF 1
ENDMDL
MODEL       39
REMARK 921   NORMALIZED FREE ENERGY PREDICTED BY IDOCK:   -5.40 KCAL/MOL
REMARK 922        TOTAL FREE ENERGY PREDICTED BY IDOCK:   -5.83 KCAL/MOL
REMARK 923 INTER-LIGAND FREE ENERGY PREDICTED BY IDOCK:   -5.65 KCAL/MOL
REMARK 924 INTRA-LIGAND FREE ENERGY PREDICTED BY IDOCK:   -0.19 KCAL/MOL
REMARK 927      BINDING AFFINITY PREDICTED BY RF-SCORE:    0.00 PKD
ROOT
HETATM    1  C   UNL     1      -9.226   5.399  69.512  1.00  0.00    -0.152 C  
HETATM    2  C   UNL     1      -7.906   4.961  70.258  1.00  0.00    -0.062 C  
HETATM    3  C   UNL     1      -9.937   4.073  69.082  1.00  0.00     0.070 C  
HETATM    4  C   UNL     1     -10.328   6.598  70.291  1.00  0.00    -0.235 C  
HETATM    5  C   UNL     1      -9.297   8.780  71.554  1.00  0.00    -0.337 C  
HETATM    6  C   UNL     1     -11.116   6.754  68.989  1.00  0.00    -0.254 C  
HETATM    7  H   UNL     1     -12.015   8.154  72.660  1.00  0.00     0.000 HD 
HETATM    8  C   UNL     1     -10.338   7.778  68.179  1.00  0.00    -0.248 C  
HETATM    9  C   UNL     1     -10.527   8.957  69.081  1.00  0.00    -0.236 C  
HETATM   10  O   UNL     1     -11.910   9.083  72.496  1.00  0.00    -0.233 OA 
HETATM   11  C   UNL     1     -10.413   8.424  70.532  1.00  0.00    -0.227 C  
HETATM   12  C   UNL     1     -10.160  10.385  68.687  1.00  0.00    -0.188 C  
HETATM   13  C   UNL     1     -10.211  10.439  67.153  1.00  0.00    -0.222 C  
HETATM   14  O   UNL     1      -9.113   9.738  66.574  1.00  0.00    -0.147 OA 
HETATM   15  C   UNL     1     -10.221  11.823  66.573  1.00  0.00    -0.240 C  
HETATM   16  C   UNL     1     -11.374  12.670  67.122  1.00  0.00    -0.373 C  
HETATM   17  H   UNL     1      -9.144   9.772  65.625  1.00  0.00     0.000 HD 
HETATM   18  C   UNL     1     -11.452  13.954  66.278  1.00  0.00    -0.347 C  
HETATM   19  C   UNL     1     -10.407  15.014  66.599  1.00  0.00    -0.278 C  
HETATM   20  O   UNL     1      -9.263  14.888  65.759  1.00  0.00    -0.498 OA 
HETATM   21  C   UNL     1     -10.036  15.113  68.068  1.00  0.00    -0.221 C  
HETATM   22  C   UNL     1     -10.036  13.792  68.921  1.00  0.00    -0.075 C  
HETATM   23  H   UNL     1      -8.611  15.549  65.959  1.00  0.00     0.000 HD 
HETATM   24  C   UNL     1     -11.257  12.845  68.688  1.00  0.00    -0.321 C  
HETATM   25  C   UNL     1     -12.505  13.574  69.247  1.00  0.00     0.061 C  
HETATM   26  C   UNL     1     -11.257  11.314  69.298  1.00  0.00    -0.336 C  
HETATM   27  C   UNL     1     -11.495  10.912  70.815  1.00  0.00    -0.115 C  
HETATM   28  C   UNL     1     -11.680   9.279  71.105  1.00  0.00    -0.325 C  
ENDROOT
BRANCH   2  29
HETATM   29  C   UNL     1      -6.910   4.224  69.296  1.00  0.00    -0.046 C  
HETATM   30  O   UNL     1      -5.212   4.447  67.639  1.00  0.00    -0.010 OA 
HETATM   31  C   UNL     1      -6.043   5.136  68.455  1.00  0.00    -0.026 C  
HETATM   32  O   UNL     1      -6.054   6.358  68.497  1.00  0.00    -0.022 OA 
ENDBRANCH   2  29
TORSDOF 1
ENDMDL
MODEL       40
REMARK 921   NORMALIZED FREE ENERGY PREDICTED BY IDOCK:   -5.37 KCAL/MOL
REMARK 922        TOTAL FREE ENERGY PREDICTED BY IDOCK:   -5.80 KCAL/MOL
REMARK 923 INTER-LIGAND FREE ENERGY PREDICTED BY IDOCK:   -5.77 KCAL/MOL
REMARK 924 INTRA-LIGAND FREE ENERGY PREDICTED BY IDOCK:   -0.03 KCAL/MOL
REMARK 927      BINDING AFFINITY PREDICTED BY RF-SCORE:    0.00 PKD
ROOT
HETATM    1  C   UNL     1     -12.077  13.302  70.932  1.00  0.00    -0.242 C  
HETATM    2  C   UNL     1     -11.498  14.754  71.145  1.00  0.00    -0.263 C  
HETATM    3  C   UNL     1     -13.524  13.325  71.525  1.00  0.00    -0.257 C  
HETATM    4  C   UNL     1     -11.969  12.536  69.300  1.00  0.00    -0.304 C  
HETATM    5  C   UNL     1      -9.688  12.769  67.831  1.00  0.00    -0.217 C  
HETATM    6  C   UNL     1     -12.383  11.183  69.884  1.00  0.00    -0.330 C  
HETATM    7  H   UNL     1     -12.021  12.254  66.015  1.00  0.00     0.000 HD 
HETATM    8  C   UNL     1     -11.096  10.574  70.414  1.00  0.00    -0.321 C  
HETATM    9  C   UNL     1     -10.378  10.415  69.112  1.00  0.00    -0.241 C  
HETATM   10  O   UNL     1     -11.271  11.720  65.781  1.00  0.00    -0.322 OA 
HETATM   11  C   UNL     1     -10.703  11.677  68.272  1.00  0.00    -0.246 C  
HETATM   12  C   UNL     1      -9.083   9.621  68.956  1.00  0.00    -0.148 C  
HETATM   13  C   UNL     1      -9.063   8.594  70.098  1.00  0.00    -0.158 C  
HETATM   14  O   UNL     1      -8.813   9.222  71.353  1.00  0.00    -0.313 OA 
HETATM   15  C   UNL     1      -8.057   7.492  69.934  1.00  0.00    -0.129 C  
HETATM   16  C   UNL     1      -8.239   6.738  68.613  1.00  0.00    -0.120 C  
HETATM   17  H   UNL     1      -8.800   8.587  72.059  1.00  0.00     0.000 HD 
HETATM   18  C   UNL     1      -7.350   5.484  68.667  1.00  0.00    -0.075 C  
HETATM   19  C   UNL     1      -5.864   5.722  68.427  1.00  0.00    -0.016 C  
HETATM   20  O   UNL     1      -5.163   5.907  69.653  1.00  0.00    -0.004 OA 
HETATM   21  C   UNL     1      -5.553   6.809  67.414  1.00  0.00    -0.013 C  
HETATM   22  C   UNL     1      -6.523   8.043  67.333  1.00  0.00    -0.057 C  
HETATM   23  H   UNL     1      -4.236   6.055  69.503  1.00  0.00     0.000 HD 
HETATM   24  C   UNL     1      -8.048   7.702  67.375  1.00  0.00    -0.119 C  
HETATM   25  C   UNL     1      -8.380   6.961  66.055  1.00  0.00    -0.134 C  
HETATM   26  C   UNL     1      -9.167   8.894  67.576  1.00  0.00    -0.153 C  
HETATM   27  C   UNL     1      -9.639   9.929  66.468  1.00  0.00    -0.243 C  
HETATM   28  C   UNL     1     -10.956  10.868  66.878  1.00  0.00    -0.223 C  
ENDROOT
BRANCH   2  29
HETATM   29  C   UNL     1     -11.340  15.101  72.666  1.00  0.00    -0.168 C  
HETATM   30  O   UNL     1     -12.162  16.358  74.517  1.00  0.00    -0.600 OA 
HETATM   31  C   UNL     1     -12.353  16.089  73.205  1.00  0.00    -0.531 C  
HETATM   32  O   UNL     1     -13.263  16.589  72.560  1.00  0.00     0.181 OA 
ENDBRANCH   2  29
TORSDOF 1
ENDMDL
MODEL       41
REMARK 921   NORMALIZED FREE ENERGY PREDICTED BY IDOCK:   -5.30 KCAL/MOL
REMARK 922        TOTAL FREE ENERGY PREDICTED BY IDOCK:   -5.73 KCAL/MOL
REMARK 923 INTER-LIGAND FREE ENERGY PREDICTED BY IDOCK:   -6.15 KCAL/MOL
REMARK 924 INTRA-LIGAND FREE ENERGY PREDICTED BY IDOCK:    0.42 KCAL/MOL
REMARK 927      BINDING AFFINITY PREDICTED BY RF-SCORE:    0.00 PKD
ROOT
HETATM    1  C   UNL     1      -9.299  17.360  68.075  1.00  0.00    -0.276 C  
HETATM    2  C   UNL     1      -9.974  18.243  66.955  1.00  0.00    -0.349 C  
HETATM    3  C   UNL     1      -8.607  18.365  69.055  1.00  0.00    -0.061 C  
HETATM    4  C   UNL     1     -10.271  16.084  68.904  1.00  0.00    -0.231 C  
HETATM    5  C   UNL     1     -11.950  14.497  67.463  1.00  0.00    -0.358 C  
HETATM    6  C   UNL     1      -9.006  15.503  69.540  1.00  0.00    -0.244 C  
HETATM    7  H   UNL     1     -12.858  14.610  70.321  1.00  0.00     0.000 HD 
HETATM    8  C   UNL     1      -8.425  14.578  68.483  1.00  0.00    -0.166 C  
HETATM    9  C   UNL     1      -9.532  13.573  68.442  1.00  0.00    -0.185 C  
HETATM   10  O   UNL     1     -12.878  13.723  69.983  1.00  0.00    -0.132 OA 
HETATM   11  C   UNL     1     -10.856  14.370  68.560  1.00  0.00    -0.260 C  
HETATM   12  C   UNL     1      -9.428  12.235  67.713  1.00  0.00    -0.197 C  
HETATM   13  C   UNL     1      -7.932  11.893  67.645  1.00  0.00    -0.146 C  
HETATM   14  O   UNL     1      -7.253  12.731  66.712  1.00  0.00    -0.343 OA 
HETATM   15  C   UNL     1      -7.629  10.470  67.279  1.00  0.00    -0.096 C  
HETATM   16  C   UNL     1      -8.307   9.475  68.228  1.00  0.00    -0.118 C  
HETATM   17  H   UNL     1      -6.328  12.520  66.670  1.00  0.00     0.000 HD 
HETATM   18  C   UNL     1      -7.723   8.082  67.934  1.00  0.00    -0.114 C  
HETATM   19  C   UNL     1      -8.264   7.394  66.687  1.00  0.00    -0.125 C  
HETATM   20  O   UNL     1      -7.440   7.649  65.554  1.00  0.00    -0.071 OA 
HETATM   21  C   UNL     1      -9.732   7.659  66.404  1.00  0.00    -0.197 C  
HETATM   22  C   UNL     1     -10.315   9.069  66.783  1.00  0.00    -0.310 C  
HETATM   23  H   UNL     1      -7.777   7.220  64.776  1.00  0.00     0.000 HD 
HETATM   24  C   UNL     1      -9.879   9.621  68.179  1.00  0.00    -0.172 C  
HETATM   25  C   UNL     1     -10.541   8.716  69.248  1.00  0.00    -0.204 C  
HETATM   26  C   UNL     1     -10.182  11.187  68.592  1.00  0.00    -0.216 C  
HETATM   27  C   UNL     1     -11.589  11.784  69.023  1.00  0.00    -0.372 C  
HETATM   28  C   UNL     1     -11.555  13.343  69.618  1.00  0.00    -0.268 C  
ENDROOT
BRANCH   2  29
HETATM   29  C   UNL     1      -8.911  19.020  66.104  1.00  0.00    -0.194 C  
HETATM   30  O   UNL     1      -6.802  18.937  64.998  1.00  0.00    -0.491 OA 
HETATM   31  C   UNL     1      -7.687  18.215  65.721  1.00  0.00     0.025 C  
HETATM   32  O   UNL     1      -7.500  17.039  66.001  1.00  0.00    -0.278 OA 
ENDBRANCH   2  29
TORSDOF 1
ENDMDL
MODEL       42
REMARK 921   NORMALIZED FREE ENERGY PREDICTED BY IDOCK:   -5.29 KCAL/MOL
REMARK 922        TOTAL FREE ENERGY PREDICTED BY IDOCK:   -5.71 KCAL/MOL
REMARK 923 INTER-LIGAND FREE ENERGY PREDICTED BY IDOCK:   -5.61 KCAL/MOL
REMARK 924 INTRA-LIGAND FREE ENERGY PREDICTED BY IDOCK:   -0.11 KCAL/MOL
REMARK 927      BINDING AFFINITY PREDICTED BY RF-SCORE:    0.00 PKD
ROOT
HETATM    1  C   UNL     1      -9.591  12.559  67.063  1.00  0.00    -0.216 C  
HETATM    2  C   UNL     1     -11.033  13.129  66.770  1.00  0.00    -0.298 C  
HETATM    3  C   UNL     1      -8.620  13.782  66.975  1.00  0.00    -0.182 C  
HETATM    4  C   UNL     1      -9.326  11.521  68.516  1.00  0.00    -0.171 C  
HETATM    5  C   UNL     1     -11.149   9.609  69.177  1.00  0.00    -0.123 C  
HETATM    6  C   UNL     1      -7.937  11.128  68.010  1.00  0.00    -0.117 C  
HETATM    7  H   UNL     1      -9.598  10.422  71.614  1.00  0.00     0.000 HD 
HETATM    8  C   UNL     1      -8.180   9.974  67.051  1.00  0.00    -0.117 C  
HETATM    9  C   UNL     1      -8.708   8.980  68.036  1.00  0.00    -0.129 C  
HETATM   10  O   UNL     1      -9.688   9.478  71.555  1.00  0.00    -0.195 OA 
HETATM   11  C   UNL     1      -9.611   9.769  69.017  1.00  0.00    -0.177 C  
HETATM   12  C   UNL     1      -8.922   7.505  67.710  1.00  0.00    -0.131 C  
HETATM   13  C   UNL     1      -7.964   7.170  66.557  1.00  0.00    -0.112 C  
HETATM   14  O   UNL     1      -8.403   7.756  65.333  1.00  0.00    -0.137 OA 
HETATM   15  C   UNL     1      -7.763   5.704  66.311  1.00  0.00    -0.099 C  
HETATM   16  C   UNL     1      -7.280   4.970  67.567  1.00  0.00    -0.070 C  
HETATM   17  H   UNL     1      -7.810   7.549  64.620  1.00  0.00     0.000 HD 
HETATM   18  C   UNL     1      -6.855   3.553  67.143  1.00  0.00    -0.050 C  
HETATM   19  C   UNL     1      -7.995   2.571  66.903  1.00  0.00    -0.076 C  
HETATM   20  O   UNL     1      -8.378   2.544  65.531  1.00  0.00    -0.087 OA 
HETATM   21  C   UNL     1      -9.184   2.744  67.830  1.00  0.00    -0.251 C  
HETATM   22  C   UNL     1      -9.548   4.198  68.304  1.00  0.00    -0.191 C  
HETATM   23  H   UNL     1      -9.088   1.931  65.381  1.00  0.00     0.000 HD 
HETATM   24  C   UNL     1      -8.336   5.085  68.736  1.00  0.00    -0.084 C  
HETATM   25  C   UNL     1      -7.769   4.468  70.040  1.00  0.00    -0.057 C  
HETATM   26  C   UNL     1      -8.529   6.701  68.990  1.00  0.00    -0.130 C  
HETATM   27  C   UNL     1      -9.210   7.373  70.257  1.00  0.00    -0.154 C  
HETATM   28  C   UNL     1      -9.053   9.031  70.361  1.00  0.00    -0.210 C  
ENDROOT
BRANCH   2  29
HETATM   29  C   UNL     1     -11.157  13.679  65.307  1.00  0.00    -0.307 C  
HETATM   30  O   UNL     1     -12.616  14.461  63.592  1.00  0.00    -0.817 OA 
HETATM   31  C   UNL     1     -12.568  14.001  64.863  1.00  0.00    -0.342 C  
HETATM   32  O   UNL     1     -13.570  13.888  65.556  1.00  0.00    -0.579 OA 
ENDBRANCH   2  29
TORSDOF 1
ENDMDL
MODEL       43
REMARK 921   NORMALIZED FREE ENERGY PREDICTED BY IDOCK:   -5.18 KCAL/MOL
REMARK 922        TOTAL FREE ENERGY PREDICTED BY IDOCK:   -5.60 KCAL/MOL
REMARK 923 INTER-LIGAND FREE ENERGY PREDICTED BY IDOCK:   -5.46 KCAL/MOL
REMARK 924 INTRA-LIGAND FREE ENERGY PREDICTED BY IDOCK:   -0.14 KCAL/MOL
REMARK 927      BINDING AFFINITY PREDICTED BY RF-SCORE:    0.00 PKD
ROOT
HETATM    1  C   UNL     1     -11.070  10.231  69.472  1.00  0.00    -0.310 C  
HETATM    2  C   UNL     1     -11.269  10.089  71.031  1.00  0.00    -0.387 C  
HETATM    3  C   UNL     1     -11.741  11.586  69.075  1.00  0.00    -0.400 C  
HETATM    4  C   UNL     1      -9.426   9.995  68.763  1.00  0.00    -0.162 C  
HETATM    5  C   UNL     1      -7.838   7.966  69.645  1.00  0.00    -0.105 C  
HETATM    6  C   UNL     1     -10.016   9.963  67.351  1.00  0.00    -0.235 C  
HETATM    7  H   UNL     1      -6.145  10.144  68.464  1.00  0.00     0.000 HD 
HETATM    8  C   UNL     1     -10.468   8.527  67.146  1.00  0.00    -0.370 C  
HETATM    9  C   UNL     1      -9.127   7.867  67.198  1.00  0.00    -0.158 C  
HETATM   10  O   UNL     1      -5.865   9.284  68.170  1.00  0.00    -0.038 OA 
HETATM   11  C   UNL     1      -8.321   8.592  68.307  1.00  0.00    -0.124 C  
HETATM   12  C   UNL     1      -8.891   6.408  66.816  1.00  0.00    -0.124 C  
HETATM   13  C   UNL     1     -10.018   6.026  65.845  1.00  0.00     0.261 C  
HETATM   14  O   UNL     1     -11.265   5.900  66.524  1.00  0.00    -0.724 OA 
HETATM   15  C   UNL     1      -9.787   4.753  65.083  1.00  0.00    -0.038 C  
HETATM   16  C   UNL     1      -8.469   4.780  64.303  1.00  0.00    -0.135 C  
HETATM   17  H   UNL     1     -11.963   5.664  65.924  1.00  0.00     0.000 HD 
HETATM   18  C   UNL     1      -8.460   3.562  63.363  1.00  0.00    -0.090 C  
HETATM   19  C   UNL     1      -8.142   2.226  64.023  1.00  0.00    -0.081 C  
HETATM   20  O   UNL     1      -9.330   1.543  64.411  1.00  0.00    -0.125 OA 
HETATM   21  C   UNL     1      -7.127   2.302  65.148  1.00  0.00    -0.056 C  
HETATM   22  C   UNL     1      -7.113   3.593  66.046  1.00  0.00    -0.063 C  
HETATM   23  H   UNL     1      -9.133   0.710  64.822  1.00  0.00     0.000 HD 
HETATM   24  C   UNL     1      -7.234   4.947  65.275  1.00  0.00    -0.067 C  
HETATM   25  C   UNL     1      -5.926   5.121  64.464  1.00  0.00    -0.022 C  
HETATM   26  C   UNL     1      -7.509   6.353  66.089  1.00  0.00    -0.082 C  
HETATM   27  C   UNL     1      -6.442   7.166  66.937  1.00  0.00    -0.054 C  
HETATM   28  C   UNL     1      -6.933   8.675  67.453  1.00  0.00    -0.078 C  
ENDROOT
BRANCH   2  29
HETATM   29  C   UNL     1     -12.783   9.955  71.416  1.00  0.00    -0.503 C  
HETATM   30  O   UNL     1     -14.401   8.849  72.772  1.00  0.00    -0.600 OA 
HETATM   31  C   UNL     1     -13.081   8.928  72.488  1.00  0.00    -0.364 C  
HETATM   32  O   UNL     1     -12.246   8.247  73.065  1.00  0.00    -0.228 OA 
ENDBRANCH   2  29
TORSDOF 1
ENDMDL
MODEL       44
REMARK 921   NORMALIZED FREE ENERGY PREDICTED BY IDOCK:   -5.13 KCAL/MOL
REMARK 922        TOTAL FREE ENERGY PREDICTED BY IDOCK:   -5.55 KCAL/MOL
REMARK 923 INTER-LIGAND FREE ENERGY PREDICTED BY IDOCK:   -5.39 KCAL/MOL
REMARK 924 INTRA-LIGAND FREE ENERGY PREDICTED BY IDOCK:   -0.16 KCAL/MOL
REMARK 927      BINDING AFFINITY PREDICTED BY RF-SCORE:    0.00 PKD
ROOT
HETATM    1  C   UNL     1      -7.486   7.034  70.155  1.00  0.00    -0.086 C  
HETATM    2  C   UNL     1      -6.619   6.028  69.302  1.00  0.00    -0.051 C  
HETATM    3  C   UNL     1      -7.681   6.355  71.551  1.00  0.00    -0.100 C  
HETATM    4  C   UNL     1      -6.994   8.768  70.250  1.00  0.00    -0.043 C  
HETATM    5  C   UNL     1      -6.134  10.067  68.016  1.00  0.00    -0.049 C  
HETATM    6  C   UNL     1      -8.332   9.135  70.895  1.00  0.00    -0.231 C  
HETATM    7  H   UNL     1      -5.034  11.413  70.462  1.00  0.00     0.000 HD 
HETATM    8  C   UNL     1      -9.292   9.321  69.732  1.00  0.00    -0.199 C  
HETATM    9  C   UNL     1      -8.641  10.510  69.101  1.00  0.00    -0.157 C  
HETATM   10  O   UNL     1      -5.370  12.044  69.837  1.00  0.00    -0.074 OA 
HETATM   11  C   UNL     1      -7.111  10.283  69.205  1.00  0.00    -0.083 C  
HETATM   12  C   UNL     1      -9.287  11.332  67.988  1.00  0.00    -0.166 C  
HETATM   13  C   UNL     1     -10.804  11.135  68.127  1.00  0.00    -0.219 C  
HETATM   14  O   UNL     1     -11.194   9.825  67.720  1.00  0.00    -0.496 OA 
HETATM   15  C   UNL     1     -11.638  12.116  67.357  1.00  0.00    -0.410 C  
HETATM   16  C   UNL     1     -11.306  13.567  67.723  1.00  0.00    -0.327 C  
HETATM   17  H   UNL     1     -12.132   9.703  67.806  1.00  0.00     0.000 HD 
HETATM   18  C   UNL     1     -12.383  14.464  67.089  1.00  0.00    -0.106 C  
HETATM   19  C   UNL     1     -12.230  14.716  65.594  1.00  0.00    -0.182 C  
HETATM   20  O   UNL     1     -12.985  13.780  64.830  1.00  0.00    -0.712 OA 
HETATM   21  C   UNL     1     -10.794  14.827  65.115  1.00  0.00    -0.417 C  
HETATM   22  C   UNL     1      -9.705  13.950  65.832  1.00  0.00    -0.237 C  
HETATM   23  H   UNL     1     -12.891  13.937  63.898  1.00  0.00     0.000 HD 
HETATM   24  C   UNL     1      -9.799  13.908  67.392  1.00  0.00    -0.237 C  
HETATM   25  C   UNL     1      -9.439  15.326  67.903  1.00  0.00    -0.197 C  
HETATM   26  C   UNL     1      -8.908  12.824  68.255  1.00  0.00    -0.168 C  
HETATM   27  C   UNL     1      -7.353  12.922  68.556  1.00  0.00    -0.115 C  
HETATM   28  C   UNL     1      -6.763  11.813  69.655  1.00  0.00    -0.034 C  
ENDROOT
BRANCH   2  29
HETATM   29  C   UNL     1      -7.382   4.685  69.030  1.00  0.00    -0.053 C  
HETATM   30  O   UNL     1      -8.307   3.218  67.396  1.00  0.00    -0.084 OA 
HETATM   31  C   UNL     1      -7.639   4.381  67.570  1.00  0.00    -0.077 C  
HETATM   32  O   UNL     1      -7.280   5.076  66.630  1.00  0.00    -0.077 OA 
ENDBRANCH   2  29
TORSDOF 1
ENDMDL
MODEL       45
REMARK 921   NORMALIZED FREE ENERGY PREDICTED BY IDOCK:   -5.12 KCAL/MOL
REMARK 922        TOTAL FREE ENERGY PREDICTED BY IDOCK:   -5.54 KCAL/MOL
REMARK 923 INTER-LIGAND FREE ENERGY PREDICTED BY IDOCK:   -5.43 KCAL/MOL
REMARK 924 INTRA-LIGAND FREE ENERGY PREDICTED BY IDOCK:   -0.11 KCAL/MOL
REMARK 927      BINDING AFFINITY PREDICTED BY RF-SCORE:    0.00 PKD
ROOT
HETATM    1  C   UNL     1      -8.725  10.214  66.602  1.00  0.00    -0.134 C  
HETATM    2  C   UNL     1      -7.733   9.519  65.590  1.00  0.00    -0.101 C  
HETATM    3  C   UNL     1      -9.643   9.074  67.154  1.00  0.00    -0.218 C  
HETATM    4  C   UNL     1      -8.066  11.304  67.882  1.00  0.00    -0.121 C  
HETATM    5  C   UNL     1      -6.084  13.072  67.280  1.00  0.00     0.068 C  
HETATM    6  C   UNL     1      -9.474  11.799  68.216  1.00  0.00    -0.193 C  
HETATM    7  H   UNL     1      -6.034  12.447  70.215  1.00  0.00     0.000 HD 
HETATM    8  C   UNL     1      -9.750  12.906  67.213  1.00  0.00    -0.220 C  
HETATM    9  C   UNL     1      -8.704  13.875  67.664  1.00  0.00    -0.187 C  
HETATM   10  O   UNL     1      -5.941  13.379  70.054  1.00  0.00    -0.124 OA 
HETATM   11  C   UNL     1      -7.450  13.036  68.021  1.00  0.00    -0.134 C  
HETATM   12  C   UNL     1      -8.629  15.320  67.178  1.00  0.00    -0.236 C  
HETATM   13  C   UNL     1     -10.050  15.706  66.741  1.00  0.00    -0.272 C  
HETATM   14  O   UNL     1     -10.410  15.058  65.523  1.00  0.00    -0.317 OA 
HETATM   15  C   UNL     1     -10.272  17.178  66.554  1.00  0.00    -0.322 C  
HETATM   16  C   UNL     1      -9.921  17.978  67.813  1.00  0.00    -0.329 C  
HETATM   17  H   UNL     1     -11.289  15.297  65.253  1.00  0.00     0.000 HD 
HETATM   18  C   UNL     1     -10.431  19.415  67.608  1.00  0.00    -0.573 C  
HETATM   19  C   UNL     1      -9.572  20.294  66.706  1.00  0.00    -0.411 C  
HETATM   20  O   UNL     1     -10.028  20.257  65.357  1.00  0.00    -0.438 OA 
HETATM   21  C   UNL     1      -8.079  20.044  66.817  1.00  0.00    -0.356 C  
HETATM   22  C   UNL     1      -7.593  18.576  67.100  1.00  0.00    -0.230 C  
HETATM   23  H   UNL     1      -9.493  20.805  64.795  1.00  0.00     0.000 HD 
HETATM   24  C   UNL     1      -8.398  17.803  68.195  1.00  0.00    -0.264 C  
HETATM   25  C   UNL     1      -8.095  18.495  69.548  1.00  0.00     0.477 C  
HETATM   26  C   UNL     1      -8.186  16.182  68.403  1.00  0.00    -0.172 C  
HETATM   27  C   UNL     1      -6.949  15.485  69.111  1.00  0.00    -0.158 C  
HETATM   28  C   UNL     1      -7.112  13.849  69.394  1.00  0.00     0.022 C  
ENDROOT
BRANCH   2  29
HETATM   29  C   UNL     1      -8.487   8.927  64.349  1.00  0.00    -0.170 C  
HETATM   30  O   UNL     1      -8.344   7.567  62.397  1.00  0.00    -0.128 OA 
HETATM   31  C   UNL     1      -7.646   8.040  63.455  1.00  0.00    -0.130 C  
HETATM   32  O   UNL     1      -6.475   7.749  63.649  1.00  0.00    -0.060 OA 
ENDBRANCH   2  29
TORSDOF 1
ENDMDL
MODEL       46
REMARK 921   NORMALIZED FREE ENERGY PREDICTED BY IDOCK:   -5.08 KCAL/MOL
REMARK 922        TOTAL FREE ENERGY PREDICTED BY IDOCK:   -5.49 KCAL/MOL
REMARK 923 INTER-LIGAND FREE ENERGY PREDICTED BY IDOCK:   -6.62 KCAL/MOL
REMARK 924 INTRA-LIGAND FREE ENERGY PREDICTED BY IDOCK:    1.13 KCAL/MOL
REMARK 927      BINDING AFFINITY PREDICTED BY RF-SCORE:    0.00 PKD
ROOT
HETATM    1  C   UNL     1      -9.457   9.312  66.559  1.00  0.00    -0.259 C  
HETATM    2  C   UNL     1     -10.030   8.390  67.705  1.00  0.00    -0.246 C  
HETATM    3  C   UNL     1      -8.917   8.342  65.457  1.00  0.00    -0.149 C  
HETATM    4  C   UNL     1     -10.474  10.658  65.913  1.00  0.00    -0.243 C  
HETATM    5  C   UNL     1     -11.922  12.212  67.617  1.00  0.00    -0.190 C  
HETATM    6  C   UNL     1      -9.271  11.236  65.165  1.00  0.00    -0.168 C  
HETATM    7  H   UNL     1     -13.155  12.278  64.882  1.00  0.00     0.000 HD 
HETATM    8  C   UNL     1      -8.542  12.087  66.191  1.00  0.00     0.109 C  
HETATM    9  C   UNL     1      -9.602  13.119  66.411  1.00  0.00    -0.259 C  
HETATM   10  O   UNL     1     -13.105  13.146  65.264  1.00  0.00    -0.678 OA 
HETATM   11  C   UNL     1     -10.957  12.367  66.408  1.00  0.00    -0.315 C  
HETATM   12  C   UNL     1      -9.369  14.412  67.188  1.00  0.00    -0.226 C  
HETATM   13  C   UNL     1      -7.864  14.708  67.099  1.00  0.00    -0.124 C  
HETATM   14  O   UNL     1      -7.111  13.803  67.903  1.00  0.00    -0.121 OA 
HETATM   15  C   UNL     1      -7.473  16.101  67.497  1.00  0.00    -0.179 C  
HETATM   16  C   UNL     1      -8.220  17.163  66.685  1.00  0.00    -0.291 C  
HETATM   17  H   UNL     1      -6.181  13.985  67.849  1.00  0.00     0.000 HD 
HETATM   18  C   UNL     1      -7.560  18.522  66.977  1.00  0.00    -0.234 C  
HETATM   19  C   UNL     1      -7.930  19.157  68.312  1.00  0.00    -0.326 C  
HETATM   20  O   UNL     1      -6.991  18.818  69.327  1.00  0.00    -0.285 OA 
HETATM   21  C   UNL     1      -9.364  18.919  68.750  1.00  0.00    -0.381 C  
HETATM   22  C   UNL     1     -10.035  17.548  68.371  1.00  0.00    -0.335 C  
HETATM   23  H   UNL     1      -7.221  19.215  70.159  1.00  0.00     0.000 HD 
HETATM   24  C   UNL     1      -9.781  17.059  66.909  1.00  0.00    -0.266 C  
HETATM   25  C   UNL     1     -10.530  18.039  65.970  1.00  0.00    -0.317 C  
HETATM   26  C   UNL     1     -10.183  15.527  66.456  1.00  0.00    -0.291 C  
HETATM   27  C   UNL     1     -11.649  14.994  66.162  1.00  0.00    -0.159 C  
HETATM   28  C   UNL     1     -11.737  13.468  65.491  1.00  0.00    -0.340 C  
ENDROOT
BRANCH   2  29
HETATM   29  C   UNL     1      -8.903   7.539  68.387  1.00  0.00    -0.126 C  
HETATM   30  O   UNL     1      -6.594   7.389  68.960  1.00  0.00    -0.042 OA 
HETATM   31  C   UNL     1      -7.526   8.170  68.368  1.00  0.00    -0.100 C  
HETATM   32  O   UNL     1      -7.258   9.267  67.898  1.00  0.00    -0.078 OA 
ENDBRANCH   2  29
TORSDOF 1
ENDMDL
MODEL       47
REMARK 921   NORMALIZED FREE ENERGY PREDICTED BY IDOCK:   -4.99 KCAL/MOL
REMARK 922        TOTAL FREE ENERGY PREDICTED BY IDOCK:   -5.40 KCAL/MOL
REMARK 923 INTER-LIGAND FREE ENERGY PREDICTED BY IDOCK:   -5.50 KCAL/MOL
REMARK 924 INTRA-LIGAND FREE ENERGY PREDICTED BY IDOCK:    0.10 KCAL/MOL
REMARK 927      BINDING AFFINITY PREDICTED BY RF-SCORE:    0.00 PKD
ROOT
HETATM    1  C   UNL     1     -12.156  13.873  70.174  1.00  0.00    -0.418 C  
HETATM    2  C   UNL     1     -11.623  15.256  70.718  1.00  0.00    -0.371 C  
HETATM    3  C   UNL     1     -13.498  13.602  70.931  1.00  0.00     0.073 C  
HETATM    4  C   UNL     1     -12.256  13.602  68.391  1.00  0.00    -0.168 C  
HETATM    5  C   UNL     1     -10.234  14.436  66.769  1.00  0.00    -0.270 C  
HETATM    6  C   UNL     1     -12.510  12.109  68.611  1.00  0.00     0.630 C  
HETATM    7  H   UNL     1     -12.783  14.237  65.199  1.00  0.00     0.000 HD 
HETATM    8  C   UNL     1     -11.130  11.494  68.773  1.00  0.00    -0.288 C  
HETATM    9  C   UNL     1     -10.608  11.767  67.399  1.00  0.00    -0.258 C  
HETATM   10  O   UNL     1     -12.051  13.857  64.727  1.00  0.00    -0.380 OA 
HETATM   11  C   UNL     1     -11.116  13.178  67.006  1.00  0.00    -0.305 C  
HETATM   12  C   UNL     1      -9.314  11.167  66.856  1.00  0.00    -0.189 C  
HETATM   13  C   UNL     1      -9.072   9.870  67.643  1.00  0.00    -0.131 C  
HETATM   14  O   UNL     1      -8.669  10.146  68.982  1.00  0.00    -0.140 OA 
HETATM   15  C   UNL     1      -8.050   8.951  67.042  1.00  0.00    -0.109 C  
HETATM   16  C   UNL     1      -8.389   8.579  65.595  1.00  0.00    -0.154 C  
HETATM   17  H   UNL     1      -8.519   9.344  69.469  1.00  0.00     0.000 HD 
HETATM   18  C   UNL     1      -7.441   7.443  65.172  1.00  0.00    -0.086 C  
HETATM   19  C   UNL     1      -6.022   7.870  64.820  1.00  0.00    -0.045 C  
HETATM   20  O   UNL     1      -5.155   7.771  65.946  1.00  0.00    -0.024 OA 
HETATM   21  C   UNL     1      -5.920   9.218  64.130  1.00  0.00    -0.076 C  
HETATM   22  C   UNL     1      -6.950  10.335  64.532  1.00  0.00    -0.067 C  
HETATM   23  H   UNL     1      -4.270   8.037  65.727  1.00  0.00     0.000 HD 
HETATM   24  C   UNL     1      -8.433   9.861  64.672  1.00  0.00    -0.178 C  
HETATM   25  C   UNL     1      -8.921   9.487  63.249  1.00  0.00    -0.208 C  
HETATM   26  C   UNL     1      -9.567  10.845  65.348  1.00  0.00    -0.271 C  
HETATM   27  C   UNL     1     -10.249  12.100  64.655  1.00  0.00    -0.312 C  
HETATM   28  C   UNL     1     -11.534  12.767  65.483  1.00  0.00    -0.337 C  
ENDROOT
BRANCH   2  29
HETATM   29  C   UNL     1     -11.257  15.181  72.241  1.00  0.00    -0.152 C  
HETATM   30  O   UNL     1     -11.917  15.691  74.474  1.00  0.00    -0.405 OA 
HETATM   31  C   UNL     1     -12.289  15.774  73.176  1.00  0.00    -0.483 C  
HETATM   32  O   UNL     1     -13.356  16.262  72.832  1.00  0.00    -0.377 OA 
ENDBRANCH   2  29
TORSDOF 1
ENDMDL
MODEL       48
REMARK 921   NORMALIZED FREE ENERGY PREDICTED BY IDOCK:   -4.87 KCAL/MOL
REMARK 922        TOTAL FREE ENERGY PREDICTED BY IDOCK:   -5.28 KCAL/MOL
REMARK 923 INTER-LIGAND FREE ENERGY PREDICTED BY IDOCK:   -5.09 KCAL/MOL
REMARK 924 INTRA-LIGAND FREE ENERGY PREDICTED BY IDOCK:   -0.19 KCAL/MOL
REMARK 927      BINDING AFFINITY PREDICTED BY RF-SCORE:    0.00 PKD
ROOT
HETATM    1  C   UNL     1     -10.685   7.225  71.700  1.00  0.00    -0.239 C  
HETATM    2  C   UNL     1      -9.981   7.785  72.996  1.00  0.00    -0.356 C  
HETATM    3  C   UNL     1     -11.808   6.260  72.205  1.00  0.00    -0.365 C  
HETATM    4  C   UNL     1     -11.232   8.376  70.421  1.00  0.00    -0.220 C  
HETATM    5  C   UNL     1      -9.643  10.464  69.693  1.00  0.00    -0.142 C  
HETATM    6  C   UNL     1     -11.484   7.216  69.454  1.00  0.00     0.072 C  
HETATM    7  H   UNL     1     -12.507  11.095  69.058  1.00  0.00     0.000 HD 
HETATM    8  C   UNL     1     -10.131   6.932  68.822  1.00  0.00    -0.168 C  
HETATM    9  C   UNL     1      -9.954   8.226  68.095  1.00  0.00    -0.224 C  
HETATM   10  O   UNL     1     -11.930  11.329  68.341  1.00  0.00    -0.555 OA 
HETATM   11  C   UNL     1     -10.488   9.337  69.035  1.00  0.00    -0.233 C  
HETATM   12  C   UNL     1      -8.859   8.466  67.059  1.00  0.00    -0.146 C  
HETATM   13  C   UNL     1      -8.482   7.088  66.497  1.00  0.00    -0.125 C  
HETATM   14  O   UNL     1      -7.749   6.323  67.452  1.00  0.00    -0.095 OA 
HETATM   15  C   UNL     1      -7.676   7.124  65.232  1.00  0.00    -0.114 C  
HETATM   16  C   UNL     1      -8.377   7.919  64.125  1.00  0.00     0.050 C  
HETATM   17  H   UNL     1      -7.516   5.470  67.105  1.00  0.00     0.000 HD 
HETATM   18  C   UNL     1      -7.609   7.670  62.816  1.00  0.00    -0.113 C  
HETATM   19  C   UNL     1      -6.304   8.443  62.663  1.00  0.00    -0.088 C  
HETATM   20  O   UNL     1      -5.191   7.676  63.113  1.00  0.00    -0.037 OA 
HETATM   21  C   UNL     1      -6.323   9.838  63.260  1.00  0.00    -0.116 C  
HETATM   22  C   UNL     1      -7.177  10.077  64.558  1.00  0.00    -0.139 C  
HETATM   23  H   UNL     1      -4.378   8.158  63.018  1.00  0.00     0.000 HD 
HETATM   24  C   UNL     1      -8.597   9.423  64.555  1.00  0.00    -0.219 C  
HETATM   25  C   UNL     1      -9.436  10.174  63.491  1.00  0.00    -0.310 C  
HETATM   26  C   UNL     1      -9.489   9.353  65.938  1.00  0.00    -0.315 C  
HETATM   27  C   UNL     1     -10.271  10.562  66.607  1.00  0.00    -0.289 C  
HETATM   28  C   UNL     1     -11.285  10.151  67.867  1.00  0.00    -0.163 C  
ENDROOT
BRANCH   2  29
HETATM   29  C   UNL     1      -9.253   6.653  73.800  1.00  0.00    -0.176 C  
HETATM   30  O   UNL     1      -7.299   5.305  74.014  1.00  0.00    -0.082 OA 
HETATM   31  C   UNL     1      -7.874   6.292  73.290  1.00  0.00    -0.099 C  
HETATM   32  O   UNL     1      -7.308   6.826  72.347  1.00  0.00    -0.086 OA 
ENDBRANCH   2  29
TORSDOF 1
ENDMDL
MODEL       49
REMARK 921   NORMALIZED FREE ENERGY PREDICTED BY IDOCK:   -4.85 KCAL/MOL
REMARK 922        TOTAL FREE ENERGY PREDICTED BY IDOCK:   -5.25 KCAL/MOL
REMARK 923 INTER-LIGAND FREE ENERGY PREDICTED BY IDOCK:   -5.13 KCAL/MOL
REMARK 924 INTRA-LIGAND FREE ENERGY PREDICTED BY IDOCK:   -0.12 KCAL/MOL
REMARK 927      BINDING AFFINITY PREDICTED BY RF-SCORE:    0.00 PKD
ROOT
HETATM    1  C   UNL     1      -9.126  12.580  66.901  1.00  0.00    -0.213 C  
HETATM    2  C   UNL     1     -10.503  13.345  66.804  1.00  0.00    -0.275 C  
HETATM    3  C   UNL     1      -8.045  13.674  67.183  1.00  0.00    -0.094 C  
HETATM    4  C   UNL     1      -8.992  11.129  67.967  1.00  0.00    -0.149 C  
HETATM    5  C   UNL     1     -10.998   9.288  68.027  1.00  0.00    -0.076 C  
HETATM    6  C   UNL     1      -7.633  10.779  67.356  1.00  0.00    -0.099 C  
HETATM    7  H   UNL     1      -9.434   9.173  70.585  1.00  0.00     0.000 HD 
HETATM    8  C   UNL     1      -7.960   9.999  66.094  1.00  0.00    -0.113 C  
HETATM    9  C   UNL     1      -8.599   8.808  66.733  1.00  0.00    -0.122 C  
HETATM   10  O   UNL     1      -9.609   8.304  70.243  1.00  0.00    -0.166 OA 
HETATM   11  C   UNL     1      -9.448   9.344  67.914  1.00  0.00    -0.150 C  
HETATM   12  C   UNL     1      -8.941   7.528  65.975  1.00  0.00    -0.164 C  
HETATM   13  C   UNL     1      -7.992   7.470  64.769  1.00  0.00    -0.132 C  
HETATM   14  O   UNL     1      -8.347   8.438  63.784  1.00  0.00    -0.309 OA 
HETATM   15  C   UNL     1      -7.922   6.135  64.087  1.00  0.00    -0.114 C  
HETATM   16  C   UNL     1      -7.537   5.013  65.057  1.00  0.00    -0.078 C  
HETATM   17  H   UNL     1      -7.760   8.402  63.038  1.00  0.00     0.000 HD 
HETATM   18  C   UNL     1      -7.235   3.758  64.219  1.00  0.00    -0.058 C  
HETATM   19  C   UNL     1      -8.455   3.007  63.699  1.00  0.00    -0.086 C  
HETATM   20  O   UNL     1      -8.807   3.434  62.387  1.00  0.00    -0.084 OA 
HETATM   21  C   UNL     1      -9.644   3.002  64.643  1.00  0.00    -0.138 C  
HETATM   22  C   UNL     1      -9.882   4.271  65.539  1.00  0.00    -0.221 C  
HETATM   23  H   UNL     1      -9.567   2.966  62.062  1.00  0.00     0.000 HD 
HETATM   24  C   UNL     1      -8.604   4.866  66.213  1.00  0.00    -0.115 C  
HETATM   25  C   UNL     1      -8.126   3.832  67.263  1.00  0.00    -0.091 C  
HETATM   26  C   UNL     1      -8.653   6.340  66.948  1.00  0.00    -0.113 C  
HETATM   27  C   UNL     1      -9.297   6.657  68.363  1.00  0.00    -0.123 C  
HETATM   28  C   UNL     1      -8.991   8.183  68.966  1.00  0.00    -0.144 C  
ENDROOT
BRANCH   2  29
HETATM   29  C   UNL     1     -10.543  14.323  65.579  1.00  0.00    -0.351 C  
HETATM   30  O   UNL     1     -10.668  16.585  64.841  1.00  0.00    -0.702 OA 
HETATM   31  C   UNL     1     -10.627  15.791  65.936  1.00  0.00    -0.339 C  
HETATM   32  O   UNL     1     -10.638  16.243  67.072  1.00  0.00    -0.314 OA 
ENDBRANCH   2  29
TORSDOF 1
ENDMDL
MODEL       50
REMARK 921   NORMALIZED FREE ENERGY PREDICTED BY IDOCK:   -4.78 KCAL/MOL
REMARK 922        TOTAL FREE ENERGY PREDICTED BY IDOCK:   -5.17 KCAL/MOL
REMARK 923 INTER-LIGAND FREE ENERGY PREDICTED BY IDOCK:   -5.02 KCAL/MOL
REMARK 924 INTRA-LIGAND FREE ENERGY PREDICTED BY IDOCK:   -0.15 KCAL/MOL
REMARK 927      BINDING AFFINITY PREDICTED BY RF-SCORE:    0.00 PKD
ROOT
HETATM    1  C   UNL     1      -9.008  19.052  68.214  1.00  0.00    -0.372 C  
HETATM    2  C   UNL     1      -7.489  19.467  68.320  1.00  0.00    -0.341 C  
HETATM    3  C   UNL     1      -9.809  20.387  68.073  1.00  0.00    -0.377 C  
HETATM    4  C   UNL     1      -9.498  17.778  67.031  1.00  0.00    -0.271 C  
HETATM    5  C   UNL     1      -7.978  15.538  66.730  1.00  0.00    -0.214 C  
HETATM    6  C   UNL     1     -10.888  17.694  67.665  1.00  0.00    -0.227 C  
HETATM    7  H   UNL     1      -9.576  16.028  64.237  1.00  0.00     0.000 HD 
HETATM    8  C   UNL     1     -10.728  16.745  68.840  1.00  0.00    -0.333 C  
HETATM    9  C   UNL     1     -10.396  15.504  68.074  1.00  0.00    -0.247 C  
HETATM   10  O   UNL     1      -9.601  15.114  64.495  1.00  0.00     0.419 OA 
HETATM   11  C   UNL     1      -9.469  15.938  66.911  1.00  0.00    -0.242 C  
HETATM   12  C   UNL     1     -10.348  14.114  68.704  1.00  0.00    -0.243 C  
HETATM   13  C   UNL     1     -11.261  14.163  69.938  1.00  0.00    -0.107 C  
HETATM   14  O   UNL     1     -10.670  14.926  70.988  1.00  0.00    -0.541 OA 
HETATM   15  C   UNL     1     -11.627  12.822  70.503  1.00  0.00     0.244 C  
HETATM   16  C   UNL     1     -12.282  11.915  69.456  1.00  0.00    -0.197 C  
HETATM   17  H   UNL     1     -11.234  14.957  71.751  1.00  0.00     0.000 HD 
HETATM   18  C   UNL     1     -12.851  10.690  70.193  1.00  0.00    -0.146 C  
HETATM   19  C   UNL     1     -11.830   9.633  70.595  1.00  0.00    -0.256 C  
HETATM   20  O   UNL     1     -11.362   9.842  71.924  1.00  0.00    -0.076 OA 
HETATM   21  C   UNL     1     -10.694   9.444  69.606  1.00  0.00    -0.251 C  
HETATM   22  C   UNL     1     -10.183  10.702  68.815  1.00  0.00    -0.204 C  
HETATM   23  H   UNL     1     -10.726   9.183  72.175  1.00  0.00     0.000 HD 
HETATM   24  C   UNL     1     -11.301  11.637  68.249  1.00  0.00    -0.348 C  
HETATM   25  C   UNL     1     -12.027  10.844  67.132  1.00  0.00     1.061 C  
HETATM   26  C   UNL     1     -10.924  13.122  67.644  1.00  0.00    -0.282 C  
HETATM   27  C   UNL     1     -10.251  13.414  66.236  1.00  0.00    -0.298 C  
HETATM   28  C   UNL     1     -10.205  15.019  65.781  1.00  0.00    -0.338 C  
ENDROOT
BRANCH   2  29
HETATM   29  C   UNL     1      -7.198  20.289  69.623  1.00  0.00     0.189 C  
HETATM   30  O   UNL     1      -5.928  20.448  71.633  1.00  0.00    -0.604 OA 
HETATM   31  C   UNL     1      -6.129  19.704  70.522  1.00  0.00    -0.200 C  
HETATM   32  O   UNL     1      -5.488  18.690  70.289  1.00  0.00    -0.214 OA 
ENDBRANCH   2  29
TORSDOF 1
ENDMDL
MODEL       51
REMARK 921   NORMALIZED FREE ENERGY PREDICTED BY IDOCK:   -4.75 KCAL/MOL
REMARK 922        TOTAL FREE ENERGY PREDICTED BY IDOCK:   -5.14 KCAL/MOL
REMARK 923 INTER-LIGAND FREE ENERGY PREDICTED BY IDOCK:   -4.95 KCAL/MOL
REMARK 924 INTRA-LIGAND FREE ENERGY PREDICTED BY IDOCK:   -0.19 KCAL/MOL
REMARK 927      BINDING AFFINITY PREDICTED BY RF-SCORE:    0.00 PKD
ROOT
HETATM    1  C   UNL     1      -7.442   8.410  67.613  1.00  0.00    -0.094 C  
HETATM    2  C   UNL     1      -6.387   7.753  66.640  1.00  0.00    -0.050 C  
HETATM    3  C   UNL     1      -8.058   7.232  68.437  1.00  0.00    -0.125 C  
HETATM    4  C   UNL     1      -6.956   9.829  68.618  1.00  0.00    -0.063 C  
HETATM    5  C   UNL     1      -5.443  11.816  67.533  1.00  0.00    -0.077 C  
HETATM    6  C   UNL     1      -8.416  10.085  69.000  1.00  0.00    -0.147 C  
HETATM    7  H   UNL     1      -5.081  11.772  70.512  1.00  0.00     0.000 HD 
HETATM    8  C   UNL     1      -8.984  10.907  67.856  1.00  0.00    -0.141 C  
HETATM    9  C   UNL     1      -8.146  12.133  68.032  1.00  0.00    -0.155 C  
HETATM   10  O   UNL     1      -5.201  12.656  70.187  1.00  0.00    -0.084 OA 
HETATM   11  C   UNL     1      -6.722  11.645  68.400  1.00  0.00    -0.064 C  
HETATM   12  C   UNL     1      -8.414  13.447  67.302  1.00  0.00    -0.205 C  
HETATM   13  C   UNL     1      -9.908  13.452  66.949  1.00  0.00    -0.256 C  
HETATM   14  O   UNL     1     -10.194  12.529  65.900  1.00  0.00    -0.251 OA 
HETATM   15  C   UNL     1     -10.453  14.788  66.538  1.00  0.00    -0.291 C  
HETATM   16  C   UNL     1     -10.207  15.862  67.602  1.00  0.00    -0.263 C  
HETATM   17  H   UNL     1     -11.118  12.532  65.681  1.00  0.00     0.000 HD 
HETATM   18  C   UNL     1     -11.026  17.104  67.208  1.00  0.00    -0.006 C  
HETATM   19  C   UNL     1     -10.433  17.953  66.091  1.00  0.00    -0.321 C  
HETATM   20  O   UNL     1     -10.952  17.575  64.819  1.00  0.00    -0.950 OA 
HETATM   21  C   UNL     1      -8.917  18.033  66.094  1.00  0.00    -0.117 C  
HETATM   22  C   UNL     1      -8.111  16.772  66.573  1.00  0.00    -0.329 C  
HETATM   23  H   UNL     1     -10.582  18.104  64.122  1.00  0.00     0.000 HD 
HETATM   24  C   UNL     1      -8.662  16.071  67.856  1.00  0.00    -0.165 C  
HETATM   25  C   UNL     1      -8.434  17.049  69.037  1.00  0.00    -0.124 C  
HETATM   26  C   UNL     1      -8.094  14.594  68.314  1.00  0.00    -0.143 C  
HETATM   27  C   UNL     1      -6.694  14.304  69.005  1.00  0.00    -0.106 C  
HETATM   28  C   UNL     1      -6.483  12.750  69.576  1.00  0.00    -0.077 C  
ENDROOT
BRANCH   2  29
HETATM   29  C   UNL     1      -7.069   6.801  65.597  1.00  0.00    -0.072 C  
HETATM   30  O   UNL     1      -7.902   6.550  63.378  1.00  0.00    -0.108 OA 
HETATM   31  C   UNL     1      -7.303   7.412  64.232  1.00  0.00    -0.090 C  
HETATM   32  O   UNL     1      -6.982   8.544  63.900  1.00  0.00    -0.081 OA 
ENDBRANCH   2  29
TORSDOF 1
ENDMDL
MODEL       52
REMARK 921   NORMALIZED FREE ENERGY PREDICTED BY IDOCK:   -4.74 KCAL/MOL
REMARK 922        TOTAL FREE ENERGY PREDICTED BY IDOCK:   -5.14 KCAL/MOL
REMARK 923 INTER-LIGAND FREE ENERGY PREDICTED BY IDOCK:   -5.02 KCAL/MOL
REMARK 924 INTRA-LIGAND FREE ENERGY PREDICTED BY IDOCK:   -0.11 KCAL/MOL
REMARK 927      BINDING AFFINITY PREDICTED BY RF-SCORE:    0.00 PKD
ROOT
HETATM    1  C   UNL     1      -6.721   7.523  67.222  1.00  0.00    -0.067 C  
HETATM    2  C   UNL     1      -7.488   6.252  67.758  1.00  0.00    -0.093 C  
HETATM    3  C   UNL     1      -5.283   7.033  66.853  1.00  0.00    -0.017 C  
HETATM    4  C   UNL     1      -7.490   8.553  65.954  1.00  0.00    -0.077 C  
HETATM    5  C   UNL     1     -10.141   9.158  66.108  1.00  0.00    -0.278 C  
HETATM    6  C   UNL     1      -6.432   9.638  66.162  1.00  0.00    -0.071 C  
HETATM    7  H   UNL     1      -9.216   9.357  63.261  1.00  0.00     0.000 HD 
HETATM    8  C   UNL     1      -6.936  10.458  67.338  1.00  0.00    -0.085 C  
HETATM    9  C   UNL     1      -8.173  11.010  66.703  1.00  0.00    -0.154 C  
HETATM   10  O   UNL     1      -9.761  10.096  63.504  1.00  0.00    -0.273 OA 
HETATM   11  C   UNL     1      -8.781   9.866  65.853  1.00  0.00    -0.154 C  
HETATM   12  C   UNL     1      -9.013  12.122  67.325  1.00  0.00    -0.184 C  
HETATM   13  C   UNL     1      -8.073  12.915  68.246  1.00  0.00    -0.151 C  
HETATM   14  O   UNL     1      -7.749  12.171  69.418  1.00  0.00    -0.316 OA 
HETATM   15  C   UNL     1      -8.602  14.248  68.687  1.00  0.00    -0.149 C  
HETATM   16  C   UNL     1      -8.977  15.140  67.499  1.00  0.00    -0.187 C  
HETATM   17  H   UNL     1      -7.168  12.661  69.987  1.00  0.00     0.000 HD 
HETATM   18  C   UNL     1      -9.248  16.553  68.046  1.00  0.00    -0.214 C  
HETATM   19  C   UNL     1     -10.596  16.746  68.728  1.00  0.00    -0.348 C  
HETATM   20  O   UNL     1     -10.501  16.543  70.135  1.00  0.00    -0.157 OA 
HETATM   21  C   UNL     1     -11.737  15.959  68.108  1.00  0.00    -0.134 C  
HETATM   22  C   UNL     1     -11.414  14.549  67.492  1.00  0.00    -0.375 C  
HETATM   23  H   UNL     1     -11.342  16.663  70.560  1.00  0.00     0.000 HD 
HETATM   24  C   UNL     1     -10.115  14.478  66.625  1.00  0.00    -0.275 C  
HETATM   25  C   UNL     1     -10.378  15.319  65.350  1.00  0.00    -0.421 C  
HETATM   26  C   UNL     1      -9.505  13.024  66.148  1.00  0.00    -0.159 C  
HETATM   27  C   UNL     1     -10.082  12.103  64.991  1.00  0.00    -0.289 C  
HETATM   28  C   UNL     1      -9.125  10.804  64.563  1.00  0.00    -0.198 C  
ENDROOT
BRANCH   2  29
HETATM   29  C   UNL     1      -6.859   5.708  69.087  1.00  0.00    -0.062 C  
HETATM   30  O   UNL     1      -6.618   3.850  70.560  1.00  0.00    -0.030 OA 
HETATM   31  C   UNL     1      -7.178   4.261  69.399  1.00  0.00    -0.051 C  
HETATM   32  O   UNL     1      -7.845   3.517  68.695  1.00  0.00    -0.056 OA 
ENDBRANCH   2  29
TORSDOF 1
ENDMDL
MODEL       53
REMARK 921   NORMALIZED FREE ENERGY PREDICTED BY IDOCK:   -4.73 KCAL/MOL
REMARK 922        TOTAL FREE ENERGY PREDICTED BY IDOCK:   -5.12 KCAL/MOL
REMARK 923 INTER-LIGAND FREE ENERGY PREDICTED BY IDOCK:   -4.98 KCAL/MOL
REMARK 924 INTRA-LIGAND FREE ENERGY PREDICTED BY IDOCK:   -0.14 KCAL/MOL
REMARK 927      BINDING AFFINITY PREDICTED BY RF-SCORE:    0.00 PKD
ROOT
HETATM    1  C   UNL     1     -10.188  12.810  65.567  1.00  0.00    -0.293 C  
HETATM    2  C   UNL     1     -10.514  14.333  65.825  1.00  0.00    -0.326 C  
HETATM    3  C   UNL     1     -10.356  12.591  64.028  1.00  0.00    -0.429 C  
HETATM    4  C   UNL     1      -8.672  12.102  66.244  1.00  0.00     0.017 C  
HETATM    5  C   UNL     1      -7.887  12.725  68.777  1.00  0.00     0.040 C  
HETATM    6  C   UNL     1      -9.154  10.690  65.905  1.00  0.00    -0.201 C  
HETATM    7  H   UNL     1      -5.510  11.876  67.154  1.00  0.00     0.000 HD 
HETATM    8  C   UNL     1     -10.037  10.285  67.074  1.00  0.00    -0.268 C  
HETATM    9  C   UNL     1      -8.990  10.267  68.142  1.00  0.00    -0.130 C  
HETATM   10  O   UNL     1      -5.508  11.473  68.014  1.00  0.00    -0.043 OA 
HETATM   11  C   UNL     1      -8.059  11.476  67.867  1.00  0.00    -0.132 C  
HETATM   12  C   UNL     1      -9.220   9.694  69.538  1.00  0.00    -0.214 C  
HETATM   13  C   UNL     1     -10.351   8.663  69.403  1.00  0.00    -0.218 C  
HETATM   14  O   UNL     1     -11.608   9.300  69.191  1.00  0.00    -0.313 OA 
HETATM   15  C   UNL     1     -10.502   7.740  70.576  1.00  0.00    -0.217 C  
HETATM   16  C   UNL     1      -9.203   6.991  70.891  1.00  0.00    -0.156 C  
HETATM   17  H   UNL     1     -12.308   8.662  69.108  1.00  0.00     0.000 HD 
HETATM   18  C   UNL     1      -9.536   5.894  71.918  1.00  0.00    -0.169 C  
HETATM   19  C   UNL     1      -9.711   6.371  73.354  1.00  0.00    -0.165 C  
HETATM   20  O   UNL     1     -11.077   6.645  73.648  1.00  0.00    -0.480 OA 
HETATM   21  C   UNL     1      -8.795   7.512  73.757  1.00  0.00    -0.283 C  
HETATM   22  C   UNL     1      -8.414   8.577  72.665  1.00  0.00    -0.169 C  
HETATM   23  H   UNL     1     -11.187   6.942  74.544  1.00  0.00     0.000 HD 
HETATM   24  C   UNL     1      -8.042   7.995  71.263  1.00  0.00    -0.110 C  
HETATM   25  C   UNL     1      -6.702   7.235  71.433  1.00  0.00    -0.051 C  
HETATM   26  C   UNL     1      -7.891   8.988  69.957  1.00  0.00    -0.088 C  
HETATM   27  C   UNL     1      -6.669   9.954  69.654  1.00  0.00    -0.061 C  
HETATM   28  C   UNL     1      -6.672  10.663  68.143  1.00  0.00    -0.064 C  
ENDROOT
BRANCH   2  29
HETATM   29  C   UNL     1     -12.010  14.673  65.497  1.00  0.00    -0.256 C  
HETATM   30  O   UNL     1     -13.513  15.943  64.153  1.00  0.00     0.434 OA 
HETATM   31  C   UNL     1     -12.206  15.681  64.385  1.00  0.00    -0.016 C  
HETATM   32  O   UNL     1     -11.309  16.203  63.738  1.00  0.00    -0.618 OA 
ENDBRANCH   2  29
TORSDOF 1
ENDMDL
MODEL       54
REMARK 921   NORMALIZED FREE ENERGY PREDICTED BY IDOCK:   -4.65 KCAL/MOL
REMARK 922        TOTAL FREE ENERGY PREDICTED BY IDOCK:   -5.04 KCAL/MOL
REMARK 923 INTER-LIGAND FREE ENERGY PREDICTED BY IDOCK:   -5.06 KCAL/MOL
REMARK 924 INTRA-LIGAND FREE ENERGY PREDICTED BY IDOCK:    0.02 KCAL/MOL
REMARK 927      BINDING AFFINITY PREDICTED BY RF-SCORE:    0.00 PKD
ROOT
HETATM    1  C   UNL     1      -9.320   7.452  67.882  1.00  0.00    -0.138 C  
HETATM    2  C   UNL     1      -8.695   6.590  69.047  1.00  0.00    -0.128 C  
HETATM    3  C   UNL     1      -9.705   6.438  66.756  1.00  0.00    -0.199 C  
HETATM    4  C   UNL     1     -10.618   8.648  68.264  1.00  0.00    -0.181 C  
HETATM    5  C   UNL     1     -10.417  10.222  70.477  1.00  0.00    -0.053 C  
HETATM    6  C   UNL     1     -10.499   9.256  66.864  1.00  0.00    -0.284 C  
HETATM    7  H   UNL     1     -13.297   9.946  69.683  1.00  0.00     0.000 HD 
HETATM    8  C   UNL     1      -9.354  10.250  66.964  1.00  0.00    -0.177 C  
HETATM    9  C   UNL     1      -9.980  11.207  67.928  1.00  0.00    -0.189 C  
HETATM   10  O   UNL     1     -13.077  10.845  69.895  1.00  0.00    -0.049 OA 
HETATM   11  C   UNL     1     -10.750  10.348  68.964  1.00  0.00    -0.260 C  
HETATM   12  C   UNL     1      -9.393  12.578  68.254  1.00  0.00    -0.193 C  
HETATM   13  C   UNL     1      -8.544  12.987  67.041  1.00  0.00    -0.162 C  
HETATM   14  O   UNL     1      -7.344  12.221  66.968  1.00  0.00    -0.287 OA 
HETATM   15  C   UNL     1      -8.159  14.437  67.004  1.00  0.00    -0.095 C  
HETATM   16  C   UNL     1      -9.381  15.359  67.070  1.00  0.00    -0.238 C  
HETATM   17  H   UNL     1      -6.819  12.474  66.217  1.00  0.00     0.000 HD 
HETATM   18  C   UNL     1      -8.902  16.788  66.758  1.00  0.00    -0.257 C  
HETATM   19  C   UNL     1      -8.191  17.505  67.899  1.00  0.00    -0.231 C  
HETATM   20  O   UNL     1      -6.779  17.335  67.821  1.00  0.00    -0.154 OA 
HETATM   21  C   UNL     1      -8.734  17.189  69.281  1.00  0.00     0.151 C  
HETATM   22  C   UNL     1      -9.284  15.740  69.545  1.00  0.00    -0.215 C  
HETATM   23  H   UNL     1      -6.336  17.782  68.532  1.00  0.00     0.000 HD 
HETATM   24  C   UNL     1     -10.184  15.147  68.413  1.00  0.00    -0.221 C  
HETATM   25  C   UNL     1     -11.493  15.976  68.399  1.00  0.00    -0.331 C  
HETATM   26  C   UNL     1     -10.601  13.553  68.423  1.00  0.00    -0.258 C  
HETATM   27  C   UNL     1     -11.690  12.878  69.360  1.00  0.00    -0.382 C  
HETATM   28  C   UNL     1     -12.076  11.298  68.989  1.00  0.00    -0.257 C  
ENDROOT
BRANCH   2  29
HETATM   29  C   UNL     1      -7.358   5.898  68.608  1.00  0.00    -0.085 C  
HETATM   30  O   UNL     1      -6.287   3.870  67.960  1.00  0.00    -0.035 OA 
HETATM   31  C   UNL     1      -7.470   4.415  68.325  1.00  0.00    -0.065 C  
HETATM   32  O   UNL     1      -8.500   3.759  68.389  1.00  0.00    -0.088 OA 
ENDBRANCH   2  29
TORSDOF 1
ENDMDL
MODEL       55
REMARK 921   NORMALIZED FREE ENERGY PREDICTED BY IDOCK:   -4.59 KCAL/MOL
REMARK 922        TOTAL FREE ENERGY PREDICTED BY IDOCK:   -4.97 KCAL/MOL
REMARK 923 INTER-LIGAND FREE ENERGY PREDICTED BY IDOCK:   -4.79 KCAL/MOL
REMARK 924 INTRA-LIGAND FREE ENERGY PREDICTED BY IDOCK:   -0.18 KCAL/MOL
REMARK 927      BINDING AFFINITY PREDICTED BY RF-SCORE:    0.00 PKD
ROOT
HETATM    1  C   UNL     1      -9.434   5.742  72.779  1.00  0.00    -0.152 C  
HETATM    2  C   UNL     1      -8.568   4.454  73.066  1.00  0.00    -0.101 C  
HETATM    3  C   UNL     1     -10.483   5.821  73.935  1.00  0.00    -0.295 C  
HETATM    4  C   UNL     1      -8.604   7.310  72.438  1.00  0.00    -0.133 C  
HETATM    5  C   UNL     1      -6.418   7.372  70.816  1.00  0.00    -0.039 C  
HETATM    6  C   UNL     1      -9.925   7.936  71.986  1.00  0.00    -0.251 C  
HETATM    7  H   UNL     1      -6.384   9.738  72.662  1.00  0.00     0.000 HD 
HETATM    8  C   UNL     1     -10.073   7.532  70.529  1.00  0.00    -0.188 C  
HETATM    9  C   UNL     1      -8.897   8.272  69.977  1.00  0.00    -0.134 C  
HETATM   10  O   UNL     1      -6.170   9.987  71.771  1.00  0.00    -0.300 OA 
HETATM   11  C   UNL     1      -7.759   8.131  71.020  1.00  0.00    -0.088 C  
HETATM   12  C   UNL     1      -8.639   8.450  68.483  1.00  0.00    -0.136 C  
HETATM   13  C   UNL     1     -10.005   8.337  67.790  1.00  0.00    -0.186 C  
HETATM   14  O   UNL     1     -10.478   6.992  67.796  1.00  0.00    -0.187 OA 
HETATM   15  C   UNL     1     -10.032   8.820  66.370  1.00  0.00    -0.346 C  
HETATM   16  C   UNL     1      -9.548  10.268  66.245  1.00  0.00    -0.238 C  
HETATM   17  H   UNL     1     -11.323   6.921  67.368  1.00  0.00     0.000 HD 
HETATM   18  C   UNL     1      -9.864  10.743  64.816  1.00  0.00    -0.358 C  
HETATM   19  C   UNL     1      -8.916  10.242  63.733  1.00  0.00    -0.239 C  
HETATM   20  O   UNL     1      -9.405   9.050  63.126  1.00  0.00    -0.412 OA 
HETATM   21  C   UNL     1      -7.468  10.115  64.170  1.00  0.00    -0.114 C  
HETATM   22  C   UNL     1      -7.178   9.700  65.658  1.00  0.00    -0.097 C  
HETATM   23  H   UNL     1      -8.815   8.738  62.450  1.00  0.00     0.000 HD 
HETATM   24  C   UNL     1      -8.054  10.415  66.737  1.00  0.00    -0.120 C  
HETATM   25  C   UNL     1      -7.629  11.906  66.744  1.00  0.00    -0.034 C  
HETATM   26  C   UNL     1      -8.056   9.888  68.298  1.00  0.00    -0.104 C  
HETATM   27  C   UNL     1      -6.907  10.127  69.367  1.00  0.00    -0.070 C  
HETATM   28  C   UNL     1      -7.282   9.689  70.933  1.00  0.00     0.015 C  
ENDROOT
BRANCH   2  29
HETATM   29  C   UNL     1      -9.423   3.143  72.968  1.00  0.00    -0.130 C  
HETATM   30  O   UNL     1     -10.398   1.506  71.537  1.00  0.00    -0.091 OA 
HETATM   31  C   UNL     1      -9.648   2.631  71.561  1.00  0.00    -0.151 C  
HETATM   32  O   UNL     1      -9.201   3.141  70.544  1.00  0.00    -0.111 OA 
ENDBRANCH   2  29
TORSDOF 1
ENDMDL
MODEL       56
REMARK 921   NORMALIZED FREE ENERGY PREDICTED BY IDOCK:   -4.52 KCAL/MOL
REMARK 922        TOTAL FREE ENERGY PREDICTED BY IDOCK:   -4.90 KCAL/MOL
REMARK 923 INTER-LIGAND FREE ENERGY PREDICTED BY IDOCK:   -4.75 KCAL/MOL
REMARK 924 INTRA-LIGAND FREE ENERGY PREDICTED BY IDOCK:   -0.14 KCAL/MOL
REMARK 927      BINDING AFFINITY PREDICTED BY RF-SCORE:    0.00 PKD
ROOT
HETATM    1  C   UNL     1      -8.753   5.097  67.332  1.00  0.00    -0.103 C  
HETATM    2  C   UNL     1      -8.429   4.388  65.959  1.00  0.00    -0.113 C  
HETATM    3  C   UNL     1      -8.935   3.947  68.376  1.00  0.00    -0.165 C  
HETATM    4  C   UNL     1      -7.695   6.443  67.905  1.00  0.00    -0.104 C  
HETATM    5  C   UNL     1      -6.825   8.336  66.151  1.00  0.00    -0.058 C  
HETATM    6  C   UNL     1      -8.706   6.802  68.997  1.00  0.00    -0.130 C  
HETATM    7  H   UNL     1      -4.951   8.176  68.489  1.00  0.00     0.000 HD 
HETATM    8  C   UNL     1      -9.723   7.699  68.311  1.00  0.00    -0.166 C  
HETATM    9  C   UNL     1      -8.821   8.850  67.997  1.00  0.00    -0.133 C  
HETATM   10  O   UNL     1      -5.151   9.077  68.262  1.00  0.00    -0.033 OA 
HETATM   11  C   UNL     1      -7.463   8.240  67.565  1.00  0.00    -0.094 C  
HETATM   12  C   UNL     1      -9.324  10.202  67.498  1.00  0.00    -0.168 C  
HETATM   13  C   UNL     1     -10.774  10.334  67.987  1.00  0.00    -0.255 C  
HETATM   14  O   UNL     1     -11.645   9.468  67.263  1.00  0.00     0.063 OA 
HETATM   15  C   UNL     1     -11.341  11.721  67.904  1.00  0.00    -0.362 C  
HETATM   16  C   UNL     1     -10.484  12.740  68.660  1.00  0.00    -0.230 C  
HETATM   17  H   UNL     1     -12.541   9.550  67.566  1.00  0.00     0.000 HD 
HETATM   18  C   UNL     1     -11.282  14.054  68.737  1.00  0.00    -0.298 C  
HETATM   19  C   UNL     1     -11.300  14.886  67.461  1.00  0.00    -0.342 C  
HETATM   20  O   UNL     1     -12.441  14.587  66.662  1.00  0.00    -0.494 OA 
HETATM   21  C   UNL     1     -10.010  14.847  66.662  1.00  0.00    -0.267 C  
HETATM   22  C   UNL     1      -9.179  13.513  66.663  1.00  0.00    -0.221 C  
HETATM   23  H   UNL     1     -12.453  15.106  65.867  1.00  0.00     0.000 HD 
HETATM   24  C   UNL     1      -9.026  12.820  68.055  1.00  0.00    -0.196 C  
HETATM   25  C   UNL     1      -8.130  13.742  68.921  1.00  0.00     0.059 C  
HETATM   26  C   UNL     1      -8.425  11.289  68.168  1.00  0.00    -0.145 C  
HETATM   27  C   UNL     1      -6.901  10.871  68.021  1.00  0.00    -0.068 C  
HETATM   28  C   UNL     1      -6.550   9.289  68.419  1.00  0.00    -0.058 C  
ENDROOT
BRANCH   2  29
HETATM   29  C   UNL     1      -9.634   3.523  65.450  1.00  0.00    -0.132 C  
HETATM   30  O   UNL     1     -10.952   2.851  63.582  1.00  0.00    -0.227 OA 
HETATM   31  C   UNL     1      -9.897   3.608  63.962  1.00  0.00    -0.178 C  
HETATM   32  O   UNL     1      -9.238   4.260  63.164  1.00  0.00    -0.136 OA 
ENDBRANCH   2  29
TORSDOF 1
ENDMDL
MODEL       57
REMARK 921   NORMALIZED FREE ENERGY PREDICTED BY IDOCK:   -4.39 KCAL/MOL
REMARK 922        TOTAL FREE ENERGY PREDICTED BY IDOCK:   -4.77 KCAL/MOL
REMARK 923 INTER-LIGAND FREE ENERGY PREDICTED BY IDOCK:   -4.69 KCAL/MOL
REMARK 924 INTRA-LIGAND FREE ENERGY PREDICTED BY IDOCK:   -0.08 KCAL/MOL
REMARK 927      BINDING AFFINITY PREDICTED BY RF-SCORE:    0.00 PKD
ROOT
HETATM    1  C   UNL     1     -10.230   5.245  72.919  1.00  0.00    -0.218 C  
HETATM    2  C   UNL     1      -9.364   5.305  74.237  1.00  0.00    -0.131 C  
HETATM    3  C   UNL     1     -11.389   4.237  73.213  1.00  0.00    -0.301 C  
HETATM    4  C   UNL     1     -10.778   6.783  72.148  1.00  0.00    -0.249 C  
HETATM    5  C   UNL     1      -9.070   8.895  71.951  1.00  0.00    -0.206 C  
HETATM    6  C   UNL     1     -11.222   6.022  70.896  1.00  0.00    -0.335 C  
HETATM    7  H   UNL     1     -11.907   9.870  71.884  1.00  0.00     0.000 HD 
HETATM    8  C   UNL     1      -9.963   5.881  70.056  1.00  0.00    -0.239 C  
HETATM    9  C   UNL     1      -9.731   7.329  69.767  1.00  0.00    -0.166 C  
HETATM   10  O   UNL     1     -11.376  10.292  71.218  1.00  0.00    -0.277 OA 
HETATM   11  C   UNL     1     -10.072   8.100  71.068  1.00  0.00    -0.221 C  
HETATM   12  C   UNL     1      -8.714   7.831  68.744  1.00  0.00    -0.128 C  
HETATM   13  C   UNL     1      -8.519   6.693  67.731  1.00  0.00    -0.122 C  
HETATM   14  O   UNL     1      -7.780   5.615  68.300  1.00  0.00    -0.087 OA 
HETATM   15  C   UNL     1      -7.829   7.095  66.460  1.00  0.00    -0.106 C  
HETATM   16  C   UNL     1      -8.548   8.250  65.755  1.00  0.00    -0.182 C  
HETATM   17  H   UNL     1      -7.659   4.911  67.673  1.00  0.00     0.000 HD 
HETATM   18  C   UNL     1      -7.925   8.399  64.356  1.00  0.00    -0.148 C  
HETATM   19  C   UNL     1      -6.573   9.100  64.311  1.00  0.00    -0.084 C  
HETATM   20  O   UNL     1      -5.501   8.163  64.361  1.00  0.00    -0.043 OA 
HETATM   21  C   UNL     1      -6.407  10.220  65.321  1.00  0.00    -0.125 C  
HETATM   22  C   UNL     1      -7.117  10.070  66.716  1.00  0.00    -0.091 C  
HETATM   23  H   UNL     1      -4.657   8.599  64.333  1.00  0.00     0.000 HD 
HETATM   24  C   UNL     1      -8.586   9.539  66.667  1.00  0.00    -0.141 C  
HETATM   25  C   UNL     1      -9.442  10.647  66.002  1.00  0.00    -0.233 C  
HETATM   26  C   UNL     1      -9.355   9.073  68.047  1.00  0.00    -0.153 C  
HETATM   27  C   UNL     1      -9.958  10.039  69.153  1.00  0.00    -0.213 C  
HETATM   28  C   UNL     1     -10.890   9.298  70.322  1.00  0.00    -0.246 C  
ENDROOT
BRANCH   2  29
HETATM   29  C   UNL     1      -8.677   3.930  74.547  1.00  0.00    -0.095 C  
HETATM   30  O   UNL     1      -7.054   2.319  73.874  1.00  0.00    -0.027 OA 
HETATM   31  C   UNL     1      -7.604   3.515  73.562  1.00  0.00    -0.062 C  
HETATM   32  O   UNL     1      -7.239   4.172  72.598  1.00  0.00    -0.062 OA 
ENDBRANCH   2  29
TORSDOF 1
ENDMDL
MODEL       58
REMARK 921   NORMALIZED FREE ENERGY PREDICTED BY IDOCK:   -4.37 KCAL/MOL
REMARK 922        TOTAL FREE ENERGY PREDICTED BY IDOCK:   -4.74 KCAL/MOL
REMARK 923 INTER-LIGAND FREE ENERGY PREDICTED BY IDOCK:   -4.57 KCAL/MOL
REMARK 924 INTRA-LIGAND FREE ENERGY PREDICTED BY IDOCK:   -0.17 KCAL/MOL
REMARK 927      BINDING AFFINITY PREDICTED BY RF-SCORE:    0.00 PKD
ROOT
HETATM    1  C   UNL     1     -10.869   8.902  71.301  1.00  0.00    -0.360 C  
HETATM    2  C   UNL     1     -10.309   8.418  72.695  1.00  0.00    -0.314 C  
HETATM    3  C   UNL     1     -12.292   9.483  71.589  1.00  0.00    -0.480 C  
HETATM    4  C   UNL     1      -9.847   9.961  70.254  1.00  0.00    -0.236 C  
HETATM    5  C   UNL     1      -7.189   9.442  69.971  1.00  0.00    -0.092 C  
HETATM    6  C   UNL     1     -10.807   9.763  69.079  1.00  0.00    -0.223 C  
HETATM    7  H   UNL     1      -7.726  12.340  69.409  1.00  0.00     0.000 HD 
HETATM    8  C   UNL     1     -10.373   8.458  68.432  1.00  0.00    -0.239 C  
HETATM    9  C   UNL     1      -9.017   8.886  67.969  1.00  0.00    -0.140 C  
HETATM   10  O   UNL     1      -7.143  11.960  68.762  1.00  0.00    -0.099 OA 
HETATM   11  C   UNL     1      -8.427   9.776  69.093  1.00  0.00    -0.143 C  
HETATM   12  C   UNL     1      -8.152   8.060  67.021  1.00  0.00    -0.116 C  
HETATM   13  C   UNL     1      -9.114   7.175  66.214  1.00  0.00    -0.147 C  
HETATM   14  O   UNL     1      -9.656   6.132  67.020  1.00  0.00    -0.126 OA 
HETATM   15  C   UNL     1      -8.512   6.540  64.995  1.00  0.00    -0.017 C  
HETATM   16  C   UNL     1      -7.902   7.577  64.047  1.00  0.00    -0.127 C  
HETATM   17  H   UNL     1     -10.251   5.585  66.521  1.00  0.00     0.000 HD 
HETATM   18  C   UNL     1      -7.560   6.859  62.730  1.00  0.00    -0.097 C  
HETATM   19  C   UNL     1      -6.294   6.011  62.754  1.00  0.00    -0.025 C  
HETATM   20  O   UNL     1      -6.585   4.653  63.073  1.00  0.00    -0.026 OA 
HETATM   21  C   UNL     1      -5.172   6.576  63.606  1.00  0.00    -0.026 C  
HETATM   22  C   UNL     1      -5.557   7.368  64.907  1.00  0.00    -0.033 C  
HETATM   23  H   UNL     1      -5.796   4.124  63.088  1.00  0.00     0.000 HD 
HETATM   24  C   UNL     1      -6.738   8.380  64.751  1.00  0.00    -0.068 C  
HETATM   25  C   UNL     1      -6.233   9.522  63.833  1.00  0.00    -0.098 C  
HETATM   26  C   UNL     1      -7.428   9.073  66.077  1.00  0.00    -0.094 C  
HETATM   27  C   UNL     1      -6.808  10.246  66.949  1.00  0.00    -0.086 C  
HETATM   28  C   UNL     1      -7.831  10.913  68.086  1.00  0.00    -0.114 C  
ENDROOT
BRANCH   2  29
HETATM   29  C   UNL     1     -11.151   7.234  73.283  1.00  0.00    -0.281 C  
HETATM   30  O   UNL     1     -11.605   4.895  73.228  1.00  0.00    -0.336 OA 
HETATM   31  C   UNL     1     -10.842   5.875  72.692  1.00  0.00    -0.251 C  
HETATM   32  O   UNL     1      -9.994   5.651  71.840  1.00  0.00    -0.173 OA 
ENDBRANCH   2  29
TORSDOF 1
ENDMDL
MODEL       59
REMARK 921   NORMALIZED FREE ENERGY PREDICTED BY IDOCK:   -4.36 KCAL/MOL
REMARK 922        TOTAL FREE ENERGY PREDICTED BY IDOCK:   -4.73 KCAL/MOL
REMARK 923 INTER-LIGAND FREE ENERGY PREDICTED BY IDOCK:   -4.61 KCAL/MOL
REMARK 924 INTRA-LIGAND FREE ENERGY PREDICTED BY IDOCK:   -0.12 KCAL/MOL
REMARK 927      BINDING AFFINITY PREDICTED BY RF-SCORE:    0.00 PKD
ROOT
HETATM    1  C   UNL     1     -10.469   7.600  72.237  1.00  0.00    -0.289 C  
HETATM    2  C   UNL     1     -10.052   6.376  73.142  1.00  0.00    -0.203 C  
HETATM    3  C   UNL     1     -11.742   8.215  72.906  1.00  0.00    -0.194 C  
HETATM    4  C   UNL     1      -9.224   8.824  71.773  1.00  0.00    -0.332 C  
HETATM    5  C   UNL     1      -6.732   8.020  71.027  1.00  0.00    -0.041 C  
HETATM    6  C   UNL     1     -10.181   9.441  70.751  1.00  0.00    -0.368 C  
HETATM    7  H   UNL     1      -6.629  10.841  72.045  1.00  0.00     0.000 HD 
HETATM    8  C   UNL     1     -10.020   8.592  69.501  1.00  0.00    -0.193 C  
HETATM    9  C   UNL     1      -8.595   8.925  69.193  1.00  0.00    -0.134 C  
HETATM   10  O   UNL     1      -6.128  10.739  71.245  1.00  0.00    -0.345 OA 
HETATM   11  C   UNL     1      -7.853   8.986  70.552  1.00  0.00    -0.138 C  
HETATM   12  C   UNL     1      -7.907   8.548  67.884  1.00  0.00    -0.103 C  
HETATM   13  C   UNL     1      -9.018   8.402  66.834  1.00  0.00    -0.145 C  
HETATM   14  O   UNL     1      -9.785   7.221  67.054  1.00  0.00    -0.158 OA 
HETATM   15  C   UNL     1      -8.540   8.373  65.412  1.00  0.00    -0.193 C  
HETATM   16  C   UNL     1      -7.705   9.609  65.060  1.00  0.00    -0.119 C  
HETATM   17  H   UNL     1     -10.473   7.131  66.405  1.00  0.00     0.000 HD 
HETATM   18  C   UNL     1      -7.497   9.611  63.535  1.00  0.00    -0.120 C  
HETATM   19  C   UNL     1      -6.441   8.643  63.016  1.00  0.00    -0.090 C  
HETATM   20  O   UNL     1      -7.019   7.398  62.636  1.00  0.00    -0.067 OA 
HETATM   21  C   UNL     1      -5.241   8.466  63.929  1.00  0.00    -0.049 C  
HETATM   22  C   UNL     1      -5.475   8.543  65.482  1.00  0.00    -0.035 C  
HETATM   23  H   UNL     1      -6.361   6.794  62.312  1.00  0.00     0.000 HD 
HETATM   24  C   UNL     1      -6.411   9.699  65.962  1.00  0.00    -0.078 C  
HETATM   25  C   UNL     1      -5.657  11.027  65.698  1.00  0.00    -0.062 C  
HETATM   26  C   UNL     1      -6.965   9.738  67.513  1.00  0.00    -0.083 C  
HETATM   27  C   UNL     1      -6.128  10.159  68.794  1.00  0.00    -0.047 C  
HETATM   28  C   UNL     1      -7.008  10.337  70.201  1.00  0.00    -0.155 C  
ENDROOT
BRANCH   2  29
HETATM   29  C   UNL     1     -11.139   5.246  73.132  1.00  0.00    -0.384 C  
HETATM   30  O   UNL     1     -11.625   2.949  73.541  1.00  0.00    -0.196 OA 
HETATM   31  C   UNL     1     -10.650   3.885  73.580  1.00  0.00    -0.200 C  
HETATM   32  O   UNL     1      -9.515   3.632  73.958  1.00  0.00    -0.092 OA 
ENDBRANCH   2  29
TORSDOF 1
ENDMDL
MODEL       60
REMARK 921   NORMALIZED FREE ENERGY PREDICTED BY IDOCK:   -4.20 KCAL/MOL
REMARK 922        TOTAL FREE ENERGY PREDICTED BY IDOCK:   -4.56 KCAL/MOL
REMARK 923 INTER-LIGAND FREE ENERGY PREDICTED BY IDOCK:   -4.48 KCAL/MOL
REMARK 924 INTRA-LIGAND FREE ENERGY PREDICTED BY IDOCK:   -0.08 KCAL/MOL
REMARK 927      BINDING AFFINITY PREDICTED BY RF-SCORE:    0.00 PKD
ROOT
HETATM    1  C   UNL     1     -10.592   8.092  71.567  1.00  0.00    -0.282 C  
HETATM    2  C   UNL     1      -9.739   8.012  72.893  1.00  0.00    -0.353 C  
HETATM    3  C   UNL     1     -11.972   8.701  71.982  1.00  0.00    -0.442 C  
HETATM    4  C   UNL     1      -9.873   8.849  70.094  1.00  0.00    -0.199 C  
HETATM    5  C   UNL     1      -7.289   8.324  69.414  1.00  0.00    -0.074 C  
HETATM    6  C   UNL     1     -11.025   8.323  69.235  1.00  0.00     0.031 C  
HETATM    7  H   UNL     1      -8.136  10.953  68.242  1.00  0.00     0.000 HD 
HETATM    8  C   UNL     1     -10.628   6.901  68.874  1.00  0.00    -0.244 C  
HETATM    9  C   UNL     1      -9.423   7.215  68.047  1.00  0.00    -0.132 C  
HETATM   10  O   UNL     1      -7.663  10.425  67.610  1.00  0.00    -0.093 OA 
HETATM   11  C   UNL     1      -8.695   8.386  68.754  1.00  0.00    -0.136 C  
HETATM   12  C   UNL     1      -8.699   6.180  67.189  1.00  0.00    -0.106 C  
HETATM   13  C   UNL     1      -9.731   5.093  66.855  1.00  0.00    -0.161 C  
HETATM   14  O   UNL     1     -10.028   4.295  67.999  1.00  0.00    -0.091 OA 
HETATM   15  C   UNL     1      -9.330   4.164  65.747  1.00  0.00    -0.162 C  
HETATM   16  C   UNL     1      -8.993   4.920  64.457  1.00  0.00    -0.096 C  
HETATM   17  H   UNL     1     -10.667   3.622  67.793  1.00  0.00     0.000 HD 
HETATM   18  C   UNL     1      -8.860   3.880  63.330  1.00  0.00    -0.105 C  
HETATM   19  C   UNL     1      -7.555   3.095  63.313  1.00  0.00    -0.063 C  
HETATM   20  O   UNL     1      -7.677   1.867  64.026  1.00  0.00    -0.058 OA 
HETATM   21  C   UNL     1      -6.333   3.889  63.739  1.00  0.00    -0.026 C  
HETATM   22  C   UNL     1      -6.517   4.995  64.840  1.00  0.00    -0.035 C  
HETATM   23  H   UNL     1      -6.864   1.377  64.015  1.00  0.00     0.000 HD 
HETATM   24  C   UNL     1      -7.777   5.905  64.673  1.00  0.00    -0.100 C  
HETATM   25  C   UNL     1      -7.546   6.766  63.406  1.00  0.00    -0.090 C  
HETATM   26  C   UNL     1      -8.248   6.915  65.886  1.00  0.00    -0.129 C  
HETATM   27  C   UNL     1      -7.559   8.291  66.276  1.00  0.00    -0.096 C  
HETATM   28  C   UNL     1      -8.389   9.220  67.386  1.00  0.00    -0.122 C  
ENDROOT
BRANCH   2  29
HETATM   29  C   UNL     1     -10.363   7.014  73.929  1.00  0.00    -0.386 C  
HETATM   30  O   UNL     1     -10.869   4.744  74.448  1.00  0.00    -0.344 OA 
HETATM   31  C   UNL     1     -10.310   5.556  73.523  1.00  0.00    -0.227 C  
HETATM   32  O   UNL     1      -9.808   5.127  72.494  1.00  0.00    -0.155 OA 
ENDBRANCH   2  29
TORSDOF 1
ENDMDL
MODEL       61
REMARK 921   NORMALIZED FREE ENERGY PREDICTED BY IDOCK:   -4.20 KCAL/MOL
REMARK 922        TOTAL FREE ENERGY PREDICTED BY IDOCK:   -4.56 KCAL/MOL
REMARK 923 INTER-LIGAND FREE ENERGY PREDICTED BY IDOCK:   -4.42 KCAL/MOL
REMARK 924 INTRA-LIGAND FREE ENERGY PREDICTED BY IDOCK:   -0.14 KCAL/MOL
REMARK 927      BINDING AFFINITY PREDICTED BY RF-SCORE:    0.00 PKD
ROOT
HETATM    1  C   UNL     1      -7.110   4.109  70.133  1.00  0.00    -0.042 C  
HETATM    2  C   UNL     1      -8.067   3.013  70.746  1.00  0.00    -0.064 C  
HETATM    3  C   UNL     1      -5.658   3.554  70.303  1.00  0.00    -0.016 C  
HETATM    4  C   UNL     1      -7.454   4.763  68.486  1.00  0.00    -0.066 C  
HETATM    5  C   UNL     1     -10.011   5.359  67.760  1.00  0.00    -0.198 C  
HETATM    6  C   UNL     1      -6.425   5.877  68.689  1.00  0.00    -0.045 C  
HETATM    7  H   UNL     1      -8.358   4.818  65.314  1.00  0.00     0.000 HD 
HETATM    8  C   UNL     1      -7.170   6.970  69.437  1.00  0.00    -0.085 C  
HETATM    9  C   UNL     1      -8.161   7.324  68.373  1.00  0.00    -0.125 C  
HETATM   10  O   UNL     1      -8.902   5.589  65.206  1.00  0.00    -0.156 OA 
HETATM   11  C   UNL     1      -8.591   5.990  67.710  1.00  0.00    -0.106 C  
HETATM   12  C   UNL     1      -9.066   8.550  68.441  1.00  0.00    -0.139 C  
HETATM   13  C   UNL     1      -8.356   9.566  69.349  1.00  0.00    -0.140 C  
HETATM   14  O   UNL     1      -8.398   9.157  70.714  1.00  0.00    -0.180 OA 
HETATM   15  C   UNL     1      -8.901  10.962  69.277  1.00  0.00     0.020 C  
HETATM   16  C   UNL     1      -8.895  11.510  67.846  1.00  0.00    -0.152 C  
HETATM   17  H   UNL     1      -7.958   9.785  71.275  1.00  0.00     0.000 HD 
HETATM   18  C   UNL     1      -9.214  13.013  67.922  1.00  0.00    -0.208 C  
HETATM   19  C   UNL     1     -10.681  13.362  68.142  1.00  0.00    -0.253 C  
HETATM   20  O   UNL     1     -10.972  13.534  69.526  1.00  0.00    -0.436 OA 
HETATM   21  C   UNL     1     -11.663  12.429  67.458  1.00  0.00    -0.425 C  
HETATM   22  C   UNL     1     -11.275  10.911  67.331  1.00  0.00    -0.345 C  
HETATM   23  H   UNL     1     -11.886  13.753  69.664  1.00  0.00     0.000 HD 
HETATM   24  C   UNL     1      -9.800  10.630  66.895  1.00  0.00    -0.228 C  
HETATM   25  C   UNL     1      -9.667  11.107  65.427  1.00  0.00    -0.275 C  
HETATM   26  C   UNL     1      -9.175   9.108  66.987  1.00  0.00    -0.167 C  
HETATM   27  C   UNL     1      -9.482   7.911  65.990  1.00  0.00    -0.086 C  
HETATM   28  C   UNL     1      -8.526   6.556  66.181  1.00  0.00    -0.137 C  
ENDROOT
BRANCH   2  29
HETATM   29  C   UNL     1      -7.843   2.841  72.289  1.00  0.00    -0.054 C  
HETATM   30  O   UNL     1      -8.858   2.615  74.433  1.00  0.00    -0.073 OA 
HETATM   31  C   UNL     1      -9.111   2.752  73.112  1.00  0.00    -0.088 C  
HETATM   32  O   UNL     1     -10.248   2.778  72.662  1.00  0.00    -0.150 OA 
ENDBRANCH   2  29
TORSDOF 1
ENDMDL
MODEL       62
REMARK 921   NORMALIZED FREE ENERGY PREDICTED BY IDOCK:   -4.17 KCAL/MOL
REMARK 922        TOTAL FREE ENERGY PREDICTED BY IDOCK:   -4.53 KCAL/MOL
REMARK 923 INTER-LIGAND FREE ENERGY PREDICTED BY IDOCK:   -5.11 KCAL/MOL
REMARK 924 INTRA-LIGAND FREE ENERGY PREDICTED BY IDOCK:    0.58 KCAL/MOL
REMARK 927      BINDING AFFINITY PREDICTED BY RF-SCORE:    0.00 PKD
ROOT
HETATM    1  C   UNL     1      -8.689  16.100  67.773  1.00  0.00    -0.174 C  
HETATM    2  C   UNL     1      -9.090  17.159  66.673  1.00  0.00    -0.280 C  
HETATM    3  C   UNL     1      -8.407  16.920  69.075  1.00  0.00    -0.146 C  
HETATM    4  C   UNL     1      -9.738  14.653  68.034  1.00  0.00    -0.216 C  
HETATM    5  C   UNL     1     -10.774  13.316  65.901  1.00  0.00    -0.284 C  
HETATM    6  C   UNL     1      -8.663  14.006  68.910  1.00  0.00     0.063 C  
HETATM    7  H   UNL     1     -12.477  12.840  68.325  1.00  0.00     0.000 HD 
HETATM    8  C   UNL     1      -7.718  13.325  67.934  1.00  0.00    -0.152 C  
HETATM    9  C   UNL     1      -8.668  12.308  67.386  1.00  0.00    -0.180 C  
HETATM   10  O   UNL     1     -12.316  12.035  67.847  1.00  0.00    -0.338 OA 
HETATM   11  C   UNL     1     -10.037  13.018  67.237  1.00  0.00    -0.235 C  
HETATM   12  C   UNL     1      -8.234  11.141  66.502  1.00  0.00    -0.167 C  
HETATM   13  C   UNL     1      -6.758  10.873  66.829  1.00  0.00    -0.120 C  
HETATM   14  O   UNL     1      -5.918  11.900  66.306  1.00  0.00    -0.495 OA 
HETATM   15  C   UNL     1      -6.232   9.560  66.330  1.00  0.00    -0.068 C  
HETATM   16  C   UNL     1      -7.060   8.376  66.841  1.00  0.00    -0.075 C  
HETATM   17  H   UNL     1      -5.005  11.734  66.508  1.00  0.00     0.000 HD 
HETATM   18  C   UNL     1      -6.291   7.088  66.499  1.00  0.00    -0.050 C  
HETATM   19  C   UNL     1      -6.382   6.636  65.047  1.00  0.00    -0.042 C  
HETATM   20  O   UNL     1      -5.292   7.136  64.278  1.00  0.00    -0.028 OA 
HETATM   21  C   UNL     1      -7.723   6.898  64.385  1.00  0.00    -0.113 C  
HETATM   22  C   UNL     1      -8.518   8.185  64.810  1.00  0.00    -0.064 C  
HETATM   23  H   UNL     1      -5.348   6.854  63.372  1.00  0.00     0.000 HD 
HETATM   24  C   UNL     1      -8.558   8.472  66.346  1.00  0.00    -0.136 C  
HETATM   25  C   UNL     1      -9.414   7.353  66.991  1.00  0.00    -0.199 C  
HETATM   26  C   UNL     1      -9.111   9.916  66.915  1.00  0.00    -0.162 C  
HETATM   27  C   UNL     1     -10.631  10.367  66.999  1.00  0.00    -0.305 C  
HETATM   28  C   UNL     1     -10.915  11.781  67.838  1.00  0.00    -0.221 C  
ENDROOT
BRANCH   2  29
HETATM   29  C   UNL     1      -7.902  18.124  66.331  1.00  0.00    -0.295 C  
HETATM   30  O   UNL     1      -5.553  18.347  66.000  1.00  0.00    -0.149 OA 
HETATM   31  C   UNL     1      -6.539  17.467  66.289  1.00  0.00    -0.260 C  
HETATM   32  O   UNL     1      -6.321  16.278  66.471  1.00  0.00    -0.222 OA 
ENDBRANCH   2  29
TORSDOF 1
ENDMDL
MODEL       63
REMARK 921   NORMALIZED FREE ENERGY PREDICTED BY IDOCK:   -3.86 KCAL/MOL
REMARK 922        TOTAL FREE ENERGY PREDICTED BY IDOCK:   -4.20 KCAL/MOL
REMARK 923 INTER-LIGAND FREE ENERGY PREDICTED BY IDOCK:   -4.52 KCAL/MOL
REMARK 924 INTRA-LIGAND FREE ENERGY PREDICTED BY IDOCK:    0.32 KCAL/MOL
REMARK 927      BINDING AFFINITY PREDICTED BY RF-SCORE:    0.00 PKD
ROOT
HETATM    1  C   UNL     1      -7.782  18.472  67.012  1.00  0.00    -0.235 C  
HETATM    2  C   UNL     1      -8.665  19.489  67.835  1.00  0.00    -0.364 C  
HETATM    3  C   UNL     1      -6.976  19.336  65.987  1.00  0.00    -0.283 C  
HETATM    4  C   UNL     1      -6.778  17.256  67.892  1.00  0.00    -0.172 C  
HETATM    5  C   UNL     1      -7.800  15.946  70.049  1.00  0.00     0.602 C  
HETATM    6  C   UNL     1      -6.503  16.507  66.586  1.00  0.00    -0.021 C  
HETATM    7  H   UNL     1      -4.803  15.976  70.203  1.00  0.00     0.000 HD 
HETATM    8  C   UNL     1      -7.702  15.593  66.397  1.00  0.00     0.306 C  
HETATM    9  C   UNL     1      -7.496  14.714  67.590  1.00  0.00    -0.205 C  
HETATM   10  O   UNL     1      -5.156  15.119  70.409  1.00  0.00    -0.107 OA 
HETATM   11  C   UNL     1      -7.020  15.637  68.740  1.00  0.00    -0.121 C  
HETATM   12  C   UNL     1      -8.272  13.421  67.826  1.00  0.00    -0.172 C  
HETATM   13  C   UNL     1      -8.728  12.929  66.444  1.00  0.00     0.156 C  
HETATM   14  O   UNL     1      -9.773  13.747  65.923  1.00  0.00    -0.403 OA 
HETATM   15  C   UNL     1      -9.205  11.507  66.409  1.00  0.00    -0.218 C  
HETATM   16  C   UNL     1      -8.151  10.532  66.943  1.00  0.00    -0.120 C  
HETATM   17  H   UNL     1     -10.055  13.443  65.069  1.00  0.00     0.000 HD 
HETATM   18  C   UNL     1      -8.629   9.106  66.618  1.00  0.00    -0.135 C  
HETATM   19  C   UNL     1      -9.721   8.557  67.527  1.00  0.00    -0.162 C  
HETATM   20  O   UNL     1     -11.017   8.794  66.985  1.00  0.00    -0.316 OA 
HETATM   21  C   UNL     1      -9.615   8.992  68.978  1.00  0.00    -0.160 C  
HETATM   22  C   UNL     1      -9.053  10.428  69.280  1.00  0.00    -0.188 C  
HETATM   23  H   UNL     1     -11.698   8.452  67.551  1.00  0.00     0.000 HD 
HETATM   24  C   UNL     1      -7.796  10.845  68.451  1.00  0.00    -0.123 C  
HETATM   25  C   UNL     1      -6.625   9.949  68.929  1.00  0.00    -0.045 C  
HETATM   26  C   UNL     1      -7.267  12.405  68.457  1.00  0.00    -0.103 C  
HETATM   27  C   UNL     1      -6.474  13.118  69.633  1.00  0.00    -0.047 C  
HETATM   28  C   UNL     1      -5.856  14.625  69.272  1.00  0.00    -0.101 C  
ENDROOT
BRANCH   2  29
HETATM   29  C   UNL     1      -9.731  20.201  66.932  1.00  0.00    -0.582 C  
HETATM   30  O   UNL     1     -11.385  19.953  65.235  1.00  0.00    -0.180 OA 
HETATM   31  C   UNL     1     -10.488  19.284  65.995  1.00  0.00    -0.487 C  
HETATM   32  O   UNL     1     -10.344  18.072  65.923  1.00  0.00    -0.537 OA 
ENDBRANCH   2  29
TORSDOF 1
ENDMDL
MODEL       64
REMARK 921   NORMALIZED FREE ENERGY PREDICTED BY IDOCK:   -3.83 KCAL/MOL
REMARK 922        TOTAL FREE ENERGY PREDICTED BY IDOCK:   -4.17 KCAL/MOL
REMARK 923 INTER-LIGAND FREE ENERGY PREDICTED BY IDOCK:   -3.97 KCAL/MOL
REMARK 924 INTRA-LIGAND FREE ENERGY PREDICTED BY IDOCK:   -0.20 KCAL/MOL
REMARK 927      BINDING AFFINITY PREDICTED BY RF-SCORE:    0.00 PKD
ROOT
HETATM    1  C   UNL     1      -8.723  13.108  67.787  1.00  0.00    -0.188 C  
HETATM    2  C   UNL     1     -10.202  13.636  67.935  1.00  0.00    -0.250 C  
HETATM    3  C   UNL     1      -7.816  14.381  67.734  1.00  0.00    -0.169 C  
HETATM    4  C   UNL     1      -8.121  11.830  68.912  1.00  0.00     0.029 C  
HETATM    5  C   UNL     1      -9.718   9.722  69.563  1.00  0.00    -0.228 C  
HETATM    6  C   UNL     1      -6.876  11.624  68.047  1.00  0.00    -0.072 C  
HETATM    7  H   UNL     1      -7.670  10.149  71.714  1.00  0.00     0.000 HD 
HETATM    8  C   UNL     1      -7.311  10.661  66.955  1.00  0.00    -0.102 C  
HETATM    9  C   UNL     1      -7.588   9.468  67.815  1.00  0.00    -0.087 C  
HETATM   10  O   UNL     1      -7.756   9.230  71.490  1.00  0.00    -0.340 OA 
HETATM   11  C   UNL     1      -8.259  10.002  69.106  1.00  0.00    -0.137 C  
HETATM   12  C   UNL     1      -7.847   8.071  67.257  1.00  0.00    -0.109 C  
HETATM   13  C   UNL     1      -7.169   8.019  65.880  1.00  0.00    -0.065 C  
HETATM   14  O   UNL     1      -7.882   8.799  64.923  1.00  0.00    -0.107 OA 
HETATM   15  C   UNL     1      -7.006   6.641  65.311  1.00  0.00    -0.052 C  
HETATM   16  C   UNL     1      -6.241   5.712  66.260  1.00  0.00    -0.034 C  
HETATM   17  H   UNL     1      -7.462   8.767  64.071  1.00  0.00     0.000 HD 
HETATM   18  C   UNL     1      -5.901   4.429  65.481  1.00  0.00    -0.022 C  
HETATM   19  C   UNL     1      -7.050   3.444  65.306  1.00  0.00    -0.065 C  
HETATM   20  O   UNL     1      -7.732   3.656  64.073  1.00  0.00    -0.077 OA 
HETATM   21  C   UNL     1      -8.002   3.367  66.486  1.00  0.00    -0.084 C  
HETATM   22  C   UNL     1      -8.272   4.680  67.306  1.00  0.00    -0.105 C  
HETATM   23  H   UNL     1      -8.448   3.041  63.964  1.00  0.00     0.000 HD 
HETATM   24  C   UNL     1      -7.007   5.540  67.631  1.00  0.00    -0.066 C  
HETATM   25  C   UNL     1      -6.151   4.722  68.631  1.00  0.00    -0.030 C  
HETATM   26  C   UNL     1      -7.163   7.064  68.236  1.00  0.00    -0.091 C  
HETATM   27  C   UNL     1      -7.550   7.442  69.728  1.00  0.00    -0.095 C  
HETATM   28  C   UNL     1      -7.400   9.056  70.122  1.00  0.00    -0.065 C  
ENDROOT
BRANCH   2  29
HETATM   29  C   UNL     1     -10.662  14.445  66.673  1.00  0.00    -0.292 C  
HETATM   30  O   UNL     1     -11.742  14.376  64.550  1.00  0.00    -0.409 OA 
HETATM   31  C   UNL     1     -11.378  13.630  65.618  1.00  0.00    -0.299 C  
HETATM   32  O   UNL     1     -11.632  12.436  65.699  1.00  0.00    -0.357 OA 
ENDBRANCH   2  29
TORSDOF 1
ENDMDL
MODEL       65
REMARK 921   NORMALIZED FREE ENERGY PREDICTED BY IDOCK:   -3.78 KCAL/MOL
REMARK 922        TOTAL FREE ENERGY PREDICTED BY IDOCK:   -4.11 KCAL/MOL
REMARK 923 INTER-LIGAND FREE ENERGY PREDICTED BY IDOCK:   -3.97 KCAL/MOL
REMARK 924 INTRA-LIGAND FREE ENERGY PREDICTED BY IDOCK:   -0.15 KCAL/MOL
REMARK 927      BINDING AFFINITY PREDICTED BY RF-SCORE:    0.00 PKD
ROOT
HETATM    1  C   UNL     1      -7.170   7.334  67.802  1.00  0.00    -0.091 C  
HETATM    2  C   UNL     1      -7.908   6.441  68.874  1.00  0.00    -0.110 C  
HETATM    3  C   UNL     1      -6.311   6.349  66.941  1.00  0.00    -0.041 C  
HETATM    4  C   UNL     1      -8.123   8.516  66.826  1.00  0.00    -0.098 C  
HETATM    5  C   UNL     1     -10.050  10.029  68.015  1.00  0.00    -0.197 C  
HETATM    6  C   UNL     1      -6.835   9.162  66.311  1.00  0.00    -0.082 C  
HETATM    7  H   UNL     1     -10.625   9.770  65.082  1.00  0.00     0.000 HD 
HETATM    8  C   UNL     1      -6.435  10.156  67.389  1.00  0.00    -0.067 C  
HETATM    9  C   UNL     1      -7.602  11.084  67.273  1.00  0.00    -0.111 C  
HETATM   10  O   UNL     1     -10.739  10.664  65.383  1.00  0.00    -0.171 OA 
HETATM   11  C   UNL     1      -8.851  10.197  67.040  1.00  0.00    -0.144 C  
HETATM   12  C   UNL     1      -7.664  12.447  67.958  1.00  0.00    -0.135 C  
HETATM   13  C   UNL     1      -6.210  12.891  68.177  1.00  0.00    -0.093 C  
HETATM   14  O   UNL     1      -5.587  12.129  69.208  1.00  0.00    -0.063 OA 
HETATM   15  C   UNL     1      -6.040  14.342  68.520  1.00  0.00    -0.091 C  
HETATM   16  C   UNL     1      -6.670  15.260  67.468  1.00  0.00    -0.197 C  
HETATM   17  H   UNL     1      -4.687  12.403  69.343  1.00  0.00     0.000 HD 
HETATM   18  C   UNL     1      -6.213  16.697  67.771  1.00  0.00    -0.159 C  
HETATM   19  C   UNL     1      -6.932  17.384  68.926  1.00  0.00    -0.244 C  
HETATM   20  O   UNL     1      -6.224  17.218  70.151  1.00  0.00    -0.143 OA 
HETATM   21  C   UNL     1      -8.402  17.029  69.056  1.00  0.00    -0.125 C  
HETATM   22  C   UNL     1      -8.849  15.573  68.668  1.00  0.00    -0.193 C  
HETATM   23  H   UNL     1      -6.672  17.647  70.871  1.00  0.00     0.000 HD 
HETATM   24  C   UNL     1      -8.226  15.010  67.350  1.00  0.00    -0.215 C  
HETATM   25  C   UNL     1      -8.821  15.837  66.182  1.00  0.00    -0.346 C  
HETATM   26  C   UNL     1      -8.381  13.415  66.964  1.00  0.00    -0.089 C  
HETATM   27  C   UNL     1      -9.690  12.713  66.405  1.00  0.00    -0.259 C  
HETATM   28  C   UNL     1      -9.492  11.143  65.876  1.00  0.00    -0.215 C  
ENDROOT
BRANCH   2  29
HETATM   29  C   UNL     1      -6.899   5.763  69.864  1.00  0.00    -0.064 C  
HETATM   30  O   UNL     1      -6.326   5.333  72.137  1.00  0.00    -0.036 OA 
HETATM   31  C   UNL     1      -7.235   5.928  71.331  1.00  0.00    -0.079 C  
HETATM   32  O   UNL     1      -8.217   6.509  71.769  1.00  0.00    -0.111 OA 
ENDBRANCH   2  29
TORSDOF 1
ENDMDL
MODEL       66
REMARK 921   NORMALIZED FREE ENERGY PREDICTED BY IDOCK:   -3.66 KCAL/MOL
REMARK 922        TOTAL FREE ENERGY PREDICTED BY IDOCK:   -3.99 KCAL/MOL
REMARK 923 INTER-LIGAND FREE ENERGY PREDICTED BY IDOCK:   -3.86 KCAL/MOL
REMARK 924 INTRA-LIGAND FREE ENERGY PREDICTED BY IDOCK:   -0.14 KCAL/MOL
REMARK 927      BINDING AFFINITY PREDICTED BY RF-SCORE:    0.00 PKD
ROOT
HETATM    1  C   UNL     1     -10.536  11.065  67.680  1.00  0.00    -0.255 C  
HETATM    2  C   UNL     1     -10.329  11.439  69.199  1.00  0.00    -0.122 C  
HETATM    3  C   UNL     1     -11.656  12.020  67.151  1.00  0.00    -0.387 C  
HETATM    4  C   UNL     1      -9.099  10.951  66.592  1.00  0.00    -0.175 C  
HETATM    5  C   UNL     1      -6.819   9.747  67.465  1.00  0.00    -0.082 C  
HETATM    6  C   UNL     1      -9.952  10.303  65.498  1.00  0.00    -0.364 C  
HETATM    7  H   UNL     1      -6.170  11.680  65.263  1.00  0.00     0.000 HD 
HETATM    8  C   UNL     1      -9.983   8.825  65.850  1.00  0.00    -0.036 C  
HETATM    9  C   UNL     1      -8.530   8.526  65.664  1.00  0.00    -0.170 C  
HETATM   10  O   UNL     1      -5.717  10.853  65.147  1.00  0.00    -0.106 OA 
HETATM   11  C   UNL     1      -7.754   9.746  66.223  1.00  0.00    -0.103 C  
HETATM   12  C   UNL     1      -7.957   7.111  65.648  1.00  0.00    -0.126 C  
HETATM   13  C   UNL     1      -9.103   6.183  65.219  1.00  0.00     0.219 C  
HETATM   14  O   UNL     1     -10.069   6.042  66.258  1.00  0.00    -0.353 OA 
HETATM   15  C   UNL     1      -8.675   4.805  64.807  1.00  0.00    -0.153 C  
HETATM   16  C   UNL     1      -7.635   4.837  63.682  1.00  0.00    -0.064 C  
HETATM   17  H   UNL     1     -10.778   5.468  65.992  1.00  0.00     0.000 HD 
HETATM   18  C   UNL     1      -7.470   3.399  63.161  1.00  0.00    -0.054 C  
HETATM   19  C   UNL     1      -6.625   2.478  64.032  1.00  0.00    -0.031 C  
HETATM   20  O   UNL     1      -7.433   1.738  64.942  1.00  0.00    -0.059 OA 
HETATM   21  C   UNL     1      -5.455   3.158  64.721  1.00  0.00    -0.009 C  
HETATM   22  C   UNL     1      -5.631   4.652  65.176  1.00  0.00    -0.014 C  
HETATM   23  H   UNL     1      -6.907   1.164  65.486  1.00  0.00     0.000 HD 
HETATM   24  C   UNL     1      -6.324   5.592  64.138  1.00  0.00    -0.022 C  
HETATM   25  C   UNL     1      -5.345   5.745  62.946  1.00  0.00    -0.014 C  
HETATM   26  C   UNL     1      -6.822   7.101  64.574  1.00  0.00    -0.050 C  
HETATM   27  C   UNL     1      -5.888   8.366  64.790  1.00  0.00    -0.052 C  
HETATM   28  C   UNL     1      -6.683   9.819  64.994  1.00  0.00    -0.107 C  
ENDROOT
BRANCH   2  29
HETATM   29  C   UNL     1     -11.606  11.130  70.055  1.00  0.00    -0.421 C  
HETATM   30  O   UNL     1     -13.340  12.010  71.433  1.00  0.00    -0.178 OA 
HETATM   31  C   UNL     1     -12.251  12.338  70.701  1.00  0.00    -0.287 C  
HETATM   32  O   UNL     1     -11.868  13.492  70.578  1.00  0.00    -0.281 OA 
ENDBRANCH   2  29
TORSDOF 1
ENDMDL
MODEL       67
REMARK 921   NORMALIZED FREE ENERGY PREDICTED BY IDOCK:   -3.60 KCAL/MOL
REMARK 922        TOTAL FREE ENERGY PREDICTED BY IDOCK:   -3.93 KCAL/MOL
REMARK 923 INTER-LIGAND FREE ENERGY PREDICTED BY IDOCK:   -5.42 KCAL/MOL
REMARK 924 INTRA-LIGAND FREE ENERGY PREDICTED BY IDOCK:    1.49 KCAL/MOL
REMARK 927      BINDING AFFINITY PREDICTED BY RF-SCORE:    0.00 PKD
ROOT
HETATM    1  C   UNL     1     -10.963  13.976  67.960  1.00  0.00    -0.266 C  
HETATM    2  C   UNL     1      -9.869  15.064  68.292  1.00  0.00    -0.219 C  
HETATM    3  C   UNL     1     -12.275  14.769  67.646  1.00  0.00     0.008 C  
HETATM    4  C   UNL     1     -10.589  12.680  66.760  1.00  0.00    -0.254 C  
HETATM    5  C   UNL     1      -8.154  11.461  66.784  1.00  0.00    -0.161 C  
HETATM    6  C   UNL     1     -11.847  11.910  67.167  1.00  0.00    -0.216 C  
HETATM    7  H   UNL     1      -9.378  11.238  64.053  1.00  0.00     0.000 HD 
HETATM    8  C   UNL     1     -11.436  11.101  68.386  1.00  0.00    -0.377 C  
HETATM    9  C   UNL     1     -10.434  10.208  67.727  1.00  0.00    -0.277 C  
HETATM   10  O   UNL     1      -9.001  10.413  64.336  1.00  0.00    -0.193 OA 
HETATM   11  C   UNL     1      -9.661  11.088  66.711  1.00  0.00    -0.216 C  
HETATM   12  C   UNL     1      -9.822   8.985  68.405  1.00  0.00    -0.183 C  
HETATM   13  C   UNL     1     -10.827   8.533  69.475  1.00  0.00    -0.125 C  
HETATM   14  O   UNL     1     -10.848   9.437  70.578  1.00  0.00    -0.235 OA 
HETATM   15  C   UNL     1     -10.586   7.157  70.022  1.00  0.00    -0.248 C  
HETATM   16  C   UNL     1     -10.551   6.096  68.917  1.00  0.00    -0.335 C  
HETATM   17  H   UNL     1     -11.469   9.157  71.240  1.00  0.00     0.000 HD 
HETATM   18  C   UNL     1     -10.569   4.716  69.596  1.00  0.00     0.517 C  
HETATM   19  C   UNL     1      -9.243   4.261  70.193  1.00  0.00    -0.135 C  
HETATM   20  O   UNL     1      -9.148   4.607  71.571  1.00  0.00    -0.129 OA 
HETATM   21  C   UNL     1      -8.017   4.685  69.405  1.00  0.00    -0.066 C  
HETATM   22  C   UNL     1      -8.058   6.069  68.662  1.00  0.00    -0.107 C  
HETATM   23  H   UNL     1      -8.321   4.324  71.944  1.00  0.00     0.000 HD 
HETATM   24  C   UNL     1      -9.382   6.378  67.892  1.00  0.00    -0.114 C  
HETATM   25  C   UNL     1      -9.453   5.386  66.703  1.00  0.00    -0.151 C  
HETATM   26  C   UNL     1      -9.677   7.888  67.302  1.00  0.00    -0.230 C  
HETATM   27  C   UNL     1      -9.016   8.531  66.010  1.00  0.00    -0.228 C  
HETATM   28  C   UNL     1      -9.677   9.981  65.512  1.00  0.00    -0.289 C  
ENDROOT
BRANCH   2  29
HETATM   29  C   UNL     1     -10.217  15.864  69.595  1.00  0.00    -0.280 C  
HETATM   30  O   UNL     1     -11.417  15.887  71.654  1.00  0.00    -0.407 OA 
HETATM   31  C   UNL     1     -11.144  15.148  70.555  1.00  0.00    -0.262 C  
HETATM   32  O   UNL     1     -11.595  14.023  70.395  1.00  0.00    -0.240 OA 
ENDBRANCH   2  29
TORSDOF 1
ENDMDL
MODEL       68
REMARK 921   NORMALIZED FREE ENERGY PREDICTED BY IDOCK:   -3.40 KCAL/MOL
REMARK 922        TOTAL FREE ENERGY PREDICTED BY IDOCK:   -3.71 KCAL/MOL
REMARK 923 INTER-LIGAND FREE ENERGY PREDICTED BY IDOCK:   -3.52 KCAL/MOL
REMARK 924 INTRA-LIGAND FREE ENERGY PREDICTED BY IDOCK:   -0.20 KCAL/MOL
REMARK 927      BINDING AFFINITY PREDICTED BY RF-SCORE:    0.00 PKD
ROOT
HETATM    1  C   UNL     1      -8.845   3.258  66.801  1.00  0.00    -0.150 C  
HETATM    2  C   UNL     1      -8.219   2.620  65.501  1.00  0.00    -0.089 C  
HETATM    3  C   UNL     1      -9.511   2.077  67.581  1.00  0.00    -0.095 C  
HETATM    4  C   UNL     1      -7.831   4.336  67.836  1.00  0.00    -0.079 C  
HETATM    5  C   UNL     1      -6.187   6.179  66.687  1.00  0.00    -0.037 C  
HETATM    6  C   UNL     1      -9.066   4.779  68.623  1.00  0.00    -0.149 C  
HETATM    7  H   UNL     1      -5.179   5.483  69.426  1.00  0.00     0.000 HD 
HETATM    8  C   UNL     1      -9.674   5.902  67.799  1.00  0.00    -0.124 C  
HETATM    9  C   UNL     1      -8.559   6.891  67.921  1.00  0.00    -0.122 C  
HETATM   10  O   UNL     1      -5.162   6.421  69.275  1.00  0.00    -0.011 OA 
HETATM   11  C   UNL     1      -7.240   6.082  67.826  1.00  0.00    -0.076 C  
HETATM   12  C   UNL     1      -8.676   8.349  67.485  1.00  0.00    -0.136 C  
HETATM   13  C   UNL     1     -10.170   8.702  67.543  1.00  0.00    -0.245 C  
HETATM   14  O   UNL     1     -10.890   8.074  66.485  1.00  0.00    -0.217 OA 
HETATM   15  C   UNL     1     -10.471  10.171  67.486  1.00  0.00    -0.304 C  
HETATM   16  C   UNL     1      -9.750  10.950  68.591  1.00  0.00    -0.188 C  
HETATM   17  H   UNL     1     -11.814   8.292  66.521  1.00  0.00     0.000 HD 
HETATM   18  C   UNL     1     -10.328  12.375  68.609  1.00  0.00    -0.198 C  
HETATM   19  C   UNL     1      -9.825  13.302  67.509  1.00  0.00    -0.220 C  
HETATM   20  O   UNL     1     -10.692  13.284  66.379  1.00  0.00    -0.282 OA 
HETATM   21  C   UNL     1      -8.372  13.095  67.124  1.00  0.00    -0.146 C  
HETATM   22  C   UNL     1      -7.790  11.636  67.186  1.00  0.00    -0.163 C  
HETATM   23  H   UNL     1     -10.379  13.862  65.693  1.00  0.00     0.000 HD 
HETATM   24  C   UNL     1      -8.181  10.812  68.455  1.00  0.00    -0.136 C  
HETATM   25  C   UNL     1      -7.473  11.479  69.661  1.00  0.00     0.327 C  
HETATM   26  C   UNL     1      -7.880   9.194  68.530  1.00  0.00    -0.101 C  
HETATM   27  C   UNL     1      -6.465   8.518  68.778  1.00  0.00    -0.053 C  
HETATM   28  C   UNL     1      -6.493   6.871  69.044  1.00  0.00    -0.036 C  
ENDROOT
BRANCH   2  29
HETATM   29  C   UNL     1      -9.320   2.036  64.549  1.00  0.00    -0.129 C  
HETATM   30  O   UNL     1     -10.723   2.415  62.660  1.00  0.00    -0.134 OA 
HETATM   31  C   UNL     1      -9.767   2.967  63.442  1.00  0.00    -0.101 C  
HETATM   32  O   UNL     1      -9.321   4.087  63.238  1.00  0.00    -0.123 OA 
ENDBRANCH   2  29
TORSDOF 1
ENDMDL
MODEL       69
REMARK 921   NORMALIZED FREE ENERGY PREDICTED BY IDOCK:   -3.26 KCAL/MOL
REMARK 922        TOTAL FREE ENERGY PREDICTED BY IDOCK:   -3.56 KCAL/MOL
REMARK 923 INTER-LIGAND FREE ENERGY PREDICTED BY IDOCK:   -3.41 KCAL/MOL
REMARK 924 INTRA-LIGAND FREE ENERGY PREDICTED BY IDOCK:   -0.16 KCAL/MOL
REMARK 927      BINDING AFFINITY PREDICTED BY RF-SCORE:    0.00 PKD
ROOT
HETATM    1  C   UNL     1     -11.917   9.933  71.102  1.00  0.00    -0.473 C  
HETATM    2  C   UNL     1     -12.003   8.911  72.301  1.00  0.00    -0.380 C  
HETATM    3  C   UNL     1     -13.046  10.985  71.353  1.00  0.00    -0.441 C  
HETATM    4  C   UNL     1     -10.322  10.661  70.671  1.00  0.00     0.873 C  
HETATM    5  C   UNL     1      -8.080   9.116  70.637  1.00  0.00    -0.198 C  
HETATM    6  C   UNL     1     -10.903  11.217  69.368  1.00  0.00    -0.264 C  
HETATM    7  H   UNL     1      -7.330  11.990  71.066  1.00  0.00     0.000 HD 
HETATM    8  C   UNL     1     -10.810  10.070  68.376  1.00  0.00    -0.277 C  
HETATM    9  C   UNL     1      -9.320   9.959  68.311  1.00  0.00    -0.136 C  
HETATM   10  O   UNL     1      -6.766  11.573  70.424  1.00  0.00    -0.098 OA 
HETATM   11  C   UNL     1      -8.798  10.176  69.754  1.00  0.00    -0.152 C  
HETATM   12  C   UNL     1      -8.584   9.111  67.277  1.00  0.00    -0.118 C  
HETATM   13  C   UNL     1      -9.525   8.982  66.070  1.00  0.00    -0.256 C  
HETATM   14  O   UNL     1     -10.620   8.116  66.359  1.00  0.00    -0.352 OA 
HETATM   15  C   UNL     1      -8.872   8.484  64.815  1.00  0.00     0.017 C  
HETATM   16  C   UNL     1      -7.677   9.351  64.403  1.00  0.00    -0.119 C  
HETATM   17  H   UNL     1     -11.202   8.037  65.613  1.00  0.00     0.000 HD 
HETATM   18  C   UNL     1      -7.257   8.921  62.987  1.00  0.00    -0.092 C  
HETATM   19  C   UNL     1      -6.456   7.628  62.905  1.00  0.00    -0.067 C  
HETATM   20  O   UNL     1      -7.303   6.507  62.671  1.00  0.00    -0.054 OA 
HETATM   21  C   UNL     1      -5.503   7.399  64.064  1.00  0.00    -0.033 C  
HETATM   22  C   UNL     1      -5.930   7.916  65.485  1.00  0.00    -0.038 C  
HETATM   23  H   UNL     1      -6.803   5.700  62.619  1.00  0.00     0.000 HD 
HETATM   24  C   UNL     1      -6.558   9.347  65.518  1.00  0.00    -0.070 C  
HETATM   25  C   UNL     1      -5.428  10.343  65.155  1.00  0.00    -0.131 C  
HETATM   26  C   UNL     1      -7.299   9.906  66.879  1.00  0.00    -0.091 C  
HETATM   27  C   UNL     1      -6.573  10.417  68.195  1.00  0.00    -0.060 C  
HETATM   28  C   UNL     1      -7.562  11.149  69.322  1.00  0.00    -0.055 C  
ENDROOT
BRANCH   2  29
HETATM   29  C   UNL     1     -13.353   8.113  72.292  1.00  0.00    -0.183 C  
HETATM   30  O   UNL     1     -14.401   5.977  72.143  1.00  0.00     0.035 OA 
HETATM   31  C   UNL     1     -13.207   6.612  72.154  1.00  0.00     0.112 C  
HETATM   32  O   UNL     1     -12.145   6.010  72.080  1.00  0.00    -0.304 OA 
ENDBRANCH   2  29
TORSDOF 1
ENDMDL
MODEL       70
REMARK 921   NORMALIZED FREE ENERGY PREDICTED BY IDOCK:   -3.02 KCAL/MOL
REMARK 922        TOTAL FREE ENERGY PREDICTED BY IDOCK:   -3.32 KCAL/MOL
REMARK 923 INTER-LIGAND FREE ENERGY PREDICTED BY IDOCK:   -3.20 KCAL/MOL
REMARK 924 INTRA-LIGAND FREE ENERGY PREDICTED BY IDOCK:   -0.12 KCAL/MOL
REMARK 927      BINDING AFFINITY PREDICTED BY RF-SCORE:    0.00 PKD
ROOT
HETATM    1  C   UNL     1      -7.837   7.331  64.542  1.00  0.00    -0.121 C  
HETATM    2  C   UNL     1      -8.520   6.090  65.238  1.00  0.00    -0.131 C  
HETATM    3  C   UNL     1      -7.049   6.757  63.319  1.00  0.00    -0.059 C  
HETATM    4  C   UNL     1      -8.833   8.786  64.152  1.00  0.00     0.083 C  
HETATM    5  C   UNL     1     -10.659   9.712  65.947  1.00  0.00     0.221 C  
HETATM    6  C   UNL     1      -7.570   9.593  63.840  1.00  0.00    -0.127 C  
HETATM    7  H   UNL     1     -11.421  10.583  63.179  1.00  0.00     0.000 HD 
HETATM    8  C   UNL     1      -7.089  10.105  65.188  1.00  0.00    -0.137 C  
HETATM    9  C   UNL     1      -8.247  10.996  65.508  1.00  0.00     0.018 C  
HETATM   10  O   UNL     1     -11.503  11.294  63.804  1.00  0.00    -0.276 OA 
HETATM   11  C   UNL     1      -9.521  10.251  65.035  1.00  0.00    -0.314 C  
HETATM   12  C   UNL     1      -8.246  11.995  66.662  1.00  0.00    -0.056 C  
HETATM   13  C   UNL     1      -6.775  12.337  66.940  1.00  0.00     0.062 C  
HETATM   14  O   UNL     1      -6.099  11.247  67.562  1.00  0.00    -0.052 OA 
HETATM   15  C   UNL     1      -6.563  13.550  67.798  1.00  0.00    -0.175 C  
HETATM   16  C   UNL     1      -7.245  14.793  67.216  1.00  0.00    -0.114 C  
HETATM   17  H   UNL     1      -5.189  11.458  67.734  1.00  0.00     0.000 HD 
HETATM   18  C   UNL     1      -6.748  16.012  68.014  1.00  0.00    -0.140 C  
HETATM   19  C   UNL     1      -7.383  16.200  69.386  1.00  0.00    -0.196 C  
HETATM   20  O   UNL     1      -6.602  15.588  70.408  1.00  0.00     0.001 OA 
HETATM   21  C   UNL     1      -8.847  15.807  69.465  1.00  0.00    -0.169 C  
HETATM   22  C   UNL     1      -9.338  14.603  68.582  1.00  0.00    -0.206 C  
HETATM   23  H   UNL     1      -6.997  15.706  71.264  1.00  0.00     0.000 HD 
HETATM   24  C   UNL     1      -8.808  14.590  67.112  1.00  0.00    -0.245 C  
HETATM   25  C   UNL     1      -9.463  15.793  66.386  1.00  0.00    -0.326 C  
HETATM   26  C   UNL     1      -9.010  13.261  66.159  1.00  0.00     0.215 C  
HETATM   27  C   UNL     1     -10.362  12.811  65.459  1.00  0.00    -0.301 C  
HETATM   28  C   UNL     1     -10.220  11.562  64.361  1.00  0.00    -0.300 C  
ENDROOT
BRANCH   2  29
HETATM   29  C   UNL     1      -7.460   5.097  65.830  1.00  0.00    -0.082 C  
HETATM   30  O   UNL     1      -6.929   2.834  66.355  1.00  0.00    -0.050 OA 
HETATM   31  C   UNL     1      -7.876   3.641  65.825  1.00  0.00    -0.092 C  
HETATM   32  O   UNL     1      -8.931   3.210  65.382  1.00  0.00    -0.131 OA 
ENDBRANCH   2  29
TORSDOF 1
ENDMDL
MODEL       71
REMARK 921   NORMALIZED FREE ENERGY PREDICTED BY IDOCK:   -2.76 KCAL/MOL
REMARK 922        TOTAL FREE ENERGY PREDICTED BY IDOCK:   -3.04 KCAL/MOL
REMARK 923 INTER-LIGAND FREE ENERGY PREDICTED BY IDOCK:   -2.90 KCAL/MOL
REMARK 924 INTRA-LIGAND FREE ENERGY PREDICTED BY IDOCK:   -0.14 KCAL/MOL
REMARK 927      BINDING AFFINITY PREDICTED BY RF-SCORE:    0.00 PKD
ROOT
HETATM    1  C   UNL     1      -7.669  17.134  67.124  1.00  0.00    -0.205 C  
HETATM    2  C   UNL     1      -8.927  17.988  67.545  1.00  0.00    -0.249 C  
HETATM    3  C   UNL     1      -6.854  18.029  66.133  1.00  0.00    -0.312 C  
HETATM    4  C   UNL     1      -6.660  16.354  68.402  1.00  0.00    -0.136 C  
HETATM    5  C   UNL     1      -7.850  15.131  70.524  1.00  0.00     1.095 C  
HETATM    6  C   UNL     1      -5.919  15.531  67.346  1.00  0.00    -0.010 C  
HETATM    7  H   UNL     1      -5.063  15.963  71.261  1.00  0.00     0.000 HD 
HETATM    8  C   UNL     1      -6.803  14.319  67.101  1.00  0.00     0.412 C  
HETATM    9  C   UNL     1      -6.698  13.697  68.457  1.00  0.00    -0.095 C  
HETATM   10  O   UNL     1      -5.253  15.079  71.554  1.00  0.00    -0.145 OA 
HETATM   11  C   UNL     1      -6.731  14.860  69.480  1.00  0.00    -0.165 C  
HETATM   12  C   UNL     1      -7.199  12.291  68.778  1.00  0.00    -0.098 C  
HETATM   13  C   UNL     1      -7.189  11.512  67.454  1.00  0.00    -0.119 C  
HETATM   14  O   UNL     1      -8.234  11.950  66.589  1.00  0.00    -0.272 OA 
HETATM   15  C   UNL     1      -7.314  10.024  67.599  1.00  0.00    -0.089 C  
HETATM   16  C   UNL     1      -6.228   9.440  68.509  1.00  0.00    -0.048 C  
HETATM   17  H   UNL     1      -8.227  11.469  65.770  1.00  0.00     0.000 HD 
HETATM   18  C   UNL     1      -6.283   7.909  68.375  1.00  0.00    -0.048 C  
HETATM   19  C   UNL     1      -7.411   7.224  69.137  1.00  0.00    -0.087 C  
HETATM   20  O   UNL     1      -8.558   7.039  68.313  1.00  0.00    -0.128 OA 
HETATM   21  C   UNL     1      -7.755   7.866  70.469  1.00  0.00    -0.086 C  
HETATM   22  C   UNL     1      -7.618   9.427  70.595  1.00  0.00    -0.163 C  
HETATM   23  H   UNL     1      -9.261   6.611  68.788  1.00  0.00     0.000 HD 
HETATM   24  C   UNL     1      -6.324  10.039  69.968  1.00  0.00    -0.079 C  
HETATM   25  C   UNL     1      -5.132   9.553  70.832  1.00  0.00    -0.035 C  
HETATM   26  C   UNL     1      -6.174  11.669  69.779  1.00  0.00    -0.139 C  
HETATM   27  C   UNL     1      -5.867  12.718  70.930  1.00  0.00     0.024 C  
HETATM   28  C   UNL     1      -5.532  14.270  70.416  1.00  0.00    -0.119 C  
ENDROOT
BRANCH   2  29
HETATM   29  C   UNL     1      -9.876  18.267  66.328  1.00  0.00    -0.323 C  
HETATM   30  O   UNL     1     -11.115  19.893  65.102  1.00  0.00    -0.329 OA 
HETATM   31  C   UNL     1     -10.290  19.714  66.159  1.00  0.00    -0.530 C  
HETATM   32  O   UNL     1      -9.924  20.641  66.868  1.00  0.00    -0.418 OA 
ENDBRANCH   2  29
TORSDOF 1
ENDMDL
MODEL       72
REMARK 921   NORMALIZED FREE ENERGY PREDICTED BY IDOCK:   -2.67 KCAL/MOL
REMARK 922        TOTAL FREE ENERGY PREDICTED BY IDOCK:   -2.95 KCAL/MOL
REMARK 923 INTER-LIGAND FREE ENERGY PREDICTED BY IDOCK:   -2.82 KCAL/MOL
REMARK 924 INTRA-LIGAND FREE ENERGY PREDICTED BY IDOCK:   -0.13 KCAL/MOL
REMARK 927      BINDING AFFINITY PREDICTED BY RF-SCORE:    0.00 PKD
ROOT
HETATM    1  C   UNL     1     -10.243  15.224  69.666  1.00  0.00    -0.253 C  
HETATM    2  C   UNL     1     -10.811  14.775  71.068  1.00  0.00     0.210 C  
HETATM    3  C   UNL     1     -10.490  16.766  69.576  1.00  0.00    -0.263 C  
HETATM    4  C   UNL     1      -8.576  14.723  69.184  1.00  0.00    -0.089 C  
HETATM    5  C   UNL     1      -7.716  12.188  69.680  1.00  0.00     0.948 C  
HETATM    6  C   UNL     1      -8.827  15.192  67.748  1.00  0.00    -0.171 C  
HETATM    7  H   UNL     1      -5.362  14.035  69.452  1.00  0.00     0.000 HD 
HETATM    8  C   UNL     1      -9.529  14.026  67.072  1.00  0.00    -0.253 C  
HETATM    9  C   UNL     1      -8.414  13.032  67.139  1.00  0.00    -0.176 C  
HETATM   10  O   UNL     1      -5.221  13.228  68.972  1.00  0.00    -0.069 OA 
HETATM   11  C   UNL     1      -7.736  13.222  68.520  1.00  0.00    -0.120 C  
HETATM   12  C   UNL     1      -8.429  11.699  66.395  1.00  0.00    -0.114 C  
HETATM   13  C   UNL     1      -9.367  11.883  65.192  1.00  0.00     0.045 C  
HETATM   14  O   UNL     1     -10.730  11.946  65.605  1.00  0.00    -0.263 OA 
HETATM   15  C   UNL     1      -9.260  10.816  64.143  1.00  0.00    -0.251 C  
HETATM   16  C   UNL     1      -7.828  10.666  63.618  1.00  0.00     0.098 C  
HETATM   17  H   UNL     1     -11.310  12.060  64.861  1.00  0.00     0.000 HD 
HETATM   18  C   UNL     1      -7.880   9.753  62.380  1.00  0.00    -0.128 C  
HETATM   19  C   UNL     1      -8.021   8.264  62.669  1.00  0.00    -0.159 C  
HETATM   20  O   UNL     1      -9.387   7.860  62.655  1.00  0.00     0.328 OA 
HETATM   21  C   UNL     1      -7.292   7.789  63.913  1.00  0.00    -0.096 C  
HETATM   22  C   UNL     1      -7.193   8.773  65.134  1.00  0.00    -0.087 C  
HETATM   23  H   UNL     1      -9.476   6.931  62.835  1.00  0.00     0.000 HD 
HETATM   24  C   UNL     1      -6.836  10.252  64.776  1.00  0.00    -0.087 C  
HETATM   25  C   UNL     1      -5.374  10.250  64.262  1.00  0.00    -0.129 C  
HETATM   26  C   UNL     1      -6.967  11.443  65.907  1.00  0.00     0.344 C  
HETATM   27  C   UNL     1      -5.963  11.706  67.107  1.00  0.00    -0.127 C  
HETATM   28  C   UNL     1      -6.210  13.124  67.952  1.00  0.00    -0.140 C  
ENDROOT
BRANCH   2  29
HETATM   29  C   UNL     1     -12.364  14.973  71.158  1.00  0.00    -0.391 C  
HETATM   30  O   UNL     1     -14.203  15.698  72.489  1.00  0.00    -0.557 OA 
HETATM   31  C   UNL     1     -12.858  15.559  72.464  1.00  0.00    -0.420 C  
HETATM   32  O   UNL     1     -12.148  15.898  73.400  1.00  0.00    -0.447 OA 
ENDBRANCH   2  29
TORSDOF 1
ENDMDL
MODEL       73
REMARK 921   NORMALIZED FREE ENERGY PREDICTED BY IDOCK:   -2.01 KCAL/MOL
REMARK 922        TOTAL FREE ENERGY PREDICTED BY IDOCK:   -2.24 KCAL/MOL
REMARK 923 INTER-LIGAND FREE ENERGY PREDICTED BY IDOCK:   -2.48 KCAL/MOL
REMARK 924 INTRA-LIGAND FREE ENERGY PREDICTED BY IDOCK:    0.24 KCAL/MOL
REMARK 927      BINDING AFFINITY PREDICTED BY RF-SCORE:    0.00 PKD
ROOT
HETATM    1  C   UNL     1      -9.764   7.721  69.510  1.00  0.00    -0.165 C  
HETATM    2  C   UNL     1     -10.795   6.696  68.897  1.00  0.00    -0.326 C  
HETATM    3  C   UNL     1      -8.959   6.927  70.590  1.00  0.00    -0.151 C  
HETATM    4  C   UNL     1      -8.729   8.705  68.404  1.00  0.00    -0.142 C  
HETATM    5  C   UNL     1      -9.798   9.811  66.157  1.00  0.00    -0.329 C  
HETATM    6  C   UNL     1      -8.286   9.591  69.572  1.00  0.00    -0.145 C  
HETATM    7  H   UNL     1      -6.838   9.465  65.812  1.00  0.00     0.000 HD 
HETATM    8  C   UNL     1      -9.381  10.635  69.710  1.00  0.00     0.220 C  
HETATM    9  C   UNL     1      -9.194  11.322  68.395  1.00  0.00    -0.178 C  
HETATM   10  O   UNL     1      -7.128  10.318  65.511  1.00  0.00    -0.132 OA 
HETATM   11  C   UNL     1      -8.893  10.212  67.356  1.00  0.00    -0.135 C  
HETATM   12  C   UNL     1      -9.868  12.643  68.032  1.00  0.00    -0.218 C  
HETATM   13  C   UNL     1     -10.168  13.357  69.359  1.00  0.00     0.482 C  
HETATM   14  O   UNL     1     -11.237  12.722  70.057  1.00  0.00    -0.482 OA 
HETATM   15  C   UNL     1     -10.514  14.811  69.226  1.00  0.00    -0.231 C  
HETATM   16  C   UNL     1      -9.423  15.598  68.492  1.00  0.00    -0.200 C  
HETATM   17  H   UNL     1     -11.423  13.163  70.877  1.00  0.00     0.000 HD 
HETATM   18  C   UNL     1      -9.746  17.094  68.646  1.00  0.00    -0.293 C  
HETATM   19  C   UNL     1     -10.854  17.622  67.743  1.00  0.00    -0.234 C  
HETATM   20  O   UNL     1     -12.118  17.587  68.398  1.00  0.00     1.086 OA 
HETATM   21  C   UNL     1     -10.901  16.990  66.364  1.00  0.00     0.048 C  
HETATM   22  C   UNL     1     -10.495  15.477  66.229  1.00  0.00    -0.313 C  
HETATM   23  H   UNL     1     -12.809  17.917  67.835  1.00  0.00     0.000 HD 
HETATM   24  C   UNL     1      -9.217  15.053  67.023  1.00  0.00    -0.246 C  
HETATM   25  C   UNL     1      -8.013  15.758  66.348  1.00  0.00    -0.039 C  
HETATM   26  C   UNL     1      -8.830  13.462  67.200  1.00  0.00    -0.225 C  
HETATM   27  C   UNL     1      -8.199  12.524  66.085  1.00  0.00     0.681 C  
HETATM   28  C   UNL     1      -7.690  11.025  66.612  1.00  0.00    -0.153 C  
ENDROOT
BRANCH   2  29
HETATM   29  C   UNL     1     -11.845   6.219  69.960  1.00  0.00    -0.073 C  
HETATM   30  O   UNL     1     -13.385   6.859  71.662  1.00  0.00    -0.341 OA 
HETATM   31  C   UNL     1     -12.497   7.329  70.756  1.00  0.00    -0.148 C  
HETATM   32  O   UNL     1     -12.284   8.524  70.608  1.00  0.00    -0.095 OA 
ENDBRANCH   2  29
TORSDOF 1
ENDMDL
MODEL       74
REMARK 921   NORMALIZED FREE ENERGY PREDICTED BY IDOCK:   -1.99 KCAL/MOL
REMARK 922        TOTAL FREE ENERGY PREDICTED BY IDOCK:   -2.22 KCAL/MOL
REMARK 923 INTER-LIGAND FREE ENERGY PREDICTED BY IDOCK:   -2.55 KCAL/MOL
REMARK 924 INTRA-LIGAND FREE ENERGY PREDICTED BY IDOCK:    0.33 KCAL/MOL
REMARK 927      BINDING AFFINITY PREDICTED BY RF-SCORE:    0.00 PKD
ROOT
HETATM    1  C   UNL     1      -7.764  17.255  67.554  1.00  0.00    -0.191 C  
HETATM    2  C   UNL     1      -8.603  18.258  68.437  1.00  0.00    -0.315 C  
HETATM    3  C   UNL     1      -6.964  18.138  66.542  1.00  0.00    -0.252 C  
HETATM    4  C   UNL     1      -6.767  15.985  68.363  1.00  0.00    -0.120 C  
HETATM    5  C   UNL     1      -7.765  14.617  70.496  1.00  0.00     1.167 C  
HETATM    6  C   UNL     1      -6.540  15.279  67.024  1.00  0.00     0.378 C  
HETATM    7  H   UNL     1      -4.765  14.577  70.574  1.00  0.00     0.000 HD 
HETATM    8  C   UNL     1      -7.764  14.400  66.832  1.00  0.00     0.265 C  
HETATM    9  C   UNL     1      -7.549  13.473  67.985  1.00  0.00    -0.143 C  
HETATM   10  O   UNL     1      -5.131  13.720  70.757  1.00  0.00    -0.096 OA 
HETATM   11  C   UNL     1      -7.024  14.341  69.157  1.00  0.00    -0.118 C  
HETATM   12  C   UNL     1      -8.348  12.188  68.193  1.00  0.00    -0.170 C  
HETATM   13  C   UNL     1      -8.849  11.758  66.806  1.00  0.00    -0.191 C  
HETATM   14  O   UNL     1      -9.887  12.618  66.343  1.00  0.00    -0.248 OA 
HETATM   15  C   UNL     1      -9.359  10.349  66.731  1.00  0.00    -0.181 C  
HETATM   16  C   UNL     1      -8.314   9.332  67.202  1.00  0.00    -0.124 C  
HETATM   17  H   UNL     1     -10.197  12.352  65.485  1.00  0.00     0.000 HD 
HETATM   18  C   UNL     1      -8.832   7.930  66.836  1.00  0.00    -0.146 C  
HETATM   19  C   UNL     1      -9.914   7.371  67.752  1.00  0.00    -0.167 C  
HETATM   20  O   UNL     1     -11.216   7.657  67.252  1.00  0.00    -0.495 OA 
HETATM   21  C   UNL     1      -9.762   7.749  69.214  1.00  0.00    -0.165 C  
HETATM   22  C   UNL     1      -9.161   9.161  69.555  1.00  0.00    -0.155 C  
HETATM   23  H   UNL     1     -11.891   7.308  67.822  1.00  0.00     0.000 HD 
HETATM   24  C   UNL     1      -7.915   9.581  68.710  1.00  0.00    -0.088 C  
HETATM   25  C   UNL     1      -6.753   8.643  69.125  1.00  0.00    -0.047 C  
HETATM   26  C   UNL     1      -7.351  11.128  68.761  1.00  0.00    -0.114 C  
HETATM   27  C   UNL     1      -6.514  11.779  69.942  1.00  0.00    -0.063 C  
HETATM   28  C   UNL     1      -5.870  13.285  69.621  1.00  0.00    -0.114 C  
ENDROOT
BRANCH   2  29
HETATM   29  C   UNL     1      -9.674  19.027  67.588  1.00  0.00    -0.373 C  
HETATM   30  O   UNL     1     -10.206  21.010  66.377  1.00  0.00     0.381 OA 
HETATM   31  C   UNL     1      -9.240  20.390  67.094  1.00  0.00    -0.380 C  
HETATM   32  O   UNL     1      -8.143  20.895  67.286  1.00  0.00    -0.285 OA 
ENDBRANCH   2  29
TORSDOF 1
ENDMDL
MODEL       75
REMARK 921   NORMALIZED FREE ENERGY PREDICTED BY IDOCK:   -1.79 KCAL/MOL
REMARK 922        TOTAL FREE ENERGY PREDICTED BY IDOCK:   -2.01 KCAL/MOL
REMARK 923 INTER-LIGAND FREE ENERGY PREDICTED BY IDOCK:   -2.23 KCAL/MOL
REMARK 924 INTRA-LIGAND FREE ENERGY PREDICTED BY IDOCK:    0.22 KCAL/MOL
REMARK 927      BINDING AFFINITY PREDICTED BY RF-SCORE:    0.00 PKD
ROOT
HETATM    1  C   UNL     1     -10.515   5.969  71.746  1.00  0.00    -0.268 C  
HETATM    2  C   UNL     1      -9.439   5.964  72.900  1.00  0.00    -0.154 C  
HETATM    3  C   UNL     1     -11.465   4.762  72.040  1.00  0.00     0.551 C  
HETATM    4  C   UNL     1     -11.382   7.502  71.349  1.00  0.00    -0.284 C  
HETATM    5  C   UNL     1     -10.018   9.857  71.254  1.00  0.00     0.621 C  
HETATM    6  C   UNL     1     -11.946   6.878  70.071  1.00  0.00    -0.127 C  
HETATM    7  H   UNL     1     -12.920  10.384  71.806  1.00  0.00     0.000 HD 
HETATM    8  C   UNL     1     -10.853   7.059  69.031  1.00  0.00    -0.212 C  
HETATM    9  C   UNL     1     -10.860   8.552  68.964  1.00  0.00    -0.026 C  
HETATM   10  O   UNL     1     -12.575  10.977  71.149  1.00  0.00    -0.370 OA 
HETATM   11  C   UNL     1     -11.055   9.058  70.416  1.00  0.00    -0.279 C  
HETATM   12  C   UNL     1     -10.116   9.351  67.896  1.00  0.00    -0.239 C  
HETATM   13  C   UNL     1      -9.967   8.421  66.683  1.00  0.00    -0.284 C  
HETATM   14  O   UNL     1      -9.007   7.397  66.933  1.00  0.00    -0.125 OA 
HETATM   15  C   UNL     1      -9.574   9.109  65.409  1.00  0.00    -0.166 C  
HETATM   16  C   UNL     1     -10.548  10.232  65.037  1.00  0.00     0.127 C  
HETATM   17  H   UNL     1      -8.915   6.821  66.182  1.00  0.00     0.000 HD 
HETATM   18  C   UNL     1     -10.213  10.683  63.604  1.00  0.00    -0.236 C  
HETATM   19  C   UNL     1      -8.989  11.581  63.469  1.00  0.00     0.161 C  
HETATM   20  O   UNL     1      -7.817  10.823  63.186  1.00  0.00    -0.342 OA 
HETATM   21  C   UNL     1      -8.786  12.550  64.619  1.00  0.00     1.573 C  
HETATM   22  C   UNL     1      -9.207  12.086  66.060  1.00  0.00    -0.152 C  
HETATM   23  H   UNL     1      -7.054  11.383  63.101  1.00  0.00     0.000 HD 
HETATM   24  C   UNL     1     -10.583  11.350  66.153  1.00  0.00    -0.316 C  
HETATM   25  C   UNL     1     -11.677  12.400  65.834  1.00  0.00    -0.476 C  
HETATM   26  C   UNL     1     -11.024  10.570  67.535  1.00  0.00    -0.365 C  
HETATM   27  C   UNL     1     -11.533  11.256  68.873  1.00  0.00    -0.363 C  
HETATM   28  C   UNL     1     -12.138  10.215  70.028  1.00  0.00    -0.095 C  
ENDROOT
BRANCH   2  29
HETATM   29  C   UNL     1      -8.540   4.680  72.855  1.00  0.00    -0.110 C  
HETATM   30  O   UNL     1      -8.136   2.502  73.733  1.00  0.00    -0.057 OA 
HETATM   31  C   UNL     1      -8.951   3.579  73.809  1.00  0.00    -0.087 C  
HETATM   32  O   UNL     1      -9.915   3.618  74.560  1.00  0.00    -0.128 OA 
ENDBRANCH   2  29
TORSDOF 1
ENDMDL
MODEL       76
REMARK 921   NORMALIZED FREE ENERGY PREDICTED BY IDOCK:   -1.64 KCAL/MOL
REMARK 922        TOTAL FREE ENERGY PREDICTED BY IDOCK:   -1.85 KCAL/MOL
REMARK 923 INTER-LIGAND FREE ENERGY PREDICTED BY IDOCK:   -1.66 KCAL/MOL
REMARK 924 INTRA-LIGAND FREE ENERGY PREDICTED BY IDOCK:   -0.19 KCAL/MOL
REMARK 927      BINDING AFFINITY PREDICTED BY RF-SCORE:    0.00 PKD
ROOT
HETATM    1  C   UNL     1     -10.774  13.826  67.628  1.00  0.00    -0.256 C  
HETATM    2  C   UNL     1     -12.063  14.135  66.772  1.00  0.00    -0.474 C  
HETATM    3  C   UNL     1      -9.983  15.172  67.715  1.00  0.00    -0.225 C  
HETATM    4  C   UNL     1     -10.945  12.975  69.212  1.00  0.00    -0.122 C  
HETATM    5  C   UNL     1     -12.655  10.870  69.452  1.00  0.00     0.125 C  
HETATM    6  C   UNL     1      -9.431  12.759  69.284  1.00  0.00     0.848 C  
HETATM    7  H   UNL     1     -12.206  12.129  72.139  1.00  0.00     0.000 HD 
HETATM    8  C   UNL     1      -9.175  11.501  68.472  1.00  0.00    -0.167 C  
HETATM    9  C   UNL     1      -9.911  10.529  69.338  1.00  0.00    -0.220 C  
HETATM   10  O   UNL     1     -12.161  11.181  72.185  1.00  0.00     0.473 OA 
HETATM   11  C   UNL     1     -11.194  11.253  69.820  1.00  0.00    -0.294 C  
HETATM   12  C   UNL     1      -9.823   9.015  69.167  1.00  0.00    -0.175 C  
HETATM   13  C   UNL     1      -8.478   8.732  68.482  1.00  0.00    -0.130 C  
HETATM   14  O   UNL     1      -8.502   9.130  67.113  1.00  0.00    -0.119 OA 
HETATM   15  C   UNL     1      -8.038   7.298  68.529  1.00  0.00    -0.125 C  
HETATM   16  C   UNL     1      -7.968   6.764  69.963  1.00  0.00    -0.116 C  
HETATM   17  H   UNL     1      -7.670   8.955  66.689  1.00  0.00     0.000 HD 
HETATM   18  C   UNL     1      -7.261   5.399  69.918  1.00  0.00    -0.064 C  
HETATM   19  C   UNL     1      -8.116   4.234  69.433  1.00  0.00    -0.059 C  
HETATM   20  O   UNL     1      -7.963   4.025  68.032  1.00  0.00    -0.083 OA 
HETATM   21  C   UNL     1      -9.573   4.301  69.852  1.00  0.00    -0.279 C  
HETATM   22  C   UNL     1     -10.246   5.718  69.960  1.00  0.00    -0.304 C  
HETATM   23  H   UNL     1      -8.496   3.298  67.730  1.00  0.00     0.000 HD 
HETATM   24  C   UNL     1      -9.385   6.818  70.661  1.00  0.00    -0.162 C  
HETATM   25  C   UNL     1      -9.270   6.415  72.153  1.00  0.00    -0.140 C  
HETATM   26  C   UNL     1      -9.838   8.400  70.603  1.00  0.00    -0.208 C  
HETATM   27  C   UNL     1     -11.007   9.069  71.444  1.00  0.00    -0.394 C  
HETATM   28  C   UNL     1     -11.087  10.734  71.364  1.00  0.00     1.515 C  
ENDROOT
BRANCH   2  29
HETATM   29  C   UNL     1     -11.704  14.526  65.297  1.00  0.00    -0.361 C  
HETATM   30  O   UNL     1     -11.508  13.797  63.036  1.00  0.00     0.684 OA 
HETATM   31  C   UNL     1     -11.840  13.406  64.288  1.00  0.00    -0.423 C  
HETATM   32  O   UNL     1     -12.222  12.272  64.539  1.00  0.00    -0.410 OA 
ENDBRANCH   2  29
TORSDOF 1
ENDMDL
MODEL       77
REMARK 921   NORMALIZED FREE ENERGY PREDICTED BY IDOCK:   -1.64 KCAL/MOL
REMARK 922        TOTAL FREE ENERGY PREDICTED BY IDOCK:   -1.85 KCAL/MOL
REMARK 923 INTER-LIGAND FREE ENERGY PREDICTED BY IDOCK:   -1.70 KCAL/MOL
REMARK 924 INTRA-LIGAND FREE ENERGY PREDICTED BY IDOCK:   -0.15 KCAL/MOL
REMARK 927      BINDING AFFINITY PREDICTED BY RF-SCORE:    0.00 PKD
ROOT
HETATM    1  C   UNL     1      -7.088   3.750  70.766  1.00  0.00    -0.033 C  
HETATM    2  C   UNL     1      -8.166   2.627  71.021  1.00  0.00    -0.071 C  
HETATM    3  C   UNL     1      -6.012   3.576  71.888  1.00  0.00    -0.013 C  
HETATM    4  C   UNL     1      -6.392   3.951  69.112  1.00  0.00    -0.029 C  
HETATM    5  C   UNL     1      -8.007   3.806  66.925  1.00  0.00    -0.095 C  
HETATM    6  C   UNL     1      -5.752   5.280  69.519  1.00  0.00    -0.016 C  
HETATM    7  H   UNL     1      -5.186   3.137  66.153  1.00  0.00     0.000 HD 
HETATM    8  C   UNL     1      -6.849   6.316  69.340  1.00  0.00    -0.065 C  
HETATM    9  C   UNL     1      -7.006   6.212  67.857  1.00  0.00    -0.076 C  
HETATM   10  O   UNL     1      -5.588   3.730  65.529  1.00  0.00    -0.016 OA 
HETATM   11  C   UNL     1      -6.881   4.708  67.504  1.00  0.00    -0.059 C  
HETATM   12  C   UNL     1      -7.825   7.197  67.026  1.00  0.00    -0.108 C  
HETATM   13  C   UNL     1      -7.861   8.511  67.820  1.00  0.00    -0.103 C  
HETATM   14  O   UNL     1      -8.703   8.400  68.965  1.00  0.00    -0.139 OA 
HETATM   15  C   UNL     1      -8.316   9.707  67.037  1.00  0.00    -0.117 C  
HETATM   16  C   UNL     1      -7.469   9.928  65.779  1.00  0.00    -0.110 C  
HETATM   17  H   UNL     1      -8.725   9.213  69.456  1.00  0.00     0.000 HD 
HETATM   18  C   UNL     1      -7.840  11.307  65.205  1.00  0.00     0.592 C  
HETATM   19  C   UNL     1      -9.154  11.365  64.435  1.00  0.00     0.108 C  
HETATM   20  O   UNL     1     -10.233  11.757  65.278  1.00  0.00    -0.247 OA 
HETATM   21  C   UNL     1      -9.473  10.117  63.633  1.00  0.00    -0.320 C  
HETATM   22  C   UNL     1      -9.015   8.729  64.212  1.00  0.00     0.180 C  
HETATM   23  H   UNL     1     -11.052  11.794  64.799  1.00  0.00     0.000 HD 
HETATM   24  C   UNL     1      -7.568   8.692  64.800  1.00  0.00    -0.102 C  
HETATM   25  C   UNL     1      -6.593   8.866  63.608  1.00  0.00    -0.089 C  
HETATM   26  C   UNL     1      -7.054   7.398  65.682  1.00  0.00    -0.065 C  
HETATM   27  C   UNL     1      -6.635   5.981  65.104  1.00  0.00    -0.043 C  
HETATM   28  C   UNL     1      -5.929   4.939  66.199  1.00  0.00    -0.023 C  
ENDROOT
BRANCH   2  29
HETATM   29  C   UNL     1      -8.918   2.837  72.382  1.00  0.00    -0.116 C  
HETATM   30  O   UNL     1     -10.571   4.074  73.571  1.00  0.00    -0.163 OA 
HETATM   31  C   UNL     1      -9.964   3.931  72.371  1.00  0.00    -0.166 C  
HETATM   32  O   UNL     1     -10.263   4.612  71.401  1.00  0.00    -0.192 OA 
ENDBRANCH   2  29
TORSDOF 1
ENDMDL
MODEL       78
REMARK 921   NORMALIZED FREE ENERGY PREDICTED BY IDOCK:   -0.81 KCAL/MOL
REMARK 922        TOTAL FREE ENERGY PREDICTED BY IDOCK:   -0.98 KCAL/MOL
REMARK 923 INTER-LIGAND FREE ENERGY PREDICTED BY IDOCK:   -0.85 KCAL/MOL
REMARK 924 INTRA-LIGAND FREE ENERGY PREDICTED BY IDOCK:   -0.12 KCAL/MOL
REMARK 927      BINDING AFFINITY PREDICTED BY RF-SCORE:    0.00 PKD
ROOT
HETATM    1  C   UNL     1     -10.407  11.040  67.359  1.00  0.00    -0.242 C  
HETATM    2  C   UNL     1      -9.147  10.114  67.573  1.00  0.00    -0.143 C  
HETATM    3  C   UNL     1     -11.608  10.075  67.092  1.00  0.00     1.205 C  
HETATM    4  C   UNL     1     -10.767  12.338  68.561  1.00  0.00    -0.261 C  
HETATM    5  C   UNL     1      -8.748  13.864  69.568  1.00  0.00     0.895 C  
HETATM    6  C   UNL     1     -11.809  12.950  67.621  1.00  0.00    -0.400 C  
HETATM    7  H   UNL     1     -11.061  13.845  71.480  1.00  0.00     0.000 HD 
HETATM    8  C   UNL     1     -11.015  13.841  66.681  1.00  0.00    -0.298 C  
HETATM    9  C   UNL     1     -10.527  14.836  67.684  1.00  0.00    -0.254 C  
HETATM   10  O   UNL     1     -10.709  14.720  71.365  1.00  0.00     0.245 OA 
HETATM   11  C   UNL     1     -10.170  14.036  68.963  1.00  0.00    -0.100 C  
HETATM   12  C   UNL     1      -9.845  16.148  67.305  1.00  0.00    -0.241 C  
HETATM   13  C   UNL     1     -10.329  16.497  65.890  1.00  0.00    -0.350 C  
HETATM   14  O   UNL     1      -9.748  15.631  64.917  1.00  0.00    -0.181 OA 
HETATM   15  C   UNL     1     -10.054  17.908  65.461  1.00  0.00     0.298 C  
HETATM   16  C   UNL     1     -10.644  18.932  66.437  1.00  0.00    -0.460 C  
HETATM   17  H   UNL     1     -10.047  15.846  64.042  1.00  0.00     0.000 HD 
HETATM   18  C   UNL     1     -10.542  20.317  65.776  1.00  0.00    -0.222 C  
HETATM   19  C   UNL     1      -9.160  20.958  65.806  1.00  0.00     1.119 C  
HETATM   20  O   UNL     1      -8.427  20.668  64.620  1.00  0.00     0.351 OA 
HETATM   21  C   UNL     1      -8.358  20.674  67.064  1.00  0.00    -0.258 C  
HETATM   22  C   UNL     1      -8.541  19.275  67.757  1.00  0.00    -0.341 C  
HETATM   23  H   UNL     1      -7.565  21.067  64.638  1.00  0.00     0.000 HD 
HETATM   24  C   UNL     1     -10.016  18.774  67.878  1.00  0.00    -0.400 C  
HETATM   25  C   UNL     1     -10.728  19.713  68.885  1.00  0.00     0.381 C  
HETATM   26  C   UNL     1     -10.340  17.222  68.326  1.00  0.00    -0.361 C  
HETATM   27  C   UNL     1     -10.235  16.632  69.796  1.00  0.00    -0.036 C  
HETATM   28  C   UNL     1     -10.852  15.095  69.999  1.00  0.00    -0.254 C  
ENDROOT
BRANCH   2  29
HETATM   29  C   UNL     1      -8.783   9.314  66.275  1.00  0.00    -0.160 C  
HETATM   30  O   UNL     1      -8.610   7.176  65.237  1.00  0.00    -0.098 OA 
HETATM   31  C   UNL     1      -8.947   7.813  66.382  1.00  0.00    -0.163 C  
HETATM   32  O   UNL     1      -9.354   7.216  67.368  1.00  0.00    -0.124 OA 
ENDBRANCH   2  29
TORSDOF 1
ENDMDL
MODEL       79
REMARK 921   NORMALIZED FREE ENERGY PREDICTED BY IDOCK:   -0.61 KCAL/MOL
REMARK 922        TOTAL FREE ENERGY PREDICTED BY IDOCK:   -0.77 KCAL/MOL
REMARK 923 INTER-LIGAND FREE ENERGY PREDICTED BY IDOCK:   -0.64 KCAL/MOL
REMARK 924 INTRA-LIGAND FREE ENERGY PREDICTED BY IDOCK:   -0.13 KCAL/MOL
REMARK 927      BINDING AFFINITY PREDICTED BY RF-SCORE:    0.00 PKD
ROOT
HETATM    1  C   UNL     1      -8.483   8.722  65.976  1.00  0.00    -0.144 C  
HETATM    2  C   UNL     1      -9.268   7.686  65.080  1.00  0.00     0.759 C  
HETATM    3  C   UNL     1      -6.991   8.254  65.966  1.00  0.00    -0.065 C  
HETATM    4  C   UNL     1      -8.697  10.490  65.680  1.00  0.00    -0.191 C  
HETATM    5  C   UNL     1     -11.176  11.501  65.179  1.00  0.00    -0.214 C  
HETATM    6  C   UNL     1      -7.974  10.819  66.988  1.00  0.00    -0.124 C  
HETATM    7  H   UNL     1      -9.084  13.317  64.026  1.00  0.00     0.000 HD 
HETATM    8  C   UNL     1      -9.043  10.723  68.064  1.00  0.00    -0.150 C  
HETATM    9  C   UNL     1      -9.907  11.857  67.613  1.00  0.00    -0.192 C  
HETATM   10  O   UNL     1      -9.756  13.805  64.487  1.00  0.00    -0.026 OA 
HETATM   11  C   UNL     1      -9.934  11.803  66.064  1.00  0.00    -0.258 C  
HETATM   12  C   UNL     1     -11.053  12.425  68.446  1.00  0.00    -0.288 C  
HETATM   13  C   UNL     1     -10.727  12.102  69.912  1.00  0.00     0.754 C  
HETATM   14  O   UNL     1     -10.893  10.712  70.184  1.00  0.00    -0.402 OA 
HETATM   15  C   UNL     1     -11.539  12.862  70.919  1.00  0.00     0.843 C  
HETATM   16  C   UNL     1     -11.427  14.377  70.724  1.00  0.00    -0.140 C  
HETATM   17  H   UNL     1     -10.691  10.512  71.091  1.00  0.00     0.000 HD 
HETATM   18  C   UNL     1     -12.067  15.052  71.950  1.00  0.00    -0.443 C  
HETATM   19  C   UNL     1     -13.590  15.080  71.962  1.00  0.00    -0.420 C  
HETATM   20  O   UNL     1     -14.124  13.965  72.670  1.00  0.00    -0.679 OA 
HETATM   21  C   UNL     1     -14.231  15.257  70.598  1.00  0.00     0.321 C  
HETATM   22  C   UNL     1     -13.513  14.617  69.355  1.00  0.00     2.248 C  
HETATM   23  H   UNL     1     -15.074  13.982  72.679  1.00  0.00     0.000 HD 
HETATM   24  C   UNL     1     -11.963  14.811  69.302  1.00  0.00    -0.329 C  
HETATM   25  C   UNL     1     -11.706  16.320  69.064  1.00  0.00    -0.165 C  
HETATM   26  C   UNL     1     -11.049  13.970  68.219  1.00  0.00    -0.275 C  
HETATM   27  C   UNL     1     -10.933  14.269  66.664  1.00  0.00    -0.310 C  
HETATM   28  C   UNL     1      -9.753  13.411  65.855  1.00  0.00    -0.182 C  
ENDROOT
BRANCH   2  29
HETATM   29  C   UNL     1      -9.257   6.248  65.705  1.00  0.00     0.080 C  
HETATM   30  O   UNL     1     -10.089   4.818  67.420  1.00  0.00    -0.174 OA 
HETATM   31  C   UNL     1     -10.145   6.072  66.918  1.00  0.00    -0.185 C  
HETATM   32  O   UNL     1     -10.859   6.939  67.402  1.00  0.00    -0.287 OA 
ENDBRANCH   2  29
TORSDOF 1
ENDMDL
MODEL       80
REMARK 921   NORMALIZED FREE ENERGY PREDICTED BY IDOCK:   -0.46 KCAL/MOL
REMARK 922        TOTAL FREE ENERGY PREDICTED BY IDOCK:   -0.60 KCAL/MOL
REMARK 923 INTER-LIGAND FREE ENERGY PREDICTED BY IDOCK:   -0.47 KCAL/MOL
REMARK 924 INTRA-LIGAND FREE ENERGY PREDICTED BY IDOCK:   -0.13 KCAL/MOL
REMARK 927      BINDING AFFINITY PREDICTED BY RF-SCORE:    0.00 PKD
ROOT
HETATM    1  C   UNL     1      -8.744  10.355  65.065  1.00  0.00    -0.195 C  
HETATM    2  C   UNL     1      -7.486   9.460  65.393  1.00  0.00    -0.099 C  
HETATM    3  C   UNL     1      -9.559   9.570  63.986  1.00  0.00     0.332 C  
HETATM    4  C   UNL     1      -9.752  10.996  66.419  1.00  0.00    -0.235 C  
HETATM    5  C   UNL     1      -8.561  11.986  68.659  1.00  0.00    -0.011 C  
HETATM    6  C   UNL     1     -10.493  11.927  65.456  1.00  0.00    -0.309 C  
HETATM    7  H   UNL     1     -11.349  11.083  69.304  1.00  0.00     0.000 HD 
HETATM    8  C   UNL     1      -9.608  13.157  65.341  1.00  0.00     0.086 C  
HETATM    9  C   UNL     1      -9.712  13.632  66.755  1.00  0.00    -0.275 C  
HETATM   10  O   UNL     1     -11.157  11.930  69.689  1.00  0.00    -0.166 OA 
HETATM   11  C   UNL     1      -9.680  12.367  67.650  1.00  0.00    -0.195 C  
HETATM   12  C   UNL     1      -9.211  14.996  67.223  1.00  0.00    -0.210 C  
HETATM   13  C   UNL     1      -9.221  15.910  65.989  1.00  0.00    -0.337 C  
HETATM   14  O   UNL     1      -8.176  15.566  65.082  1.00  0.00     2.195 OA 
HETATM   15  C   UNL     1      -9.094  17.375  66.291  1.00  0.00    -0.232 C  
HETATM   16  C   UNL     1     -10.180  17.860  67.258  1.00  0.00    -0.360 C  
HETATM   17  H   UNL     1      -8.182  16.131  64.319  1.00  0.00     0.000 HD 
HETATM   18  C   UNL     1     -10.124  19.397  67.287  1.00  0.00    -0.497 C  
HETATM   19  C   UNL     1      -8.995  19.997  68.117  1.00  0.00    -0.193 C  
HETATM   20  O   UNL     1      -7.849  20.267  67.317  1.00  0.00    -0.301 OA 
HETATM   21  C   UNL     1      -8.651  19.217  69.373  1.00  0.00     0.137 C  
HETATM   22  C   UNL     1      -8.789  17.652  69.333  1.00  0.00     0.454 C  
HETATM   23  H   UNL     1      -7.145  20.641  67.834  1.00  0.00     0.000 HD 
HETATM   24  C   UNL     1     -10.084  17.110  68.645  1.00  0.00    -0.329 C  
HETATM   25  C   UNL     1     -11.275  17.502  69.556  1.00  0.00     1.173 C  
HETATM   26  C   UNL     1     -10.235  15.509  68.285  1.00  0.00    -0.222 C  
HETATM   27  C   UNL     1     -10.543  14.345  69.319  1.00  0.00    -0.190 C  
HETATM   28  C   UNL     1     -10.878  12.856  68.643  1.00  0.00    -0.258 C  
ENDROOT
BRANCH   2  29
HETATM   29  C   UNL     1      -6.537   9.311  64.154  1.00  0.00    -0.091 C  
HETATM   30  O   UNL     1      -5.205   7.841  62.833  1.00  0.00    -0.047 OA 
HETATM   31  C   UNL     1      -6.025   7.908  63.906  1.00  0.00    -0.057 C  
HETATM   32  O   UNL     1      -6.316   6.923  64.570  1.00  0.00    -0.035 OA 
ENDBRANCH   2  29
TORSDOF 1
ENDMDL
MODEL       81
REMARK 921   NORMALIZED FREE ENERGY PREDICTED BY IDOCK:   -0.42 KCAL/MOL
REMARK 922        TOTAL FREE ENERGY PREDICTED BY IDOCK:   -0.56 KCAL/MOL
REMARK 923 INTER-LIGAND FREE ENERGY PREDICTED BY IDOCK:   -0.64 KCAL/MOL
REMARK 924 INTRA-LIGAND FREE ENERGY PREDICTED BY IDOCK:    0.08 KCAL/MOL
REMARK 927      BINDING AFFINITY PREDICTED BY RF-SCORE:    0.00 PKD
ROOT
HETATM    1  C   UNL     1      -7.952  10.788  65.178  1.00  0.00     0.040 C  
HETATM    2  C   UNL     1      -8.618  10.186  63.880  1.00  0.00    -0.197 C  
HETATM    3  C   UNL     1      -6.462  10.315  65.154  1.00  0.00    -0.119 C  
HETATM    4  C   UNL     1      -8.155  12.544  65.546  1.00  0.00     2.127 C  
HETATM    5  C   UNL     1     -10.577  13.740  65.196  1.00  0.00    -0.385 C  
HETATM    6  C   UNL     1      -7.586  12.338  66.951  1.00  0.00     0.001 C  
HETATM    7  H   UNL     1      -8.394  15.794  65.041  1.00  0.00     0.000 HD 
HETATM    8  C   UNL     1      -8.766  11.878  67.790  1.00  0.00    -0.158 C  
HETATM    9  C   UNL     1      -9.590  13.123  67.707  1.00  0.00    -0.208 C  
HETATM   10  O   UNL     1      -9.120  16.094  65.576  1.00  0.00    -0.344 OA 
HETATM   11  C   UNL     1      -9.444  13.653  66.258  1.00  0.00    -0.209 C  
HETATM   12  C   UNL     1     -10.829  13.371  68.564  1.00  0.00    -0.285 C  
HETATM   13  C   UNL     1     -10.663  12.514  69.827  1.00  0.00     0.652 C  
HETATM   14  O   UNL     1     -10.840  11.129  69.539  1.00  0.00    -0.322 OA 
HETATM   15  C   UNL     1     -11.592  12.865  70.952  1.00  0.00     0.843 C  
HETATM   16  C   UNL     1     -11.479  14.340  71.353  1.00  0.00     0.368 C  
HETATM   17  H   UNL     1     -10.737  10.598  70.321  1.00  0.00     0.000 HD 
HETATM   18  C   UNL     1     -12.260  14.526  72.666  1.00  0.00    -0.198 C  
HETATM   19  C   UNL     1     -13.776  14.591  72.524  1.00  0.00    -0.476 C  
HETATM   20  O   UNL     1     -14.370  13.308  72.700  1.00  0.00    -0.679 OA 
HETATM   21  C   UNL     1     -14.263  15.284  71.265  1.00  0.00    -0.506 C  
HETATM   22  C   UNL     1     -13.403  15.135  69.957  1.00  0.00     0.362 C  
HETATM   23  H   UNL     1     -15.315  13.349  72.612  1.00  0.00     0.000 HD 
HETATM   24  C   UNL     1     -11.860  15.289  70.149  1.00  0.00    -0.356 C  
HETATM   25  C   UNL     1     -11.599  16.770  70.523  1.00  0.00     0.552 C  
HETATM   26  C   UNL     1     -10.821  14.888  68.935  1.00  0.00    -0.253 C  
HETATM   27  C   UNL     1     -10.537  15.743  67.628  1.00  0.00    -0.301 C  
HETATM   28  C   UNL     1      -9.263  15.217  66.688  1.00  0.00    -0.270 C  
ENDROOT
BRANCH   2  29
HETATM   29  C   UNL     1      -8.658   8.619  63.917  1.00  0.00    -0.019 C  
HETATM   30  O   UNL     1      -7.692   6.585  63.136  1.00  0.00    -0.081 OA 
HETATM   31  C   UNL     1      -7.604   7.933  63.073  1.00  0.00    -0.126 C  
HETATM   32  O   UNL     1      -6.745   8.503  62.415  1.00  0.00    -0.095 OA 
ENDBRANCH   2  29
TORSDOF 1
ENDMDL
MODEL       82
REMARK 921   NORMALIZED FREE ENERGY PREDICTED BY IDOCK:   -0.20 KCAL/MOL
REMARK 922        TOTAL FREE ENERGY PREDICTED BY IDOCK:   -0.33 KCAL/MOL
REMARK 923 INTER-LIGAND FREE ENERGY PREDICTED BY IDOCK:   -0.15 KCAL/MOL
REMARK 924 INTRA-LIGAND FREE ENERGY PREDICTED BY IDOCK:   -0.18 KCAL/MOL
REMARK 927      BINDING AFFINITY PREDICTED BY RF-SCORE:    0.00 PKD
ROOT
HETATM    1  C   UNL     1      -7.802   7.453  65.756  1.00  0.00    -0.108 C  
HETATM    2  C   UNL     1      -8.683   6.214  65.334  1.00  0.00    -0.071 C  
HETATM    3  C   UNL     1      -6.331   6.928  65.831  1.00  0.00    -0.050 C  
HETATM    4  C   UNL     1      -7.976   9.011  64.859  1.00  0.00    -0.126 C  
HETATM    5  C   UNL     1     -10.449   9.918  64.167  1.00  0.00     1.485 C  
HETATM    6  C   UNL     1      -7.150   9.740  65.921  1.00  0.00    -0.102 C  
HETATM    7  H   UNL     1      -8.385  11.085  62.328  1.00  0.00     0.000 HD 
HETATM    8  C   UNL     1      -8.142  10.093  67.017  1.00  0.00    -0.117 C  
HETATM    9  C   UNL     1      -8.997  11.041  66.239  1.00  0.00    -0.195 C  
HETATM   10  O   UNL     1      -9.006  11.742  62.619  1.00  0.00    -0.246 OA 
HETATM   11  C   UNL     1      -9.137  10.443  64.815  1.00  0.00    -0.247 C  
HETATM   12  C   UNL     1     -10.061  11.932  66.875  1.00  0.00    -0.229 C  
HETATM   13  C   UNL     1      -9.641  12.132  68.339  1.00  0.00    -0.186 C  
HETATM   14  O   UNL     1      -9.834  10.941  69.099  1.00  0.00    -0.290 OA 
HETATM   15  C   UNL     1     -10.352  13.245  69.051  1.00  0.00     0.014 C  
HETATM   16  C   UNL     1     -10.203  14.584  68.321  1.00  0.00    -0.234 C  
HETATM   17  H   UNL     1      -9.575  11.064  70.005  1.00  0.00     0.000 HD 
HETATM   18  C   UNL     1     -10.730  15.685  69.258  1.00  0.00    -0.239 C  
HETATM   19  C   UNL     1     -12.247  15.802  69.343  1.00  0.00    -0.127 C  
HETATM   20  O   UNL     1     -12.766  15.044  70.432  1.00  0.00    -0.443 OA 
HETATM   21  C   UNL     1     -12.978  15.520  68.043  1.00  0.00     2.484 C  
HETATM   22  C   UNL     1     -12.373  14.441  67.074  1.00  0.00    -0.133 C  
HETATM   23  H   UNL     1     -13.712  15.117  70.486  1.00  0.00     0.000 HD 
HETATM   24  C   UNL     1     -10.825  14.515  66.870  1.00  0.00    -0.305 C  
HETATM   25  C   UNL     1     -10.535  15.824  66.094  1.00  0.00    -0.326 C  
HETATM   26  C   UNL     1     -10.021  13.294  66.111  1.00  0.00    -0.295 C  
HETATM   27  C   UNL     1     -10.007  13.014  64.548  1.00  0.00    -0.148 C  
HETATM   28  C   UNL     1      -8.917  11.859  64.035  1.00  0.00     0.635 C  
ENDROOT
BRANCH   2  29
HETATM   29  C   UNL     1      -8.676   5.093  66.430  1.00  0.00    -0.113 C  
HETATM   30  O   UNL     1      -9.576   4.329  68.500  1.00  0.00    -0.154 OA 
HETATM   31  C   UNL     1      -9.632   5.320  67.582  1.00  0.00    -0.132 C  
HETATM   32  O   UNL     1     -10.394   6.270  67.691  1.00  0.00    -0.148 OA 
ENDBRANCH   2  29
TORSDOF 1
ENDMDL
MODEL       83
REMARK 921   NORMALIZED FREE ENERGY PREDICTED BY IDOCK:    0.22 KCAL/MOL
REMARK 922        TOTAL FREE ENERGY PREDICTED BY IDOCK:    0.11 KCAL/MOL
REMARK 923 INTER-LIGAND FREE ENERGY PREDICTED BY IDOCK:   -0.75 KCAL/MOL
REMARK 924 INTRA-LIGAND FREE ENERGY PREDICTED BY IDOCK:    0.86 KCAL/MOL
REMARK 927      BINDING AFFINITY PREDICTED BY RF-SCORE:    0.00 PKD
ROOT
HETATM    1  C   UNL     1     -11.601   9.984  69.304  1.00  0.00    -0.043 C  
HETATM    2  C   UNL     1     -13.146   9.663  69.273  1.00  0.00     3.150 C  
HETATM    3  C   UNL     1     -10.904   8.690  69.838  1.00  0.00    -0.210 C  
HETATM    4  C   UNL     1     -10.813  10.686  67.838  1.00  0.00    -0.328 C  
HETATM    5  C   UNL     1     -12.064  12.646  66.422  1.00  0.00    -0.330 C  
HETATM    6  C   UNL     1      -9.546  10.994  68.640  1.00  0.00    -0.198 C  
HETATM    7  H   UNL     1     -10.118  11.199  64.655  1.00  0.00     0.000 HD 
HETATM    8  C   UNL     1      -9.820  12.330  69.310  1.00  0.00     0.562 C  
HETATM    9  C   UNL     1      -9.912  13.175  68.079  1.00  0.00    -0.233 C  
HETATM   10  O   UNL     1     -10.059  12.140  64.544  1.00  0.00    -0.279 OA 
HETATM   11  C   UNL     1     -10.664  12.331  67.019  1.00  0.00    -0.263 C  
HETATM   12  C   UNL     1      -9.948  14.701  68.107  1.00  0.00    -0.224 C  
HETATM   13  C   UNL     1      -9.262  15.128  69.414  1.00  0.00    -0.175 C  
HETATM   14  O   UNL     1     -10.084  14.846  70.544  1.00  0.00    -0.408 OA 
HETATM   15  C   UNL     1      -8.884  16.579  69.480  1.00  0.00     0.233 C  
HETATM   16  C   UNL     1      -7.988  16.994  68.308  1.00  0.00    -0.222 C  
HETATM   17  H   UNL     1      -9.660  15.110  71.352  1.00  0.00     0.000 HD 
HETATM   18  C   UNL     1      -7.448  18.403  68.613  1.00  0.00    -0.314 C  
HETATM   19  C   UNL     1      -8.428  19.545  68.380  1.00  0.00    -0.350 C  
HETATM   20  O   UNL     1      -9.129  19.880  69.574  1.00  0.00     0.058 OA 
HETATM   21  C   UNL     1      -9.362  19.347  67.200  1.00  0.00    -0.390 C  
HETATM   22  C   UNL     1      -9.838  17.885  66.870  1.00  0.00    -0.321 C  
HETATM   23  H   UNL     1      -9.740  20.593  69.429  1.00  0.00     0.000 HD 
HETATM   24  C   UNL     1      -8.724  16.789  66.926  1.00  0.00    -0.242 C  
HETATM   25  C   UNL     1      -7.756  17.072  65.749  1.00  0.00     0.344 C  
HETATM   26  C   UNL     1      -9.119  15.191  66.877  1.00  0.00    -0.270 C  
HETATM   27  C   UNL     1      -9.568  14.379  65.589  1.00  0.00    -0.166 C  
HETATM   28  C   UNL     1      -9.674  12.725  65.784  1.00  0.00    -0.159 C  
ENDROOT
BRANCH   2  29
HETATM   29  C   UNL     1     -13.720   9.421  70.712  1.00  0.00     0.160 C  
HETATM   30  O   UNL     1     -13.589   9.978  73.026  1.00  0.00     0.519 OA 
HETATM   31  C   UNL     1     -13.061  10.234  71.807  1.00  0.00    -0.465 C  
HETATM   32  O   UNL     1     -12.167  11.050  71.640  1.00  0.00    -0.186 OA 
ENDBRANCH   2  29
TORSDOF 1
ENDMDL
MODEL       84
REMARK 921   NORMALIZED FREE ENERGY PREDICTED BY IDOCK:    0.27 KCAL/MOL
REMARK 922        TOTAL FREE ENERGY PREDICTED BY IDOCK:    0.17 KCAL/MOL
REMARK 923 INTER-LIGAND FREE ENERGY PREDICTED BY IDOCK:    0.36 KCAL/MOL
REMARK 924 INTRA-LIGAND FREE ENERGY PREDICTED BY IDOCK:   -0.19 KCAL/MOL
REMARK 927      BINDING AFFINITY PREDICTED BY RF-SCORE:    0.00 PKD
ROOT
HETATM    1  C   UNL     1     -10.708  13.366  65.798  1.00  0.00    -0.280 C  
HETATM    2  C   UNL     1     -12.020  12.674  66.337  1.00  0.00    -0.425 C  
HETATM    3  C   UNL     1     -10.301  12.571  64.514  1.00  0.00    -0.362 C  
HETATM    4  C   UNL     1     -10.674  15.159  65.589  1.00  0.00    -0.374 C  
HETATM    5  C   UNL     1     -11.773  16.775  67.485  1.00  0.00     0.813 C  
HETATM    6  C   UNL     1      -9.158  15.127  65.378  1.00  0.00     0.737 C  
HETATM    7  H   UNL     1     -11.713  18.199  64.844  1.00  0.00     0.000 HD 
HETATM    8  C   UNL     1      -8.567  15.134  66.778  1.00  0.00    -0.297 C  
HETATM    9  C   UNL     1      -9.035  16.488  67.205  1.00  0.00    -0.221 C  
HETATM   10  O   UNL     1     -11.420  18.761  65.551  1.00  0.00     0.564 OA 
HETATM   11  C   UNL     1     -10.470  16.656  66.645  1.00  0.00    -0.258 C  
HETATM   12  C   UNL     1      -8.548  17.186  68.473  1.00  0.00    -0.258 C  
HETATM   13  C   UNL     1      -7.166  16.597  68.790  1.00  0.00    -0.206 C  
HETATM   14  O   UNL     1      -7.272  15.260  69.274  1.00  0.00    -0.152 OA 
HETATM   15  C   UNL     1      -6.364  17.378  69.790  1.00  0.00    -0.142 C  
HETATM   16  C   UNL     1      -6.179  18.838  69.365  1.00  0.00    -0.289 C  
HETATM   17  H   UNL     1      -6.417  14.895  69.470  1.00  0.00     0.000 HD 
HETATM   18  C   UNL     1      -5.136  19.468  70.305  1.00  0.00    -0.213 C  
HETATM   19  C   UNL     1      -5.646  19.846  71.690  1.00  0.00    -0.388 C  
HETATM   20  O   UNL     1      -5.423  18.798  72.630  1.00  0.00     0.020 OA 
HETATM   21  C   UNL     1      -7.076  20.353  71.721  1.00  0.00     1.116 C  
HETATM   22  C   UNL     1      -8.100  19.741  70.697  1.00  0.00     1.646 C  
HETATM   23  H   UNL     1      -5.740  19.034  73.494  1.00  0.00     0.000 HD 
HETATM   24  C   UNL     1      -7.570  19.576  69.236  1.00  0.00    -0.237 C  
HETATM   25  C   UNL     1      -7.376  21.003  68.664  1.00  0.00     0.884 C  
HETATM   26  C   UNL     1      -8.423  18.704  68.129  1.00  0.00    -0.336 C  
HETATM   27  C   UNL     1      -9.739  19.180  67.379  1.00  0.00    -0.389 C  
HETATM   28  C   UNL     1     -10.254  18.192  66.137  1.00  0.00    -0.367 C  
ENDROOT
BRANCH   2  29
HETATM   29  C   UNL     1     -11.754  11.200  66.803  1.00  0.00     0.398 C  
HETATM   30  O   UNL     1     -11.313   9.741  68.635  1.00  0.00    -0.079 OA 
HETATM   31  C   UNL     1     -11.548  11.029  68.293  1.00  0.00    -0.284 C  
HETATM   32  O   UNL     1     -11.602  11.926  69.121  1.00  0.00    -0.262 OA 
ENDBRANCH   2  29
TORSDOF 1
ENDMDL
MODEL       85
REMARK 921   NORMALIZED FREE ENERGY PREDICTED BY IDOCK:    0.63 KCAL/MOL
REMARK 922        TOTAL FREE ENERGY PREDICTED BY IDOCK:    0.55 KCAL/MOL
REMARK 923 INTER-LIGAND FREE ENERGY PREDICTED BY IDOCK:    0.59 KCAL/MOL
REMARK 924 INTRA-LIGAND FREE ENERGY PREDICTED BY IDOCK:   -0.04 KCAL/MOL
REMARK 927      BINDING AFFINITY PREDICTED BY RF-SCORE:    0.00 PKD
ROOT
HETATM    1  C   UNL     1     -10.759  15.941  66.713  1.00  0.00    -0.281 C  
HETATM    2  C   UNL     1      -9.642  16.716  65.911  1.00  0.00    -0.248 C  
HETATM    3  C   UNL     1     -11.818  17.017  67.123  1.00  0.00     1.654 C  
HETATM    4  C   UNL     1     -11.478  14.442  66.007  1.00  0.00    -0.349 C  
HETATM    5  C   UNL     1      -9.880  12.609  64.782  1.00  0.00    -0.064 C  
HETATM    6  C   UNL     1     -12.157  14.115  67.339  1.00  0.00    -0.379 C  
HETATM    7  H   UNL     1     -12.685  12.369  63.744  1.00  0.00     0.000 HD 
HETATM    8  C   UNL     1     -11.096  13.396  68.155  1.00  0.00    -0.284 C  
HETATM    9  C   UNL     1     -10.950  12.179  67.298  1.00  0.00    -0.308 C  
HETATM   10  O   UNL     1     -12.308  11.518  63.935  1.00  0.00    -0.195 OA 
HETATM   11  C   UNL     1     -11.029  12.663  65.827  1.00  0.00    -0.313 C  
HETATM   12  C   UNL     1     -10.172  10.937  67.725  1.00  0.00    -0.209 C  
HETATM   13  C   UNL     1     -10.172  10.931  69.261  1.00  0.00    -0.166 C  
HETATM   14  O   UNL     1      -9.315  11.945  69.782  1.00  0.00     0.720 OA 
HETATM   15  C   UNL     1      -9.764   9.629  69.885  1.00  0.00    -0.262 C  
HETATM   16  C   UNL     1     -10.630   8.461  69.399  1.00  0.00    -0.204 C  
HETATM   17  H   UNL     1      -9.315  11.941  70.732  1.00  0.00     0.000 HD 
HETATM   18  C   UNL     1     -10.310   7.245  70.286  1.00  0.00    -0.219 C  
HETATM   19  C   UNL     1      -9.006   6.524  69.965  1.00  0.00    -0.144 C  
HETATM   20  O   UNL     1      -7.932   7.013  70.763  1.00  0.00    -0.099 OA 
HETATM   21  C   UNL     1      -8.654   6.481  68.489  1.00  0.00    -0.123 C  
HETATM   22  C   UNL     1      -9.060   7.708  67.595  1.00  0.00    -0.133 C  
HETATM   23  H   UNL     1      -7.120   6.563  70.564  1.00  0.00     0.000 HD 
HETATM   24  C   UNL     1     -10.500   8.266  67.837  1.00  0.00    -0.259 C  
HETATM   25  C   UNL     1     -11.491   7.182  67.342  1.00  0.00     0.463 C  
HETATM   26  C   UNL     1     -10.962   9.704  67.180  1.00  0.00    -0.066 C  
HETATM   27  C   UNL     1     -11.340   9.958  65.659  1.00  0.00     2.216 C  
HETATM   28  C   UNL     1     -12.001  11.453  65.324  1.00  0.00     0.725 C  
ENDROOT
BRANCH   2  29
HETATM   29  C   UNL     1      -8.885  17.749  66.816  1.00  0.00    -0.275 C  
HETATM   30  O   UNL     1      -7.468  18.078  68.704  1.00  0.00    -0.272 OA 
HETATM   31  C   UNL     1      -8.091  17.141  67.952  1.00  0.00    -0.201 C  
HETATM   32  O   UNL     1      -7.987  15.944  68.181  1.00  0.00    -0.134 OA 
ENDBRANCH   2  29
TORSDOF 1
ENDMDL
MODEL       86
REMARK 921   NORMALIZED FREE ENERGY PREDICTED BY IDOCK:    1.12 KCAL/MOL
REMARK 922        TOTAL FREE ENERGY PREDICTED BY IDOCK:    1.07 KCAL/MOL
REMARK 923 INTER-LIGAND FREE ENERGY PREDICTED BY IDOCK:    1.22 KCAL/MOL
REMARK 924 INTRA-LIGAND FREE ENERGY PREDICTED BY IDOCK:   -0.15 KCAL/MOL
REMARK 927      BINDING AFFINITY PREDICTED BY RF-SCORE:    0.00 PKD
ROOT
HETATM    1  C   UNL     1      -7.646  14.770  67.105  1.00  0.00    -0.114 C  
HETATM    2  C   UNL     1      -9.024  15.486  67.389  1.00  0.00    -0.203 C  
HETATM    3  C   UNL     1      -6.727  15.854  66.451  1.00  0.00     1.154 C  
HETATM    4  C   UNL     1      -6.845  13.833  68.424  1.00  0.00    -0.101 C  
HETATM    5  C   UNL     1      -8.325  12.222  70.045  1.00  0.00     3.056 C  
HETATM    6  C   UNL     1      -5.854  13.232  67.425  1.00  0.00     0.051 C  
HETATM    7  H   UNL     1      -5.804  13.041  71.452  1.00  0.00     0.000 HD 
HETATM    8  C   UNL     1      -6.578  12.040  66.822  1.00  0.00     0.037 C  
HETATM    9  C   UNL     1      -6.690  11.205  68.058  1.00  0.00    -0.062 C  
HETATM   10  O   UNL     1      -5.980  12.113  71.560  1.00  0.00    -0.039 OA 
HETATM   11  C   UNL     1      -7.008  12.179  69.221  1.00  0.00    -0.010 C  
HETATM   12  C   UNL     1      -7.133   9.744  68.049  1.00  0.00    -0.079 C  
HETATM   13  C   UNL     1      -6.808   9.199  66.650  1.00  0.00    -0.080 C  
HETATM   14  O   UNL     1      -7.697   9.729  65.670  1.00  0.00    -0.107 OA 
HETATM   15  C   UNL     1      -6.845   7.704  66.534  1.00  0.00    -0.062 C  
HETATM   16  C   UNL     1      -5.913   7.025  67.544  1.00  0.00    -0.025 C  
HETATM   17  H   UNL     1      -7.496   9.392  64.805  1.00  0.00     0.000 HD 
HETATM   18  C   UNL     1      -5.824   5.536  67.166  1.00  0.00    -0.018 C  
HETATM   19  C   UNL     1      -7.021   4.684  67.568  1.00  0.00    -0.061 C  
HETATM   20  O   UNL     1      -7.970   4.589  66.510  1.00  0.00    -0.101 OA 
HETATM   21  C   UNL     1      -7.664   5.079  68.885  1.00  0.00    -0.077 C  
HETATM   22  C   UNL     1      -7.674   6.601  69.277  1.00  0.00    -0.102 C  
HETATM   23  H   UNL     1      -8.716   4.058  66.760  1.00  0.00     0.000 HD 
HETATM   24  C   UNL     1      -6.334   7.366  69.028  1.00  0.00    -0.039 C  
HETATM   25  C   UNL     1      -5.298   6.797  70.030  1.00  0.00    -0.015 C  
HETATM   26  C   UNL     1      -6.276   9.010  69.129  1.00  0.00    -0.042 C  
HETATM   27  C   UNL     1      -6.278   9.864  70.466  1.00  0.00    -0.101 C  
HETATM   28  C   UNL     1      -5.971  11.493  70.278  1.00  0.00    -0.160 C  
ENDROOT
BRANCH   2  29
HETATM   29  C   UNL     1      -9.739  15.922  66.063  1.00  0.00    -0.375 C  
HETATM   30  O   UNL     1     -10.704  17.710  64.818  1.00  0.00    -0.540 OA 
HETATM   31  C   UNL     1     -10.081  17.394  65.976  1.00  0.00    -0.262 C  
HETATM   32  O   UNL     1      -9.819  18.231  66.828  1.00  0.00    -0.308 OA 
ENDBRANCH   2  29
TORSDOF 1
ENDMDL
MODEL       87
REMARK 921   NORMALIZED FREE ENERGY PREDICTED BY IDOCK:    1.31 KCAL/MOL
REMARK 922        TOTAL FREE ENERGY PREDICTED BY IDOCK:    1.28 KCAL/MOL
REMARK 923 INTER-LIGAND FREE ENERGY PREDICTED BY IDOCK:   -0.48 KCAL/MOL
REMARK 924 INTRA-LIGAND FREE ENERGY PREDICTED BY IDOCK:    1.75 KCAL/MOL
REMARK 927      BINDING AFFINITY PREDICTED BY RF-SCORE:    0.00 PKD
ROOT
HETATM    1  C   UNL     1     -10.127   8.826  67.160  1.00  0.00    -0.320 C  
HETATM    2  C   UNL     1      -8.964   7.965  67.791  1.00  0.00    -0.128 C  
HETATM    3  C   UNL     1     -11.069   7.808  66.436  1.00  0.00     1.597 C  
HETATM    4  C   UNL     1     -11.000  10.025  68.189  1.00  0.00    -0.289 C  
HETATM    5  C   UNL     1      -9.614  11.605  69.920  1.00  0.00     1.777 C  
HETATM    6  C   UNL     1     -11.671  10.629  66.953  1.00  0.00     0.965 C  
HETATM    7  H   UNL     1     -12.456  11.332  70.844  1.00  0.00     0.000 HD 
HETATM    8  C   UNL     1     -10.661  11.621  66.402  1.00  0.00    -0.299 C  
HETATM    9  C   UNL     1     -10.652  12.581  67.548  1.00  0.00    -0.238 C  
HETATM   10  O   UNL     1     -12.155  12.232  70.896  1.00  0.00    -0.296 OA 
HETATM   11  C   UNL     1     -10.725  11.728  68.840  1.00  0.00    -0.241 C  
HETATM   12  C   UNL     1      -9.983  13.952  67.493  1.00  0.00    -0.240 C  
HETATM   13  C   UNL     1      -9.942  14.356  66.011  1.00  0.00    -0.317 C  
HETATM   14  O   UNL     1      -8.981  13.587  65.292  1.00  0.00     0.323 OA 
HETATM   15  C   UNL     1      -9.641  15.805  65.763  1.00  0.00    -0.355 C  
HETATM   16  C   UNL     1     -10.624  16.730  66.487  1.00  0.00    -0.198 C  
HETATM   17  H   UNL     1      -8.956  13.837  64.376  1.00  0.00     0.000 HD 
HETATM   18  C   UNL     1     -10.396  18.157  65.958  1.00  0.00    -0.360 C  
HETATM   19  C   UNL     1      -9.174  18.876  66.517  1.00  0.00    -0.331 C  
HETATM   20  O   UNL     1      -8.038  18.703  65.675  1.00  0.00    -0.434 OA 
HETATM   21  C   UNL     1      -8.867  18.565  67.971  1.00  0.00    -0.317 C  
HETATM   22  C   UNL     1      -9.181  17.118  68.500  1.00  0.00    -0.264 C  
HETATM   23  H   UNL     1      -7.277  19.151  66.023  1.00  0.00     0.000 HD 
HETATM   24  C   UNL     1     -10.555  16.524  68.052  1.00  0.00    -0.328 C  
HETATM   25  C   UNL     1     -11.656  17.355  68.757  1.00  0.00     1.207 C  
HETATM   26  C   UNL     1     -10.898  14.931  68.295  1.00  0.00    -0.257 C  
HETATM   27  C   UNL     1     -11.291  14.261  69.679  1.00  0.00    -0.292 C  
HETATM   28  C   UNL     1     -11.819  12.680  69.588  1.00  0.00    -0.311 C  
ENDROOT
BRANCH   2  29
HETATM   29  C   UNL     1      -8.090   7.269  66.691  1.00  0.00    -0.113 C  
HETATM   30  O   UNL     1      -7.429   7.235  64.402  1.00  0.00    -0.082 OA 
HETATM   31  C   UNL     1      -8.195   7.880  65.310  1.00  0.00    -0.145 C  
HETATM   32  O   UNL     1      -8.870   8.858  65.020  1.00  0.00    -0.190 OA 
ENDBRANCH   2  29
TORSDOF 1
ENDMDL
MODEL       88
REMARK 921   NORMALIZED FREE ENERGY PREDICTED BY IDOCK:    2.05 KCAL/MOL
REMARK 922        TOTAL FREE ENERGY PREDICTED BY IDOCK:    2.05 KCAL/MOL
REMARK 923 INTER-LIGAND FREE ENERGY PREDICTED BY IDOCK:    1.78 KCAL/MOL
REMARK 924 INTRA-LIGAND FREE ENERGY PREDICTED BY IDOCK:    0.27 KCAL/MOL
REMARK 927      BINDING AFFINITY PREDICTED BY RF-SCORE:    0.00 PKD
ROOT
HETATM    1  C   UNL     1      -8.694  10.011  69.669  1.00  0.00    -0.210 C  
HETATM    2  C   UNL     1      -9.328   8.894  68.753  1.00  0.00    -0.137 C  
HETATM    3  C   UNL     1      -8.222   9.283  70.970  1.00  0.00    -0.122 C  
HETATM    4  C   UNL     1      -7.463  11.135  68.973  1.00  0.00    -0.124 C  
HETATM    5  C   UNL     1      -7.818  12.173  66.481  1.00  0.00     0.190 C  
HETATM    6  C   UNL     1      -7.551  12.032  70.209  1.00  0.00     2.550 C  
HETATM    7  H   UNL     1      -4.899  12.172  67.177  1.00  0.00     0.000 HD 
HETATM    8  C   UNL     1      -8.740  12.943  69.950  1.00  0.00     2.906 C  
HETATM    9  C   UNL     1      -8.194  13.682  68.770  1.00  0.00     0.021 C  
HETATM   10  O   UNL     1      -5.165  12.995  66.784  1.00  0.00    -0.027 OA 
HETATM   11  C   UNL     1      -7.431  12.642  67.912  1.00  0.00    -0.124 C  
HETATM   12  C   UNL     1      -8.850  14.928  68.180  1.00  0.00    -0.174 C  
HETATM   13  C   UNL     1      -9.666  15.568  69.314  1.00  0.00    -0.272 C  
HETATM   14  O   UNL     1     -10.829  14.799  69.611  1.00  0.00    -0.256 OA 
HETATM   15  C   UNL     1     -10.110  16.977  69.051  1.00  0.00    -0.290 C  
HETATM   16  C   UNL     1      -8.931  17.901  68.726  1.00  0.00    -0.203 C  
HETATM   17  H   UNL     1     -11.333  15.194  70.312  1.00  0.00     0.000 HD 
HETATM   18  C   UNL     1      -9.457  19.347  68.739  1.00  0.00    -0.464 C  
HETATM   19  C   UNL     1     -10.241  19.771  67.504  1.00  0.00    -0.436 C  
HETATM   20  O   UNL     1     -11.641  19.577  67.686  1.00  0.00     0.206 OA 
HETATM   21  C   UNL     1      -9.741  19.175  66.201  1.00  0.00    -0.360 C  
HETATM   22  C   UNL     1      -9.142  17.722  66.234  1.00  0.00    -0.198 C  
HETATM   23  H   UNL     1     -12.131  19.842  66.916  1.00  0.00     0.000 HD 
HETATM   24  C   UNL     1      -8.174  17.423  67.424  1.00  0.00    -0.212 C  
HETATM   25  C   UNL     1      -6.901  18.276  67.194  1.00  0.00    -0.209 C  
HETATM   26  C   UNL     1      -7.691  15.881  67.744  1.00  0.00    -0.156 C  
HETATM   27  C   UNL     1      -6.614  15.050  66.926  1.00  0.00     0.888 C  
HETATM   28  C   UNL     1      -6.147  13.604  67.616  1.00  0.00    -0.097 C  
ENDROOT
BRANCH   2  29
HETATM   29  C   UNL     1     -10.616   8.273  69.397  1.00  0.00    -0.203 C  
HETATM   30  O   UNL     1     -11.539   6.483  70.672  1.00  0.00    -0.348 OA 
HETATM   31  C   UNL     1     -10.394   6.977  70.147  1.00  0.00    -0.197 C  
HETATM   32  O   UNL     1      -9.314   6.423  70.297  1.00  0.00    -0.157 OA 
ENDBRANCH   2  29
TORSDOF 1
ENDMDL
MODEL       89
REMARK 921   NORMALIZED FREE ENERGY PREDICTED BY IDOCK:    2.94 KCAL/MOL
REMARK 922        TOTAL FREE ENERGY PREDICTED BY IDOCK:    2.99 KCAL/MOL
REMARK 923 INTER-LIGAND FREE ENERGY PREDICTED BY IDOCK:   -0.55 KCAL/MOL
REMARK 924 INTRA-LIGAND FREE ENERGY PREDICTED BY IDOCK:    3.54 KCAL/MOL
REMARK 927      BINDING AFFINITY PREDICTED BY RF-SCORE:    0.00 PKD
ROOT
HETATM    1  C   UNL     1     -11.068   8.744  70.374  1.00  0.00    -0.261 C  
HETATM    2  C   UNL     1     -10.785   8.306  71.863  1.00  0.00    -0.350 C  
HETATM    3  C   UNL     1     -11.634   7.476  69.654  1.00  0.00     0.277 C  
HETATM    4  C   UNL     1     -12.016  10.248  70.058  1.00  0.00    -0.273 C  
HETATM    5  C   UNL     1     -11.554  12.489  71.533  1.00  0.00     2.328 C  
HETATM    6  C   UNL     1     -11.638  10.201  68.575  1.00  0.00     0.013 C  
HETATM    7  H   UNL     1     -14.336  12.564  70.413  1.00  0.00     0.000 HD 
HETATM    8  C   UNL     1     -10.276  10.870  68.497  1.00  0.00    -0.197 C  
HETATM    9  C   UNL     1     -10.685  12.246  68.917  1.00  0.00    -0.210 C  
HETATM   10  O   UNL     1     -13.896  13.400  70.313  1.00  0.00     1.320 OA 
HETATM   11  C   UNL     1     -11.731  12.069  70.047  1.00  0.00    -0.346 C  
HETATM   12  C   UNL     1      -9.773  13.465  68.809  1.00  0.00     0.002 C  
HETATM   13  C   UNL     1      -8.761  13.154  67.696  1.00  0.00    -0.192 C  
HETATM   14  O   UNL     1      -7.812  12.178  68.119  1.00  0.00    -0.129 OA 
HETATM   15  C   UNL     1      -7.995  14.343  67.194  1.00  0.00    -0.147 C  
HETATM   16  C   UNL     1      -8.922  15.460  66.703  1.00  0.00    -0.319 C  
HETATM   17  H   UNL     1      -7.186  11.985  67.430  1.00  0.00     0.000 HD 
HETATM   18  C   UNL     1      -8.052  16.499  65.974  1.00  0.00    -0.053 C  
HETATM   19  C   UNL     1      -7.256  17.436  66.874  1.00  0.00    -0.196 C  
HETATM   20  O   UNL     1      -5.942  16.940  67.108  1.00  0.00    -0.142 OA 
HETATM   21  C   UNL     1      -7.962  17.829  68.159  1.00  0.00    -0.263 C  
HETATM   22  C   UNL     1      -8.902  16.770  68.840  1.00  0.00    -0.228 C  
HETATM   23  H   UNL     1      -5.445  17.524  67.669  1.00  0.00     0.000 HD 
HETATM   24  C   UNL     1      -9.846  15.988  67.870  1.00  0.00    -0.226 C  
HETATM   25  C   UNL     1     -10.876  17.010  67.326  1.00  0.00    -0.123 C  
HETATM   26  C   UNL     1     -10.680  14.668  68.395  1.00  0.00    -0.242 C  
HETATM   27  C   UNL     1     -11.975  14.685  69.313  1.00  0.00    -0.337 C  
HETATM   28  C   UNL     1     -12.748  13.217  69.491  1.00  0.00     0.499 C  
ENDROOT
BRANCH   2  29
HETATM   29  C   UNL     1      -9.659   7.218  71.948  1.00  0.00    -0.164 C  
HETATM   30  O   UNL     1      -8.888   5.090  71.201  1.00  0.00    -0.125 OA 
HETATM   31  C   UNL     1      -9.884   5.997  71.081  1.00  0.00    -0.179 C  
HETATM   32  O   UNL     1     -10.835   5.829  70.332  1.00  0.00    -0.291 OA 
ENDBRANCH   2  29
TORSDOF 1
ENDMDL
MODEL       90
REMARK 921   NORMALIZED FREE ENERGY PREDICTED BY IDOCK:    3.11 KCAL/MOL
REMARK 922        TOTAL FREE ENERGY PREDICTED BY IDOCK:    3.18 KCAL/MOL
REMARK 923 INTER-LIGAND FREE ENERGY PREDICTED BY IDOCK:    3.36 KCAL/MOL
REMARK 924 INTRA-LIGAND FREE ENERGY PREDICTED BY IDOCK:   -0.19 KCAL/MOL
REMARK 927      BINDING AFFINITY PREDICTED BY RF-SCORE:    0.00 PKD
ROOT
HETATM    1  C   UNL     1     -10.754   7.093  72.187  1.00  0.00    -0.245 C  
HETATM    2  C   UNL     1     -10.267   6.941  73.681  1.00  0.00    -0.372 C  
HETATM    3  C   UNL     1     -11.303   5.689  71.770  1.00  0.00    -0.181 C  
HETATM    4  C   UNL     1     -11.844   8.463  71.746  1.00  0.00    -0.374 C  
HETATM    5  C   UNL     1     -11.382  10.952  72.750  1.00  0.00     7.134 C  
HETATM    6  C   UNL     1     -11.639   8.175  70.257  1.00  0.00     0.011 C  
HETATM    7  H   UNL     1     -14.275  10.678  72.001  1.00  0.00     0.000 HD 
HETATM    8  C   UNL     1     -10.350   8.893  69.892  1.00  0.00    -0.215 C  
HETATM    9  C   UNL     1     -10.810  10.297  70.123  1.00  0.00    -0.362 C  
HETATM   10  O   UNL     1     -13.914  11.505  71.705  1.00  0.00     0.526 OA 
HETATM   11  C   UNL     1     -11.700  10.267  71.391  1.00  0.00    -0.312 C  
HETATM   12  C   UNL     1     -10.012  11.526  69.695  1.00  0.00     0.689 C  
HETATM   13  C   UNL     1      -9.116  11.078  68.530  1.00  0.00    -0.173 C  
HETATM   14  O   UNL     1      -8.054  10.244  68.985  1.00  0.00    -0.112 OA 
HETATM   15  C   UNL     1      -8.506  12.198  67.739  1.00  0.00    -0.160 C  
HETATM   16  C   UNL     1      -9.566  13.160  67.190  1.00  0.00    -0.235 C  
HETATM   17  H   UNL     1      -7.500   9.967  68.265  1.00  0.00     0.000 HD 
HETATM   18  C   UNL     1      -8.868  14.098  66.190  1.00  0.00     0.302 C  
HETATM   19  C   UNL     1      -8.046  15.222  66.809  1.00  0.00    -0.131 C  
HETATM   20  O   UNL     1      -6.679  14.847  66.953  1.00  0.00    -0.269 OA 
HETATM   21  C   UNL     1      -8.624  15.797  68.089  1.00  0.00    -0.164 C  
HETATM   22  C   UNL     1      -9.395  14.826  69.055  1.00  0.00    -0.160 C  
HETATM   23  H   UNL     1      -6.166  15.547  67.339  1.00  0.00     0.000 HD 
HETATM   24  C   UNL     1     -10.384  13.835  68.360  1.00  0.00    -0.247 C  
HETATM   25  C   UNL     1     -11.546  14.687  67.788  1.00  0.00    -0.382 C  
HETATM   26  C   UNL     1     -11.049  12.586  69.204  1.00  0.00    -0.254 C  
HETATM   27  C   UNL     1     -12.225  12.695  70.264  1.00  0.00    -0.347 C  
HETATM   28  C   UNL     1     -12.859  11.242  70.785  1.00  0.00    -0.191 C  
ENDROOT
BRANCH   2  29
HETATM   29  C   UNL     1      -9.059   5.948  73.802  1.00  0.00    -0.127 C  
HETATM   30  O   UNL     1      -6.703   5.702  74.060  1.00  0.00    -0.077 OA 
HETATM   31  C   UNL     1      -7.706   6.605  73.970  1.00  0.00    -0.095 C  
HETATM   32  O   UNL     1      -7.510   7.810  74.041  1.00  0.00    -0.118 OA 
ENDBRANCH   2  29
TORSDOF 1
ENDMDL
MODEL       91
REMARK 921   NORMALIZED FREE ENERGY PREDICTED BY IDOCK:    3.37 KCAL/MOL
REMARK 922        TOTAL FREE ENERGY PREDICTED BY IDOCK:    3.46 KCAL/MOL
REMARK 923 INTER-LIGAND FREE ENERGY PREDICTED BY IDOCK:    3.17 KCAL/MOL
REMARK 924 INTRA-LIGAND FREE ENERGY PREDICTED BY IDOCK:    0.29 KCAL/MOL
REMARK 927      BINDING AFFINITY PREDICTED BY RF-SCORE:    0.00 PKD
ROOT
HETATM    1  C   UNL     1     -11.075   6.600  71.152  1.00  0.00    -0.326 C  
HETATM    2  C   UNL     1      -9.858   6.236  72.087  1.00  0.00    -0.171 C  
HETATM    3  C   UNL     1     -12.038   5.369  71.201  1.00  0.00     1.764 C  
HETATM    4  C   UNL     1     -11.910   8.188  71.361  1.00  0.00    -0.329 C  
HETATM    5  C   UNL     1     -10.454  10.450  71.785  1.00  0.00     3.094 C  
HETATM    6  C   UNL     1     -12.668   7.987  70.047  1.00  0.00     1.581 C  
HETATM    7  H   UNL     1     -13.227  10.805  72.874  1.00  0.00     0.000 HD 
HETATM    8  C   UNL     1     -11.715   8.467  68.965  1.00  0.00     1.307 C  
HETATM    9  C   UNL     1     -11.656   9.911  69.352  1.00  0.00    -0.004 C  
HETATM   10  O   UNL     1     -12.943  11.568  72.384  1.00  0.00    -0.137 OA 
HETATM   11  C   UNL     1     -11.631   9.952  70.901  1.00  0.00    -0.456 C  
HETATM   12  C   UNL     1     -11.021  10.991  68.480  1.00  0.00    -0.276 C  
HETATM   13  C   UNL     1     -11.080  10.473  67.035  1.00  0.00    -0.110 C  
HETATM   14  O   UNL     1     -10.148   9.414  66.827  1.00  0.00    -0.222 OA 
HETATM   15  C   UNL     1     -10.825  11.513  65.984  1.00  0.00    -0.330 C  
HETATM   16  C   UNL     1     -11.782  12.704  66.108  1.00  0.00    -0.461 C  
HETATM   17  H   UNL     1     -10.185   9.094  65.934  1.00  0.00     0.000 HD 
HETATM   18  C   UNL     1     -11.617  13.566  64.845  1.00  0.00    -0.355 C  
HETATM   19  C   UNL     1     -10.379  14.454  64.814  1.00  0.00    -0.320 C  
HETATM   20  O   UNL     1      -9.294  13.810  64.153  1.00  0.00     0.472 OA 
HETATM   21  C   UNL     1      -9.977  15.026  66.161  1.00  0.00    -0.313 C  
HETATM   22  C   UNL     1     -10.227  14.148  67.441  1.00  0.00    -0.244 C  
HETATM   23  H   UNL     1      -8.522  14.363  64.134  1.00  0.00     0.000 HD 
HETATM   24  C   UNL     1     -11.613  13.429  67.501  1.00  0.00    -0.382 C  
HETATM   25  C   UNL     1     -12.686  14.534  67.671  1.00  0.00     0.927 C  
HETATM   26  C   UNL     1     -11.906  12.268  68.633  1.00  0.00    -0.354 C  
HETATM   27  C   UNL     1     -12.199  12.518  70.173  1.00  0.00    -0.307 C  
HETATM   28  C   UNL     1     -12.697  11.180  71.036  1.00  0.00    -0.378 C  
ENDROOT
BRANCH   2  29
HETATM   29  C   UNL     1      -9.038   5.020  71.532  1.00  0.00    -0.169 C  
HETATM   30  O   UNL     1      -8.659   2.669  71.621  1.00  0.00    -0.063 OA 
HETATM   31  C   UNL     1      -9.403   3.678  72.130  1.00  0.00    -0.125 C  
HETATM   32  O   UNL     1     -10.277   3.490  72.963  1.00  0.00    -0.145 OA 
ENDBRANCH   2  29
TORSDOF 1
ENDMDL
MODEL       92
REMARK 921   NORMALIZED FREE ENERGY PREDICTED BY IDOCK:    5.10 KCAL/MOL
REMARK 922        TOTAL FREE ENERGY PREDICTED BY IDOCK:    5.28 KCAL/MOL
REMARK 923 INTER-LIGAND FREE ENERGY PREDICTED BY IDOCK:    5.02 KCAL/MOL
REMARK 924 INTRA-LIGAND FREE ENERGY PREDICTED BY IDOCK:    0.27 KCAL/MOL
REMARK 927      BINDING AFFINITY PREDICTED BY RF-SCORE:    0.00 PKD
ROOT
HETATM    1  C   UNL     1     -11.666  13.698  64.421  1.00  0.00    -0.444 C  
HETATM    2  C   UNL     1     -11.022  14.691  63.377  1.00  0.00     2.785 C  
HETATM    3  C   UNL     1     -13.214  13.869  64.278  1.00  0.00     1.150 C  
HETATM    4  C   UNL     1     -11.122  11.976  64.459  1.00  0.00    -0.384 C  
HETATM    5  C   UNL     1      -8.476  11.376  64.229  1.00  0.00     0.634 C  
HETATM    6  C   UNL     1     -11.859  11.750  65.781  1.00  0.00     0.036 C  
HETATM    7  H   UNL     1     -10.131   9.029  63.359  1.00  0.00     0.000 HD 
HETATM    8  C   UNL     1     -10.895  12.228  66.854  1.00  0.00    -0.290 C  
HETATM    9  C   UNL     1      -9.816  11.215  66.645  1.00  0.00    -0.231 C  
HETATM   10  O   UNL     1      -9.414   8.762  63.922  1.00  0.00     0.803 OA 
HETATM   11  C   UNL     1      -9.699  11.005  65.114  1.00  0.00    -0.302 C  
HETATM   12  C   UNL     1      -8.643  11.024  67.604  1.00  0.00    -0.125 C  
HETATM   13  C   UNL     1      -9.117  11.529  68.975  1.00  0.00     0.141 C  
HETATM   14  O   UNL     1      -9.218  12.951  68.996  1.00  0.00    -0.351 OA 
HETATM   15  C   UNL     1      -8.249  11.120  70.129  1.00  0.00     1.694 C  
HETATM   16  C   UNL     1      -8.076   9.600  70.210  1.00  0.00    -0.206 C  
HETATM   17  H   UNL     1      -9.511  13.263  69.844  1.00  0.00     0.000 HD 
HETATM   18  C   UNL     1      -7.407   9.279  71.557  1.00  0.00     0.134 C  
HETATM   19  C   UNL     1      -5.907   9.539  71.624  1.00  0.00    -0.027 C  
HETATM   20  O   UNL     1      -5.628  10.839  72.134  1.00  0.00    -0.263 OA 
HETATM   21  C   UNL     1      -5.158   9.252  70.335  1.00  0.00    -0.027 C  
HETATM   22  C   UNL     1      -5.897   9.522  68.974  1.00  0.00    -0.035 C  
HETATM   23  H   UNL     1      -4.693  11.002  72.176  1.00  0.00     0.000 HD 
HETATM   24  C   UNL     1      -7.381   9.035  68.909  1.00  0.00    -0.074 C  
HETATM   25  C   UNL     1      -7.348   7.486  68.940  1.00  0.00    -0.094 C  
HETATM   26  C   UNL     1      -8.357   9.490  67.662  1.00  0.00    -0.125 C  
HETATM   27  C   UNL     1      -8.317   8.911  66.184  1.00  0.00    -0.125 C  
HETATM   28  C   UNL     1      -9.576   9.380  65.195  1.00  0.00    -0.124 C  
ENDROOT
BRANCH   2  29
HETATM   29  C   UNL     1     -11.330  16.188  63.729  1.00  0.00     1.095 C  
HETATM   30  O   UNL     1     -11.384  17.862  65.424  1.00  0.00     0.223 OA 
HETATM   31  C   UNL     1     -11.093  16.565  65.176  1.00  0.00    -0.129 C  
HETATM   32  O   UNL     1     -10.671  15.812  66.042  1.00  0.00    -0.323 OA 
ENDBRANCH   2  29
TORSDOF 1
ENDMDL
MODEL       93
REMARK 921   NORMALIZED FREE ENERGY PREDICTED BY IDOCK:    5.75 KCAL/MOL
REMARK 922        TOTAL FREE ENERGY PREDICTED BY IDOCK:    5.97 KCAL/MOL
REMARK 923 INTER-LIGAND FREE ENERGY PREDICTED BY IDOCK:    5.79 KCAL/MOL
REMARK 924 INTRA-LIGAND FREE ENERGY PREDICTED BY IDOCK:    0.19 KCAL/MOL
REMARK 927      BINDING AFFINITY PREDICTED BY RF-SCORE:    0.00 PKD
ROOT
HETATM    1  C   UNL     1     -12.026  15.886  69.064  1.00  0.00    -0.243 C  
HETATM    2  C   UNL     1     -11.658  16.392  70.512  1.00  0.00    -0.091 C  
HETATM    3  C   UNL     1     -13.222  16.776  68.589  1.00  0.00     4.953 C  
HETATM    4  C   UNL     1     -10.720  15.700  67.831  1.00  0.00    -0.294 C  
HETATM    5  C   UNL     1      -8.326  14.608  68.533  1.00  0.00    -0.162 C  
HETATM    6  C   UNL     1     -11.675  14.948  66.901  1.00  0.00    -0.260 C  
HETATM    7  H   UNL     1      -7.979  16.354  66.118  1.00  0.00     0.000 HD 
HETATM    8  C   UNL     1     -11.630  13.506  67.376  1.00  0.00    -0.392 C  
HETATM    9  C   UNL     1     -10.200  13.213  67.050  1.00  0.00    -0.250 C  
HETATM   10  O   UNL     1      -7.522  15.527  66.021  1.00  0.00     0.888 OA 
HETATM   11  C   UNL     1      -9.396  14.488  67.412  1.00  0.00    -0.197 C  
HETATM   12  C   UNL     1      -9.599  11.811  67.086  1.00  0.00    -0.189 C  
HETATM   13  C   UNL     1     -10.764  10.832  66.871  1.00  0.00    -0.252 C  
HETATM   14  O   UNL     1     -11.602  10.767  68.022  1.00  0.00    -0.515 OA 
HETATM   15  C   UNL     1     -10.352   9.430  66.529  1.00  0.00    -0.268 C  
HETATM   16  C   UNL     1      -9.448   9.381  65.293  1.00  0.00    -0.296 C  
HETATM   17  H   UNL     1     -12.323  10.162  67.889  1.00  0.00     0.000 HD 
HETATM   18  C   UNL     1      -9.308   7.905  64.879  1.00  0.00     1.053 C  
HETATM   19  C   UNL     1      -8.348   7.075  65.721  1.00  0.00    -0.143 C  
HETATM   20  O   UNL     1      -9.029   6.404  66.777  1.00  0.00    -0.122 OA 
HETATM   21  C   UNL     1      -7.124   7.828  66.212  1.00  0.00    -0.070 C  
HETATM   22  C   UNL     1      -7.283   9.353  66.558  1.00  0.00    -0.089 C  
HETATM   23  H   UNL     1      -8.431   5.886  67.302  1.00  0.00     0.000 HD 
HETATM   24  C   UNL     1      -8.112  10.191  65.531  1.00  0.00    -0.147 C  
HETATM   25  C   UNL     1      -7.278  10.255  64.226  1.00  0.00    -0.063 C  
HETATM   26  C   UNL     1      -8.593  11.724  65.894  1.00  0.00     0.135 C  
HETATM   27  C   UNL     1      -7.672  13.017  65.894  1.00  0.00     2.759 C  
HETATM   28  C   UNL     1      -8.474  14.470  66.066  1.00  0.00     1.035 C  
ENDROOT
BRANCH   2  29
HETATM   29  C   UNL     1     -12.822  16.139  71.532  1.00  0.00     0.133 C  
HETATM   30  O   UNL     1     -14.370  14.568  72.434  1.00  0.00    -0.463 OA 
HETATM   31  C   UNL     1     -13.364  14.725  71.545  1.00  0.00    -0.374 C  
HETATM   32  O   UNL     1     -12.949  13.804  70.856  1.00  0.00    -0.291 OA 
ENDBRANCH   2  29
TORSDOF 1
ENDMDL
MODEL       94
REMARK 921   NORMALIZED FREE ENERGY PREDICTED BY IDOCK:    9.50 KCAL/MOL
REMARK 922        TOTAL FREE ENERGY PREDICTED BY IDOCK:    9.94 KCAL/MOL
REMARK 923 INTER-LIGAND FREE ENERGY PREDICTED BY IDOCK:   10.05 KCAL/MOL
REMARK 924 INTRA-LIGAND FREE ENERGY PREDICTED BY IDOCK:   -0.11 KCAL/MOL
REMARK 927      BINDING AFFINITY PREDICTED BY RF-SCORE:    0.00 PKD
ROOT
HETATM    1  C   UNL     1      -9.923   7.900  70.503  1.00  0.00    -0.191 C  
HETATM    2  C   UNL     1      -8.451   7.731  71.046  1.00  0.00    -0.122 C  
HETATM    3  C   UNL     1     -10.702   6.627  70.971  1.00  0.00    -0.278 C  
HETATM    4  C   UNL     1     -10.805   9.447  70.800  1.00  0.00    -0.372 C  
HETATM    5  C   UNL     1      -9.515  11.829  70.524  1.00  0.00     5.016 C  
HETATM    6  C   UNL     1     -11.901   9.037  69.813  1.00  0.00     0.516 C  
HETATM    7  H   UNL     1     -11.854  12.146  72.378  1.00  0.00     0.000 HD 
HETATM    8  C   UNL     1     -11.368   9.436  68.447  1.00  0.00     0.285 C  
HETATM    9  C   UNL     1     -11.336  10.917  68.650  1.00  0.00    -0.360 C  
HETATM   10  O   UNL     1     -11.806  12.858  71.750  1.00  0.00     1.023 OA 
HETATM   11  C   UNL     1     -10.850  11.153  70.103  1.00  0.00     0.159 C  
HETATM   12  C   UNL     1     -11.101  11.917  67.521  1.00  0.00    -0.332 C  
HETATM   13  C   UNL     1     -11.541  11.220  66.225  1.00  0.00     0.335 C  
HETATM   14  O   UNL     1     -10.617  10.202  65.845  1.00  0.00    -0.117 OA 
HETATM   15  C   UNL     1     -11.717  12.134  65.048  1.00  0.00    -0.371 C  
HETATM   16  C   UNL     1     -12.703  13.270  65.343  1.00  0.00    -0.460 C  
HETATM   17  H   UNL     1     -10.890   9.771  65.044  1.00  0.00     0.000 HD 
HETATM   18  C   UNL     1     -13.010  13.976  64.011  1.00  0.00     0.700 C  
HETATM   19  C   UNL     1     -11.931  14.928  63.509  1.00  0.00     0.881 C  
HETATM   20  O   UNL     1     -11.038  14.274  62.613  1.00  0.00     2.580 OA 
HETATM   21  C   UNL     1     -11.200  15.687  64.601  1.00  0.00    -0.380 C  
HETATM   22  C   UNL     1     -10.966  14.962  65.976  1.00  0.00    -0.334 C  
HETATM   23  H   UNL     1     -10.365  14.867  62.299  1.00  0.00     0.000 HD 
HETATM   24  C   UNL     1     -12.193  14.172  66.535  1.00  0.00    -0.463 C  
HETATM   25  C   UNL     1     -13.268  15.222  66.918  1.00  0.00     3.510 C  
HETATM   26  C   UNL     1     -12.019  13.147  67.812  1.00  0.00    -0.352 C  
HETATM   27  C   UNL     1     -11.857  13.569  69.334  1.00  0.00    -0.389 C  
HETATM   28  C   UNL     1     -11.940  12.320  70.438  1.00  0.00    -0.263 C  
ENDROOT
BRANCH   2  29
HETATM   29  C   UNL     1      -7.723   6.508  70.389  1.00  0.00    -0.098 C  
HETATM   30  O   UNL     1      -5.645   5.414  69.978  1.00  0.00    -0.011 OA 
HETATM   31  C   UNL     1      -6.220   6.484  70.573  1.00  0.00    -0.039 C  
HETATM   32  O   UNL     1      -5.573   7.310  71.200  1.00  0.00    -0.030 OA 
ENDBRANCH   2  29
TORSDOF 1
ENDMDL
MODEL       95
REMARK 921   NORMALIZED FREE ENERGY PREDICTED BY IDOCK:   11.10 KCAL/MOL
REMARK 922        TOTAL FREE ENERGY PREDICTED BY IDOCK:   11.63 KCAL/MOL
REMARK 923 INTER-LIGAND FREE ENERGY PREDICTED BY IDOCK:   11.54 KCAL/MOL
REMARK 924 INTRA-LIGAND FREE ENERGY PREDICTED BY IDOCK:    0.10 KCAL/MOL
REMARK 927      BINDING AFFINITY PREDICTED BY RF-SCORE:    0.00 PKD
ROOT
HETATM    1  C   UNL     1      -8.726  19.531  69.268  1.00  0.00     0.006 C  
HETATM    2  C   UNL     1      -7.743  20.091  70.368  1.00  0.00     0.970 C  
HETATM    3  C   UNL     1      -9.276  20.781  68.506  1.00  0.00     0.659 C  
HETATM    4  C   UNL     1      -8.173  18.199  68.182  1.00  0.00    -0.284 C  
HETATM    5  C   UNL     1      -6.750  16.111  69.197  1.00  0.00    -0.190 C  
HETATM    6  C   UNL     1      -9.601  17.991  67.673  1.00  0.00    -0.271 C  
HETATM    7  H   UNL     1      -6.170  16.408  66.268  1.00  0.00     0.000 HD 
HETATM    8  C   UNL     1     -10.255  17.079  68.697  1.00  0.00    -0.321 C  
HETATM    9  C   UNL     1      -9.410  15.865  68.478  1.00  0.00    -0.206 C  
HETATM   10  O   UNL     1      -6.316  15.500  66.506  1.00  0.00     0.376 OA 
HETATM   11  C   UNL     1      -7.961  16.369  68.258  1.00  0.00    -0.170 C  
HETATM   12  C   UNL     1      -9.735  14.495  69.069  1.00  0.00    -0.124 C  
HETATM   13  C   UNL     1     -11.251  14.475  69.311  1.00  0.00    -0.281 C  
HETATM   14  O   UNL     1     -11.610  15.306  70.412  1.00  0.00    -0.261 OA 
HETATM   15  C   UNL     1     -11.829  13.113  69.564  1.00  0.00    -0.383 C  
HETATM   16  C   UNL     1     -11.510  12.132  68.431  1.00  0.00    -0.356 C  
HETATM   17  H   UNL     1     -12.548  15.294  70.562  1.00  0.00     0.000 HD 
HETATM   18  C   UNL     1     -12.360  10.869  68.656  1.00  0.00     0.345 C  
HETATM   19  C   UNL     1     -11.853   9.921  69.736  1.00  0.00     0.048 C  
HETATM   20  O   UNL     1     -12.462  10.194  70.994  1.00  0.00    -0.319 OA 
HETATM   21  C   UNL     1     -10.341   9.827  69.835  1.00  0.00    -0.291 C  
HETATM   22  C   UNL     1      -9.497  11.117  69.528  1.00  0.00     0.388 C  
HETATM   23  H   UNL     1     -12.147   9.603  71.667  1.00  0.00     0.000 HD 
HETATM   24  C   UNL     1      -9.951  11.931  68.273  1.00  0.00    -0.202 C  
HETATM   25  C   UNL     1      -9.640  11.056  67.033  1.00  0.00    -0.199 C  
HETATM   26  C   UNL     1      -9.346  13.437  67.988  1.00  0.00    -0.217 C  
HETATM   27  C   UNL     1      -7.898  13.771  67.428  1.00  0.00    -0.167 C  
HETATM   28  C   UNL     1      -7.641  15.366  67.011  1.00  0.00    -0.160 C  
ENDROOT
BRANCH   2  29
HETATM   29  C   UNL     1      -8.497  20.956  71.437  1.00  0.00     3.080 C  
HETATM   30  O   UNL     1     -10.275  21.058  73.021  1.00  0.00     4.308 OA 
HETATM   31  C   UNL     1      -9.658  20.262  72.118  1.00  0.00     2.810 C  
HETATM   32  O   UNL     1     -10.010  19.110  71.912  1.00  0.00     2.948 OA 
ENDBRANCH   2  29
TORSDOF 1
ENDMDL
MODEL       96
REMARK 921   NORMALIZED FREE ENERGY PREDICTED BY IDOCK:   11.51 KCAL/MOL
REMARK 922        TOTAL FREE ENERGY PREDICTED BY IDOCK:   12.07 KCAL/MOL
REMARK 923 INTER-LIGAND FREE ENERGY PREDICTED BY IDOCK:   12.18 KCAL/MOL
REMARK 924 INTRA-LIGAND FREE ENERGY PREDICTED BY IDOCK:   -0.11 KCAL/MOL
REMARK 927      BINDING AFFINITY PREDICTED BY RF-SCORE:    0.00 PKD
ROOT
HETATM    1  C   UNL     1     -12.229   7.280  72.025  1.00  0.00    -0.312 C  
HETATM    2  C   UNL     1     -11.681   5.938  72.650  1.00  0.00    -0.247 C  
HETATM    3  C   UNL     1     -13.514   7.639  72.841  1.00  0.00     1.006 C  
HETATM    4  C   UNL     1     -11.102   8.670  71.787  1.00  0.00    -0.396 C  
HETATM    5  C   UNL     1      -8.591   8.243  70.823  1.00  0.00    -0.147 C  
HETATM    6  C   UNL     1     -12.147   9.399  70.938  1.00  0.00    -0.327 C  
HETATM    7  H   UNL     1      -8.658  10.800  72.392  1.00  0.00     0.000 HD 
HETATM    8  C   UNL     1     -11.978   8.835  69.537  1.00  0.00     1.139 C  
HETATM    9  C   UNL     1     -10.597   9.341  69.264  1.00  0.00    -0.234 C  
HETATM   10  O   UNL     1      -8.186  10.904  71.574  1.00  0.00     4.691 OA 
HETATM   11  C   UNL     1      -9.802   9.189  70.586  1.00  0.00    -0.308 C  
HETATM   12  C   UNL     1      -9.940   9.293  67.887  1.00  0.00    -0.228 C  
HETATM   13  C   UNL     1     -11.083   9.270  66.861  1.00  0.00     0.474 C  
HETATM   14  O   UNL     1     -11.748   8.008  66.857  1.00  0.00     1.347 OA 
HETATM   15  C   UNL     1     -10.667   9.567  65.450  1.00  0.00     1.448 C  
HETATM   16  C   UNL     1      -9.944  10.913  65.335  1.00  0.00    -0.319 C  
HETATM   17  H   UNL     1     -12.455   7.994  66.222  1.00  0.00     0.000 HD 
HETATM   18  C   UNL     1      -9.804  11.239  63.838  1.00  0.00    -0.341 C  
HETATM   19  C   UNL     1      -8.702  10.486  63.103  1.00  0.00    -0.200 C  
HETATM   20  O   UNL     1      -9.201   9.299  62.493  1.00  0.00    -0.495 OA 
HETATM   21  C   UNL     1      -7.453  10.230  63.927  1.00  0.00    -0.077 C  
HETATM   22  C   UNL     1      -7.624   9.973  65.468  1.00  0.00    -0.136 C  
HETATM   23  H   UNL     1      -8.514   8.830  62.034  1.00  0.00     0.000 HD 
HETATM   24  C   UNL     1      -8.622  10.927  66.200  1.00  0.00    -0.170 C  
HETATM   25  C   UNL     1      -7.984  12.339  66.192  1.00  0.00     0.687 C  
HETATM   26  C   UNL     1      -9.109  10.608  67.742  1.00  0.00    -0.144 C  
HETATM   27  C   UNL     1      -8.250  10.830  69.058  1.00  0.00    -0.139 C  
HETATM   28  C   UNL     1      -9.079  10.648  70.495  1.00  0.00     1.880 C  
ENDROOT
BRANCH   2  29
HETATM   29  C   UNL     1     -12.679   4.746  72.439  1.00  0.00     1.701 C  
HETATM   30  O   UNL     1     -13.392   2.594  73.174  1.00  0.00     0.555 OA 
HETATM   31  C   UNL     1     -12.513   3.596  73.409  1.00  0.00     0.921 C  
HETATM   32  O   UNL     1     -11.702   3.554  74.323  1.00  0.00     0.549 OA 
ENDBRANCH   2  29
TORSDOF 1
ENDMDL
MODEL       97
REMARK 921   NORMALIZED FREE ENERGY PREDICTED BY IDOCK:   13.12 KCAL/MOL
REMARK 922        TOTAL FREE ENERGY PREDICTED BY IDOCK:   13.77 KCAL/MOL
REMARK 923 INTER-LIGAND FREE ENERGY PREDICTED BY IDOCK:   13.87 KCAL/MOL
REMARK 924 INTRA-LIGAND FREE ENERGY PREDICTED BY IDOCK:   -0.10 KCAL/MOL
REMARK 927      BINDING AFFINITY PREDICTED BY RF-SCORE:    0.00 PKD
ROOT
HETATM    1  C   UNL     1      -6.987  11.874  68.252  1.00  0.00    -0.077 C  
HETATM    2  C   UNL     1      -7.692  10.874  67.254  1.00  0.00    -0.112 C  
HETATM    3  C   UNL     1      -6.002  11.008  69.103  1.00  0.00    -0.043 C  
HETATM    4  C   UNL     1      -6.256  13.396  67.612  1.00  0.00    -0.145 C  
HETATM    5  C   UNL     1      -7.573  14.856  65.728  1.00  0.00     4.413 C  
HETATM    6  C   UNL     1      -6.082  13.936  69.033  1.00  0.00    -0.089 C  
HETATM    7  H   UNL     1      -4.630  15.420  65.578  1.00  0.00     0.000 HD 
HETATM    8  C   UNL     1      -7.424  14.557  69.384  1.00  0.00    -0.068 C  
HETATM    9  C   UNL     1      -7.424  15.659  68.372  1.00  0.00    -0.120 C  
HETATM   10  O   UNL     1      -5.142  16.218  65.532  1.00  0.00     1.996 OA 
HETATM   11  C   UNL     1      -6.822  15.065  67.073  1.00  0.00     0.386 C  
HETATM   12  C   UNL     1      -8.434  16.804  68.375  1.00  0.00    -0.231 C  
HETATM   13  C   UNL     1      -8.928  16.944  69.823  1.00  0.00     0.933 C  
HETATM   14  O   UNL     1      -9.785  15.863  70.183  1.00  0.00    -0.027 OA 
HETATM   15  C   UNL     1      -9.660  18.221  70.116  1.00  0.00     1.661 C  
HETATM   16  C   UNL     1      -8.823  19.457  69.772  1.00  0.00     0.635 C  
HETATM   17  H   UNL     1     -10.091  15.950  71.078  1.00  0.00     0.000 HD 
HETATM   18  C   UNL     1      -9.547  20.685  70.352  1.00  0.00     1.571 C  
HETATM   19  C   UNL     1     -10.752  21.172  69.556  1.00  0.00     1.381 C  
HETATM   20  O   UNL     1     -11.962  20.601  70.043  1.00  0.00     2.918 OA 
HETATM   21  C   UNL     1     -10.613  21.034  68.051  1.00  0.00     0.967 C  
HETATM   22  C   UNL     1      -9.805  19.807  67.492  1.00  0.00    -0.516 C  
HETATM   23  H   UNL     1     -12.713  20.905  69.547  1.00  0.00     0.000 HD 
HETATM   24  C   UNL     1      -8.465  19.493  68.233  1.00  0.00    -0.376 C  
HETATM   25  C   UNL     1      -7.497  20.665  67.930  1.00  0.00    -0.181 C  
HETATM   26  C   UNL     1      -7.656  18.088  67.943  1.00  0.00    -0.231 C  
HETATM   27  C   UNL     1      -6.783  17.761  66.658  1.00  0.00    -0.240 C  
HETATM   28  C   UNL     1      -5.884  16.358  66.739  1.00  0.00     0.170 C  
ENDROOT
BRANCH   2  29
HETATM   29  C   UNL     1      -8.577   9.823  68.010  1.00  0.00    -0.122 C  
HETATM   30  O   UNL     1     -10.186   8.075  67.823  1.00  0.00    -0.196 OA 
HETATM   31  C   UNL     1      -9.438   8.954  67.118  1.00  0.00    -0.157 C  
HETATM   32  O   UNL     1      -9.464   9.003  65.897  1.00  0.00    -0.231 OA 
ENDBRANCH   2  29
TORSDOF 1
ENDMDL
MODEL       98
REMARK 921   NORMALIZED FREE ENERGY PREDICTED BY IDOCK:   16.84 KCAL/MOL
REMARK 922        TOTAL FREE ENERGY PREDICTED BY IDOCK:   17.71 KCAL/MOL
REMARK 923 INTER-LIGAND FREE ENERGY PREDICTED BY IDOCK:   17.89 KCAL/MOL
REMARK 924 INTRA-LIGAND FREE ENERGY PREDICTED BY IDOCK:   -0.18 KCAL/MOL
REMARK 927      BINDING AFFINITY PREDICTED BY RF-SCORE:    0.00 PKD
ROOT
HETATM    1  C   UNL     1      -7.359  17.615  67.879  1.00  0.00    -0.203 C  
HETATM    2  C   UNL     1      -8.085  18.680  68.790  1.00  0.00    -0.307 C  
HETATM    3  C   UNL     1      -5.914  18.165  67.646  1.00  0.00    -0.162 C  
HETATM    4  C   UNL     1      -7.412  15.870  68.341  1.00  0.00    -0.127 C  
HETATM    5  C   UNL     1      -9.728  14.771  69.258  1.00  0.00    -0.098 C  
HETATM    6  C   UNL     1      -6.848  15.470  66.976  1.00  0.00     0.061 C  
HETATM    7  H   UNL     1      -7.384  13.182  70.251  1.00  0.00     0.000 HD 
HETATM    8  C   UNL     1      -8.055  15.411  66.054  1.00  0.00     1.040 C  
HETATM    9  C   UNL     1      -8.773  14.274  66.708  1.00  0.00    -0.161 C  
HETATM   10  O   UNL     1      -8.078  12.619  69.928  1.00  0.00     1.647 OA 
HETATM   11  C   UNL     1      -8.597  14.462  68.237  1.00  0.00    -0.170 C  
HETATM   12  C   UNL     1      -9.979  13.572  66.089  1.00  0.00    -0.310 C  
HETATM   13  C   UNL     1      -9.873  13.784  64.571  1.00  0.00     0.396 C  
HETATM   14  O   UNL     1     -10.167  15.132  64.215  1.00  0.00    -0.275 OA 
HETATM   15  C   UNL     1     -10.758  12.894  63.749  1.00  0.00    -0.320 C  
HETATM   16  C   UNL     1     -10.520  11.410  64.046  1.00  0.00    -0.435 C  
HETATM   17  H   UNL     1     -10.101  15.263  63.276  1.00  0.00     0.000 HD 
HETATM   18  C   UNL     1     -11.270  10.595  62.978  1.00  0.00     1.509 C  
HETATM   19  C   UNL     1     -12.776  10.481  63.178  1.00  0.00     4.916 C  
HETATM   20  O   UNL     1     -13.473  11.498  62.464  1.00  0.00     0.006 OA 
HETATM   21  C   UNL     1     -13.216  10.389  64.628  1.00  0.00     9.184 C  
HETATM   22  C   UNL     1     -12.384  11.175  65.705  1.00  0.00     2.727 C  
HETATM   23  H   UNL     1     -14.412  11.427  62.589  1.00  0.00     0.000 HD 
HETATM   24  C   UNL     1     -10.832  11.073  65.558  1.00  0.00    -0.159 C  
HETATM   25  C   UNL     1     -10.444   9.607  65.878  1.00  0.00     0.033 C  
HETATM   26  C   UNL     1      -9.841  12.055  66.435  1.00  0.00    -0.238 C  
HETATM   27  C   UNL     1      -9.500  11.901  67.977  1.00  0.00    -0.197 C  
HETATM   28  C   UNL     1      -8.283  12.891  68.546  1.00  0.00    -0.065 C  
ENDROOT
BRANCH   2  29
HETATM   29  C   UNL     1      -8.255  20.056  68.058  1.00  0.00    -0.256 C  
HETATM   30  O   UNL     1      -9.527  21.341  66.506  1.00  0.00     0.605 OA 
HETATM   31  C   UNL     1      -9.437  20.137  67.115  1.00  0.00    -0.406 C  
HETATM   32  O   UNL     1     -10.246  19.242  66.920  1.00  0.00    -0.343 OA 
ENDBRANCH   2  29
TORSDOF 1
ENDMDL
MODEL       99
REMARK 921   NORMALIZED FREE ENERGY PREDICTED BY IDOCK:   17.60 KCAL/MOL
REMARK 922        TOTAL FREE ENERGY PREDICTED BY IDOCK:   18.52 KCAL/MOL
REMARK 923 INTER-LIGAND FREE ENERGY PREDICTED BY IDOCK:   18.71 KCAL/MOL
REMARK 924 INTRA-LIGAND FREE ENERGY PREDICTED BY IDOCK:   -0.19 KCAL/MOL
REMARK 927      BINDING AFFINITY PREDICTED BY RF-SCORE:    0.00 PKD
ROOT
HETATM    1  C   UNL     1     -11.068   9.088  70.269  1.00  0.00    -0.263 C  
HETATM    2  C   UNL     1      -9.802   8.147  70.213  1.00  0.00    -0.184 C  
HETATM    3  C   UNL     1     -12.076   8.393  71.241  1.00  0.00    -0.315 C  
HETATM    4  C   UNL     1     -10.847  10.852  70.584  1.00  0.00     0.610 C  
HETATM    5  C   UNL     1      -8.826  12.213  69.369  1.00  0.00     1.110 C  
HETATM    6  C   UNL     1     -12.305  11.124  70.205  1.00  0.00    -0.373 C  
HETATM    7  H   UNL     1      -9.631  13.624  71.892  1.00  0.00     0.000 HD 
HETATM    8  C   UNL     1     -12.301  11.247  68.690  1.00  0.00     0.207 C  
HETATM    9  C   UNL     1     -11.463  12.480  68.574  1.00  0.00    -0.346 C  
HETATM   10  O   UNL     1      -9.520  14.233  71.171  1.00  0.00     3.269 OA 
HETATM   11  C   UNL     1     -10.349  12.358  69.645  1.00  0.00     0.857 C  
HETATM   12  C   UNL     1     -11.287  13.258  67.273  1.00  0.00    -0.347 C  
HETATM   13  C   UNL     1     -12.524  12.957  66.415  1.00  0.00     0.136 C  
HETATM   14  O   UNL     1     -12.490  11.625  65.908  1.00  0.00     0.383 OA 
HETATM   15  C   UNL     1     -12.721  13.881  65.249  1.00  0.00    -0.485 C  
HETATM   16  C   UNL     1     -12.782  15.349  65.681  1.00  0.00     1.162 C  
HETATM   17  H   UNL     1     -13.255  11.438  65.377  1.00  0.00     0.000 HD 
HETATM   18  C   UNL     1     -13.247  16.173  64.468  1.00  0.00     2.966 C  
HETATM   19  C   UNL     1     -12.184  16.439  63.409  1.00  0.00     3.780 C  
HETATM   20  O   UNL     1     -12.219  15.456  62.379  1.00  0.00     3.061 OA 
HETATM   21  C   UNL     1     -10.784  16.650  63.958  1.00  0.00     2.345 C  
HETATM   22  C   UNL     1     -10.365  15.848  65.243  1.00  0.00    -0.354 C  
HETATM   23  H   UNL     1     -11.556  15.622  61.719  1.00  0.00     0.000 HD 
HETATM   24  C   UNL     1     -11.436  15.795  66.379  1.00  0.00     0.268 C  
HETATM   25  C   UNL     1     -11.567  17.233  66.942  1.00  0.00     1.369 C  
HETATM   26  C   UNL     1     -11.251  14.772  67.658  1.00  0.00    -0.332 C  
HETATM   27  C   UNL     1     -10.260  14.976  68.881  1.00  0.00    -0.235 C  
HETATM   28  C   UNL     1     -10.455  13.907  70.148  1.00  0.00     1.034 C  
ENDROOT
BRANCH   2  29
HETATM   29  C   UNL     1     -10.137   6.756  69.572  1.00  0.00    -0.192 C  
HETATM   30  O   UNL     1     -10.136   5.423  67.596  1.00  0.00    -0.154 OA 
HETATM   31  C   UNL     1      -9.817   6.639  68.097  1.00  0.00    -0.132 C  
HETATM   32  O   UNL     1      -9.312   7.516  67.412  1.00  0.00    -0.136 OA 
ENDBRANCH   2  29
TORSDOF 1
ENDMDL
MODEL      100
REMARK 921   NORMALIZED FREE ENERGY PREDICTED BY IDOCK:   18.96 KCAL/MOL
REMARK 922        TOTAL FREE ENERGY PREDICTED BY IDOCK:   19.95 KCAL/MOL
REMARK 923 INTER-LIGAND FREE ENERGY PREDICTED BY IDOCK:   18.23 KCAL/MOL
REMARK 924 INTRA-LIGAND FREE ENERGY PREDICTED BY IDOCK:    1.72 KCAL/MOL
REMARK 927      BINDING AFFINITY PREDICTED BY RF-SCORE:    0.00 PKD
ROOT
HETATM    1  C   UNL     1      -9.930   3.274  66.293  1.00  0.00     0.418 C  
HETATM    2  C   UNL     1      -8.974   3.119  65.047  1.00  0.00    -0.139 C  
HETATM    3  C   UNL     1     -10.705   1.920  66.410  1.00  0.00     4.307 C  
HETATM    4  C   UNL     1      -9.256   3.867  67.859  1.00  0.00    -0.209 C  
HETATM    5  C   UNL     1      -7.480   5.931  67.886  1.00  0.00    -0.081 C  
HETATM    6  C   UNL     1     -10.667   4.049  68.423  1.00  0.00     2.059 C  
HETATM    7  H   UNL     1      -7.136   4.260  70.354  1.00  0.00     0.000 HD 
HETATM    8  C   UNL     1     -11.114   5.416  67.931  1.00  0.00     0.564 C  
HETATM    9  C   UNL     1     -10.115   6.249  68.669  1.00  0.00    -0.185 C  
HETATM   10  O   UNL     1      -7.131   5.188  70.557  1.00  0.00    -0.056 OA 
HETATM   11  C   UNL     1      -8.772   5.476  68.619  1.00  0.00    -0.108 C  
HETATM   12  C   UNL     1     -10.196   7.770  68.768  1.00  0.00    -0.212 C  
HETATM   13  C   UNL     1     -11.675   8.140  68.578  1.00  0.00     1.846 C  
HETATM   14  O   UNL     1     -12.083   7.962  67.223  1.00  0.00     2.634 OA 
HETATM   15  C   UNL     1     -12.029   9.542  68.977  1.00  0.00     1.000 C  
HETATM   16  C   UNL     1     -11.640   9.844  70.428  1.00  0.00    -0.356 C  
HETATM   17  H   UNL     1     -12.997   8.190  67.106  1.00  0.00     0.000 HD 
HETATM   18  C   UNL     1     -12.279  11.190  70.811  1.00  0.00    -0.484 C  
HETATM   19  C   UNL     1     -11.571  12.428  70.273  1.00  0.00     0.026 C  
HETATM   20  O   UNL     1     -12.134  12.852  69.035  1.00  0.00    -0.267 OA 
HETATM   21  C   UNL     1     -10.058  12.314  70.211  1.00  0.00     3.198 C  
HETATM   22  C   UNL     1      -9.435  10.907  69.889  1.00  0.00     0.692 C  
HETATM   23  H   UNL     1     -11.693  13.624  68.700  1.00  0.00     0.000 HD 
HETATM   24  C   UNL     1     -10.081   9.700  70.643  1.00  0.00    -0.324 C  
HETATM   25  C   UNL     1      -9.724   9.861  72.142  1.00  0.00     3.307 C  
HETATM   26  C   UNL     1      -9.724   8.152  70.207  1.00  0.00    -0.175 C  
HETATM   27  C   UNL     1      -8.380   7.375  70.537  1.00  0.00    -0.132 C  
HETATM   28  C   UNL     1      -8.387   5.745  70.182  1.00  0.00    -0.117 C  
ENDROOT
BRANCH   2  29
HETATM   29  C   UNL     1      -9.778   2.960  63.710  1.00  0.00    -0.133 C  
HETATM   30  O   UNL     1     -11.859   3.272  62.591  1.00  0.00     0.403 OA 
HETATM   31  C   UNL     1     -11.212   3.443  63.766  1.00  0.00     0.335 C  
HETATM   32  O   UNL     1     -11.748   3.951  64.740  1.00  0.00     0.417 OA 
ENDBRANCH   2  29
TORSDOF 1
ENDMDL
MODEL      101
REMARK 921   NORMALIZED FREE ENERGY PREDICTED BY IDOCK:   21.39 KCAL/MOL
REMARK 922        TOTAL FREE ENERGY PREDICTED BY IDOCK:   22.53 KCAL/MOL
REMARK 923 INTER-LIGAND FREE ENERGY PREDICTED BY IDOCK:   21.03 KCAL/MOL
REMARK 924 INTRA-LIGAND FREE ENERGY PREDICTED BY IDOCK:    1.50 KCAL/MOL
REMARK 927      BINDING AFFINITY PREDICTED BY RF-SCORE:    0.00 PKD
ROOT
HETATM    1  C   UNL     1     -11.259  16.058  70.789  1.00  0.00    -0.381 C  
HETATM    2  C   UNL     1     -12.148  16.936  69.825  1.00  0.00     1.998 C  
HETATM    3  C   UNL     1     -10.574  17.062  71.774  1.00  0.00     2.778 C  
HETATM    4  C   UNL     1     -11.988  14.620  71.602  1.00  0.00    -0.379 C  
HETATM    5  C   UNL     1     -13.638  12.957  70.214  1.00  0.00     1.915 C  
HETATM    6  C   UNL     1     -10.604  14.145  72.051  1.00  0.00     3.994 C  
HETATM    7  H   UNL     1     -14.225  12.755  73.149  1.00  0.00     0.000 HD 
HETATM    8  C   UNL     1     -10.050  13.374  70.865  1.00  0.00     5.395 C  
HETATM    9  C   UNL     1     -11.039  12.253  70.853  1.00  0.00     2.485 C  
HETATM   10  O   UNL     1     -14.186  11.898  72.740  1.00  0.00     0.611 OA 
HETATM   11  C   UNL     1     -12.420  12.879  71.176  1.00  0.00    -0.344 C  
HETATM   12  C   UNL     1     -10.874  10.993  70.006  1.00  0.00    -0.054 C  
HETATM   13  C   UNL     1      -9.367  10.834  69.754  1.00  0.00     0.409 C  
HETATM   14  O   UNL     1      -8.892  11.811  68.831  1.00  0.00    -0.368 OA 
HETATM   15  C   UNL     1      -8.955   9.486  69.239  1.00  0.00    -0.160 C  
HETATM   16  C   UNL     1      -9.410   8.352  70.164  1.00  0.00    -0.164 C  
HETATM   17  H   UNL     1      -7.960  11.712  68.675  1.00  0.00     0.000 HD 
HETATM   18  C   UNL     1      -8.717   7.062  69.694  1.00  0.00    -0.141 C  
HETATM   19  C   UNL     1      -9.318   6.408  68.455  1.00  0.00    -0.122 C  
HETATM   20  O   UNL     1      -8.659   6.840  67.269  1.00  0.00    -0.119 OA 
HETATM   21  C   UNL     1     -10.828   6.521  68.350  1.00  0.00    -0.357 C  
HETATM   22  C   UNL     1     -11.513   7.821  68.907  1.00  0.00     0.761 C  
HETATM   23  H   UNL     1      -9.033   6.433  66.496  1.00  0.00     0.000 HD 
HETATM   24  C   UNL     1     -10.985   8.317  70.291  1.00  0.00    -0.233 C  
HETATM   25  C   UNL     1     -11.420   7.265  71.343  1.00  0.00    -0.294 C  
HETATM   26  C   UNL     1     -11.407   9.803  70.866  1.00  0.00    -0.439 C  
HETATM   27  C   UNL     1     -12.812  10.198  71.490  1.00  0.00    -0.548 C  
HETATM   28  C   UNL     1     -12.880  11.703  72.209  1.00  0.00     0.318 C  
ENDROOT
BRANCH   2  29
HETATM   29  C   UNL     1     -11.277  17.891  68.937  1.00  0.00     1.114 C  
HETATM   30  O   UNL     1     -10.008  19.906  68.835  1.00  0.00    -0.409 OA 
HETATM   31  C   UNL     1     -10.742  19.115  69.650  1.00  0.00     1.407 C  
HETATM   32  O   UNL     1     -10.919  19.377  70.831  1.00  0.00     2.357 OA 
ENDBRANCH   2  29
TORSDOF 1
ENDMDL
MODEL      102
REMARK 921   NORMALIZED FREE ENERGY PREDICTED BY IDOCK:   25.17 KCAL/MOL
REMARK 922        TOTAL FREE ENERGY PREDICTED BY IDOCK:   26.52 KCAL/MOL
REMARK 923 INTER-LIGAND FREE ENERGY PREDICTED BY IDOCK:   26.29 KCAL/MOL
REMARK 924 INTRA-LIGAND FREE ENERGY PREDICTED BY IDOCK:    0.24 KCAL/MOL
REMARK 927      BINDING AFFINITY PREDICTED BY RF-SCORE:    0.00 PKD
ROOT
HETATM    1  C   UNL     1      -8.906  13.401  64.165  1.00  0.00     4.510 C  
HETATM    2  C   UNL     1      -9.724  12.998  62.877  1.00  0.00     3.775 C  
HETATM    3  C   UNL     1      -7.398  13.327  63.757  1.00  0.00    15.262 C  
HETATM    4  C   UNL     1      -9.347  14.907  65.059  1.00  0.00     0.995 C  
HETATM    5  C   UNL     1     -11.965  15.526  65.481  1.00  0.00     0.469 C  
HETATM    6  C   UNL     1      -8.446  14.503  66.227  1.00  0.00     0.497 C  
HETATM    7  H   UNL     1     -10.301  18.022  65.574  1.00  0.00     0.000 HD 
HETATM    8  C   UNL     1      -9.297  13.576  67.078  1.00  0.00    -0.247 C  
HETATM    9  C   UNL     1     -10.338  14.564  67.501  1.00  0.00    -0.244 C  
HETATM   10  O   UNL     1     -10.930  17.993  66.286  1.00  0.00    -0.043 OA 
HETATM   11  C   UNL     1     -10.626  15.456  66.267  1.00  0.00    -0.311 C  
HETATM   12  C   UNL     1     -11.374  14.282  68.586  1.00  0.00    -0.302 C  
HETATM   13  C   UNL     1     -10.767  13.205  69.498  1.00  0.00     0.283 C  
HETATM   14  O   UNL     1     -10.742  11.935  68.850  1.00  0.00    -0.221 OA 
HETATM   15  C   UNL     1     -11.466  13.028  70.814  1.00  0.00     0.868 C  
HETATM   16  C   UNL     1     -11.545  14.339  71.604  1.00  0.00     0.353 C  
HETATM   17  H   UNL     1     -10.366  11.268  69.414  1.00  0.00     0.000 HD 
HETATM   18  C   UNL     1     -12.029  13.997  73.024  1.00  0.00     0.740 C  
HETATM   19  C   UNL     1     -13.522  13.725  73.161  1.00  0.00     0.442 C  
HETATM   20  O   UNL     1     -13.808  12.334  73.050  1.00  0.00    -0.218 OA 
HETATM   21  C   UNL     1     -14.404  14.569  72.259  1.00  0.00    -0.506 C  
HETATM   22  C   UNL     1     -13.850  14.963  70.841  1.00  0.00    -0.206 C  
HETATM   23  H   UNL     1     -14.739  12.163  73.136  1.00  0.00     0.000 HD 
HETATM   24  C   UNL     1     -12.360  15.435  70.811  1.00  0.00    -0.447 C  
HETATM   25  C   UNL     1     -12.304  16.795  71.553  1.00  0.00     1.502 C  
HETATM   26  C   UNL     1     -11.567  15.614  69.378  1.00  0.00    -0.378 C  
HETATM   27  C   UNL     1     -11.753  16.810  68.350  1.00  0.00     0.416 C  
HETATM   28  C   UNL     1     -10.650  16.859  67.100  1.00  0.00    -0.249 C  
ENDROOT
BRANCH   2  29
HETATM   29  C   UNL     1      -9.458  11.510  62.460  1.00  0.00     0.051 C  
HETATM   30  O   UNL     1      -9.320   9.239  63.169  1.00  0.00     0.063 OA 
HETATM   31  C   UNL     1      -9.568  10.502  63.584  1.00  0.00    -0.320 C  
HETATM   32  O   UNL     1      -9.865  10.764  64.741  1.00  0.00    -0.248 OA 
ENDBRANCH   2  29
TORSDOF 1
ENDMDL
MODEL      103
REMARK 921   NORMALIZED FREE ENERGY PREDICTED BY IDOCK:   41.02 KCAL/MOL
REMARK 922        TOTAL FREE ENERGY PREDICTED BY IDOCK:   43.31 KCAL/MOL
REMARK 923 INTER-LIGAND FREE ENERGY PREDICTED BY IDOCK:   43.43 KCAL/MOL
REMARK 924 INTRA-LIGAND FREE ENERGY PREDICTED BY IDOCK:   -0.13 KCAL/MOL
REMARK 927      BINDING AFFINITY PREDICTED BY RF-SCORE:    0.00 PKD
ROOT
HETATM    1  C   UNL     1     -10.651   8.380  66.062  1.00  0.00     1.245 C  
HETATM    2  C   UNL     1     -10.194   7.401  64.911  1.00  0.00     4.276 C  
HETATM    3  C   UNL     1     -11.716   7.595  66.895  1.00  0.00     2.704 C  
HETATM    4  C   UNL     1      -9.401   9.207  67.069  1.00  0.00    -0.188 C  
HETATM    5  C   UNL     1      -7.174  10.248  65.898  1.00  0.00    -0.131 C  
HETATM    6  C   UNL     1     -10.465  10.128  67.671  1.00  0.00    -0.293 C  
HETATM    7  H   UNL     1      -6.620   9.651  68.786  1.00  0.00     0.000 HD 
HETATM    8  C   UNL     1     -10.616  11.261  66.670  1.00  0.00    -0.309 C  
HETATM    9  C   UNL     1      -9.246  11.847  66.796  1.00  0.00    -0.194 C  
HETATM   10  O   UNL     1      -6.285  10.504  68.534  1.00  0.00    -0.047 OA 
HETATM   11  C   UNL     1      -8.266  10.653  66.927  1.00  0.00    -0.123 C  
HETATM   12  C   UNL     1      -8.846  13.190  66.191  1.00  0.00     0.325 C  
HETATM   13  C   UNL     1     -10.139  14.009  66.056  1.00  0.00    -0.315 C  
HETATM   14  O   UNL     1     -10.961  13.505  65.007  1.00  0.00    -0.307 OA 
HETATM   15  C   UNL     1      -9.932  15.474  65.807  1.00  0.00    -0.391 C  
HETATM   16  C   UNL     1      -9.062  16.125  66.887  1.00  0.00    -0.241 C  
HETATM   17  H   UNL     1     -11.761  14.011  64.923  1.00  0.00     0.000 HD 
HETATM   18  C   UNL     1      -9.135  17.649  66.687  1.00  0.00    -0.280 C  
HETATM   19  C   UNL     1      -8.288  18.203  65.549  1.00  0.00     0.916 C  
HETATM   20  O   UNL     1      -9.042  18.309  64.344  1.00  0.00     5.254 OA 
HETATM   21  C   UNL     1      -6.965  17.490  65.340  1.00  0.00     0.740 C  
HETATM   22  C   UNL     1      -6.904  15.945  65.623  1.00  0.00     4.526 C  
HETATM   23  H   UNL     1      -8.514  18.655  63.634  1.00  0.00     0.000 HD 
HETATM   24  C   UNL     1      -7.623  15.474  66.929  1.00  0.00    -0.162 C  
HETATM   25  C   UNL     1      -6.807  16.038  68.120  1.00  0.00    -0.130 C  
HETATM   26  C   UNL     1      -7.879  13.871  67.212  1.00  0.00    -0.134 C  
HETATM   27  C   UNL     1      -6.786  12.818  67.678  1.00  0.00    -0.147 C  
HETATM   28  C   UNL     1      -7.375  11.321  68.120  1.00  0.00    -0.088 C  
ENDROOT
BRANCH   2  29
HETATM   29  C   UNL     1     -11.367   7.076  63.922  1.00  0.00    17.201 C  
HETATM   30  O   UNL     1     -12.441   5.422  62.585  1.00  0.00     3.357 OA 
HETATM   31  C   UNL     1     -11.417   5.642  63.441  1.00  0.00     5.870 C  
HETATM   32  O   UNL     1     -10.648   4.755  63.783  1.00  0.00     0.497 OA 
ENDBRANCH   2  29
TORSDOF 1
ENDMDL
MODEL      104
REMARK 921   NORMALIZED FREE ENERGY PREDICTED BY IDOCK:   47.78 KCAL/MOL
REMARK 922        TOTAL FREE ENERGY PREDICTED BY IDOCK:   50.46 KCAL/MOL
REMARK 923 INTER-LIGAND FREE ENERGY PREDICTED BY IDOCK:   50.57 KCAL/MOL
REMARK 924 INTRA-LIGAND FREE ENERGY PREDICTED BY IDOCK:   -0.10 KCAL/MOL
REMARK 927      BINDING AFFINITY PREDICTED BY RF-SCORE:    0.00 PKD
ROOT
HETATM    1  C   UNL     1      -9.449  11.342  64.609  1.00  0.00    -0.171 C  
HETATM    2  C   UNL     1      -8.838  12.046  65.882  1.00  0.00     0.115 C  
HETATM    3  C   UNL     1      -9.892  12.497  63.651  1.00  0.00     0.066 C  
HETATM    4  C   UNL     1      -8.518  10.030  63.788  1.00  0.00    -0.181 C  
HETATM    5  C   UNL     1      -7.226   8.144  65.267  1.00  0.00    -0.068 C  
HETATM    6  C   UNL     1      -9.743   9.656  62.950  1.00  0.00     0.641 C  
HETATM    7  H   UNL     1      -5.939   8.378  62.566  1.00  0.00     0.000 HD 
HETATM    8  C   UNL     1     -10.555   8.725  63.834  1.00  0.00     7.322 C  
HETATM    9  C   UNL     1      -9.578   7.595  63.916  1.00  0.00     3.436 C  
HETATM   10  O   UNL     1      -6.060   7.470  62.819  1.00  0.00    -0.053 OA 
HETATM   11  C   UNL     1      -8.172   8.237  64.037  1.00  0.00    -0.098 C  
HETATM   12  C   UNL     1      -9.921   6.226  64.495  1.00  0.00     2.898 C  
HETATM   13  C   UNL     1     -11.441   6.059  64.347  1.00  0.00     7.092 C  
HETATM   14  O   UNL     1     -12.144   6.894  65.264  1.00  0.00     6.290 OA 
HETATM   15  C   UNL     1     -11.942   4.657  64.535  1.00  0.00     2.485 C  
HETATM   16  C   UNL     1     -11.255   3.668  63.587  1.00  0.00     0.256 C  
HETATM   17  H   UNL     1     -13.084   6.792  65.172  1.00  0.00     0.000 HD 
HETATM   18  C   UNL     1     -12.018   2.335  63.673  1.00  0.00     2.527 C  
HETATM   19  C   UNL     1     -11.725   1.490  64.906  1.00  0.00     4.609 C  
HETATM   20  O   UNL     1     -12.661   1.750  65.949  1.00  0.00    13.026 OA 
HETATM   21  C   UNL     1     -10.288   1.555  65.391  1.00  0.00     1.435 C  
HETATM   22  C   UNL     1      -9.512   2.911  65.222  1.00  0.00    -0.061 C  
HETATM   23  H   UNL     1     -12.478   1.222  66.717  1.00  0.00     0.000 HD 
HETATM   24  C   UNL     1      -9.696   3.622  63.842  1.00  0.00    -0.161 C  
HETATM   25  C   UNL     1      -8.999   2.733  62.781  1.00  0.00    -0.088 C  
HETATM   26  C   UNL     1      -9.174   5.169  63.620  1.00  0.00     0.287 C  
HETATM   27  C   UNL     1      -7.667   5.627  63.424  1.00  0.00    -0.090 C  
HETATM   28  C   UNL     1      -7.453   7.222  62.981  1.00  0.00    -0.096 C  
ENDROOT
BRANCH   2  29
HETATM   29  C   UNL     1      -9.915  12.872  66.666  1.00  0.00    -0.251 C  
HETATM   30  O   UNL     1     -10.390  14.216  68.576  1.00  0.00    -0.238 OA 
HETATM   31  C   UNL     1      -9.417  13.526  67.937  1.00  0.00    -0.215 C  
HETATM   32  O   UNL     1      -8.270  13.473  68.357  1.00  0.00    -0.150 OA 
ENDBRANCH   2  29
TORSDOF 1
ENDMDL
MODEL      105
REMARK 921   NORMALIZED FREE ENERGY PREDICTED BY IDOCK:   48.44 KCAL/MOL
REMARK 922        TOTAL FREE ENERGY PREDICTED BY IDOCK:   51.16 KCAL/MOL
REMARK 923 INTER-LIGAND FREE ENERGY PREDICTED BY IDOCK:   51.27 KCAL/MOL
REMARK 924 INTRA-LIGAND FREE ENERGY PREDICTED BY IDOCK:   -0.11 KCAL/MOL
REMARK 927      BINDING AFFINITY PREDICTED BY RF-SCORE:    0.00 PKD
ROOT
HETATM    1  C   UNL     1      -6.439  10.673  66.226  1.00  0.00    -0.126 C  
HETATM    2  C   UNL     1      -7.247   9.824  65.170  1.00  0.00    -0.122 C  
HETATM    3  C   UNL     1      -5.197   9.805  66.615  1.00  0.00    -0.040 C  
HETATM    4  C   UNL     1      -6.040  12.396  65.860  1.00  0.00     2.903 C  
HETATM    5  C   UNL     1      -7.905  14.014  64.712  1.00  0.00    10.496 C  
HETATM    6  C   UNL     1      -5.598  12.624  67.308  1.00  0.00    -0.034 C  
HETATM    7  H   UNL     1      -5.153  15.055  64.124  1.00  0.00     0.000 HD 
HETATM    8  C   UNL     1      -6.879  12.931  68.065  1.00  0.00    -0.108 C  
HETATM    9  C   UNL     1      -7.230  14.217  67.388  1.00  0.00    -0.124 C  
HETATM   10  O   UNL     1      -5.742  15.753  64.384  1.00  0.00    10.807 OA 
HETATM   11  C   UNL     1      -6.888  14.032  65.887  1.00  0.00     6.491 C  
HETATM   12  C   UNL     1      -8.326  15.158  67.883  1.00  0.00    -0.153 C  
HETATM   13  C   UNL     1      -8.482  14.890  69.387  1.00  0.00    -0.064 C  
HETATM   14  O   UNL     1      -9.114  13.634  69.625  1.00  0.00     0.389 OA 
HETATM   15  C   UNL     1      -9.256  15.935  70.135  1.00  0.00     0.673 C  
HETATM   16  C   UNL     1      -8.656  17.334  69.955  1.00  0.00     2.039 C  
HETATM   17  H   UNL     1      -9.210  13.468  70.556  1.00  0.00     0.000 HD 
HETATM   18  C   UNL     1      -9.350  18.270  70.960  1.00  0.00     5.442 C  
HETATM   19  C   UNL     1     -10.751  18.727  70.571  1.00  0.00     2.469 C  
HETATM   20  O   UNL     1     -11.748  17.877  71.130  1.00  0.00     2.565 OA 
HETATM   21  C   UNL     1     -10.952  18.953  69.084  1.00  0.00     1.478 C  
HETATM   22  C   UNL     1     -10.172  18.027  68.082  1.00  0.00    -0.392 C  
HETATM   23  H   UNL     1     -12.621  18.161  70.888  1.00  0.00     0.000 HD 
HETATM   24  C   UNL     1      -8.671  17.770  68.437  1.00  0.00    -0.292 C  
HETATM   25  C   UNL     1      -7.929  19.118  68.253  1.00  0.00    -0.361 C  
HETATM   26  C   UNL     1      -7.809  16.612  67.643  1.00  0.00    -0.189 C  
HETATM   27  C   UNL     1      -7.230  16.724  66.170  1.00  0.00    -0.008 C  
HETATM   28  C   UNL     1      -6.194  15.499  65.711  1.00  0.00     6.060 C  
ENDROOT
BRANCH   2  29
HETATM   29  C   UNL     1      -7.817   8.504  65.796  1.00  0.00    -0.100 C  
HETATM   30  O   UNL     1      -9.383   6.719  65.591  1.00  0.00     0.092 OA 
HETATM   31  C   UNL     1      -8.924   7.846  65.000  1.00  0.00     0.347 C  
HETATM   32  O   UNL     1      -9.362   8.250  63.932  1.00  0.00     1.131 OA 
ENDBRANCH   2  29
TORSDOF 1
ENDMDL
MODEL      106
REMARK 921   NORMALIZED FREE ENERGY PREDICTED BY IDOCK:   59.58 KCAL/MOL
REMARK 922        TOTAL FREE ENERGY PREDICTED BY IDOCK:   62.95 KCAL/MOL
REMARK 923 INTER-LIGAND FREE ENERGY PREDICTED BY IDOCK:   58.35 KCAL/MOL
REMARK 924 INTRA-LIGAND FREE ENERGY PREDICTED BY IDOCK:    4.60 KCAL/MOL
REMARK 927      BINDING AFFINITY PREDICTED BY RF-SCORE:    0.00 PKD
ROOT
HETATM    1  C   UNL     1      -8.468  10.779  64.939  1.00  0.00    -0.055 C  
HETATM    2  C   UNL     1      -9.398   9.897  64.017  1.00  0.00    -0.280 C  
HETATM    3  C   UNL     1      -7.086  10.049  64.977  1.00  0.00    -0.136 C  
HETATM    4  C   UNL     1      -8.348  12.555  64.635  1.00  0.00     3.100 C  
HETATM    5  C   UNL     1     -10.585  13.995  64.053  1.00  0.00     0.568 C  
HETATM    6  C   UNL     1      -7.620  12.755  65.966  1.00  0.00     2.126 C  
HETATM    7  H   UNL     1      -8.162  15.395  62.969  1.00  0.00     0.000 HD 
HETATM    8  C   UNL     1      -8.723  12.861  67.006  1.00  0.00    -0.195 C  
HETATM    9  C   UNL     1      -9.352  14.130  66.527  1.00  0.00    -0.285 C  
HETATM   10  O   UNL     1      -8.749  16.000  63.407  1.00  0.00    12.967 OA 
HETATM   11  C   UNL     1      -9.338  14.072  64.978  1.00  0.00     0.967 C  
HETATM   12  C   UNL     1     -10.402  14.901  67.322  1.00  0.00    -0.251 C  
HETATM   13  C   UNL     1     -10.187  14.533  68.798  1.00  0.00    -0.244 C  
HETATM   14  O   UNL     1     -10.612  13.199  69.065  1.00  0.00    -0.392 OA 
HETATM   15  C   UNL     1     -10.880  15.434  69.778  1.00  0.00    -0.297 C  
HETATM   16  C   UNL     1     -10.489  16.903  69.586  1.00  0.00    -0.158 C  
HETATM   17  H   UNL     1     -10.479  12.971  69.977  1.00  0.00     0.000 HD 
HETATM   18  C   UNL     1     -11.035  17.691  70.790  1.00  0.00     1.833 C  
HETATM   19  C   UNL     1     -12.528  17.994  70.752  1.00  0.00    11.799 C  
HETATM   20  O   UNL     1     -13.278  16.999  71.443  1.00  0.00     3.197 OA 
HETATM   21  C   UNL     1     -13.081  18.276  69.367  1.00  0.00    15.647 C  
HETATM   22  C   UNL     1     -12.452  17.508  68.149  1.00  0.00     3.943 C  
HETATM   23  H   UNL     1     -14.208  17.188  71.420  1.00  0.00     0.000 HD 
HETATM   24  C   UNL     1     -10.891  17.418  68.148  1.00  0.00    -0.273 C  
HETATM   25  C   UNL     1     -10.357  18.854  67.917  1.00  0.00    -0.473 C  
HETATM   26  C   UNL     1     -10.111  16.419  67.095  1.00  0.00    -0.271 C  
HETATM   27  C   UNL     1      -9.893  16.682  65.545  1.00  0.00    -0.014 C  
HETATM   28  C   UNL     1      -8.862  15.620  64.775  1.00  0.00     4.224 C  
ENDROOT
BRANCH   2  29
HETATM   29  C   UNL     1      -9.668   8.485  64.642  1.00  0.00     1.647 C  
HETATM   30  O   UNL     1      -8.782   6.659  65.891  1.00  0.00    -0.150 OA 
HETATM   31  C   UNL     1      -8.495   7.879  65.383  1.00  0.00    -0.119 C  
HETATM   32  O   UNL     1      -7.406   8.413  65.538  1.00  0.00    -0.080 OA 
ENDBRANCH   2  29
TORSDOF 1
ENDMDL
