MODEL        1
REMARK 921   NORMALIZED FREE ENERGY PREDICTED BY IDOCK:   -6.35 KCAL/MOL
REMARK 922        TOTAL FREE ENERGY PREDICTED BY IDOCK:   -7.39 KCAL/MOL
REMARK 923 INTER-LIGAND FREE ENERGY PREDICTED BY IDOCK:   -7.09 KCAL/MOL
REMARK 924 INTRA-LIGAND FREE ENERGY PREDICTED BY IDOCK:   -0.29 KCAL/MOL
REMARK 927      BINDING AFFINITY PREDICTED BY RF-SCORE:    0.00 PKD
ROOT
HETATM    1 MG   UNL     1      -6.486  14.264  68.723  1.00  0.00    -0.077 Mg 
HETATM    2  C   UNL     2     -10.241  15.486  70.366  1.00  0.00    -0.012 C  
HETATM    3  N   UNL     2     -10.596  14.670  69.175  1.00  0.00    -0.243 N  
HETATM    4  O   UNL     3      -8.292  10.529  69.134  1.00  0.00    -0.144 OA 
HETATM    5  C   UNL     2     -11.029  15.443  67.958  1.00  0.00    -0.307 C  
HETATM    6  C   UNL     5     -11.149  11.575  67.762  1.00  0.00    -0.260 C  
HETATM    7  C   UNL     3      -8.950   9.497  68.478  1.00  0.00    -0.128 A  
HETATM    8  C   UNL     2      -9.323  13.873  68.982  1.00  0.00     0.188 C  
HETATM    9  O   UNL     4      -5.176  13.186  69.223  1.00  0.00    -0.073 OA 
HETATM   10  H   UNL     3      -8.335  10.507  70.082  1.00  0.00     0.000 HD 
HETATM   11  C   UNL     3      -8.886   9.529  67.076  1.00  0.00    -0.139 A  
HETATM   12  H   UNL     4      -5.104  13.041  70.158  1.00  0.00     0.000 HD 
HETATM   13  O   UNL     5      -9.139  13.950  66.350  1.00  0.00    -0.443 OA 
HETATM   14  O   UNL     5     -10.373  11.780  68.713  1.00  0.00    -0.213 OA 
HETATM   15  C   UNL     4      -5.382  12.094  68.390  1.00  0.00    -0.051 A  
HETATM   16  C   UNL     5      -9.917  12.959  65.735  1.00  0.00    -0.254 A  
HETATM   17  H   UNL     5      -9.219  13.863  67.294  1.00  0.00     0.000 HD 
HETATM   18  O   UNL     5     -12.378  11.224  67.915  1.00  0.00    -0.363 OA 
HETATM   19  C   UNL     4      -5.488  12.308  67.014  1.00  0.00    -0.020 A  
HETATM   20  C   UNL     3      -9.653   8.649  66.326  1.00  0.00    -0.322 A  
HETATM   21  C   UNL     3     -10.496   7.763  66.981  1.00  0.00    -0.419 A  
HETATM   22  O   UNL     4      -5.517   9.673  71.073  1.00  0.00    -0.047 OA 
HETATM   23  C   UNL     5      -9.800  13.087  64.337  1.00  0.00     0.013 A  
HETATM   24  C   UNL     4      -5.724  11.212  66.193  1.00  0.00    -0.129 A  
HETATM   25  C   UNL     5     -10.573  12.296  63.507  1.00  0.00    -0.488 A  
HETATM   26  C   UNL     4      -5.792   9.931  66.743  1.00  0.00    -0.054 A  
HETATM   27  C   UNL     3     -10.562   7.754  68.387  1.00  0.00    -0.157 A  
HETATM   28  C   UNL     4      -5.714   9.741  68.129  1.00  0.00    -0.039 A  
HETATM   29  C   UNL     5     -11.452  11.372  64.030  1.00  0.00    -0.217 A  
HETATM   30  C   UNL     3      -9.813   8.639  69.167  1.00  0.00    -0.185 A  
HETATM   31  C   UNL     4      -5.565  10.838  68.976  1.00  0.00    -0.040 A  
HETATM   32  C   UNL     3     -10.038   8.789  70.626  1.00  0.00    -0.204 C  
HETATM   33  C   UNL     5     -11.530  11.229  65.395  1.00  0.00     0.144 A  
HETATM   34  C   UNL     5     -10.777  12.000  66.308  1.00  0.00    -0.302 A  
HETATM   35  O   UNL     3      -9.546   9.832  71.204  1.00  0.00    -0.069 OA 
HETATM   36  C   UNL     4      -5.749  10.751  70.477  1.00  0.00    -0.120 C  
HETATM   37  O   UNL     3     -10.706   7.861  71.258  1.00  0.00    -0.225 OA 
HETATM   38  O   UNL     4      -5.956  11.928  70.983  1.00  0.00    -0.354 OA 
ENDROOT
BRANCH   3  39
HETATM   39  C   UNL     2     -11.837  13.728  69.529  1.00  0.00    -0.339 C  
BRANCH  39  40
HETATM   40  C   UNL     2     -12.640  14.064  70.792  1.00  0.00    -0.360 C  
HETATM   41  O   UNL     2     -13.682  14.981  70.526  1.00  0.00    -0.644 OA 
HETATM   42  H   UNL     2     -14.179  15.190  71.308  1.00  0.00     0.000 HD 
ENDBRANCH  39  40
ENDBRANCH   3  39
TORSDOF 2
ENDMDL
MODEL        2
REMARK 921   NORMALIZED FREE ENERGY PREDICTED BY IDOCK:   -6.32 KCAL/MOL
REMARK 922        TOTAL FREE ENERGY PREDICTED BY IDOCK:   -7.35 KCAL/MOL
REMARK 923 INTER-LIGAND FREE ENERGY PREDICTED BY IDOCK:   -6.56 KCAL/MOL
REMARK 924 INTRA-LIGAND FREE ENERGY PREDICTED BY IDOCK:   -0.79 KCAL/MOL
REMARK 927      BINDING AFFINITY PREDICTED BY RF-SCORE:    0.00 PKD
ROOT
HETATM    1 MG   UNL     1      -7.437  11.927  70.057  1.00  0.00    -0.342 Mg 
HETATM    2  C   UNL     2      -5.498   8.972  72.467  1.00  0.00    -0.072 C  
HETATM    3  N   UNL     2      -6.854   8.419  72.206  1.00  0.00    -0.088 N  
HETATM    4  O   UNL     3      -7.970   8.598  67.605  1.00  0.00    -0.105 OA 
HETATM    5  C   UNL     2      -7.829   8.516  73.348  1.00  0.00     0.004 C  
HETATM    6  C   UNL     5      -9.000   6.688  70.140  1.00  0.00    -0.152 C  
HETATM    7  C   UNL     3      -8.859   7.621  67.177  1.00  0.00    -0.125 A  
HETATM    8  C   UNL     2      -7.256   9.209  70.978  1.00  0.00    -0.100 C  
HETATM    9  O   UNL     4      -7.242  12.546  68.413  1.00  0.00    -0.096 OA 
HETATM   10  H   UNL     3      -7.058   8.447  67.388  1.00  0.00     0.000 HD 
HETATM   11  C   UNL     3     -10.208   7.844  67.497  1.00  0.00    -0.308 A  
HETATM   12  H   UNL     4      -6.375  12.443  68.040  1.00  0.00     0.000 HD 
HETATM   13  O   UNL     5      -9.784   9.692  71.564  1.00  0.00    -0.229 OA 
HETATM   14  O   UNL     5      -8.037   7.364  69.737  1.00  0.00    -0.123 OA 
HETATM   15  C   UNL     4      -8.323  11.962  67.765  1.00  0.00    -0.149 A  
HETATM   16  C   UNL     5     -10.623   8.623  71.218  1.00  0.00    -0.239 A  
HETATM   17  H   UNL     5      -8.893   9.480  71.310  1.00  0.00     0.000 HD 
HETATM   18  O   UNL     5      -8.929   5.424  70.374  1.00  0.00    -0.129 OA 
HETATM   19  C   UNL     4      -9.597  12.114  68.313  1.00  0.00    -0.210 A  
HETATM   20  C   UNL     3     -11.149   6.849  67.273  1.00  0.00    -0.355 A  
HETATM   21  C   UNL     3     -10.732   5.632  66.754  1.00  0.00    -0.358 A  
HETATM   22  O   UNL     4      -6.341  10.459  65.139  1.00  0.00    -0.122 OA 
HETATM   23  C   UNL     5     -11.943   8.937  71.595  1.00  0.00    -0.415 A  
HETATM   24  C   UNL     4     -10.667  11.501  67.674  1.00  0.00    -0.255 A  
HETATM   25  C   UNL     5     -12.939   7.986  71.468  1.00  0.00    -0.326 A  
HETATM   26  C   UNL     4     -10.460  10.803  66.482  1.00  0.00    -0.299 A  
HETATM   27  C   UNL     3      -9.373   5.417  66.455  1.00  0.00    -0.157 A  
HETATM   28  C   UNL     4      -9.169  10.635  65.965  1.00  0.00    -0.208 A  
HETATM   29  C   UNL     5     -12.658   6.734  70.964  1.00  0.00    -0.259 A  
HETATM   30  C   UNL     3      -8.402   6.394  66.685  1.00  0.00    -0.113 A  
HETATM   31  C   UNL     4      -8.072  11.170  66.640  1.00  0.00    -0.159 A  
HETATM   32  C   UNL     3      -6.950   6.104  66.582  1.00  0.00    -0.067 C  
HETATM   33  C   UNL     5     -11.374   6.451  70.564  1.00  0.00    -0.438 A  
HETATM   34  C   UNL     5     -10.303   7.367  70.665  1.00  0.00    -0.217 A  
HETATM   35  O   UNL     3      -6.132   6.947  67.114  1.00  0.00    -0.027 OA 
HETATM   36  C   UNL     4      -6.641  10.804  66.306  1.00  0.00    -0.132 C  
HETATM   37  O   UNL     3      -6.568   5.025  65.954  1.00  0.00    -0.042 OA 
HETATM   38  O   UNL     4      -5.850  11.097  67.294  1.00  0.00    -0.051 OA 
ENDROOT
BRANCH   3  39
HETATM   39  C   UNL     2      -6.737   6.857  71.895  1.00  0.00    -0.057 C  
BRANCH  39  40
HETATM   40  C   UNL     2      -5.401   6.345  71.343  1.00  0.00    -0.026 C  
HETATM   41  O   UNL     2      -5.302   6.529  69.945  1.00  0.00    -0.013 OA 
HETATM   42  H   UNL     2      -4.474   6.211  69.603  1.00  0.00     0.000 HD 
ENDBRANCH  39  40
ENDBRANCH   3  39
TORSDOF 2
ENDMDL
MODEL        3
REMARK 921   NORMALIZED FREE ENERGY PREDICTED BY IDOCK:   -5.41 KCAL/MOL
REMARK 922        TOTAL FREE ENERGY PREDICTED BY IDOCK:   -6.33 KCAL/MOL
REMARK 923 INTER-LIGAND FREE ENERGY PREDICTED BY IDOCK:   -5.78 KCAL/MOL
REMARK 924 INTRA-LIGAND FREE ENERGY PREDICTED BY IDOCK:   -0.55 KCAL/MOL
REMARK 927      BINDING AFFINITY PREDICTED BY RF-SCORE:    0.00 PKD
ROOT
HETATM    1 MG   UNL     1      -9.719   9.713  72.122  1.00  0.00    -0.227 Mg 
HETATM    2  C   UNL     2     -12.399  11.628  69.393  1.00  0.00    -0.068 C  
HETATM    3  N   UNL     2     -11.120  11.505  68.645  1.00  0.00    -0.218 N  
HETATM    4  O   UNL     3      -9.362   7.112  68.884  1.00  0.00    -0.141 OA 
HETATM    5  C   UNL     2     -10.310  12.767  68.525  1.00  0.00    -0.221 C  
HETATM    6  C   UNL     5      -8.996   9.611  66.703  1.00  0.00    -0.146 C  
HETATM    7  C   UNL     3      -8.581   6.731  67.801  1.00  0.00    -0.121 A  
HETATM    8  C   UNL     2     -10.437  10.401  69.423  1.00  0.00    -0.238 C  
HETATM    9  O   UNL     4      -9.588   8.108  72.850  1.00  0.00    -0.257 OA 
HETATM   10  H   UNL     3     -10.247   6.768  68.893  1.00  0.00     0.000 HD 
HETATM   11  C   UNL     3      -7.271   7.239  67.788  1.00  0.00    -0.091 A  
HETATM   12  H   UNL     4     -10.400   7.620  72.907  1.00  0.00     0.000 HD 
HETATM   13  O   UNL     5      -7.971  11.342  69.464  1.00  0.00    -0.369 OA 
HETATM   14  O   UNL     5      -9.780   9.138  67.545  1.00  0.00    -0.148 OA 
HETATM   15  C   UNL     4      -8.529   7.564  72.135  1.00  0.00    -0.111 A  
HETATM   16  C   UNL     5      -7.264  11.029  68.294  1.00  0.00    -0.085 A  
HETATM   17  H   UNL     5      -8.840  10.960  69.411  1.00  0.00     0.000 HD 
HETATM   18  O   UNL     5      -9.290   9.740  65.457  1.00  0.00    -0.201 OA 
HETATM   19  C   UNL     4      -7.334   8.282  72.052  1.00  0.00    -0.117 A  
HETATM   20  C   UNL     3      -6.471   7.064  66.668  1.00  0.00    -0.051 A  
HETATM   21  C   UNL     3      -6.992   6.408  65.563  1.00  0.00    -0.053 A  
HETATM   22  O   UNL     4     -10.331   4.601  71.109  1.00  0.00    -0.171 OA 
HETATM   23  C   UNL     5      -5.977  11.595  68.372  1.00  0.00    -0.049 A  
HETATM   24  C   UNL     4      -6.292   7.742  71.309  1.00  0.00    -0.034 A  
HETATM   25  C   UNL     5      -5.129  11.527  67.282  1.00  0.00    -0.069 A  
HETATM   26  C   UNL     4      -6.435   6.485  70.717  1.00  0.00    -0.052 A  
HETATM   27  C   UNL     3      -8.312   5.921  65.584  1.00  0.00    -0.143 A  
HETATM   28  C   UNL     4      -7.651   5.795  70.786  1.00  0.00    -0.092 A  
HETATM   29  C   UNL     5      -5.524  10.901  66.119  1.00  0.00    -0.132 A  
HETATM   30  C   UNL     3      -9.147   6.096  66.691  1.00  0.00    -0.146 A  
HETATM   31  C   UNL     4      -8.738   6.361  71.454  1.00  0.00    -0.131 A  
HETATM   32  C   UNL     3     -10.597   5.785  66.643  1.00  0.00    -0.280 C  
HETATM   33  C   UNL     5      -6.768  10.319  66.067  1.00  0.00    -0.114 A  
HETATM   34  C   UNL     5      -7.691  10.348  67.136  1.00  0.00    -0.100 A  
HETATM   35  O   UNL     3     -11.344   6.268  67.577  1.00  0.00    -0.246 OA 
HETATM   36  C   UNL     4     -10.147   5.819  71.340  1.00  0.00    -0.198 C  
HETATM   37  O   UNL     3     -11.047   5.035  65.674  1.00  0.00    -0.091 OA 
HETATM   38  O   UNL     4     -11.014   6.715  71.703  1.00  0.00    -0.230 OA 
ENDROOT
BRANCH   3  39
HETATM   39  C   UNL     2     -11.429  11.067  67.141  1.00  0.00    -0.015 C  
BRANCH  39  40
HETATM   40  C   UNL     2     -11.707  12.180  66.124  1.00  0.00    -0.315 C  
HETATM   41  O   UNL     2     -11.216  11.856  64.838  1.00  0.00    -0.309 OA 
HETATM   42  H   UNL     2     -11.388  12.546  64.208  1.00  0.00     0.000 HD 
ENDBRANCH  39  40
ENDBRANCH   3  39
TORSDOF 2
ENDMDL
MODEL        4
REMARK 921   NORMALIZED FREE ENERGY PREDICTED BY IDOCK:   -5.19 KCAL/MOL
REMARK 922        TOTAL FREE ENERGY PREDICTED BY IDOCK:   -6.09 KCAL/MOL
REMARK 923 INTER-LIGAND FREE ENERGY PREDICTED BY IDOCK:   -5.27 KCAL/MOL
REMARK 924 INTRA-LIGAND FREE ENERGY PREDICTED BY IDOCK:   -0.82 KCAL/MOL
REMARK 927      BINDING AFFINITY PREDICTED BY RF-SCORE:    0.00 PKD
ROOT
HETATM    1 MG   UNL     1     -12.532  10.418  68.011  1.00  0.00    -0.347 Mg 
HETATM    2  C   UNL     2     -12.626   8.498  71.832  1.00  0.00    -0.354 C  
HETATM    3  N   UNL     2     -11.786   7.612  70.983  1.00  0.00    -0.287 N  
HETATM    4  O   UNL     3      -8.435  10.049  68.683  1.00  0.00    -0.110 OA 
HETATM    5  C   UNL     2     -12.453   6.358  70.486  1.00  0.00     0.483 C  
HETATM    6  C   UNL     5      -8.709   6.859  69.626  1.00  0.00    -0.141 C  
HETATM    7  C   UNL     3      -7.285   9.329  68.384  1.00  0.00    -0.076 A  
HETATM    8  C   UNL     2     -11.373   8.572  69.886  1.00  0.00     0.057 C  
HETATM    9  O   UNL     4     -11.836  11.907  67.360  1.00  0.00    -0.571 OA 
HETATM   10  H   UNL     3      -8.369  10.638  69.424  1.00  0.00     0.000 HD 
HETATM   11  C   UNL     3      -7.382   8.457  67.288  1.00  0.00    -0.085 A  
HETATM   12  H   UNL     4     -11.683  12.596  67.995  1.00  0.00     0.000 HD 
HETATM   13  O   UNL     5     -11.589   6.979  67.793  1.00  0.00    -0.333 OA 
HETATM   14  O   UNL     5      -9.084   8.011  69.908  1.00  0.00    -0.144 OA 
HETATM   15  C   UNL     4     -10.759  11.415  66.634  1.00  0.00    -0.269 A  
HETATM   16  C   UNL     5     -10.445   6.189  67.607  1.00  0.00    -0.234 A  
HETATM   17  H   UNL     5     -11.451   7.551  68.540  1.00  0.00     0.000 HD 
HETATM   18  O   UNL     5      -8.031   6.119  70.432  1.00  0.00    -0.103 OA 
HETATM   19  C   UNL     4     -10.983  10.402  65.700  1.00  0.00     0.305 A  
HETATM   20  C   UNL     3      -6.353   7.567  67.016  1.00  0.00    -0.053 A  
HETATM   21  C   UNL     3      -5.248   7.537  67.855  1.00  0.00    -0.026 A  
HETATM   22  O   UNL     4      -8.301  13.513  68.260  1.00  0.00    -0.156 OA 
HETATM   23  C   UNL     5     -10.649   5.341  66.501  1.00  0.00    -0.348 A  
HETATM   24  C   UNL     4      -9.894   9.897  65.002  1.00  0.00    -0.323 A  
HETATM   25  C   UNL     5      -9.706   4.378  66.190  1.00  0.00    -0.220 A  
HETATM   26  C   UNL     4      -8.624  10.443  65.200  1.00  0.00    -0.189 A  
HETATM   27  C   UNL     3      -5.174   8.406  68.960  1.00  0.00    -0.031 A  
HETATM   28  C   UNL     4      -8.414  11.437  66.164  1.00  0.00    -0.105 A  
HETATM   29  C   UNL     5      -8.560   4.243  66.943  1.00  0.00    -0.108 A  
HETATM   30  C   UNL     3      -6.202   9.301  69.267  1.00  0.00    -0.041 A  
HETATM   31  C   UNL     4      -9.481  11.896  66.937  1.00  0.00    -0.205 A  
HETATM   32  C   UNL     3      -6.234  10.058  70.543  1.00  0.00    -0.109 C  
HETATM   33  C   UNL     5      -8.354   5.101  67.997  1.00  0.00    -0.097 A  
HETATM   34  C   UNL     5      -9.268   6.107  68.380  1.00  0.00    -0.111 A  
HETATM   35  O   UNL     3      -7.351  10.603  70.888  1.00  0.00     0.365 OA 
HETATM   36  C   UNL     4      -9.295  12.754  68.171  1.00  0.00    -0.214 C  
HETATM   37  O   UNL     3      -5.138  10.149  71.248  1.00  0.00    -0.060 OA 
HETATM   38  O   UNL     4     -10.353  12.713  68.922  1.00  0.00    -0.157 OA 
ENDROOT
BRANCH   3  39
HETATM   39  C   UNL     2     -10.530   7.105  71.829  1.00  0.00    -0.197 C  
BRANCH  39  40
HETATM   40  C   UNL     2     -10.097   7.954  73.030  1.00  0.00    -0.317 C  
HETATM   41  O   UNL     2      -8.924   8.695  72.758  1.00  0.00    -0.356 OA 
HETATM   42  H   UNL     2      -8.656   9.222  73.502  1.00  0.00     0.000 HD 
ENDBRANCH  39  40
ENDBRANCH   3  39
TORSDOF 2
ENDMDL
MODEL        5
REMARK 921   NORMALIZED FREE ENERGY PREDICTED BY IDOCK:   -4.99 KCAL/MOL
REMARK 922        TOTAL FREE ENERGY PREDICTED BY IDOCK:   -5.87 KCAL/MOL
REMARK 923 INTER-LIGAND FREE ENERGY PREDICTED BY IDOCK:   -5.11 KCAL/MOL
REMARK 924 INTRA-LIGAND FREE ENERGY PREDICTED BY IDOCK:   -0.76 KCAL/MOL
REMARK 927      BINDING AFFINITY PREDICTED BY RF-SCORE:    0.00 PKD
ROOT
HETATM    1 MG   UNL     1      -6.545  10.618  68.968  1.00  0.00    -0.049 Mg 
HETATM    2  C   UNL     2     -10.597  11.921  69.394  1.00  0.00     0.118 C  
HETATM    3  N   UNL     2     -10.698  10.534  68.869  1.00  0.00    -0.204 N  
HETATM    4  O   UNL     3      -8.007   7.518  71.342  1.00  0.00    -0.092 OA 
HETATM    5  C   UNL     2     -11.033  10.411  67.407  1.00  0.00    -0.270 C  
HETATM    6  C   UNL     5     -10.735   7.138  69.458  1.00  0.00    -0.239 C  
HETATM    7  C   UNL     3      -8.460   6.206  71.361  1.00  0.00    -0.128 A  
HETATM    8  C   UNL     2      -9.337   9.984  69.241  1.00  0.00    -0.214 C  
HETATM    9  O   UNL     4      -5.217  10.233  70.069  1.00  0.00    -0.037 OA 
HETATM   10  H   UNL     3      -8.179   8.024  72.127  1.00  0.00     0.000 HD 
HETATM   11  C   UNL     3      -8.204   5.458  70.200  1.00  0.00    -0.100 A  
HETATM   12  H   UNL     4      -5.262  10.650  70.921  1.00  0.00     0.000 HD 
HETATM   13  O   UNL     5      -8.797   8.605  67.057  1.00  0.00    -0.128 OA 
HETATM   14  O   UNL     5     -10.124   7.962  70.162  1.00  0.00    -0.190 OA 
HETATM   15  C   UNL     4      -5.194   8.846  70.003  1.00  0.00    -0.029 A  
HETATM   16  C   UNL     5      -9.378   7.329  67.078  1.00  0.00    -0.148 A  
HETATM   17  H   UNL     5      -8.998   9.049  67.873  1.00  0.00     0.000 HD 
HETATM   18  O   UNL     5     -11.932   6.739  69.714  1.00  0.00    -0.188 OA 
HETATM   19  C   UNL     4      -5.128   8.234  68.750  1.00  0.00    -0.028 A  
HETATM   20  C   UNL     3      -8.767   4.199  70.048  1.00  0.00    -0.114 A  
HETATM   21  C   UNL     3      -9.600   3.708  71.044  1.00  0.00    -0.246 A  
HETATM   22  O   UNL     4      -5.458   8.357  73.577  1.00  0.00    -0.055 OA 
HETATM   23  C   UNL     5      -9.080   6.671  65.869  1.00  0.00    -0.059 A  
HETATM   24  C   UNL     4      -5.136   6.846  68.694  1.00  0.00    -0.016 A  
HETATM   25  C   UNL     5      -9.646   5.438  65.600  1.00  0.00    -0.021 A  
HETATM   26  C   UNL     4      -5.150   6.100  69.875  1.00  0.00    -0.012 A  
HETATM   27  C   UNL     3      -9.860   4.477  72.193  1.00  0.00    -0.237 A  
HETATM   28  C   UNL     4      -5.248   6.733  71.121  1.00  0.00    -0.023 A  
HETATM   29  C   UNL     5     -10.492   4.837  66.507  1.00  0.00    -0.251 A  
HETATM   30  C   UNL     3      -9.320   5.754  72.367  1.00  0.00    -0.152 A  
HETATM   31  C   UNL     4      -5.329   8.124  71.192  1.00  0.00    -0.029 A  
HETATM   32  C   UNL     3      -9.760   6.655  73.460  1.00  0.00    -0.191 C  
HETATM   33  C   UNL     5     -10.745   5.471  67.700  1.00  0.00    -0.198 A  
HETATM   34  C   UNL     5     -10.209   6.730  68.048  1.00  0.00    -0.200 A  
HETATM   35  O   UNL     3      -9.461   7.906  73.362  1.00  0.00    -0.271 OA 
HETATM   36  C   UNL     4      -5.711   8.862  72.458  1.00  0.00    -0.075 C  
HETATM   37  O   UNL     3     -10.413   6.146  74.470  1.00  0.00    -0.265 OA 
HETATM   38  O   UNL     4      -6.105  10.069  72.184  1.00  0.00    -0.229 OA 
ENDROOT
BRANCH   3  39
HETATM   39  C   UNL     2     -11.875   9.765  69.627  1.00  0.00     0.196 C  
BRANCH  39  40
HETATM   40  C   UNL     2     -12.323  10.323  70.984  1.00  0.00    -0.381 C  
HETATM   41  O   UNL     2     -11.979   9.459  72.049  1.00  0.00    -0.355 OA 
HETATM   42  H   UNL     2     -12.256   9.804  72.890  1.00  0.00     0.000 HD 
ENDBRANCH  39  40
ENDBRANCH   3  39
TORSDOF 2
ENDMDL
MODEL        6
REMARK 921   NORMALIZED FREE ENERGY PREDICTED BY IDOCK:   -4.95 KCAL/MOL
REMARK 922        TOTAL FREE ENERGY PREDICTED BY IDOCK:   -5.82 KCAL/MOL
REMARK 923 INTER-LIGAND FREE ENERGY PREDICTED BY IDOCK:   -5.52 KCAL/MOL
REMARK 924 INTRA-LIGAND FREE ENERGY PREDICTED BY IDOCK:   -0.30 KCAL/MOL
REMARK 927      BINDING AFFINITY PREDICTED BY RF-SCORE:    0.00 PKD
ROOT
HETATM    1 MG   UNL     1     -12.886  11.483  67.728  1.00  0.00     0.157 Mg 
HETATM    2  C   UNL     2     -11.658  10.066  71.573  1.00  0.00    -0.224 C  
HETATM    3  N   UNL     2     -10.799   9.333  70.606  1.00  0.00    -0.255 N  
HETATM    4  O   UNL     3      -8.799  12.262  67.463  1.00  0.00    -0.166 OA 
HETATM    5  C   UNL     2     -11.179   7.901  70.349  1.00  0.00    -0.234 C  
HETATM    6  C   UNL     5      -7.980   9.243  68.626  1.00  0.00    -0.100 C  
HETATM    7  C   UNL     3      -7.582  11.832  66.950  1.00  0.00    -0.119 A  
HETATM    8  C   UNL     2     -10.902  10.230  69.391  1.00  0.00    -0.245 C  
HETATM    9  O   UNL     4     -12.778  13.013  66.849  1.00  0.00    -0.022 OA 
HETATM   10  H   UNL     3      -8.749  12.932  68.134  1.00  0.00     0.000 HD 
HETATM   11  C   UNL     3      -7.656  10.841  65.958  1.00  0.00    -0.130 A  
HETATM   12  H   UNL     4     -12.695  13.788  67.392  1.00  0.00     0.000 HD 
HETATM   13  O   UNL     5     -11.092   8.401  67.498  1.00  0.00    -0.458 OA 
HETATM   14  O   UNL     5      -8.593  10.285  68.920  1.00  0.00    -0.131 OA 
HETATM   15  C   UNL     4     -11.779  12.734  65.925  1.00  0.00    -0.414 A  
HETATM   16  C   UNL     5      -9.837   7.916  67.101  1.00  0.00    -0.208 A  
HETATM   17  H   UNL     5     -10.968   9.073  68.159  1.00  0.00     0.000 HD 
HETATM   18  O   UNL     5      -6.973   8.803  69.297  1.00  0.00    -0.056 OA 
HETATM   19  C   UNL     4     -11.900  11.594  65.128  1.00  0.00     0.065 A  
HETATM   20  C   UNL     3      -6.499  10.221  65.509  1.00  0.00    -0.121 A  
HETATM   21  C   UNL     3      -5.282  10.576  66.073  1.00  0.00    -0.079 A  
HETATM   22  O   UNL     4      -9.720  15.569  66.821  1.00  0.00    -0.226 OA 
HETATM   23  C   UNL     5     -10.021   6.920  66.122  1.00  0.00     0.168 A  
HETATM   24  C   UNL     4     -10.881  11.308  64.229  1.00  0.00    -0.398 A  
HETATM   25  C   UNL     5      -8.933   6.203  65.659  1.00  0.00    -0.056 A  
HETATM   26  C   UNL     4      -9.800  12.181  64.099  1.00  0.00    -0.189 A  
HETATM   27  C   UNL     3      -5.226  11.558  67.079  1.00  0.00    -0.098 A  
HETATM   28  C   UNL     4      -9.681  13.302  64.930  1.00  0.00     0.098 A  
HETATM   29  C   UNL     5      -7.665   6.457  66.136  1.00  0.00    -0.092 A  
HETATM   30  C   UNL     3      -6.376  12.188  67.562  1.00  0.00    -0.129 A  
HETATM   31  C   UNL     4     -10.651  13.559  65.899  1.00  0.00    -0.284 A  
HETATM   32  C   UNL     3      -6.354  13.056  68.765  1.00  0.00    -0.084 C  
HETATM   33  C   UNL     5      -7.493   7.457  67.063  1.00  0.00    -0.098 A  
HETATM   34  C   UNL     5      -8.552   8.231  67.587  1.00  0.00    -0.130 A  
HETATM   35  O   UNL     3      -7.483  13.332  69.325  1.00  0.00     0.089 OA 
HETATM   36  C   UNL     4     -10.461  14.575  67.006  1.00  0.00    -0.268 C  
HETATM   37  O   UNL     3      -5.206  13.508  69.193  1.00  0.00    -0.073 OA 
HETATM   38  O   UNL     4     -11.289  14.351  67.981  1.00  0.00    -0.268 OA 
ENDROOT
BRANCH   3  39
HETATM   39  C   UNL     2      -9.306   9.269  71.170  1.00  0.00    -0.189 C  
BRANCH  39  40
HETATM   40  C   UNL     2      -9.017   8.264  72.292  1.00  0.00    -0.213 C  
HETATM   41  O   UNL     2      -7.832   8.582  72.993  1.00  0.00    -0.336 OA 
HETATM   42  H   UNL     2      -7.652   7.959  73.688  1.00  0.00     0.000 HD 
ENDBRANCH  39  40
ENDBRANCH   3  39
TORSDOF 2
ENDMDL
MODEL        7
REMARK 921   NORMALIZED FREE ENERGY PREDICTED BY IDOCK:   -4.90 KCAL/MOL
REMARK 922        TOTAL FREE ENERGY PREDICTED BY IDOCK:   -5.76 KCAL/MOL
REMARK 923 INTER-LIGAND FREE ENERGY PREDICTED BY IDOCK:   -5.44 KCAL/MOL
REMARK 924 INTRA-LIGAND FREE ENERGY PREDICTED BY IDOCK:   -0.31 KCAL/MOL
REMARK 927      BINDING AFFINITY PREDICTED BY RF-SCORE:    0.00 PKD
ROOT
HETATM    1 MG   UNL     1     -10.214   3.927  69.518  1.00  0.00    -0.201 Mg 
HETATM    2  C   UNL     2     -12.563   7.199  70.958  1.00  0.00    -0.290 C  
HETATM    3  N   UNL     2     -11.153   7.624  71.165  1.00  0.00    -0.247 N  
HETATM    4  O   UNL     3      -8.542   7.005  67.259  1.00  0.00    -0.120 OA 
HETATM    5  C   UNL     2     -10.646   7.541  72.579  1.00  0.00    -0.270 C  
HETATM    6  C   UNL     5      -8.266   9.021  69.905  1.00  0.00    -0.124 C  
HETATM    7  C   UNL     3      -7.468   7.876  67.126  1.00  0.00    -0.092 A  
HETATM    8  C   UNL     2     -10.432   6.714  70.193  1.00  0.00    -0.210 C  
HETATM    9  O   UNL     4      -9.890   3.199  67.940  1.00  0.00    -0.192 OA 
HETATM   10  H   UNL     3      -9.304   7.209  66.730  1.00  0.00     0.000 HD 
HETATM   11  C   UNL     3      -6.341   7.575  67.909  1.00  0.00    -0.053 A  
HETATM   12  H   UNL     4     -10.561   3.339  67.283  1.00  0.00     0.000 HD 
HETATM   13  O   UNL     5      -8.323   6.084  71.649  1.00  0.00    -0.124 OA 
HETATM   14  O   UNL     5      -9.093   8.392  69.221  1.00  0.00    -0.149 OA 
HETATM   15  C   UNL     4      -8.600   3.646  67.687  1.00  0.00    -0.100 A  
HETATM   16  C   UNL     5      -7.315   7.056  71.571  1.00  0.00    -0.080 A  
HETATM   17  H   UNL     5      -9.046   6.344  71.089  1.00  0.00     0.000 HD 
HETATM   18  O   UNL     5      -8.289  10.301  70.041  1.00  0.00    -0.108 OA 
HETATM   19  C   UNL     4      -7.615   3.440  68.653  1.00  0.00    -0.052 A  
HETATM   20  C   UNL     3      -5.288   8.474  67.983  1.00  0.00    -0.035 A  
HETATM   21  C   UNL     3      -5.378   9.677  67.296  1.00  0.00    -0.036 A  
HETATM   22  O   UNL     4      -9.396   5.090  64.467  1.00  0.00    -0.025 OA 
HETATM   23  C   UNL     5      -6.243   6.672  72.400  1.00  0.00    -0.046 A  
HETATM   24  C   UNL     4      -6.335   3.919  68.402  1.00  0.00    -0.036 A  
HETATM   25  C   UNL     5      -5.176   7.531  72.586  1.00  0.00    -0.037 A  
HETATM   26  C   UNL     4      -6.048   4.536  67.183  1.00  0.00    -0.031 A  
HETATM   27  C   UNL     3      -6.521   9.972  66.530  1.00  0.00    -0.073 A  
HETATM   28  C   UNL     4      -7.058   4.762  66.239  1.00  0.00    -0.075 A  
HETATM   29  C   UNL     5      -5.141   8.759  71.960  1.00  0.00    -0.041 A  
HETATM   30  C   UNL     3      -7.604   9.092  66.450  1.00  0.00    -0.092 A  
HETATM   31  C   UNL     4      -8.368   4.366  66.510  1.00  0.00    -0.105 A  
HETATM   32  C   UNL     3      -8.895   9.484  65.831  1.00  0.00    -0.164 C  
HETATM   33  C   UNL     5      -6.173   9.107  71.123  1.00  0.00    -0.070 A  
HETATM   34  C   UNL     5      -7.298   8.287  70.883  1.00  0.00    -0.059 A  
HETATM   35  O   UNL     3      -9.926   8.750  66.081  1.00  0.00    -0.275 OA 
HETATM   36  C   UNL     4      -9.552   4.813  65.680  1.00  0.00    -0.174 C  
HETATM   37  O   UNL     3      -8.928  10.537  65.060  1.00  0.00    -0.183 OA 
HETATM   38  O   UNL     4     -10.660   4.660  66.339  1.00  0.00    -0.252 OA 
ENDROOT
BRANCH   3  39
HETATM   39  C   UNL     2     -11.001   9.162  70.761  1.00  0.00    -0.270 C  
BRANCH  39  40
HETATM   40  C   UNL     2     -12.284   9.993  70.648  1.00  0.00    -0.269 C  
HETATM   41  O   UNL     2     -12.547  10.380  69.314  1.00  0.00    -0.686 OA 
HETATM   42  H   UNL     2     -13.342  10.895  69.243  1.00  0.00     0.000 HD 
ENDBRANCH  39  40
ENDBRANCH   3  39
TORSDOF 2
ENDMDL
MODEL        8
REMARK 921   NORMALIZED FREE ENERGY PREDICTED BY IDOCK:   -4.88 KCAL/MOL
REMARK 922        TOTAL FREE ENERGY PREDICTED BY IDOCK:   -5.74 KCAL/MOL
REMARK 923 INTER-LIGAND FREE ENERGY PREDICTED BY IDOCK:   -4.98 KCAL/MOL
REMARK 924 INTRA-LIGAND FREE ENERGY PREDICTED BY IDOCK:   -0.75 KCAL/MOL
REMARK 927      BINDING AFFINITY PREDICTED BY RF-SCORE:    0.00 PKD
ROOT
HETATM    1 MG   UNL     1      -7.331   8.233  65.942  1.00  0.00    -0.066 Mg 
HETATM    2  C   UNL     2      -5.141  10.599  68.753  1.00  0.00    -0.041 C  
HETATM    3  N   UNL     2      -6.509  10.499  69.326  1.00  0.00    -0.049 N  
HETATM    4  O   UNL     3      -8.058   6.021  69.399  1.00  0.00    -0.107 OA 
HETATM    5  C   UNL     2      -7.373  11.721  69.174  1.00  0.00    -0.005 C  
HETATM    6  C   UNL     5      -8.823   8.740  71.177  1.00  0.00    -0.219 C  
HETATM    7  C   UNL     3      -8.973   5.731  70.403  1.00  0.00    -0.146 A  
HETATM    8  C   UNL     2      -7.034   9.275  68.606  1.00  0.00    -0.062 C  
HETATM    9  O   UNL     4      -7.298   6.548  65.409  1.00  0.00    -0.071 OA 
HETATM   10  H   UNL     3      -7.169   5.727  69.557  1.00  0.00     0.000 HD 
HETATM   11  C   UNL     3     -10.288   6.167  70.170  1.00  0.00    -0.269 A  
HETATM   12  H   UNL     4      -6.470   6.100  65.528  1.00  0.00     0.000 HD 
HETATM   13  O   UNL     5      -9.500  10.072  68.106  1.00  0.00    -0.138 OA 
HETATM   14  O   UNL     5      -7.909   8.212  70.519  1.00  0.00    -0.082 OA 
HETATM   15  C   UNL     4      -8.430   6.037  66.033  1.00  0.00    -0.139 A  
HETATM   16  C   UNL     5     -10.357   9.864  69.197  1.00  0.00    -0.209 A  
HETATM   17  H   UNL     5      -8.635   9.746  68.326  1.00  0.00     0.000 HD 
HETATM   18  O   UNL     5      -8.716   9.032  72.426  1.00  0.00    -0.347 OA 
HETATM   19  C   UNL     4      -9.648   6.696  65.860  1.00  0.00     0.181 A  
HETATM   20  C   UNL     3     -11.235   6.085  71.181  1.00  0.00    -0.328 A  
HETATM   21  C   UNL     3     -10.856   5.594  72.422  1.00  0.00    -0.298 A  
HETATM   22  O   UNL     4      -6.689   3.318  67.663  1.00  0.00    -0.040 OA 
HETATM   23  C   UNL     5     -11.639  10.348  68.870  1.00  0.00    -0.208 A  
HETATM   24  C   UNL     4     -10.767   6.194  66.512  1.00  0.00    -0.207 A  
HETATM   25  C   UNL     5     -12.632  10.366  69.832  1.00  0.00    -0.059 A  
HETATM   26  C   UNL     4     -10.667   5.026  67.272  1.00  0.00     0.052 A  
HETATM   27  C   UNL     3      -9.529   5.179  72.645  1.00  0.00    -0.159 A  
HETATM   28  C   UNL     4      -9.429   4.399  67.459  1.00  0.00    -0.201 A  
HETATM   29  C   UNL     5     -12.387   9.905  71.108  1.00  0.00    -0.466 A  
HETATM   30  C   UNL     3      -8.551   5.264  71.651  1.00  0.00    -0.135 A  
HETATM   31  C   UNL     4      -8.279   4.937  66.883  1.00  0.00    -0.107 A  
HETATM   32  C   UNL     3      -7.113   5.039  71.938  1.00  0.00    -0.067 C  
HETATM   33  C   UNL     5     -11.143   9.399  71.404  1.00  0.00    -0.450 A  
HETATM   34  C   UNL     5     -10.077   9.349  70.479  1.00  0.00    -0.335 A  
HETATM   35  O   UNL     3      -6.256   5.445  71.064  1.00  0.00    -0.027 OA 
HETATM   36  C   UNL     4      -6.882   4.488  67.258  1.00  0.00    -0.055 C  
HETATM   37  O   UNL     3      -6.780   4.434  73.047  1.00  0.00    -0.051 OA 
HETATM   38  O   UNL     4      -6.004   5.379  66.909  1.00  0.00    -0.021 OA 
ENDROOT
BRANCH   3  39
HETATM   39  C   UNL     2      -6.406  10.260  70.902  1.00  0.00     0.040 C  
BRANCH  39  40
HETATM   40  C   UNL     2      -5.131   9.595  71.433  1.00  0.00    -0.057 C  
HETATM   41  O   UNL     2      -5.398   8.344  72.035  1.00  0.00    -0.035 OA 
HETATM   42  H   UNL     2      -4.609   7.931  72.364  1.00  0.00     0.000 HD 
ENDBRANCH  39  40
ENDBRANCH   3  39
TORSDOF 2
ENDMDL
MODEL        9
REMARK 921   NORMALIZED FREE ENERGY PREDICTED BY IDOCK:   -4.66 KCAL/MOL
REMARK 922        TOTAL FREE ENERGY PREDICTED BY IDOCK:   -5.50 KCAL/MOL
REMARK 923 INTER-LIGAND FREE ENERGY PREDICTED BY IDOCK:   -5.22 KCAL/MOL
REMARK 924 INTRA-LIGAND FREE ENERGY PREDICTED BY IDOCK:   -0.28 KCAL/MOL
REMARK 927      BINDING AFFINITY PREDICTED BY RF-SCORE:    0.00 PKD
ROOT
HETATM    1 MG   UNL     1     -12.895  11.731  68.009  1.00  0.00     0.026 Mg 
HETATM    2  C   UNL     2     -11.687   9.938  71.700  1.00  0.00    -0.252 C  
HETATM    3  N   UNL     2     -10.818   9.309  70.670  1.00  0.00    -0.255 N  
HETATM    4  O   UNL     3      -8.810  12.547  67.853  1.00  0.00    -0.168 OA 
HETATM    5  C   UNL     2     -11.190   7.908  70.267  1.00  0.00    -0.200 C  
HETATM    6  C   UNL     5      -7.985   9.429  68.711  1.00  0.00    -0.092 C  
HETATM    7  C   UNL     3      -7.588  12.176  67.308  1.00  0.00    -0.156 A  
HETATM    8  C   UNL     2     -10.917  10.324  69.551  1.00  0.00    -0.258 C  
HETATM    9  O   UNL     4     -12.788  13.342  67.290  1.00  0.00     0.112 OA 
HETATM   10  H   UNL     3      -8.767  13.146  68.588  1.00  0.00     0.000 HD 
HETATM   11  C   UNL     3      -7.651  11.290  66.220  1.00  0.00    -0.032 A  
HETATM   12  H   UNL     4     -12.712  14.059  67.909  1.00  0.00     0.000 HD 
HETATM   13  O   UNL     5     -11.086   8.694  67.482  1.00  0.00    -0.457 OA 
HETATM   14  O   UNL     5      -8.605  10.434  69.104  1.00  0.00    -0.149 OA 
HETATM   15  C   UNL     4     -11.782  13.161  66.350  1.00  0.00    -0.379 A  
HETATM   16  C   UNL     5      -9.827   8.256  67.047  1.00  0.00    -0.232 A  
HETATM   17  H   UNL     5     -10.970   9.296  68.208  1.00  0.00     0.000 HD 
HETATM   18  O   UNL     5      -6.981   8.927  69.341  1.00  0.00    -0.051 OA 
HETATM   19  C   UNL     4     -11.893  12.107  65.441  1.00  0.00    -0.357 A  
HETATM   20  C   UNL     3      -6.488  10.722  65.720  1.00  0.00    -0.074 A  
HETATM   21  C   UNL     3      -5.276  11.023  66.324  1.00  0.00    -0.122 A  
HETATM   22  O   UNL     4      -9.741  15.899  67.542  1.00  0.00    -0.222 OA 
HETATM   23  C   UNL     5     -10.000   7.364  65.971  1.00  0.00     0.352 A  
HETATM   24  C   UNL     4     -10.867  11.917  64.524  1.00  0.00    -0.368 A  
HETATM   25  C   UNL     5      -8.906   6.701  65.446  1.00  0.00     0.065 A  
HETATM   26  C   UNL     4      -9.788  12.803  64.491  1.00  0.00    -0.052 A  
HETATM   27  C   UNL     3      -5.231  11.898  67.425  1.00  0.00    -0.090 A  
HETATM   28  C   UNL     4      -9.679  13.835  65.432  1.00  0.00    -0.073 A  
HETATM   29  C   UNL     5      -7.643   6.910  65.955  1.00  0.00    -0.093 A  
HETATM   30  C   UNL     3      -6.387  12.473  67.961  1.00  0.00    -0.087 A  
HETATM   31  C   UNL     4     -10.657  13.989  66.415  1.00  0.00    -0.280 A  
HETATM   32  C   UNL     3      -6.377  13.215  69.246  1.00  0.00    -0.106 C  
HETATM   33  C   UNL     5      -7.481   7.812  66.980  1.00  0.00    -0.095 A  
HETATM   34  C   UNL     5      -8.546   8.525  67.571  1.00  0.00    -0.128 A  
HETATM   35  O   UNL     3      -7.511  13.428  69.823  1.00  0.00     0.485 OA 
HETATM   36  C   UNL     4     -10.479  14.888  67.620  1.00  0.00    -0.249 C  
HETATM   37  O   UNL     3      -5.234  13.626  69.725  1.00  0.00    -0.085 OA 
HETATM   38  O   UNL     4     -11.312  14.565  68.562  1.00  0.00    -0.260 OA 
ENDROOT
BRANCH   3  39
HETATM   39  C   UNL     2      -9.328   9.194  71.235  1.00  0.00    -0.215 C  
BRANCH  39  40
HETATM   40  C   UNL     2      -9.094   8.252  72.423  1.00  0.00    -0.237 C  
HETATM   41  O   UNL     2      -7.935   8.600  73.153  1.00  0.00    -0.392 OA 
HETATM   42  H   UNL     2      -7.789   8.017  73.888  1.00  0.00     0.000 HD 
ENDBRANCH  39  40
ENDBRANCH   3  39
TORSDOF 2
ENDMDL
MODEL       10
REMARK 921   NORMALIZED FREE ENERGY PREDICTED BY IDOCK:   -4.63 KCAL/MOL
REMARK 922        TOTAL FREE ENERGY PREDICTED BY IDOCK:   -5.46 KCAL/MOL
REMARK 923 INTER-LIGAND FREE ENERGY PREDICTED BY IDOCK:   -5.20 KCAL/MOL
REMARK 924 INTRA-LIGAND FREE ENERGY PREDICTED BY IDOCK:   -0.26 KCAL/MOL
REMARK 927      BINDING AFFINITY PREDICTED BY RF-SCORE:    0.00 PKD
ROOT
HETATM    1 MG   UNL     1     -10.654   4.365  68.395  1.00  0.00    -0.075 Mg 
HETATM    2  C   UNL     2     -13.215   6.621  70.975  1.00  0.00     0.347 C  
HETATM    3  N   UNL     2     -11.895   6.619  71.658  1.00  0.00    -0.321 N  
HETATM    4  O   UNL     3      -8.391   7.851  68.716  1.00  0.00    -0.125 OA 
HETATM    5  C   UNL     2     -11.766   5.681  72.828  1.00  0.00    -0.173 C  
HETATM    6  C   UNL     5      -8.750   7.977  72.032  1.00  0.00    -0.147 C  
HETATM    7  C   UNL     3      -7.298   8.456  69.323  1.00  0.00    -0.071 A  
HETATM    8  C   UNL     2     -10.972   6.297  70.502  1.00  0.00    -0.312 C  
HETATM    9  O   UNL     4      -9.957   4.596  66.787  1.00  0.00    -0.199 OA 
HETATM   10  H   UNL     3      -8.987   8.438  68.267  1.00  0.00     0.000 HD 
HETATM   11  C   UNL     3      -6.415   7.588  69.988  1.00  0.00    -0.034 A  
HETATM   12  H   UNL     4     -10.435   5.187  66.218  1.00  0.00     0.000 HD 
HETATM   13  O   UNL     5      -9.318   4.626  71.699  1.00  0.00    -0.134 OA 
HETATM   14  O   UNL     5      -9.390   7.982  70.965  1.00  0.00    -0.146 OA 
HETATM   15  C   UNL     4      -8.635   4.887  67.097  1.00  0.00    -0.104 A  
HETATM   16  C   UNL     5      -8.300   5.293  72.396  1.00  0.00    -0.118 A  
HETATM   17  H   UNL     5      -9.868   5.268  71.266  1.00  0.00     0.000 HD 
HETATM   18  O   UNL     5      -8.776   8.948  72.877  1.00  0.00    -0.313 OA 
HETATM   19  C   UNL     4      -7.933   4.018  67.934  1.00  0.00    -0.089 A  
HETATM   20  C   UNL     3      -5.394   8.105  70.772  1.00  0.00    -0.025 A  
HETATM   21  C   UNL     3      -5.278   9.481  70.908  1.00  0.00    -0.039 A  
HETATM   22  O   UNL     4      -8.551   7.983  65.230  1.00  0.00    -0.153 OA 
HETATM   23  C   UNL     5      -7.485   4.341  73.039  1.00  0.00    -0.080 A  
HETATM   24  C   UNL     4      -6.621   4.335  68.261  1.00  0.00    -0.046 A  
HETATM   25  C   UNL     5      -6.480   4.760  73.891  1.00  0.00    -0.061 A  
HETATM   26  C   UNL     4      -6.018   5.467  67.709  1.00  0.00    -0.018 A  
HETATM   27  C   UNL     3      -6.182  10.337  70.250  1.00  0.00    -0.113 A  
HETATM   28  C   UNL     4      -6.749   6.343  66.897  1.00  0.00    -0.060 A  
HETATM   29  C   UNL     5      -6.258   6.102  74.114  1.00  0.00    -0.065 A  
HETATM   30  C   UNL     3      -7.229   9.845  69.466  1.00  0.00    -0.095 A  
HETATM   31  C   UNL     4      -8.094   6.088  66.628  1.00  0.00    -0.106 A  
HETATM   32  C   UNL     3      -8.310  10.722  68.953  1.00  0.00    -0.147 C  
HETATM   33  C   UNL     5      -7.035   7.023  73.452  1.00  0.00    -0.073 A  
HETATM   34  C   UNL     5      -8.080   6.675  72.569  1.00  0.00    -0.102 A  
HETATM   35  O   UNL     3      -9.387  10.157  68.525  1.00  0.00    -0.143 OA 
HETATM   36  C   UNL     4      -9.017   7.111  65.999  1.00  0.00    -0.111 C  
HETATM   37  O   UNL     3      -8.121  12.014  68.947  1.00  0.00    -0.041 OA 
HETATM   38  O   UNL     4     -10.259   6.803  66.217  1.00  0.00    -0.009 OA 
ENDROOT
BRANCH   3  39
HETATM   39  C   UNL     2     -11.608   8.071  72.260  1.00  0.00    -0.366 C  
BRANCH  39  40
HETATM   40  C   UNL     2     -12.717   9.121  72.128  1.00  0.00    -0.395 C  
HETATM   41  O   UNL     2     -13.597   9.102  73.235  1.00  0.00    -0.935 OA 
HETATM   42  H   UNL     2     -14.284   9.753  73.153  1.00  0.00     0.000 HD 
ENDBRANCH  39  40
ENDBRANCH   3  39
TORSDOF 2
ENDMDL
MODEL       11
REMARK 921   NORMALIZED FREE ENERGY PREDICTED BY IDOCK:   -4.57 KCAL/MOL
REMARK 922        TOTAL FREE ENERGY PREDICTED BY IDOCK:   -5.39 KCAL/MOL
REMARK 923 INTER-LIGAND FREE ENERGY PREDICTED BY IDOCK:   -5.06 KCAL/MOL
REMARK 924 INTRA-LIGAND FREE ENERGY PREDICTED BY IDOCK:   -0.33 KCAL/MOL
REMARK 927      BINDING AFFINITY PREDICTED BY RF-SCORE:    0.00 PKD
ROOT
HETATM    1 MG   UNL     1     -12.372   9.410  67.857  1.00  0.00     0.264 Mg 
HETATM    2  C   UNL     2     -12.780  11.888  64.394  1.00  0.00     0.018 C  
HETATM    3  N   UNL     2     -12.066  12.736  65.385  1.00  0.00    -0.439 N  
HETATM    4  O   UNL     3      -8.377  10.463  67.303  1.00  0.00    -0.121 OA 
HETATM    5  C   UNL     2     -12.899  13.786  66.069  1.00  0.00    -0.240 C  
HETATM    6  C   UNL     5      -9.113  13.691  66.883  1.00  0.00    -0.240 C  
HETATM    7  C   UNL     3      -7.338  11.281  67.729  1.00  0.00    -0.094 A  
HETATM    8  C   UNL     2     -11.509  11.681  66.318  1.00  0.00    -0.145 C  
HETATM    9  O   UNL     4     -11.464   7.951  68.268  1.00  0.00     0.087 OA 
HETATM   10  H   UNL     3      -8.236  10.016  66.478  1.00  0.00     0.000 HD 
HETATM   11  C   UNL     3      -7.547  11.943  68.950  1.00  0.00    -0.036 A  
HETATM   12  H   UNL     4     -11.221   7.401  67.532  1.00  0.00     0.000 HD 
HETATM   13  O   UNL     5     -11.926  12.869  68.637  1.00  0.00    -0.313 OA 
HETATM   14  O   UNL     5      -9.323  12.558  66.415  1.00  0.00    -0.234 OA 
HETATM   15  C   UNL     4     -10.460   8.467  69.077  1.00  0.00    -0.200 A  
HETATM   16  C   UNL     5     -10.905  13.773  68.962  1.00  0.00    -0.217 A  
HETATM   17  H   UNL     5     -11.716  12.450  67.810  1.00  0.00     0.000 HD 
HETATM   18  O   UNL     5      -8.556  14.640  66.215  1.00  0.00    -0.007 OA 
HETATM   19  C   UNL     4     -10.816   9.274  70.159  1.00  0.00    -0.275 A  
HETATM   20  C   UNL     3      -6.652  12.915  69.374  1.00  0.00    -0.062 A  
HETATM   21  C   UNL     3      -5.572  13.236  68.565  1.00  0.00    -0.084 A  
HETATM   22  O   UNL     4      -7.746   7.031  67.165  1.00  0.00    -0.104 OA 
HETATM   23  C   UNL     5     -11.216  14.393  70.188  1.00  0.00    -0.152 A  
HETATM   24  C   UNL     4      -9.802   9.810  70.943  1.00  0.00    -0.018 A  
HETATM   25  C   UNL     5     -10.416  15.418  70.662  1.00  0.00    -0.055 A  
HETATM   26  C   UNL     4      -8.470   9.490  70.675  1.00  0.00    -0.166 A  
HETATM   27  C   UNL     3      -5.386  12.577  67.335  1.00  0.00    -0.086 A  
HETATM   28  C   UNL     4      -8.131   8.704  69.566  1.00  0.00    -0.110 A  
HETATM   29  C   UNL     5      -9.309  15.834  69.954  1.00  0.00     0.084 A  
HETATM   30  C   UNL     3      -6.279  11.605  66.875  1.00  0.00    -0.149 A  
HETATM   31  C   UNL     4      -9.130   8.229  68.716  1.00  0.00    -0.144 A  
HETATM   32  C   UNL     3      -6.217  11.067  65.493  1.00  0.00     0.118 C  
HETATM   33  C   UNL     5      -8.994  15.196  68.778  1.00  0.00    -0.197 A  
HETATM   34  C   UNL     5      -9.760  14.145  68.227  1.00  0.00    -0.227 A  
HETATM   35  O   UNL     3      -7.249  10.432  65.051  1.00  0.00    -0.129 OA 
HETATM   36  C   UNL     4      -8.837   7.616  67.363  1.00  0.00    -0.124 C  
HETATM   37  O   UNL     3      -5.127  11.248  64.797  1.00  0.00    -0.221 OA 
HETATM   38  O   UNL     4      -9.898   7.627  66.615  1.00  0.00    -0.216 OA 
ENDROOT
BRANCH   3  39
HETATM   39  C   UNL     2     -10.904  13.547  64.647  1.00  0.00    -0.405 C  
BRANCH  39  40
HETATM   40  C   UNL     2     -11.214  14.984  64.209  1.00  0.00    -0.006 C  
HETATM   41  O   UNL     2     -10.168  15.875  64.542  1.00  0.00    -0.420 OA 
HETATM   42  H   UNL     2     -10.360  16.765  64.271  1.00  0.00     0.000 HD 
ENDBRANCH  39  40
ENDBRANCH   3  39
TORSDOF 2
ENDMDL
MODEL       12
REMARK 921   NORMALIZED FREE ENERGY PREDICTED BY IDOCK:   -4.43 KCAL/MOL
REMARK 922        TOTAL FREE ENERGY PREDICTED BY IDOCK:   -5.24 KCAL/MOL
REMARK 923 INTER-LIGAND FREE ENERGY PREDICTED BY IDOCK:   -4.74 KCAL/MOL
REMARK 924 INTRA-LIGAND FREE ENERGY PREDICTED BY IDOCK:   -0.50 KCAL/MOL
REMARK 927      BINDING AFFINITY PREDICTED BY RF-SCORE:    0.00 PKD
ROOT
HETATM    1 MG   UNL     1      -9.721   3.660  71.042  1.00  0.00    -0.113 Mg 
HETATM    2  C   UNL     2     -12.547   6.865  71.223  1.00  0.00    -0.345 C  
HETATM    3  N   UNL     2     -11.221   7.519  71.381  1.00  0.00    -0.239 N  
HETATM    4  O   UNL     3      -8.161   6.108  68.050  1.00  0.00    -0.112 OA 
HETATM    5  C   UNL     2     -10.861   7.937  72.780  1.00  0.00    -0.386 C  
HETATM    6  C   UNL     5      -8.384   8.847  69.944  1.00  0.00    -0.128 C  
HETATM    7  C   UNL     3      -7.178   7.034  67.724  1.00  0.00    -0.091 A  
HETATM    8  C   UNL     2     -10.308   6.464  70.793  1.00  0.00    -0.201 C  
HETATM    9  O   UNL     4      -9.156   2.540  69.797  1.00  0.00    -0.093 OA 
HETATM   10  H   UNL     3      -8.879   6.037  67.434  1.00  0.00     0.000 HD 
HETATM   11  C   UNL     3      -6.115   7.139  68.635  1.00  0.00    -0.030 A  
HETATM   12  H   UNL     4      -9.764   2.383  69.085  1.00  0.00     0.000 HD 
HETATM   13  O   UNL     5      -8.309   6.596  72.511  1.00  0.00    -0.113 OA 
HETATM   14  O   UNL     5      -9.062   7.935  69.437  1.00  0.00    -0.145 OA 
HETATM   15  C   UNL     4      -7.902   3.060  69.503  1.00  0.00    -0.045 A  
HETATM   16  C   UNL     5      -7.409   7.625  72.201  1.00  0.00    -0.072 A  
HETATM   17  H   UNL     5      -8.993   6.573  71.851  1.00  0.00     0.000 HD 
HETATM   18  O   UNL     5      -8.559  10.093  69.670  1.00  0.00    -0.176 OA 
HETATM   19  C   UNL     4      -7.008   3.290  70.550  1.00  0.00    -0.034 A  
HETATM   20  C   UNL     3      -5.178   8.152  68.494  1.00  0.00    -0.032 A  
HETATM   21  C   UNL     3      -5.324   9.067  67.461  1.00  0.00    -0.034 A  
HETATM   22  O   UNL     4      -8.504   3.340  65.948  1.00  0.00    -0.104 OA 
HETATM   23  C   UNL     5      -6.396   7.658  73.179  1.00  0.00    -0.063 A  
HETATM   24  C   UNL     4      -5.768   3.839  70.248  1.00  0.00    -0.017 A  
HETATM   25  C   UNL     5      -5.453   8.669  73.158  1.00  0.00    -0.078 A  
HETATM   26  C   UNL     4      -5.421   4.092  68.919  1.00  0.00    -0.013 A  
HETATM   27  C   UNL     3      -6.405   8.959  66.566  1.00  0.00    -0.062 A  
HETATM   28  C   UNL     4      -6.344   3.883  67.886  1.00  0.00    -0.037 A  
HETATM   29  C   UNL     5      -5.484   9.643  72.183  1.00  0.00    -0.005 A  
HETATM   30  C   UNL     3      -7.373   7.958  66.693  1.00  0.00    -0.088 A  
HETATM   31  C   UNL     4      -7.625   3.414  68.179  1.00  0.00    -0.057 A  
HETATM   32  C   UNL     3      -8.625   7.967  65.898  1.00  0.00    -0.153 C  
HETATM   33  C   UNL     5      -6.454   9.579  71.211  1.00  0.00     0.003 A  
HETATM   34  C   UNL     5      -7.452   8.581  71.165  1.00  0.00    -0.097 A  
HETATM   35  O   UNL     3      -9.592   7.210  66.294  1.00  0.00    -0.139 OA 
HETATM   36  C   UNL     4      -8.756   3.425  67.172  1.00  0.00    -0.122 C  
HETATM   37  O   UNL     3      -8.690   8.723  64.835  1.00  0.00    -0.183 OA 
HETATM   38  O   UNL     4      -9.905   3.330  67.771  1.00  0.00    -0.059 OA 
ENDROOT
BRANCH   3  39
HETATM   39  C   UNL     2     -11.193   8.869  70.527  1.00  0.00    -0.252 C  
BRANCH  39  40
HETATM   40  C   UNL     2     -11.733  10.139  71.195  1.00  0.00    -0.366 C  
HETATM   41  O   UNL     2     -11.322  11.309  70.517  1.00  0.00    -0.457 OA 
HETATM   42  H   UNL     2     -11.656  12.096  70.931  1.00  0.00     0.000 HD 
ENDBRANCH  39  40
ENDBRANCH   3  39
TORSDOF 2
ENDMDL
MODEL       13
REMARK 921   NORMALIZED FREE ENERGY PREDICTED BY IDOCK:   -4.37 KCAL/MOL
REMARK 922        TOTAL FREE ENERGY PREDICTED BY IDOCK:   -5.17 KCAL/MOL
REMARK 923 INTER-LIGAND FREE ENERGY PREDICTED BY IDOCK:   -5.05 KCAL/MOL
REMARK 924 INTRA-LIGAND FREE ENERGY PREDICTED BY IDOCK:   -0.12 KCAL/MOL
REMARK 927      BINDING AFFINITY PREDICTED BY RF-SCORE:    0.00 PKD
ROOT
HETATM    1 MG   UNL     1      -8.384   9.466  73.283  1.00  0.00     0.149 Mg 
HETATM    2  C   UNL     2     -12.595   8.793  72.947  1.00  0.00     0.184 C  
HETATM    3  N   UNL     2     -12.080   8.676  71.558  1.00  0.00    -0.302 N  
HETATM    4  O   UNL     3      -8.328   5.793  71.312  1.00  0.00    -0.123 OA 
HETATM    5  C   UNL     2     -12.334   9.860  70.665  1.00  0.00    -0.214 C  
HETATM    6  C   UNL     5     -10.622   6.762  69.090  1.00  0.00    -0.232 C  
HETATM    7  C   UNL     3      -8.159   5.149  70.093  1.00  0.00    -0.083 A  
HETATM    8  C   UNL     2     -10.614   8.397  71.816  1.00  0.00    -0.282 C  
HETATM    9  O   UNL     4      -7.016   8.598  73.992  1.00  0.00    -0.286 OA 
HETATM   10  H   UNL     3      -8.701   5.264  72.007  1.00  0.00     0.000 HD 
HETATM   11  C   UNL     3      -7.607   5.931  69.064  1.00  0.00    -0.090 A  
HETATM   12  H   UNL     4      -7.235   8.000  74.696  1.00  0.00     0.000 HD 
HETATM   13  O   UNL     5      -9.534   9.890  69.926  1.00  0.00    -0.220 OA 
HETATM   14  O   UNL     5     -10.431   6.594  70.308  1.00  0.00    -0.197 OA 
HETATM   15  C   UNL     4      -6.388   8.097  72.859  1.00  0.00    -0.081 A  
HETATM   16  C   UNL     5      -9.497   9.234  68.688  1.00  0.00    -0.146 A  
HETATM   17  H   UNL     5      -9.906   9.304  70.576  1.00  0.00     0.000 HD 
HETATM   18  O   UNL     5     -11.522   6.128  68.422  1.00  0.00    -0.152 OA 
HETATM   19  C   UNL     4      -6.066   8.977  71.824  1.00  0.00    -0.075 A  
HETATM   20  C   UNL     3      -7.562   5.439  67.767  1.00  0.00    -0.088 A  
HETATM   21  C   UNL     3      -8.090   4.184  67.504  1.00  0.00    -0.095 A  
HETATM   22  O   UNL     4      -6.394   4.662  73.991  1.00  0.00    -0.047 OA 
HETATM   23  C   UNL     5      -8.947  10.104  67.726  1.00  0.00    -0.129 A  
HETATM   24  C   UNL     4      -5.465   8.460  70.683  1.00  0.00    -0.028 A  
HETATM   25  C   UNL     5      -8.916   9.726  66.396  1.00  0.00    -0.176 A  
HETATM   26  C   UNL     4      -5.145   7.102  70.617  1.00  0.00    -0.023 A  
HETATM   27  C   UNL     3      -8.656   3.420  68.542  1.00  0.00    -0.122 A  
HETATM   28  C   UNL     4      -5.505   6.231  71.653  1.00  0.00    -0.027 A  
HETATM   29  C   UNL     5      -9.409   8.502  65.998  1.00  0.00    -0.266 A  
HETATM   30  C   UNL     3      -8.730   3.896  69.854  1.00  0.00    -0.123 A  
HETATM   31  C   UNL     4      -6.187   6.716  72.769  1.00  0.00    -0.054 A  
HETATM   32  C   UNL     3      -9.515   3.199  70.903  1.00  0.00    -0.160 C  
HETATM   33  C   UNL     5      -9.909   7.646  66.951  1.00  0.00    -0.304 A  
HETATM   34  C   UNL     5      -9.977   7.959  68.326  1.00  0.00    -0.204 A  
HETATM   35  O   UNL     3      -9.796   3.857  71.976  1.00  0.00    -0.158 OA 
HETATM   36  C   UNL     4      -6.848   5.812  73.788  1.00  0.00    -0.081 C  
HETATM   37  O   UNL     3      -9.875   1.960  70.700  1.00  0.00    -0.068 OA 
HETATM   38  O   UNL     4      -7.732   6.467  74.478  1.00  0.00    -0.098 OA 
ENDROOT
BRANCH   3  39
HETATM   39  C   UNL     2     -12.798   7.448  70.830  1.00  0.00     0.037 C  
BRANCH  39  40
HETATM   40  C   UNL     2     -14.245   7.139  71.230  1.00  0.00    -0.147 C  
HETATM   41  O   UNL     2     -14.313   6.186  72.271  1.00  0.00    -0.538 OA 
HETATM   42  H   UNL     2     -15.210   5.993  72.519  1.00  0.00     0.000 HD 
ENDBRANCH  39  40
ENDBRANCH   3  39
TORSDOF 2
ENDMDL
MODEL       14
REMARK 921   NORMALIZED FREE ENERGY PREDICTED BY IDOCK:   -4.37 KCAL/MOL
REMARK 922        TOTAL FREE ENERGY PREDICTED BY IDOCK:   -5.17 KCAL/MOL
REMARK 923 INTER-LIGAND FREE ENERGY PREDICTED BY IDOCK:   -4.38 KCAL/MOL
REMARK 924 INTRA-LIGAND FREE ENERGY PREDICTED BY IDOCK:   -0.79 KCAL/MOL
REMARK 927      BINDING AFFINITY PREDICTED BY RF-SCORE:    0.00 PKD
ROOT
HETATM    1 MG   UNL     1     -12.406   6.180  69.081  1.00  0.00    -0.373 Mg 
HETATM    2  C   UNL     2      -9.629   3.417  67.362  1.00  0.00    -0.095 C  
HETATM    3  N   UNL     2      -9.078   4.760  67.038  1.00  0.00    -0.115 N  
HETATM    4  O   UNL     3      -8.895   7.553  70.861  1.00  0.00    -0.142 OA 
HETATM    5  C   UNL     2      -9.284   5.226  65.622  1.00  0.00    -0.136 C  
HETATM    6  C   UNL     5      -7.216   7.503  67.977  1.00  0.00    -0.090 C  
HETATM    7  C   UNL     3      -7.900   8.521  70.835  1.00  0.00    -0.107 A  
HETATM    8  C   UNL     2      -9.770   5.614  68.079  1.00  0.00    -0.126 C  
HETATM    9  O   UNL     4     -12.885   6.638  70.719  1.00  0.00    -0.313 OA 
HETATM   10  H   UNL     3      -8.712   6.791  71.397  1.00  0.00     0.000 HD 
HETATM   11  C   UNL     3      -8.171   9.649  70.042  1.00  0.00    -0.197 A  
HETATM   12  H   UNL     4     -12.737   5.978  71.386  1.00  0.00     0.000 HD 
HETATM   13  O   UNL     5     -10.340   7.734  66.613  1.00  0.00    -0.418 OA 
HETATM   14  O   UNL     5      -7.842   6.779  68.772  1.00  0.00    -0.107 OA 
HETATM   15  C   UNL     4     -12.266   7.875  70.854  1.00  0.00    -0.121 A  
HETATM   16  C   UNL     5      -9.259   8.623  66.523  1.00  0.00    -0.187 A  
HETATM   17  H   UNL     5     -10.094   7.004  67.170  1.00  0.00     0.000 HD 
HETATM   18  O   UNL     5      -5.975   7.326  67.685  1.00  0.00    -0.031 OA 
HETATM   19  C   UNL     4     -12.483   8.845  69.875  1.00  0.00     1.295 A  
HETATM   20  C   UNL     3      -7.175  10.587  69.808  1.00  0.00    -0.152 A  
HETATM   21  C   UNL     3      -5.913  10.379  70.344  1.00  0.00    -0.104 A  
HETATM   22  O   UNL     4     -10.522   7.022  73.905  1.00  0.00    -0.375 OA 
HETATM   23  C   UNL     5      -9.624   9.704  65.697  1.00  0.00    -0.338 A  
HETATM   24  C   UNL     4     -11.836  10.068  70.003  1.00  0.00    -0.196 A  
HETATM   25  C   UNL     5      -8.681  10.656  65.356  1.00  0.00    -0.195 A  
HETATM   26  C   UNL     4     -11.039  10.320  71.122  1.00  0.00     0.011 A  
HETATM   27  C   UNL     3      -5.653   9.235  71.122  1.00  0.00    -0.056 A  
HETATM   28  C   UNL     4     -10.809   9.323  72.078  1.00  0.00    -0.101 A  
HETATM   29  C   UNL     5      -7.387  10.568  65.823  1.00  0.00    -0.137 A  
HETATM   30  C   UNL     3      -6.630   8.266  71.361  1.00  0.00    -0.051 A  
HETATM   31  C   UNL     4     -11.381   8.060  71.920  1.00  0.00    -0.336 A  
HETATM   32  C   UNL     3      -6.310   6.959  71.987  1.00  0.00    -0.045 C  
HETATM   33  C   UNL     5      -7.053   9.530  66.660  1.00  0.00    -0.086 A  
HETATM   34  C   UNL     5      -7.956   8.517  67.052  1.00  0.00    -0.100 A  
HETATM   35  O   UNL     3      -7.181   6.014  71.880  1.00  0.00    -0.087 OA 
HETATM   36  C   UNL     4     -10.967   6.859  72.745  1.00  0.00    -0.280 C  
HETATM   37  O   UNL     3      -5.177   6.828  72.624  1.00  0.00    -0.035 OA 
HETATM   38  O   UNL     4     -11.327   5.756  72.162  1.00  0.00    -0.280 OA 
ENDROOT
BRANCH   3  39
HETATM   39  C   UNL     2      -7.494   4.744  67.241  1.00  0.00    -0.082 C  
BRANCH  39  40
HETATM   40  C   UNL     2      -6.923   3.752  68.261  1.00  0.00    -0.051 C  
HETATM   41  O   UNL     2      -6.730   4.350  69.528  1.00  0.00    -0.042 OA 
HETATM   42  H   UNL     2      -6.376   3.736  70.160  1.00  0.00     0.000 HD 
ENDBRANCH  39  40
ENDBRANCH   3  39
TORSDOF 2
ENDMDL
MODEL       15
REMARK 921   NORMALIZED FREE ENERGY PREDICTED BY IDOCK:   -4.31 KCAL/MOL
REMARK 922        TOTAL FREE ENERGY PREDICTED BY IDOCK:   -5.11 KCAL/MOL
REMARK 923 INTER-LIGAND FREE ENERGY PREDICTED BY IDOCK:   -4.33 KCAL/MOL
REMARK 924 INTRA-LIGAND FREE ENERGY PREDICTED BY IDOCK:   -0.77 KCAL/MOL
REMARK 927      BINDING AFFINITY PREDICTED BY RF-SCORE:    0.00 PKD
ROOT
HETATM    1 MG   UNL     1     -10.109   3.247  70.484  1.00  0.00    -0.169 Mg 
HETATM    2  C   UNL     2     -12.519   6.432  72.014  1.00  0.00    -0.160 C  
HETATM    3  N   UNL     2     -11.118   6.866  72.258  1.00  0.00    -0.241 N  
HETATM    4  O   UNL     3      -8.445   6.430  68.370  1.00  0.00    -0.115 OA 
HETATM    5  C   UNL     2     -10.630   6.734  73.675  1.00  0.00    -0.320 C  
HETATM    6  C   UNL     5      -8.231   8.345  71.095  1.00  0.00    -0.131 C  
HETATM    7  C   UNL     3      -7.380   7.318  68.286  1.00  0.00    -0.100 A  
HETATM    8  C   UNL     2     -10.372   6.003  71.262  1.00  0.00    -0.215 C  
HETATM    9  O   UNL     4      -9.755   2.584  68.883  1.00  0.00    -0.064 OA 
HETATM   10  H   UNL     3      -9.201   6.645  67.838  1.00  0.00     0.000 HD 
HETATM   11  C   UNL     3      -6.261   7.000  69.073  1.00  0.00    -0.027 A  
HETATM   12  H   UNL     4     -10.418   2.742  68.222  1.00  0.00     0.000 HD 
HETATM   13  O   UNL     5      -8.276   5.342  72.723  1.00  0.00    -0.109 OA 
HETATM   14  O   UNL     5      -9.040   7.733  70.375  1.00  0.00    -0.153 OA 
HETATM   15  C   UNL     4      -8.467   3.057  68.666  1.00  0.00    -0.068 A  
HETATM   16  C   UNL     5      -7.279   6.328  72.697  1.00  0.00    -0.084 A  
HETATM   17  H   UNL     5      -8.994   5.615  72.163  1.00  0.00     0.000 HD 
HETATM   18  O   UNL     5      -8.272   9.618  71.280  1.00  0.00    -0.186 OA 
HETATM   19  C   UNL     4      -7.493   2.825  69.638  1.00  0.00    -0.044 A  
HETATM   20  C   UNL     3      -5.219   7.909  69.197  1.00  0.00    -0.022 A  
HETATM   21  C   UNL     3      -5.315   9.136  68.556  1.00  0.00    -0.037 A  
HETATM   22  O   UNL     4      -9.236   4.614  65.494  1.00  0.00    -0.141 OA 
HETATM   23  C   UNL     5      -6.215   5.925  73.527  1.00  0.00    -0.063 A  
HETATM   24  C   UNL     4      -6.216   3.328  69.425  1.00  0.00    -0.028 A  
HETATM   25  C   UNL     5      -5.161   6.789  73.761  1.00  0.00    -0.041 A  
HETATM   26  C   UNL     4      -5.919   3.996  68.234  1.00  0.00    -0.027 A  
HETATM   27  C   UNL     3      -6.451   9.446  67.785  1.00  0.00    -0.059 A  
HETATM   28  C   UNL     4      -6.919   4.246  67.286  1.00  0.00    -0.063 A  
HETATM   29  C   UNL     5      -5.132   8.040  73.184  1.00  0.00    -0.040 A  
HETATM   30  C   UNL     3      -7.522   8.558  67.655  1.00  0.00    -0.094 A  
HETATM   31  C   UNL     4      -8.227   3.824  67.522  1.00  0.00    -0.090 A  
HETATM   32  C   UNL     3      -8.809   8.958  67.034  1.00  0.00    -0.126 C  
HETATM   33  C   UNL     5      -6.157   8.408  72.345  1.00  0.00    -0.067 A  
HETATM   34  C   UNL     5      -7.268   7.585  72.058  1.00  0.00    -0.068 A  
HETATM   35  O   UNL     3      -9.833   8.202  67.239  1.00  0.00    -0.164 OA 
HETATM   36  C   UNL     4      -9.405   4.290  66.692  1.00  0.00    -0.169 C  
HETATM   37  O   UNL     3      -8.844  10.040  66.303  1.00  0.00    -0.140 OA 
HETATM   38  O   UNL     4     -10.520   4.097  67.329  1.00  0.00     0.263 OA 
ENDROOT
BRANCH   3  39
HETATM   39  C   UNL     2     -10.979   8.420  71.916  1.00  0.00    -0.305 C  
BRANCH  39  40
HETATM   40  C   UNL     2     -11.930   8.999  70.862  1.00  0.00    -0.225 C  
HETATM   41  O   UNL     2     -11.326   9.069  69.586  1.00  0.00    -0.439 OA 
HETATM   42  H   UNL     2     -11.915   9.428  68.933  1.00  0.00     0.000 HD 
ENDBRANCH  39  40
ENDBRANCH   3  39
TORSDOF 2
ENDMDL
MODEL       16
REMARK 921   NORMALIZED FREE ENERGY PREDICTED BY IDOCK:   -4.27 KCAL/MOL
REMARK 922        TOTAL FREE ENERGY PREDICTED BY IDOCK:   -5.06 KCAL/MOL
REMARK 923 INTER-LIGAND FREE ENERGY PREDICTED BY IDOCK:   -4.49 KCAL/MOL
REMARK 924 INTRA-LIGAND FREE ENERGY PREDICTED BY IDOCK:   -0.57 KCAL/MOL
REMARK 927      BINDING AFFINITY PREDICTED BY RF-SCORE:    0.00 PKD
ROOT
HETATM    1 MG   UNL     1      -7.738   7.629  64.932  1.00  0.00    -0.067 Mg 
HETATM    2  C   UNL     2      -5.134  10.647  66.484  1.00  0.00    -0.055 C  
HETATM    3  N   UNL     2      -6.310  10.655  67.395  1.00  0.00    -0.057 N  
HETATM    4  O   UNL     3      -7.420   6.289  68.866  1.00  0.00    -0.083 OA 
HETATM    5  C   UNL     2      -7.282  11.785  67.197  1.00  0.00    -0.147 C  
HETATM    6  C   UNL     5      -7.952   9.335  70.122  1.00  0.00    -0.137 C  
HETATM    7  C   UNL     3      -8.037   6.227  70.109  1.00  0.00    -0.116 A  
HETATM    8  C   UNL     2      -6.891   9.282  67.127  1.00  0.00    -0.084 C  
HETATM    9  O   UNL     4      -7.697   5.866  64.802  1.00  0.00    -0.086 OA 
HETATM   10  H   UNL     3      -6.498   6.062  68.854  1.00  0.00     0.000 HD 
HETATM   11  C   UNL     3      -9.400   6.564  70.127  1.00  0.00    -0.162 A  
HETATM   12  H   UNL     4      -6.830   5.479  64.803  1.00  0.00     0.000 HD 
HETATM   13  O   UNL     5      -9.462   9.881  67.106  1.00  0.00    -0.153 OA 
HETATM   14  O   UNL     5      -7.185   8.687  69.388  1.00  0.00    -0.056 OA 
HETATM   15  C   UNL     4      -8.597   5.494  65.792  1.00  0.00    -0.145 A  
HETATM   16  C   UNL     5     -10.008   9.919  68.397  1.00  0.00    -0.158 A  
HETATM   17  H   UNL     5      -8.545   9.636  67.166  1.00  0.00     0.000 HD 
HETATM   18  O   UNL     5      -7.570   9.920  71.203  1.00  0.00    -0.197 OA 
HETATM   19  C   UNL     4      -9.871   6.063  65.792  1.00  0.00     0.265 A  
HETATM   20  C   UNL     3     -10.064   6.704  71.338  1.00  0.00    -0.209 A  
HETATM   21  C   UNL     3      -9.356   6.532  72.519  1.00  0.00    -0.145 A  
HETATM   22  O   UNL     4      -6.295   3.282  67.493  1.00  0.00    -0.034 OA 
HETATM   23  C   UNL     5     -11.366  10.282  68.309  1.00  0.00    -0.245 A  
HETATM   24  C   UNL     4     -10.753   5.707  66.804  1.00  0.00    -0.358 A  
HETATM   25  C   UNL     5     -12.094  10.506  69.463  1.00  0.00    -0.208 A  
HETATM   26  C   UNL     4     -10.375   4.756  67.755  1.00  0.00    -0.012 A  
HETATM   27  C   UNL     3      -7.986   6.212  72.484  1.00  0.00    -0.104 A  
HETATM   28  C   UNL     4      -9.082   4.220  67.757  1.00  0.00    -0.157 A  
HETATM   29  C   UNL     5     -11.510  10.368  70.704  1.00  0.00    -0.438 A  
HETATM   30  C   UNL     3      -7.288   6.080  71.280  1.00  0.00    -0.080 A  
HETATM   31  C   UNL     4      -8.154   4.631  66.800  1.00  0.00    -0.103 A  
HETATM   32  C   UNL     3      -5.809   5.963  71.234  1.00  0.00    -0.025 C  
HETATM   33  C   UNL     5     -10.194   9.977  70.779  1.00  0.00     0.024 A  
HETATM   34  C   UNL     5      -9.384   9.732  69.648  1.00  0.00    -0.237 A  
HETATM   35  O   UNL     3      -5.227   6.169  70.101  1.00  0.00    -0.012 OA 
HETATM   36  C   UNL     4      -6.676   4.317  66.897  1.00  0.00    -0.051 C  
HETATM   37  O   UNL     3      -5.169   5.648  72.328  1.00  0.00    -0.016 OA 
HETATM   38  O   UNL     4      -5.986   5.119  66.145  1.00  0.00    -0.021 OA 
ENDROOT
BRANCH   3  39
HETATM   39  C   UNL     2      -5.808  10.801  68.904  1.00  0.00    -0.040 C  
BRANCH  39  40
HETATM   40  C   UNL     2      -5.536  12.218  69.423  1.00  0.00    -0.074 C  
HETATM   41  O   UNL     2      -6.279  12.504  70.591  1.00  0.00    -0.509 OA 
HETATM   42  H   UNL     2      -6.111  13.382  70.913  1.00  0.00     0.000 HD 
ENDBRANCH  39  40
ENDBRANCH   3  39
TORSDOF 2
ENDMDL
MODEL       17
REMARK 921   NORMALIZED FREE ENERGY PREDICTED BY IDOCK:   -4.18 KCAL/MOL
REMARK 922        TOTAL FREE ENERGY PREDICTED BY IDOCK:   -4.96 KCAL/MOL
REMARK 923 INTER-LIGAND FREE ENERGY PREDICTED BY IDOCK:   -4.67 KCAL/MOL
REMARK 924 INTRA-LIGAND FREE ENERGY PREDICTED BY IDOCK:   -0.29 KCAL/MOL
REMARK 927      BINDING AFFINITY PREDICTED BY RF-SCORE:    0.00 PKD
ROOT
HETATM    1 MG   UNL     1      -6.258  12.449  66.511  1.00  0.00    -0.218 Mg 
HETATM    2  C   UNL     2      -9.492  12.299  63.716  1.00  0.00     0.266 C  
HETATM    3  N   UNL     2     -10.131  12.116  65.046  1.00  0.00    -0.271 N  
HETATM    4  O   UNL     3      -8.704  15.401  68.148  1.00  0.00    -0.158 OA 
HETATM    5  C   UNL     2     -10.538  10.708  65.387  1.00  0.00    -0.115 C  
HETATM    6  C   UNL     5     -11.435  13.498  67.921  1.00  0.00    -0.318 C  
HETATM    7  C   UNL     3      -9.620  15.706  69.145  1.00  0.00    -0.251 A  
HETATM    8  C   UNL     2      -9.069  12.693  65.958  1.00  0.00     0.111 C  
HETATM    9  O   UNL     4      -5.138  13.690  67.085  1.00  0.00    -0.236 OA 
HETATM   10  H   UNL     3      -8.643  16.030  67.439  1.00  0.00     0.000 HD 
HETATM   11  C   UNL     3      -9.709  14.776  70.194  1.00  0.00     0.512 A  
HETATM   12  H   UNL     4      -4.991  14.413  66.487  1.00  0.00     0.000 HD 
HETATM   13  O   UNL     5      -9.171  10.940  67.929  1.00  0.00    -0.147 OA 
HETATM   14  O   UNL     5     -10.533  14.020  67.243  1.00  0.00    -0.265 OA 
HETATM   15  C   UNL     4      -5.646  13.959  68.349  1.00  0.00    -0.104 A  
HETATM   16  C   UNL     5     -10.192  11.230  68.845  1.00  0.00    -0.180 A  
HETATM   17  H   UNL     5      -9.159  11.612  67.257  1.00  0.00     0.000 HD 
HETATM   18  O   UNL     5     -12.684  13.767  67.764  1.00  0.00     0.300 OA 
HETATM   19  C   UNL     4      -5.861  12.897  69.228  1.00  0.00    -0.087 A  
HETATM   20  C   UNL     3     -10.714  14.896  71.144  1.00  0.00     0.299 A  
HETATM   21  C   UNL     3     -11.635  15.926  71.025  1.00  0.00    -0.465 A  
HETATM   22  O   UNL     4      -5.950  17.523  67.811  1.00  0.00    -0.144 OA 
HETATM   23  C   UNL     5     -10.209  10.235  69.842  1.00  0.00    -0.250 A  
HETATM   24  C   UNL     4      -6.398  13.175  70.479  1.00  0.00     0.257 A  
HETATM   25  C   UNL     5     -11.210  10.235  70.795  1.00  0.00    -0.373 A  
HETATM   26  C   UNL     4      -6.654  14.496  70.850  1.00  0.00     0.284 A  
HETATM   27  C   UNL     3     -11.543  16.840  69.958  1.00  0.00     0.619 A  
HETATM   28  C   UNL     4      -6.460  15.545  69.943  1.00  0.00    -0.146 A  
HETATM   29  C   UNL     5     -12.189  11.205  70.792  1.00  0.00    -0.484 A  
HETATM   30  C   UNL     3     -10.552  16.735  68.978  1.00  0.00    -0.343 A  
HETATM   31  C   UNL     4      -6.004  15.277  68.652  1.00  0.00    -0.091 A  
HETATM   32  C   UNL     3     -10.578  17.552  67.740  1.00  0.00    -0.375 C  
HETATM   33  C   UNL     5     -12.140  12.194  69.838  1.00  0.00    -0.324 A  
HETATM   34  C   UNL     5     -11.153  12.262  68.830  1.00  0.00    -0.295 A  
HETATM   35  O   UNL     3      -9.830  17.175  66.759  1.00  0.00    -0.261 OA 
HETATM   36  C   UNL     4      -6.032  16.302  67.539  1.00  0.00    -0.160 C  
HETATM   37  O   UNL     3     -11.340  18.611  67.701  1.00  0.00     0.025 OA 
HETATM   38  O   UNL     4      -5.946  15.724  66.380  1.00  0.00     0.585 OA 
ENDROOT
BRANCH   3  39
HETATM   39  C   UNL     2     -11.485  12.962  65.103  1.00  0.00    -0.313 C  
BRANCH  39  40
HETATM   40  C   UNL     2     -12.142  13.333  63.769  1.00  0.00    -0.482 C  
HETATM   41  O   UNL     2     -12.455  14.710  63.699  1.00  0.00    -1.070 OA 
HETATM   42  H   UNL     2     -12.863  14.941  62.872  1.00  0.00     0.000 HD 
ENDBRANCH  39  40
ENDBRANCH   3  39
TORSDOF 2
ENDMDL
MODEL       18
REMARK 921   NORMALIZED FREE ENERGY PREDICTED BY IDOCK:   -4.02 KCAL/MOL
REMARK 922        TOTAL FREE ENERGY PREDICTED BY IDOCK:   -4.78 KCAL/MOL
REMARK 923 INTER-LIGAND FREE ENERGY PREDICTED BY IDOCK:   -4.24 KCAL/MOL
REMARK 924 INTRA-LIGAND FREE ENERGY PREDICTED BY IDOCK:   -0.54 KCAL/MOL
REMARK 927      BINDING AFFINITY PREDICTED BY RF-SCORE:    0.00 PKD
ROOT
HETATM    1 MG   UNL     1     -12.468   6.271  69.070  1.00  0.00    -0.411 Mg 
HETATM    2  C   UNL     2      -9.729   3.479  67.336  1.00  0.00    -0.010 C  
HETATM    3  N   UNL     2      -9.172   4.816  66.999  1.00  0.00    -0.121 N  
HETATM    4  O   UNL     3      -8.929   7.628  70.805  1.00  0.00    -0.147 OA 
HETATM    5  C   UNL     2      -9.390   5.276  65.583  1.00  0.00    -0.114 C  
HETATM    6  C   UNL     5      -7.282   7.552  67.904  1.00  0.00    -0.090 C  
HETATM    7  C   UNL     3      -7.928   8.589  70.763  1.00  0.00    -0.107 A  
HETATM    8  C   UNL     2      -9.847   5.681  68.043  1.00  0.00    -0.133 C  
HETATM    9  O   UNL     4     -12.926   6.741  70.711  1.00  0.00    -0.410 OA 
HETATM   10  H   UNL     3      -8.745   6.867  71.343  1.00  0.00     0.000 HD 
HETATM   11  C   UNL     3      -8.199   9.715  69.967  1.00  0.00    -0.197 A  
HETATM   12  H   UNL     4     -12.776   6.083  71.379  1.00  0.00     0.000 HD 
HETATM   13  O   UNL     5     -10.418   7.797  66.572  1.00  0.00    -0.492 OA 
HETATM   14  O   UNL     5      -7.903   6.836  68.709  1.00  0.00    -0.107 OA 
HETATM   15  C   UNL     4     -12.298   7.973  70.833  1.00  0.00    -0.060 A  
HETATM   16  C   UNL     5      -9.332   8.678  66.466  1.00  0.00    -0.200 A  
HETATM   17  H   UNL     5     -10.171   7.068  67.131  1.00  0.00     0.000 HD 
HETATM   18  O   UNL     5      -6.045   7.364  67.599  1.00  0.00    -0.042 OA 
HETATM   19  C   UNL     4     -12.518   8.940  69.850  1.00  0.00     1.295 A  
HETATM   20  C   UNL     3      -7.199  10.644  69.718  1.00  0.00    -0.135 A  
HETATM   21  C   UNL     3      -5.933  10.430  70.242  1.00  0.00    -0.096 A  
HETATM   22  O   UNL     4     -10.526   7.124  73.870  1.00  0.00    -0.370 OA 
HETATM   23  C   UNL     5      -9.698   9.757  65.638  1.00  0.00    -0.357 A  
HETATM   24  C   UNL     4     -11.861  10.159  69.966  1.00  0.00    -0.253 A  
HETATM   25  C   UNL     5      -8.753  10.701  65.281  1.00  0.00    -0.198 A  
HETATM   26  C   UNL     4     -11.051  10.412  71.075  1.00  0.00     0.045 A  
HETATM   27  C   UNL     3      -5.672   9.289  71.022  1.00  0.00    -0.055 A  
HETATM   28  C   UNL     4     -10.817   9.417  72.033  1.00  0.00     0.096 A  
HETATM   29  C   UNL     5      -7.455  10.606  65.736  1.00  0.00    -0.114 A  
HETATM   30  C   UNL     3      -6.654   8.328  71.278  1.00  0.00    -0.048 A  
HETATM   31  C   UNL     4     -11.399   8.158  71.888  1.00  0.00    -0.356 A  
HETATM   32  C   UNL     3      -6.336   7.022  71.907  1.00  0.00    -0.041 C  
HETATM   33  C   UNL     5      -7.118   9.570  66.574  1.00  0.00    -0.085 A  
HETATM   34  C   UNL     5      -8.024   8.566  66.981  1.00  0.00    -0.100 A  
HETATM   35  O   UNL     3      -7.214   6.082  71.814  1.00  0.00    -0.083 OA 
HETATM   36  C   UNL     4     -10.985   6.959  72.715  1.00  0.00    -0.280 C  
HETATM   37  O   UNL     3      -5.197   6.887  72.532  1.00  0.00    -0.035 OA 
HETATM   38  O   UNL     4     -11.359   5.855  72.142  1.00  0.00    -0.280 OA 
ENDROOT
BRANCH   3  39
HETATM   39  C   UNL     2      -7.586   4.791  67.185  1.00  0.00    -0.087 C  
BRANCH  39  40
HETATM   40  C   UNL     2      -6.753   4.165  66.061  1.00  0.00    -0.049 C  
HETATM   41  O   UNL     2      -5.593   4.922  65.779  1.00  0.00    -0.016 OA 
HETATM   42  H   UNL     2      -5.076   4.535  65.082  1.00  0.00     0.000 HD 
ENDBRANCH  39  40
ENDBRANCH   3  39
TORSDOF 2
ENDMDL
MODEL       19
REMARK 921   NORMALIZED FREE ENERGY PREDICTED BY IDOCK:   -3.82 KCAL/MOL
REMARK 922        TOTAL FREE ENERGY PREDICTED BY IDOCK:   -4.55 KCAL/MOL
REMARK 923 INTER-LIGAND FREE ENERGY PREDICTED BY IDOCK:   -3.94 KCAL/MOL
REMARK 924 INTRA-LIGAND FREE ENERGY PREDICTED BY IDOCK:   -0.62 KCAL/MOL
REMARK 927      BINDING AFFINITY PREDICTED BY RF-SCORE:    0.00 PKD
ROOT
HETATM    1 MG   UNL     1      -5.764  11.756  64.974  1.00  0.00    -0.260 Mg 
HETATM    2  C   UNL     2      -5.137  14.716  67.998  1.00  0.00    -0.097 C  
HETATM    3  N   UNL     2      -6.614  14.624  67.858  1.00  0.00    -0.149 N  
HETATM    4  O   UNL     3      -8.115  10.132  68.010  1.00  0.00    -0.110 OA 
HETATM    5  C   UNL     2      -7.269  15.740  67.091  1.00  0.00    -0.206 C  
HETATM    6  C   UNL     5      -9.574  13.059  68.673  1.00  0.00    -0.023 C  
HETATM    7  C   UNL     3      -9.406   9.959  68.490  1.00  0.00    -0.143 A  
HETATM    8  C   UNL     2      -6.758  13.261  67.215  1.00  0.00     0.078 C  
HETATM    9  O   UNL     4      -5.521  10.010  64.843  1.00  0.00    -0.065 OA 
HETATM   10  H   UNL     3      -7.418   9.930  68.622  1.00  0.00     0.000 HD 
HETATM   11  C   UNL     3     -10.437  10.257  67.584  1.00  0.00    -0.285 A  
HETATM   12  H   UNL     4      -4.862   9.647  65.422  1.00  0.00     0.000 HD 
HETATM   13  O   UNL     5      -8.661  13.790  65.464  1.00  0.00     0.545 OA 
HETATM   14  O   UNL     5      -8.469  12.488  68.639  1.00  0.00    -0.094 OA 
HETATM   15  C   UNL     4      -6.825   9.540  64.935  1.00  0.00    -0.102 A  
HETATM   16  C   UNL     5      -9.941  13.717  66.033  1.00  0.00    -0.306 A  
HETATM   17  H   UNL     5      -8.016  13.567  66.125  1.00  0.00     0.000 HD 
HETATM   18  O   UNL     5     -10.073  13.570  69.745  1.00  0.00     0.725 OA 
HETATM   19  C   UNL     4      -7.794  10.074  64.084  1.00  0.00    -0.144 A  
HETATM   20  C   UNL     3     -11.755  10.288  68.018  1.00  0.00     0.370 A  
HETATM   21  C   UNL     3     -12.030  10.046  69.356  1.00  0.00     0.156 A  
HETATM   22  O   UNL     4      -6.146   7.268  67.666  1.00  0.00    -0.038 OA 
HETATM   23  C   UNL     5     -10.897  14.049  65.053  1.00  0.00    -0.401 A  
HETATM   24  C   UNL     4      -9.101   9.619  64.206  1.00  0.00    -0.267 A  
HETATM   25  C   UNL     5     -12.229  14.166  65.405  1.00  0.00    -0.441 A  
HETATM   26  C   UNL     4      -9.405   8.609  65.122  1.00  0.00     0.169 A  
HETATM   27  C   UNL     3     -10.984   9.766  70.256  1.00  0.00    -0.352 A  
HETATM   28  C   UNL     4      -8.425   8.109  65.988  1.00  0.00    -0.150 A  
HETATM   29  C   UNL     5     -12.638  13.950  66.703  1.00  0.00    -0.177 A  
HETATM   30  C   UNL     3      -9.647   9.744  69.851  1.00  0.00    -0.269 A  
HETATM   31  C   UNL     4      -7.126   8.616  65.940  1.00  0.00    -0.076 A  
HETATM   32  C   UNL     3      -8.529   9.670  70.824  1.00  0.00     0.130 C  
HETATM   33  C   UNL     5     -11.702  13.589  67.643  1.00  0.00    -0.398 A  
HETATM   34  C   UNL     5     -10.324  13.452  67.364  1.00  0.00    -0.240 A  
HETATM   35  O   UNL     3      -7.348   9.976  70.404  1.00  0.00    -0.190 OA 
HETATM   36  C   UNL     4      -6.092   8.335  67.010  1.00  0.00    -0.054 C  
HETATM   37  O   UNL     3      -8.785   9.290  72.047  1.00  0.00    -0.244 OA 
HETATM   38  O   UNL     4      -5.134   9.209  66.963  1.00  0.00    -0.035 OA 
ENDROOT
BRANCH   3  39
HETATM   39  C   UNL     2      -7.286  14.669  69.307  1.00  0.00    -0.156 C  
BRANCH  39  40
HETATM   40  C   UNL     2      -6.368  14.461  70.517  1.00  0.00    -0.121 C  
HETATM   41  O   UNL     2      -6.218  13.093  70.838  1.00  0.00    -0.516 OA 
HETATM   42  H   UNL     2      -5.650  12.963  71.588  1.00  0.00     0.000 HD 
ENDBRANCH  39  40
ENDBRANCH   3  39
TORSDOF 2
ENDMDL
MODEL       20
REMARK 921   NORMALIZED FREE ENERGY PREDICTED BY IDOCK:   -3.69 KCAL/MOL
REMARK 922        TOTAL FREE ENERGY PREDICTED BY IDOCK:   -4.41 KCAL/MOL
REMARK 923 INTER-LIGAND FREE ENERGY PREDICTED BY IDOCK:   -3.80 KCAL/MOL
REMARK 924 INTRA-LIGAND FREE ENERGY PREDICTED BY IDOCK:   -0.61 KCAL/MOL
REMARK 927      BINDING AFFINITY PREDICTED BY RF-SCORE:    0.00 PKD
ROOT
HETATM    1 MG   UNL     1     -11.837   5.360  70.975  1.00  0.00    -0.121 Mg 
HETATM    2  C   UNL     2      -9.293   4.172  74.203  1.00  0.00    -0.105 C  
HETATM    3  N   UNL     2      -8.454   4.025  72.984  1.00  0.00    -0.092 N  
HETATM    4  O   UNL     3      -8.610   7.902  70.265  1.00  0.00    -0.133 OA 
HETATM    5  C   UNL     2      -8.260   2.617  72.491  1.00  0.00    -0.059 C  
HETATM    6  C   UNL     5      -6.381   5.445  70.627  1.00  0.00    -0.027 C  
HETATM    7  C   UNL     3      -7.476   8.127  69.495  1.00  0.00    -0.087 A  
HETATM    8  C   UNL     2      -9.191   4.926  72.016  1.00  0.00    -0.136 C  
HETATM    9  O   UNL     4     -12.571   6.875  70.434  1.00  0.00    -0.593 OA 
HETATM   10  H   UNL     3      -8.688   8.436  71.047  1.00  0.00     0.000 HD 
HETATM   11  C   UNL     3      -7.361   7.339  68.339  1.00  0.00    -0.103 A  
HETATM   12  H   UNL     4     -12.693   7.531  71.109  1.00  0.00     0.000 HD 
HETATM   13  O   UNL     5      -9.039   3.454  69.830  1.00  0.00    -0.098 OA 
HETATM   14  O   UNL     5      -7.283   6.060  71.223  1.00  0.00    -0.075 OA 
HETATM   15  C   UNL     4     -11.785   7.186  69.331  1.00  0.00     0.341 A  
HETATM   16  C   UNL     5      -7.823   3.631  69.154  1.00  0.00    -0.051 A  
HETATM   17  H   UNL     5      -9.055   4.023  70.592  1.00  0.00     0.000 HD 
HETATM   18  O   UNL     5      -5.158   5.420  71.029  1.00  0.00    -0.004 OA 
HETATM   19  C   UNL     4     -11.606   6.221  68.339  1.00  0.00     0.464 A  
HETATM   20  C   UNL     3      -6.187   7.359  67.599  1.00  0.00    -0.047 A  
HETATM   21  C   UNL     3      -5.130   8.145  68.034  1.00  0.00    -0.033 A  
HETATM   22  O   UNL     4     -10.928  10.505  70.484  1.00  0.00    -0.271 OA 
HETATM   23  C   UNL     5      -7.800   2.788  68.026  1.00  0.00    -0.059 A  
HETATM   24  C   UNL     4     -10.794   6.532  67.256  1.00  0.00    -0.463 A  
HETATM   25  C   UNL     5      -6.651   2.694  67.263  1.00  0.00    -0.036 A  
HETATM   26  C   UNL     4     -10.228   7.804  67.151  1.00  0.00    -0.365 A  
HETATM   27  C   UNL     3      -5.254   8.916  69.205  1.00  0.00    -0.036 A  
HETATM   28  C   UNL     4     -10.394   8.748  68.173  1.00  0.00    -0.266 A  
HETATM   29  C   UNL     5      -5.527   3.424  67.586  1.00  0.00    -0.017 A  
HETATM   30  C   UNL     3      -6.418   8.904  69.979  1.00  0.00    -0.042 A  
HETATM   31  C   UNL     4     -11.134   8.423  69.309  1.00  0.00     0.142 A  
HETATM   32  C   UNL     3      -6.481   9.533  71.321  1.00  0.00     0.006 C  
HETATM   33  C   UNL     5      -5.574   4.272  68.666  1.00  0.00    -0.013 A  
HETATM   34  C   UNL     5      -6.707   4.422  69.495  1.00  0.00    -0.044 A  
HETATM   35  O   UNL     3      -7.463   9.206  72.090  1.00  0.00    -0.330 OA 
HETATM   36  C   UNL     4     -11.131   9.271  70.564  1.00  0.00    -0.265 C  
HETATM   37  O   UNL     3      -5.556  10.392  71.656  1.00  0.00    -0.278 OA 
HETATM   38  O   UNL     4     -11.548   8.583  71.584  1.00  0.00    -0.265 OA 
ENDROOT
BRANCH   3  39
HETATM   39  C   UNL     2      -6.981   4.562  73.289  1.00  0.00    -0.069 C  
BRANCH  39  40
HETATM   40  C   UNL     2      -6.799   5.466  74.514  1.00  0.00    -0.077 C  
HETATM   41  O   UNL     2      -7.262   6.781  74.274  1.00  0.00    -0.093 OA 
HETATM   42  H   UNL     2      -7.149   7.341  75.033  1.00  0.00     0.000 HD 
ENDBRANCH  39  40
ENDBRANCH   3  39
TORSDOF 2
ENDMDL
MODEL       21
REMARK 921   NORMALIZED FREE ENERGY PREDICTED BY IDOCK:   -3.63 KCAL/MOL
REMARK 922        TOTAL FREE ENERGY PREDICTED BY IDOCK:   -4.35 KCAL/MOL
REMARK 923 INTER-LIGAND FREE ENERGY PREDICTED BY IDOCK:   -3.82 KCAL/MOL
REMARK 924 INTRA-LIGAND FREE ENERGY PREDICTED BY IDOCK:   -0.53 KCAL/MOL
REMARK 927      BINDING AFFINITY PREDICTED BY RF-SCORE:    0.00 PKD
ROOT
HETATM    1 MG   UNL     1      -8.177   9.146  68.287  1.00  0.00    -0.102 Mg 
HETATM    2  C   UNL     2      -5.243   8.739  71.373  1.00  0.00    -0.035 C  
HETATM    3  N   UNL     2      -6.332   7.803  71.759  1.00  0.00    -0.039 N  
HETATM    4  O   UNL     3      -7.616   5.018  68.147  1.00  0.00    -0.078 OA 
HETATM    5  C   UNL     2      -7.236   8.274  72.866  1.00  0.00    -0.103 C  
HETATM    6  C   UNL     5      -7.822   4.710  71.464  1.00  0.00    -0.099 C  
HETATM    7  C   UNL     3      -8.127   3.779  68.512  1.00  0.00    -0.074 A  
HETATM    8  C   UNL     2      -7.029   7.609  70.429  1.00  0.00    -0.047 C  
HETATM    9  O   UNL     4      -8.271   8.740  66.569  1.00  0.00    -0.108 OA 
HETATM   10  H   UNL     3      -6.717   5.017  67.841  1.00  0.00     0.000 HD 
HETATM   11  C   UNL     3      -9.456   3.780  68.965  1.00  0.00    -0.233 A  
HETATM   12  H   UNL     4      -7.437   8.676  66.120  1.00  0.00     0.000 HD 
HETATM   13  O   UNL     5      -9.543   7.652  71.231  1.00  0.00    -0.157 OA 
HETATM   14  O   UNL     5      -7.169   5.260  70.559  1.00  0.00    -0.061 OA 
HETATM   15  C   UNL     4      -9.107   7.631  66.592  1.00  0.00    -0.164 A  
HETATM   16  C   UNL     5      -9.972   6.402  71.701  1.00  0.00    -0.175 A  
HETATM   17  H   UNL     5      -8.644   7.577  70.931  1.00  0.00     0.000 HD 
HETATM   18  O   UNL     5      -7.308   3.881  72.304  1.00  0.00    -0.054 OA 
HETATM   19  C   UNL     4     -10.333   7.726  67.252  1.00  0.00    -0.371 A  
HETATM   20  C   UNL     3     -10.002   2.630  69.518  1.00  0.00     0.568 A  
HETATM   21  C   UNL     3      -9.208   1.498  69.638  1.00  0.00    -0.163 A  
HETATM   22  O   UNL     4      -6.829   5.486  64.777  1.00  0.00    -0.046 OA 
HETATM   23  C   UNL     5     -11.304   6.513  72.146  1.00  0.00    -0.321 A  
HETATM   24  C   UNL     4     -11.147   6.601  67.294  1.00  0.00    -0.418 A  
HETATM   25  C   UNL     5     -11.912   5.438  72.767  1.00  0.00    -0.083 A  
HETATM   26  C   UNL     4     -10.757   5.432  66.636  1.00  0.00    -0.309 A  
HETATM   27  C   UNL     3      -7.872   1.519  69.196  1.00  0.00    -0.050 A  
HETATM   28  C   UNL     4      -9.509   5.347  66.006  1.00  0.00    -0.161 A  
HETATM   29  C   UNL     5     -11.235   4.251  72.949  1.00  0.00    -0.109 A  
HETATM   30  C   UNL     3      -7.292   2.666  68.650  1.00  0.00    -0.048 A  
HETATM   31  C   UNL     4      -8.640   6.439  66.028  1.00  0.00    -0.149 A  
HETATM   32  C   UNL     3      -5.835   2.765  68.387  1.00  0.00    -0.023 C  
HETATM   33  C   UNL     5      -9.949   4.142  72.477  1.00  0.00    -0.222 A  
HETATM   34  C   UNL     5      -9.258   5.194  71.834  1.00  0.00    -0.160 A  
HETATM   35  O   UNL     3      -5.339   3.940  68.194  1.00  0.00    -0.011 OA 
HETATM   36  C   UNL     4      -7.185   6.342  65.621  1.00  0.00    -0.074 C  
HETATM   37  O   UNL     3      -5.127   1.668  68.352  1.00  0.00    -0.007 OA 
HETATM   38  O   UNL     4      -6.508   7.342  66.096  1.00  0.00    -0.043 OA 
ENDROOT
BRANCH   3  39
HETATM   39  C   UNL     2      -5.693   6.442  72.298  1.00  0.00    -0.037 C  
BRANCH  39  40
HETATM   40  C   UNL     2      -5.354   6.364  73.791  1.00  0.00    -0.041 C  
HETATM   41  O   UNL     2      -5.252   5.027  74.240  1.00  0.00    -0.016 OA 
HETATM   42  H   UNL     2      -5.043   4.978  75.166  1.00  0.00     0.000 HD 
ENDBRANCH  39  40
ENDBRANCH   3  39
TORSDOF 2
ENDMDL
MODEL       22
REMARK 921   NORMALIZED FREE ENERGY PREDICTED BY IDOCK:   -3.53 KCAL/MOL
REMARK 922        TOTAL FREE ENERGY PREDICTED BY IDOCK:   -4.24 KCAL/MOL
REMARK 923 INTER-LIGAND FREE ENERGY PREDICTED BY IDOCK:   -3.73 KCAL/MOL
REMARK 924 INTRA-LIGAND FREE ENERGY PREDICTED BY IDOCK:   -0.51 KCAL/MOL
REMARK 927      BINDING AFFINITY PREDICTED BY RF-SCORE:    0.00 PKD
ROOT
HETATM    1 MG   UNL     1      -8.414  10.919  69.967  1.00  0.00    -0.342 Mg 
HETATM    2  C   UNL     2      -5.226   9.554  72.470  1.00  0.00    -0.061 C  
HETATM    3  N   UNL     2      -6.249   8.478  72.539  1.00  0.00    -0.074 N  
HETATM    4  O   UNL     3      -7.736   7.192  68.227  1.00  0.00    -0.115 OA 
HETATM    5  C   UNL     2      -7.073   8.439  73.797  1.00  0.00    -0.092 C  
HETATM    6  C   UNL     5      -7.660   5.642  71.182  1.00  0.00    -0.102 C  
HETATM    7  C   UNL     3      -8.176   5.879  68.124  1.00  0.00    -0.109 A  
HETATM    8  C   UNL     2      -7.047   8.758  71.283  1.00  0.00    -0.092 C  
HETATM    9  O   UNL     4      -8.637  11.187  68.234  1.00  0.00    -0.133 OA 
HETATM   10  H   UNL     3      -6.866   7.362  67.888  1.00  0.00     0.000 HD 
HETATM   11  C   UNL     3      -9.463   5.628  68.627  1.00  0.00    -0.152 A  
HETATM   12  H   UNL     4      -7.840  11.348  67.742  1.00  0.00     0.000 HD 
HETATM   13  O   UNL     5      -9.487   8.343  72.199  1.00  0.00    -0.234 OA 
HETATM   14  O   UNL     5      -7.101   6.531  70.515  1.00  0.00    -0.062 OA 
HETATM   15  C   UNL     4      -9.432  10.104  67.885  1.00  0.00    -0.141 A  
HETATM   16  C   UNL     5      -9.836   6.985  72.183  1.00  0.00    -0.154 A  
HETATM   17  H   UNL     5      -8.613   8.441  71.837  1.00  0.00     0.000 HD 
HETATM   18  O   UNL     5      -7.052   4.589  71.607  1.00  0.00    -0.047 OA 
HETATM   19  C   UNL     4     -10.602   9.867  68.608  1.00  0.00    -0.244 A  
HETATM   20  C   UNL     3      -9.925   4.324  68.733  1.00  0.00    -0.023 A  
HETATM   21  C   UNL     3      -9.089   3.281  68.361  1.00  0.00    -0.210 A  
HETATM   22  O   UNL     4      -7.244   8.946  65.248  1.00  0.00    -0.085 OA 
HETATM   23  C   UNL     5     -11.129   6.838  72.721  1.00  0.00    -0.292 A  
HETATM   24  C   UNL     4     -11.374   8.763  68.270  1.00  0.00     0.705 A  
HETATM   25  C   UNL     5     -11.650   5.573  72.923  1.00  0.00    -0.280 A  
HETATM   26  C   UNL     4     -11.003   7.956  67.193  1.00  0.00     0.006 A  
HETATM   27  C   UNL     3      -7.795   3.547  67.876  1.00  0.00    -0.072 A  
HETATM   28  C   UNL     4      -9.808   8.191  66.500  1.00  0.00    -0.309 A  
HETATM   29  C   UNL     5     -10.923   4.449  72.594  1.00  0.00    -0.111 A  
HETATM   30  C   UNL     3      -7.298   4.849  67.773  1.00  0.00    -0.074 A  
HETATM   31  C   UNL     4      -8.976   9.243  66.881  1.00  0.00    -0.149 A  
HETATM   32  C   UNL     3      -5.871   5.128  67.475  1.00  0.00    -0.021 C  
HETATM   33  C   UNL     5      -9.677   4.605  72.035  1.00  0.00    -0.225 A  
HETATM   34  C   UNL     5      -9.075   5.861  71.799  1.00  0.00    -0.148 A  
HETATM   35  O   UNL     3      -5.431   6.317  67.714  1.00  0.00    -0.004 OA 
HETATM   36  C   UNL     4      -7.557   9.396  66.375  1.00  0.00    -0.097 C  
HETATM   37  O   UNL     3      -5.134   4.171  66.979  1.00  0.00    -0.007 OA 
HETATM   38  O   UNL     4      -6.875  10.181  67.152  1.00  0.00    -0.080 OA 
ENDROOT
BRANCH   3  39
HETATM   39  C   UNL     2      -5.525   7.055  72.476  1.00  0.00    -0.038 C  
BRANCH  39  40
HETATM   40  C   UNL     2      -5.142   6.398  73.807  1.00  0.00    -0.040 C  
HETATM   41  O   UNL     2      -5.475   5.024  73.832  1.00  0.00    -0.016 OA 
HETATM   42  H   UNL     2      -5.238   4.616  74.657  1.00  0.00     0.000 HD 
ENDBRANCH  39  40
ENDBRANCH   3  39
TORSDOF 2
ENDMDL
MODEL       23
REMARK 921   NORMALIZED FREE ENERGY PREDICTED BY IDOCK:   -3.26 KCAL/MOL
REMARK 922        TOTAL FREE ENERGY PREDICTED BY IDOCK:   -3.93 KCAL/MOL
REMARK 923 INTER-LIGAND FREE ENERGY PREDICTED BY IDOCK:   -3.55 KCAL/MOL
REMARK 924 INTRA-LIGAND FREE ENERGY PREDICTED BY IDOCK:   -0.38 KCAL/MOL
REMARK 927      BINDING AFFINITY PREDICTED BY RF-SCORE:    0.00 PKD
ROOT
HETATM    1 MG   UNL     1      -7.940   8.058  65.918  1.00  0.00    -0.082 Mg 
HETATM    2  C   UNL     2      -5.267  10.157  68.515  1.00  0.00    -0.035 C  
HETATM    3  N   UNL     2      -6.412   9.772  69.381  1.00  0.00    -0.047 N  
HETATM    4  O   UNL     3      -7.506   5.186  68.909  1.00  0.00    -0.067 OA 
HETATM    5  C   UNL     2      -7.382  10.874  69.710  1.00  0.00    -0.007 C  
HETATM    6  C   UNL     5      -7.977   7.415  71.348  1.00  0.00    -0.096 C  
HETATM    7  C   UNL     3      -8.084   4.601  70.028  1.00  0.00    -0.068 A  
HETATM    8  C   UNL     2      -7.012   8.637  68.578  1.00  0.00    -0.065 C  
HETATM    9  O   UNL     4      -7.916   6.515  65.057  1.00  0.00    -0.110 OA 
HETATM   10  H   UNL     3      -6.587   4.991  68.772  1.00  0.00     0.000 HD 
HETATM   11  C   UNL     3      -9.444   4.889  70.231  1.00  0.00    -0.238 A  
HETATM   12  H   UNL     4      -7.052   6.169  64.866  1.00  0.00     0.000 HD 
HETATM   13  O   UNL     5      -9.577   9.171  68.894  1.00  0.00    -0.149 OA 
HETATM   14  O   UNL     5      -7.238   7.141  70.385  1.00  0.00    -0.068 OA 
HETATM   15  C   UNL     4      -8.787   5.753  65.825  1.00  0.00    -0.146 A  
HETATM   16  C   UNL     5     -10.082   8.658  70.097  1.00  0.00    -0.185 A  
HETATM   17  H   UNL     5      -8.661   8.930  68.815  1.00  0.00     0.000 HD 
HETATM   18  O   UNL     5      -7.556   7.491  72.562  1.00  0.00    -0.078 OA 
HETATM   19  C   UNL     4     -10.056   6.261  66.106  1.00  0.00     0.104 A  
HETATM   20  C   UNL     3     -10.068   4.501  71.408  1.00  0.00    -0.230 A  
HETATM   21  C   UNL     3      -9.324   3.853  72.382  1.00  0.00    -0.166 A  
HETATM   22  O   UNL     4      -6.448   3.046  66.360  1.00  0.00    -0.031 OA 
HETATM   23  C   UNL     5     -11.439   9.015  70.213  1.00  0.00    -0.147 A  
HETATM   24  C   UNL     4     -10.908   5.505  66.901  1.00  0.00    -0.224 A  
HETATM   25  C   UNL     5     -12.129   8.726  71.377  1.00  0.00    -0.361 A  
HETATM   26  C   UNL     4     -10.507   4.245  67.350  1.00  0.00     0.525 A  
HETATM   27  C   UNL     3      -7.958   3.587  72.172  1.00  0.00    -0.060 A  
HETATM   28  C   UNL     4      -9.218   3.766  67.084  1.00  0.00    -0.205 A  
HETATM   29  C   UNL     5     -11.506   8.082  72.425  1.00  0.00    -0.449 A  
HETATM   30  C   UNL     3      -7.299   3.979  71.004  1.00  0.00    -0.040 A  
HETATM   31  C   UNL     4      -8.318   4.549  66.361  1.00  0.00    -0.106 A  
HETATM   32  C   UNL     3      -5.824   3.903  70.865  1.00  0.00    -0.014 C  
HETATM   33  C   UNL     5     -10.192   7.704  72.285  1.00  0.00    -0.268 A  
HETATM   34  C   UNL     5      -9.420   7.965  71.132  1.00  0.00    -0.180 A  
HETATM   35  O   UNL     3      -5.277   4.571  69.907  1.00  0.00     0.000 OA 
HETATM   36  C   UNL     4      -6.840   4.233  66.269  1.00  0.00    -0.054 C  
HETATM   37  O   UNL     3      -5.152   3.160  71.703  1.00  0.00     0.000 OA 
HETATM   38  O   UNL     4      -6.168   5.283  65.903  1.00  0.00    -0.032 OA 
ENDROOT
BRANCH   3  39
HETATM   39  C   UNL     2      -5.861   9.272  70.794  1.00  0.00    -0.050 C  
BRANCH  39  40
HETATM   40  C   UNL     2      -5.218  10.318  71.712  1.00  0.00    -0.027 C  
HETATM   41  O   UNL     2      -5.770  10.291  73.013  1.00  0.00    -0.094 OA 
HETATM   42  H   UNL     2      -5.371  10.940  73.582  1.00  0.00     0.000 HD 
ENDBRANCH  39  40
ENDBRANCH   3  39
TORSDOF 2
ENDMDL
MODEL       24
REMARK 921   NORMALIZED FREE ENERGY PREDICTED BY IDOCK:   -3.07 KCAL/MOL
REMARK 922        TOTAL FREE ENERGY PREDICTED BY IDOCK:   -3.72 KCAL/MOL
REMARK 923 INTER-LIGAND FREE ENERGY PREDICTED BY IDOCK:   -3.17 KCAL/MOL
REMARK 924 INTRA-LIGAND FREE ENERGY PREDICTED BY IDOCK:   -0.55 KCAL/MOL
REMARK 927      BINDING AFFINITY PREDICTED BY RF-SCORE:    0.00 PKD
ROOT
HETATM    1 MG   UNL     1     -11.973  10.243  69.620  1.00  0.00    -0.227 Mg 
HETATM    2  C   UNL     2     -12.504  11.361  65.525  1.00  0.00     2.288 C  
HETATM    3  N   UNL     2     -11.049  11.535  65.780  1.00  0.00    -0.255 N  
HETATM    4  O   UNL     3      -9.163   7.717  67.859  1.00  0.00    -0.137 OA 
HETATM    5  C   UNL     2     -10.583  12.953  65.967  1.00  0.00    -0.270 C  
HETATM    6  C   UNL     5      -7.893  10.166  65.980  1.00  0.00    -0.122 C  
HETATM    7  C   UNL     3      -7.815   7.509  67.595  1.00  0.00    -0.113 A  
HETATM    8  C   UNL     2     -10.864  10.655  66.999  1.00  0.00    -0.238 C  
HETATM    9  O   UNL     4     -12.080   8.740  70.545  1.00  0.00    -0.485 OA 
HETATM   10  H   UNL     3      -9.766   7.167  67.373  1.00  0.00     0.000 HD 
HETATM   11  C   UNL     3      -6.923   8.323  68.313  1.00  0.00    -0.076 A  
HETATM   12  H   UNL     4     -12.636   8.069  70.168  1.00  0.00     0.000 HD 
HETATM   13  O   UNL     5      -9.224  12.174  68.402  1.00  0.00    -0.207 OA 
HETATM   14  O   UNL     5      -8.942   9.539  66.214  1.00  0.00    -0.146 OA 
HETATM   15  C   UNL     4     -10.739   8.453  70.765  1.00  0.00    -0.212 A  
HETATM   16  C   UNL     5      -7.886  12.011  68.014  1.00  0.00    -0.145 A  
HETATM   17  H   UNL     5      -9.768  11.589  67.888  1.00  0.00     0.000 HD 
HETATM   18  O   UNL     5      -7.321  10.183  64.827  1.00  0.00    -0.141 OA 
HETATM   19  C   UNL     4      -9.922   9.440  71.319  1.00  0.00    -0.274 A  
HETATM   20  C   UNL     3      -5.572   8.318  67.996  1.00  0.00    -0.035 A  
HETATM   21  C   UNL     3      -5.128   7.523  66.950  1.00  0.00    -0.023 A  
HETATM   22  O   UNL     4     -10.906   5.110  69.395  1.00  0.00    -0.079 OA 
HETATM   23  C   UNL     5      -7.080  12.879  68.776  1.00  0.00    -0.096 A  
HETATM   24  C   UNL     4      -8.575   9.152  71.506  1.00  0.00     0.013 A  
HETATM   25  C   UNL     5      -5.731  12.990  68.492  1.00  0.00    -0.068 A  
HETATM   26  C   UNL     4      -8.084   7.883  71.195  1.00  0.00    -0.093 A  
HETATM   27  C   UNL     3      -6.037   6.727  66.229  1.00  0.00    -0.034 A  
HETATM   28  C   UNL     4      -8.913   6.917  70.611  1.00  0.00    -0.151 A  
HETATM   29  C   UNL     5      -5.160  12.253  67.476  1.00  0.00    -0.097 A  
HETATM   30  C   UNL     3      -7.405   6.723  66.514  1.00  0.00    -0.074 A  
HETATM   31  C   UNL     4     -10.247   7.217  70.335  1.00  0.00    -0.203 A  
HETATM   32  C   UNL     3      -8.394   6.064  65.627  1.00  0.00    -0.145 C  
HETATM   33  C   UNL     5      -5.949  11.382  66.764  1.00  0.00    -0.143 A  
HETATM   34  C   UNL     5      -7.333  11.213  66.992  1.00  0.00    -0.128 A  
HETATM   35  O   UNL     3      -9.637   6.375  65.780  1.00  0.00     0.082 OA 
HETATM   36  C   UNL     4     -11.125   6.342  69.465  1.00  0.00    -0.396 C  
HETATM   37  O   UNL     3      -7.970   5.198  64.746  1.00  0.00    -0.093 OA 
HETATM   38  O   UNL     4     -12.154   7.007  69.035  1.00  0.00     0.758 OA 
ENDROOT
BRANCH   3  39
HETATM   39  C   UNL     2     -10.224  10.991  64.526  1.00  0.00    -0.344 C  
BRANCH  39  40
HETATM   40  C   UNL     2     -10.000  11.957  63.356  1.00  0.00    -0.410 C  
HETATM   41  O   UNL     2      -8.744  11.757  62.739  1.00  0.00    -0.651 OA 
HETATM   42  H   UNL     2      -8.605  12.355  62.014  1.00  0.00     0.000 HD 
ENDBRANCH  39  40
ENDBRANCH   3  39
TORSDOF 2
ENDMDL
MODEL       25
REMARK 921   NORMALIZED FREE ENERGY PREDICTED BY IDOCK:   -3.00 KCAL/MOL
REMARK 922        TOTAL FREE ENERGY PREDICTED BY IDOCK:   -3.65 KCAL/MOL
REMARK 923 INTER-LIGAND FREE ENERGY PREDICTED BY IDOCK:   -3.33 KCAL/MOL
REMARK 924 INTRA-LIGAND FREE ENERGY PREDICTED BY IDOCK:   -0.31 KCAL/MOL
REMARK 927      BINDING AFFINITY PREDICTED BY RF-SCORE:    0.00 PKD
ROOT
HETATM    1 MG   UNL     1      -7.010   7.802  66.933  1.00  0.00    -0.057 Mg 
HETATM    2  C   UNL     2      -5.148   9.681  70.295  1.00  0.00    -0.028 C  
HETATM    3  N   UNL     2      -6.604   9.915  70.487  1.00  0.00    -0.115 N  
HETATM    4  O   UNL     3      -9.105   5.920  70.006  1.00  0.00    -0.141 OA 
HETATM    5  C   UNL     2      -7.092  11.299  70.155  1.00  0.00     0.528 C  
HETATM    6  C   UNL     5      -9.662   8.793  71.611  1.00  0.00    -0.296 C  
HETATM    7  C   UNL     3     -10.293   5.879  70.726  1.00  0.00    -0.232 A  
HETATM    8  C   UNL     2      -7.189   8.825  69.615  1.00  0.00    -0.055 C  
HETATM    9  O   UNL     4      -7.229   6.140  66.373  1.00  0.00    -0.070 OA 
HETATM   10  H   UNL     3      -8.381   5.433  70.381  1.00  0.00     0.000 HD 
HETATM   11  C   UNL     3     -11.364   6.599  70.172  1.00  0.00    -0.440 A  
HETATM   12  H   UNL     4      -6.586   5.517  66.688  1.00  0.00     0.000 HD 
HETATM   13  O   UNL     5      -9.186  10.155  68.515  1.00  0.00    -0.136 OA 
HETATM   14  O   UNL     5      -8.755   8.049  71.197  1.00  0.00    -0.124 OA 
HETATM   15  C   UNL     4      -8.570   5.923  66.662  1.00  0.00    -0.119 A  
HETATM   16  C   UNL     5     -10.322  10.182  69.337  1.00  0.00    -0.232 A  
HETATM   17  H   UNL     5      -8.508   9.644  68.942  1.00  0.00     0.000 HD 
HETATM   18  O   UNL     5      -9.821   9.089  72.854  1.00  0.00     0.237 OA 
HETATM   19  C   UNL     4      -9.515   6.840  66.198  1.00  0.00    -0.057 A  
HETATM   20  C   UNL     3     -12.535   6.768  70.897  1.00  0.00    -0.270 A  
HETATM   21  C   UNL     3     -12.617   6.239  72.177  1.00  0.00    -0.035 A  
HETATM   22  O   UNL     4      -7.991   2.924  68.599  1.00  0.00    -0.056 OA 
HETATM   23  C   UNL     5     -11.327  10.939  68.703  1.00  0.00    -0.360 A  
HETATM   24  C   UNL     4     -10.850   6.629  66.519  1.00  0.00     0.008 A  
HETATM   25  C   UNL     5     -12.505  11.214  69.372  1.00  0.00    -0.085 A  
HETATM   26  C   UNL     4     -11.223   5.492  67.239  1.00  0.00     0.599 A  
HETATM   27  C   UNL     3     -11.528   5.536  72.725  1.00  0.00    -0.339 A  
HETATM   28  C   UNL     4     -10.257   4.602  67.723  1.00  0.00    -0.027 A  
HETATM   29  C   UNL     5     -12.716  10.746  70.652  1.00  0.00    -0.417 A  
HETATM   30  C   UNL     3     -10.331   5.363  72.025  1.00  0.00    -0.268 A  
HETATM   31  C   UNL     4      -8.904   4.843  67.485  1.00  0.00    -0.105 A  
HETATM   32  C   UNL     3      -9.110   4.821  72.670  1.00  0.00    -0.127 C  
HETATM   33  C   UNL     5     -11.744   9.977  71.246  1.00  0.00    -0.452 A  
HETATM   34  C   UNL     5     -10.514   9.655  70.630  1.00  0.00    -0.379 A  
HETATM   35  O   UNL     3      -7.985   4.993  72.063  1.00  0.00    -0.106 OA 
HETATM   36  C   UNL     4      -7.796   4.095  68.197  1.00  0.00    -0.074 C  
HETATM   37  O   UNL     3      -9.228   4.189  73.807  1.00  0.00    -0.094 OA 
HETATM   38  O   UNL     4      -6.677   4.749  68.118  1.00  0.00    -0.051 OA 
ENDROOT
BRANCH   3  39
HETATM   39  C   UNL     2      -6.974   9.706  72.027  1.00  0.00     0.942 C  
BRANCH  39  40
HETATM   40  C   UNL     2      -5.873   9.174  72.952  1.00  0.00     0.022 C  
HETATM   41  O   UNL     2      -6.291   9.133  74.302  1.00  0.00    -0.324 OA 
HETATM   42  H   UNL     2      -5.609   8.805  74.875  1.00  0.00     0.000 HD 
ENDBRANCH  39  40
ENDBRANCH   3  39
TORSDOF 2
ENDMDL
MODEL       26
REMARK 921   NORMALIZED FREE ENERGY PREDICTED BY IDOCK:   -2.97 KCAL/MOL
REMARK 922        TOTAL FREE ENERGY PREDICTED BY IDOCK:   -3.61 KCAL/MOL
REMARK 923 INTER-LIGAND FREE ENERGY PREDICTED BY IDOCK:   -3.21 KCAL/MOL
REMARK 924 INTRA-LIGAND FREE ENERGY PREDICTED BY IDOCK:   -0.39 KCAL/MOL
REMARK 927      BINDING AFFINITY PREDICTED BY RF-SCORE:    0.00 PKD
ROOT
HETATM    1 MG   UNL     1      -9.512   9.236  73.068  1.00  0.00    -0.116 Mg 
HETATM    2  C   UNL     2      -6.890  10.695  70.019  1.00  0.00    -0.148 C  
HETATM    3  N   UNL     2      -6.508   9.269  70.197  1.00  0.00    -0.045 N  
HETATM    4  O   UNL     3     -10.289   6.414  70.100  1.00  0.00    -0.184 OA 
HETATM    5  C   UNL     2      -5.245   9.023  70.978  1.00  0.00    -0.029 C  
HETATM    6  C   UNL     5      -7.046   5.945  69.465  1.00  0.00    -0.065 C  
HETATM    7  C   UNL     3     -10.040   5.123  69.653  1.00  0.00    -0.261 A  
HETATM    8  C   UNL     2      -7.758   8.715  70.849  1.00  0.00    -0.097 C  
HETATM    9  O   UNL     4     -11.246   8.915  73.198  1.00  0.00     0.825 OA 
HETATM   10  H   UNL     3     -10.699   6.994  69.470  1.00  0.00     0.000 HD 
HETATM   11  C   UNL     3      -9.434   4.264  70.585  1.00  0.00    -0.241 A  
HETATM   12  H   UNL     4     -11.797   9.410  72.604  1.00  0.00     0.000 HD 
HETATM   13  O   UNL     5      -6.660   7.125  72.647  1.00  0.00    -0.056 OA 
HETATM   14  O   UNL     5      -7.939   6.811  69.472  1.00  0.00    -0.119 OA 
HETATM   15  C   UNL     4     -11.276   7.528  73.142  1.00  0.00    -0.267 A  
HETATM   16  C   UNL     5      -6.319   5.874  72.112  1.00  0.00    -0.049 A  
HETATM   17  H   UNL     5      -7.074   7.648  71.969  1.00  0.00     0.000 HD 
HETATM   18  O   UNL     5      -6.398   5.607  68.405  1.00  0.00    -0.037 OA 
HETATM   19  C   UNL     4     -10.466   6.801  74.015  1.00  0.00    -0.302 A  
HETATM   20  C   UNL     3      -8.984   3.014  70.185  1.00  0.00    -0.170 A  
HETATM   21  C   UNL     3      -9.119   2.642  68.856  1.00  0.00    -0.200 A  
HETATM   22  O   UNL     4     -13.632   7.378  70.401  1.00  0.00     0.604 OA 
HETATM   23  C   UNL     5      -5.706   5.099  73.115  1.00  0.00    -0.022 A  
HETATM   24  C   UNL     4     -10.482   5.414  73.930  1.00  0.00    -0.313 A  
HETATM   25  C   UNL     5      -5.170   3.865  72.798  1.00  0.00     0.000 A  
HETATM   26  C   UNL     4     -11.337   4.781  73.025  1.00  0.00    -0.325 A  
HETATM   27  C   UNL     3      -9.712   3.521  67.930  1.00  0.00    -0.085 A  
HETATM   28  C   UNL     4     -12.119   5.529  72.135  1.00  0.00     0.256 A  
HETATM   29  C   UNL     5      -5.237   3.375  71.511  1.00  0.00     0.000 A  
HETATM   30  C   UNL     3     -10.160   4.792  68.300  1.00  0.00    -0.109 A  
HETATM   31  C   UNL     4     -12.051   6.922  72.148  1.00  0.00    -0.278 A  
HETATM   32  C   UNL     3     -10.581   5.803  67.299  1.00  0.00    -0.279 C  
HETATM   33  C   UNL     5      -5.872   4.123  70.549  1.00  0.00    -0.014 A  
HETATM   34  C   UNL     5      -6.442   5.393  70.792  1.00  0.00    -0.035 A  
HETATM   35  O   UNL     3     -10.668   7.029  67.686  1.00  0.00    -0.237 OA 
HETATM   36  C   UNL     4     -12.641   7.785  71.052  1.00  0.00    -0.115 C  
HETATM   37  O   UNL     3     -10.853   5.408  66.083  1.00  0.00    -0.217 OA 
HETATM   38  O   UNL     4     -12.117   8.973  71.071  1.00  0.00    -0.293 OA 
ENDROOT
BRANCH   3  39
HETATM   39  C   UNL     2      -6.244   8.609  68.767  1.00  0.00    -0.045 C  
BRANCH  39  40
HETATM   40  C   UNL     2      -6.420   9.504  67.534  1.00  0.00    -0.062 C  
HETATM   41  O   UNL     2      -7.486   9.068  66.713  1.00  0.00    -0.085 OA 
HETATM   42  H   UNL     2      -7.595   9.621  65.949  1.00  0.00     0.000 HD 
ENDBRANCH  39  40
ENDBRANCH   3  39
TORSDOF 2
ENDMDL
MODEL       27
REMARK 921   NORMALIZED FREE ENERGY PREDICTED BY IDOCK:   -2.85 KCAL/MOL
REMARK 922        TOTAL FREE ENERGY PREDICTED BY IDOCK:   -3.48 KCAL/MOL
REMARK 923 INTER-LIGAND FREE ENERGY PREDICTED BY IDOCK:   -3.30 KCAL/MOL
REMARK 924 INTRA-LIGAND FREE ENERGY PREDICTED BY IDOCK:   -0.18 KCAL/MOL
REMARK 927      BINDING AFFINITY PREDICTED BY RF-SCORE:    0.00 PKD
ROOT
HETATM    1 MG   UNL     1     -11.207  10.027  66.485  1.00  0.00    -0.161 Mg 
HETATM    2  C   UNL     2     -12.731  10.507  70.454  1.00  0.00    -0.252 C  
HETATM    3  N   UNL     2     -11.991   9.217  70.484  1.00  0.00    -0.140 N  
HETATM    4  O   UNL     3      -7.652   9.636  68.627  1.00  0.00    -0.078 OA 
HETATM    5  C   UNL     2     -12.841   7.976  70.452  1.00  0.00     0.876 C  
HETATM    6  C   UNL     5      -9.012   7.518  70.819  1.00  0.00    -0.149 C  
HETATM    7  C   UNL     3      -6.709   8.748  69.129  1.00  0.00    -0.051 A  
HETATM    8  C   UNL     2     -11.082   9.377  69.284  1.00  0.00    -0.045 C  
HETATM    9  O   UNL     4      -9.993  10.839  65.489  1.00  0.00    -0.235 OA 
HETATM   10  H   UNL     3      -7.604  10.521  68.965  1.00  0.00     0.000 HD 
HETATM   11  C   UNL     3      -6.781   7.438  68.629  1.00  0.00    -0.057 A  
HETATM   12  H   UNL     4      -9.811  11.741  65.724  1.00  0.00     0.000 HD 
HETATM   13  O   UNL     5     -11.227   6.939  68.284  1.00  0.00    -0.503 OA 
HETATM   14  O   UNL     5      -9.110   8.672  70.365  1.00  0.00    -0.144 OA 
HETATM   15  C   UNL     4      -8.954   9.918  65.513  1.00  0.00    -0.174 A  
HETATM   16  C   UNL     5     -10.335   6.055  68.909  1.00  0.00    -0.218 A  
HETATM   17  H   UNL     5     -11.118   7.805  68.660  1.00  0.00     0.000 HD 
HETATM   18  O   UNL     5      -8.776   7.264  72.059  1.00  0.00    -0.117 OA 
HETATM   19  C   UNL     4      -9.221   8.593  65.168  1.00  0.00     0.046 A  
HETATM   20  C   UNL     3      -6.004   6.437  69.193  1.00  0.00    -0.021 A  
HETATM   21  C   UNL     3      -5.181   6.746  70.267  1.00  0.00    -0.018 A  
HETATM   22  O   UNL     4      -6.471  12.279  66.674  1.00  0.00    -0.048 OA 
HETATM   23  C   UNL     5     -10.498   4.772  68.351  1.00  0.00     0.160 A  
HETATM   24  C   UNL     4      -8.180   7.674  65.224  1.00  0.00    -0.136 A  
HETATM   25  C   UNL     5      -9.812   3.698  68.889  1.00  0.00     0.092 A  
HETATM   26  C   UNL     4      -6.894   8.098  65.564  1.00  0.00    -0.062 A  
HETATM   27  C   UNL     3      -5.134   8.060  70.769  1.00  0.00    -0.023 A  
HETATM   28  C   UNL     4      -6.652   9.426  65.938  1.00  0.00    -0.076 A  
HETATM   29  C   UNL     5      -8.960   3.869  69.959  1.00  0.00    -0.165 A  
HETATM   30  C   UNL     3      -5.917   9.085  70.231  1.00  0.00    -0.034 A  
HETATM   31  C   UNL     4      -7.702  10.343  65.971  1.00  0.00    -0.136 A  
HETATM   32  C   UNL     3      -6.040  10.411  70.886  1.00  0.00    -0.005 C  
HETATM   33  C   UNL     5      -8.780   5.132  70.470  1.00  0.00    -0.134 A  
HETATM   34  C   UNL     5      -9.445   6.277  69.979  1.00  0.00    -0.167 A  
HETATM   35  O   UNL     3      -7.012  11.174  70.517  1.00  0.00     0.002 OA 
HETATM   36  C   UNL     4      -7.585  11.707  66.620  1.00  0.00    -0.050 C  
HETATM   37  O   UNL     3      -5.161  10.749  71.792  1.00  0.00    -0.253 OA 
HETATM   38  O   UNL     4      -8.760  12.195  66.878  1.00  0.00    -0.187 OA 
ENDROOT
BRANCH   3  39
HETATM   39  C   UNL     2     -11.163   9.115  71.846  1.00  0.00    -0.329 C  
BRANCH  39  40
HETATM   40  C   UNL     2     -11.785   8.309  72.993  1.00  0.00     0.176 C  
HETATM   41  O   UNL     2     -11.305   6.980  73.025  1.00  0.00    -0.484 OA 
HETATM   42  H   UNL     2     -11.690   6.480  73.735  1.00  0.00     0.000 HD 
ENDBRANCH  39  40
ENDBRANCH   3  39
TORSDOF 2
ENDMDL
MODEL       28
REMARK 921   NORMALIZED FREE ENERGY PREDICTED BY IDOCK:   -2.70 KCAL/MOL
REMARK 922        TOTAL FREE ENERGY PREDICTED BY IDOCK:   -3.31 KCAL/MOL
REMARK 923 INTER-LIGAND FREE ENERGY PREDICTED BY IDOCK:   -2.79 KCAL/MOL
REMARK 924 INTRA-LIGAND FREE ENERGY PREDICTED BY IDOCK:   -0.52 KCAL/MOL
REMARK 927      BINDING AFFINITY PREDICTED BY RF-SCORE:    0.00 PKD
ROOT
HETATM    1 MG   UNL     1      -6.943   3.055  69.319  1.00  0.00    -0.036 Mg 
HETATM    2  C   UNL     2      -8.863   1.635  72.868  1.00  0.00    -0.062 C  
HETATM    3  N   UNL     2      -8.457   3.029  73.188  1.00  0.00    -0.079 N  
HETATM    4  O   UNL     3      -9.785   6.066  69.802  1.00  0.00    -0.152 OA 
HETATM    5  C   UNL     2      -7.242   3.171  74.064  1.00  0.00    -0.047 C  
HETATM    6  C   UNL     5      -9.112   6.410  73.052  1.00  0.00    -0.129 C  
HETATM    7  C   UNL     3     -10.015   7.366  70.234  1.00  0.00    -0.188 A  
HETATM    8  C   UNL     2      -8.291   3.607  71.798  1.00  0.00    -0.074 C  
HETATM    9  O   UNL     4      -7.457   3.453  67.675  1.00  0.00    -0.058 OA 
HETATM   10  H   UNL     3     -10.561   5.541  69.649  1.00  0.00     0.000 HD 
HETATM   11  C   UNL     3      -8.868   8.143  70.461  1.00  0.00    -0.144 A  
HETATM   12  H   UNL     4      -8.248   3.018  67.380  1.00  0.00     0.000 HD 
HETATM   13  O   UNL     5      -6.108   5.044  72.168  1.00  0.00    -0.023 OA 
HETATM   14  O   UNL     5      -9.502   5.589  72.203  1.00  0.00    -0.149 OA 
HETATM   15  C   UNL     4      -7.426   4.841  67.703  1.00  0.00    -0.078 A  
HETATM   16  C   UNL     5      -6.388   6.303  72.717  1.00  0.00    -0.059 A  
HETATM   17  H   UNL     5      -6.925   4.578  72.030  1.00  0.00     0.000 HD 
HETATM   18  O   UNL     5      -9.821   6.771  74.064  1.00  0.00    -0.241 OA 
HETATM   19  C   UNL     4      -6.264   5.480  68.137  1.00  0.00    -0.033 A  
HETATM   20  C   UNL     3      -8.981   9.389  71.060  1.00  0.00    -0.117 A  
HETATM   21  C   UNL     3     -10.234   9.838  71.451  1.00  0.00     0.284 A  
HETATM   22  O   UNL     4     -10.838   5.252  66.573  1.00  0.00    -0.280 OA 
HETATM   23  C   UNL     5      -5.177   6.993  72.922  1.00  0.00    -0.037 A  
HETATM   24  C   UNL     4      -6.255   6.868  68.189  1.00  0.00    -0.034 A  
HETATM   25  C   UNL     5      -5.183   8.215  73.569  1.00  0.00    -0.046 A  
HETATM   26  C   UNL     4      -7.371   7.590  67.759  1.00  0.00    -0.103 A  
HETATM   27  C   UNL     3     -11.373   9.039  71.234  1.00  0.00    -0.389 A  
HETATM   28  C   UNL     4      -8.539   6.930  67.357  1.00  0.00    -0.121 A  
HETATM   29  C   UNL     5      -6.364   8.775  74.008  1.00  0.00    -0.078 A  
HETATM   30  C   UNL     3     -11.287   7.774  70.647  1.00  0.00    -0.275 A  
HETATM   31  C   UNL     4      -8.596   5.536  67.380  1.00  0.00    -0.108 A  
HETATM   32  C   UNL     3     -12.440   6.839  70.614  1.00  0.00    -0.081 C  
HETATM   33  C   UNL     5      -7.543   8.111  73.770  1.00  0.00    -0.221 A  
HETATM   34  C   UNL     5      -7.620   6.860  73.119  1.00  0.00    -0.087 A  
HETATM   35  O   UNL     3     -12.198   5.599  70.356  1.00  0.00     1.353 OA 
HETATM   36  C   UNL     4      -9.890   4.763  67.231  1.00  0.00    -0.184 C  
HETATM   37  O   UNL     3     -13.637   7.311  70.835  1.00  0.00    -0.155 OA 
HETATM   38  O   UNL     4      -9.754   3.551  67.678  1.00  0.00    -0.173 OA 
ENDROOT
BRANCH   3  39
HETATM   39  C   UNL     2      -9.633   3.750  73.993  1.00  0.00    -0.096 C  
BRANCH  39  40
HETATM   40  C   UNL     2     -11.065   3.268  73.734  1.00  0.00    -0.197 C  
HETATM   41  O   UNL     2     -12.000   4.327  73.804  1.00  0.00    -0.092 OA 
HETATM   42  H   UNL     2     -12.887   4.029  73.643  1.00  0.00     0.000 HD 
ENDBRANCH  39  40
ENDBRANCH   3  39
TORSDOF 2
ENDMDL
MODEL       29
REMARK 921   NORMALIZED FREE ENERGY PREDICTED BY IDOCK:   -2.43 KCAL/MOL
REMARK 922        TOTAL FREE ENERGY PREDICTED BY IDOCK:   -3.01 KCAL/MOL
REMARK 923 INTER-LIGAND FREE ENERGY PREDICTED BY IDOCK:   -2.71 KCAL/MOL
REMARK 924 INTRA-LIGAND FREE ENERGY PREDICTED BY IDOCK:   -0.30 KCAL/MOL
REMARK 927      BINDING AFFINITY PREDICTED BY RF-SCORE:    0.00 PKD
ROOT
HETATM    1 MG   UNL     1      -6.023  10.477  71.152  1.00  0.00    -0.080 Mg 
HETATM    2  C   UNL     2      -8.881  12.893  69.079  1.00  0.00     0.519 C  
HETATM    3  N   UNL     2      -8.664  11.718  68.194  1.00  0.00    -0.163 N  
HETATM    4  O   UNL     3      -9.019   7.637  70.575  1.00  0.00    -0.148 OA 
HETATM    5  C   UNL     2      -7.791  11.958  66.992  1.00  0.00    -0.152 C  
HETATM    6  C   UNL     5      -9.410   8.458  67.363  1.00  0.00    -0.148 C  
HETATM    7  C   UNL     3      -9.437   6.549  69.819  1.00  0.00    -0.150 A  
HETATM    8  C   UNL     2      -8.102  10.715  69.179  1.00  0.00    -0.141 C  
HETATM    9  O   UNL     4      -6.019   9.515  72.634  1.00  0.00    -0.299 OA 
HETATM   10  H   UNL     3      -9.682   8.030  71.130  1.00  0.00     0.000 HD 
HETATM   11  C   UNL     3      -8.456   5.968  68.998  1.00  0.00    -0.117 A  
HETATM   12  H   UNL     4      -6.656   9.773  73.289  1.00  0.00     0.000 HD 
HETATM   13  O   UNL     5      -6.217   9.628  67.686  1.00  0.00    -0.052 OA 
HETATM   14  O   UNL     5      -9.475   8.916  68.518  1.00  0.00    -0.146 OA 
HETATM   15  C   UNL     4      -6.067   8.223  72.127  1.00  0.00    -0.054 A  
HETATM   16  C   UNL     5      -6.716   8.614  66.855  1.00  0.00    -0.065 A  
HETATM   17  H   UNL     5      -6.927   9.967  68.220  1.00  0.00     0.000 HD 
HETATM   18  O   UNL     5     -10.416   8.417  66.562  1.00  0.00    -0.249 OA 
HETATM   19  C   UNL     4      -5.130   7.843  71.164  1.00  0.00    -0.026 A  
HETATM   20  C   UNL     3      -8.812   4.994  68.076  1.00  0.00    -0.109 A  
HETATM   21  C   UNL     3     -10.145   4.627  67.963  1.00  0.00    -0.077 A  
HETATM   22  O   UNL     4      -8.973   7.241  74.044  1.00  0.00    -0.192 OA 
HETATM   23  C   UNL     5      -5.664   8.112  66.064  1.00  0.00    -0.037 A  
HETATM   24  C   UNL     4      -5.207   6.558  70.641  1.00  0.00    -0.018 A  
HETATM   25  C   UNL     5      -5.932   7.183  65.075  1.00  0.00    -0.037 A  
HETATM   26  C   UNL     4      -6.167   5.665  71.122  1.00  0.00    -0.034 A  
HETATM   27  C   UNL     3     -11.119   5.232  68.780  1.00  0.00     0.695 A  
HETATM   28  C   UNL     4      -7.118   6.076  72.065  1.00  0.00    -0.087 A  
HETATM   29  C   UNL     5      -7.216   6.733  64.858  1.00  0.00    -0.075 A  
HETATM   30  C   UNL     3     -10.793   6.226  69.706  1.00  0.00    -0.399 A  
HETATM   31  C   UNL     4      -7.111   7.388  72.538  1.00  0.00    -0.068 A  
HETATM   32  C   UNL     3     -11.830   7.021  70.410  1.00  0.00    -0.247 C  
HETATM   33  C   UNL     5      -8.229   7.202  65.662  1.00  0.00    -0.138 A  
HETATM   34  C   UNL     5      -8.037   8.151  66.690  1.00  0.00    -0.103 A  
HETATM   35  O   UNL     3     -11.458   8.112  70.988  1.00  0.00    -0.274 OA 
HETATM   36  C   UNL     4      -8.253   7.983  73.334  1.00  0.00    -0.202 C  
HETATM   37  O   UNL     3     -13.059   6.578  70.423  1.00  0.00     0.645 OA 
HETATM   38  O   UNL     4      -8.205   9.280  73.308  1.00  0.00     0.469 OA 
ENDROOT
BRANCH   3  39
HETATM   39  C   UNL     2     -10.066  11.241  67.596  1.00  0.00    -0.179 C  
BRANCH  39  40
HETATM   40  C   UNL     2     -11.337  11.826  68.224  1.00  0.00    -0.282 C  
HETATM   41  O   UNL     2     -12.282  12.210  67.244  1.00  0.00    -0.496 OA 
HETATM   42  H   UNL     2     -13.069  12.573  67.632  1.00  0.00     0.000 HD 
ENDBRANCH  39  40
ENDBRANCH   3  39
TORSDOF 2
ENDMDL
MODEL       30
REMARK 921   NORMALIZED FREE ENERGY PREDICTED BY IDOCK:   -2.26 KCAL/MOL
REMARK 922        TOTAL FREE ENERGY PREDICTED BY IDOCK:   -2.82 KCAL/MOL
REMARK 923 INTER-LIGAND FREE ENERGY PREDICTED BY IDOCK:   -2.27 KCAL/MOL
REMARK 924 INTRA-LIGAND FREE ENERGY PREDICTED BY IDOCK:   -0.55 KCAL/MOL
REMARK 927      BINDING AFFINITY PREDICTED BY RF-SCORE:    0.00 PKD
ROOT
HETATM    1 MG   UNL     1      -5.136  14.146  66.862  1.00  0.00     0.174 Mg 
HETATM    2  C   UNL     2      -5.339  10.945  64.031  1.00  0.00     0.060 C  
HETATM    3  N   UNL     2      -6.018  10.421  65.246  1.00  0.00    -0.127 N  
HETATM    4  O   UNL     3      -9.248  13.467  66.902  1.00  0.00    -0.236 OA 
HETATM    5  C   UNL     2      -5.218   9.456  66.077  1.00  0.00    -0.036 C  
HETATM    6  C   UNL     5      -8.868  10.162  67.165  1.00  0.00    -0.132 C  
HETATM    7  C   UNL     3     -10.307  12.886  67.588  1.00  0.00    -0.218 A  
HETATM    8  C   UNL     2      -6.370  11.710  65.958  1.00  0.00     0.556 C  
HETATM    9  O   UNL     4      -5.853  15.755  67.006  1.00  0.00    -0.316 OA 
HETATM   10  H   UNL     3      -9.436  13.737  66.011  1.00  0.00     0.000 HD 
HETATM   11  C   UNL     3     -10.031  12.486  68.905  1.00  0.00     0.080 A  
HETATM   12  H   UNL     4      -6.121  16.155  66.187  1.00  0.00     0.000 HD 
HETATM   13  O   UNL     5      -5.817  11.015  68.443  1.00  0.00    -0.043 OA 
HETATM   14  O   UNL     5      -8.605  11.134  66.436  1.00  0.00    -0.163 OA 
HETATM   15  C   UNL     4      -6.808  15.546  67.993  1.00  0.00    -0.136 A  
HETATM   16  C   UNL     5      -6.878  10.327  69.050  1.00  0.00    -0.058 A  
HETATM   17  H   UNL     5      -6.075  11.265  67.563  1.00  0.00     0.000 HD 
HETATM   18  O   UNL     5      -9.581   9.161  66.780  1.00  0.00    -0.166 OA 
HETATM   19  C   UNL     4      -6.414  14.957  69.195  1.00  0.00    -0.112 A  
HETATM   20  C   UNL     3     -10.962  11.739  69.613  1.00  0.00    -0.056 A  
HETATM   21  C   UNL     3     -12.148  11.377  68.992  1.00  0.00    -0.316 A  
HETATM   22  O   UNL     4      -9.566  16.836  66.040  1.00  0.00    -0.381 OA 
HETATM   23  C   UNL     5      -6.496   9.955  70.354  1.00  0.00    -0.115 A  
HETATM   24  C   UNL     4      -7.383  14.725  70.164  1.00  0.00     0.226 A  
HETATM   25  C   UNL     5      -7.331   9.158  71.114  1.00  0.00    -0.091 A  
HETATM   26  C   UNL     4      -8.701  15.131  69.943  1.00  0.00     0.196 A  
HETATM   27  C   UNL     3     -12.403  11.771  67.665  1.00  0.00     0.829 A  
HETATM   28  C   UNL     4      -9.082  15.692  68.718  1.00  0.00    -0.208 A  
HETATM   29  C   UNL     5      -8.543   8.728  70.615  1.00  0.00    -0.203 A  
HETATM   30  C   UNL     3     -11.478  12.509  66.923  1.00  0.00    -0.416 A  
HETATM   31  C   UNL     4      -8.141  15.853  67.701  1.00  0.00    -0.160 A  
HETATM   32  C   UNL     3     -11.638  12.738  65.465  1.00  0.00    -0.362 C  
HETATM   33  C   UNL     5      -8.922   9.128  69.356  1.00  0.00    -0.147 A  
HETATM   34  C   UNL     5      -8.125   9.939  68.518  1.00  0.00    -0.101 A  
HETATM   35  O   UNL     3     -10.606  13.139  64.805  1.00  0.00    -0.330 OA 
HETATM   36  C   UNL     4      -8.520  16.186  66.273  1.00  0.00    -0.322 C  
HETATM   37  O   UNL     3     -12.810  12.538  64.923  1.00  0.00    -0.758 OA 
HETATM   38  O   UNL     4      -7.551  15.891  65.460  1.00  0.00     1.898 OA 
ENDROOT
BRANCH   3  39
HETATM   39  C   UNL     2      -7.324   9.609  64.812  1.00  0.00    -0.119 C  
BRANCH  39  40
HETATM   40  C   UNL     2      -7.809   9.772  63.367  1.00  0.00    -0.145 C  
HETATM   41  O   UNL     2      -8.627  10.913  63.209  1.00  0.00    -0.314 OA 
HETATM   42  H   UNL     2      -8.928  11.015  62.314  1.00  0.00     0.000 HD 
ENDBRANCH  39  40
ENDBRANCH   3  39
TORSDOF 2
ENDMDL
MODEL       31
REMARK 921   NORMALIZED FREE ENERGY PREDICTED BY IDOCK:   -2.03 KCAL/MOL
REMARK 922        TOTAL FREE ENERGY PREDICTED BY IDOCK:   -2.56 KCAL/MOL
REMARK 923 INTER-LIGAND FREE ENERGY PREDICTED BY IDOCK:   -2.65 KCAL/MOL
REMARK 924 INTRA-LIGAND FREE ENERGY PREDICTED BY IDOCK:    0.09 KCAL/MOL
REMARK 927      BINDING AFFINITY PREDICTED BY RF-SCORE:    0.00 PKD
ROOT
HETATM    1 MG   UNL     1      -7.700  14.825  65.597  1.00  0.00     0.287 Mg 
HETATM    2  C   UNL     2     -11.056  13.342  63.399  1.00  0.00     0.325 C  
HETATM    3  N   UNL     2     -10.411  12.130  63.970  1.00  0.00    -0.352 N  
HETATM    4  O   UNL     3      -9.556  12.616  68.605  1.00  0.00    -0.379 OA 
HETATM    5  C   UNL     2      -9.592  11.311  63.010  1.00  0.00    -0.377 C  
HETATM    6  C   UNL     5      -9.993   9.968  66.621  1.00  0.00    -0.216 C  
HETATM    7  C   UNL     3      -9.545  11.431  69.329  1.00  0.00     0.252 A  
HETATM    8  C   UNL     2      -9.614  12.736  65.106  1.00  0.00     0.144 C  
HETATM    9  O   UNL     4      -7.472  15.786  67.063  1.00  0.00    -0.209 OA 
HETATM   10  H   UNL     3     -10.344  13.139  68.686  1.00  0.00     0.000 HD 
HETATM   11  C   UNL     3      -8.379  10.657  69.210  1.00  0.00    -0.112 A  
HETATM   12  H   UNL     4      -8.198  16.352  67.295  1.00  0.00     0.000 HD 
HETATM   13  O   UNL     5      -7.387  11.336  64.887  1.00  0.00     0.029 OA 
HETATM   14  O   UNL     5     -10.277  11.174  66.741  1.00  0.00    -0.216 OA 
HETATM   15  C   UNL     4      -7.062  14.817  67.969  1.00  0.00    -0.138 A  
HETATM   16  C   UNL     5      -7.473  10.097  65.537  1.00  0.00    -0.146 A  
HETATM   17  H   UNL     5      -8.201  11.811  65.017  1.00  0.00     0.000 HD 
HETATM   18  O   UNL     5     -10.878   9.034  66.584  1.00  0.00    -0.070 OA 
HETATM   19  C   UNL     4      -5.994  13.985  67.628  1.00  0.00    -0.048 A  
HETATM   20  C   UNL     3      -8.338   9.378  69.748  1.00  0.00    -0.161 A  
HETATM   21  C   UNL     3      -9.467   8.874  70.376  1.00  0.00    -0.227 A  
HETATM   22  O   UNL     4      -9.598  15.595  70.428  1.00  0.00     0.171 OA 
HETATM   23  C   UNL     5      -6.268   9.394  65.344  1.00  0.00    -0.065 A  
HETATM   24  C   UNL     4      -5.612  12.999  68.529  1.00  0.00    -0.069 A  
HETATM   25  C   UNL     5      -6.154   8.090  65.789  1.00  0.00    -0.038 A  
HETATM   26  C   UNL     4      -6.255  12.898  69.765  1.00  0.00    -0.105 A  
HETATM   27  C   UNL     3     -10.634   9.655  70.472  1.00  0.00    -0.369 A  
HETATM   28  C   UNL     4      -7.344  13.721  70.076  1.00  0.00     0.755 A  
HETATM   29  C   UNL     5      -7.204   7.469  66.432  1.00  0.00    -0.075 A  
HETATM   30  C   UNL     3     -10.710  10.940  69.926  1.00  0.00    -0.135 A  
HETATM   31  C   UNL     4      -7.798  14.658  69.148  1.00  0.00    -0.107 A  
HETATM   32  C   UNL     3     -11.992  11.680  69.827  1.00  0.00    -0.332 C  
HETATM   33  C   UNL     5      -8.361   8.178  66.649  1.00  0.00    -0.111 A  
HETATM   34  C   UNL     5      -8.557   9.510  66.223  1.00  0.00    -0.141 A  
HETATM   35  O   UNL     3     -12.037  12.697  69.036  1.00  0.00    -0.261 OA 
HETATM   36  C   UNL     4      -9.119  15.384  69.289  1.00  0.00    -0.260 C  
HETATM   37  O   UNL     3     -13.006  11.280  70.547  1.00  0.00    -0.142 OA 
HETATM   38  O   UNL     4      -9.497  15.875  68.148  1.00  0.00    -0.201 OA 
ENDROOT
BRANCH   3  39
HETATM   39  C   UNL     2     -11.539  11.133  64.504  1.00  0.00     0.391 C  
BRANCH  39  40
HETATM   40  C   UNL     2     -12.999  11.493  64.204  1.00  0.00     0.663 C  
HETATM   41  O   UNL     2     -13.265  11.508  62.815  1.00  0.00    -0.604 OA 
HETATM   42  H   UNL     2     -14.169  11.731  62.629  1.00  0.00     0.000 HD 
ENDBRANCH  39  40
ENDBRANCH   3  39
TORSDOF 2
ENDMDL
MODEL       32
REMARK 921   NORMALIZED FREE ENERGY PREDICTED BY IDOCK:   -2.00 KCAL/MOL
REMARK 922        TOTAL FREE ENERGY PREDICTED BY IDOCK:   -2.52 KCAL/MOL
REMARK 923 INTER-LIGAND FREE ENERGY PREDICTED BY IDOCK:   -1.75 KCAL/MOL
REMARK 924 INTRA-LIGAND FREE ENERGY PREDICTED BY IDOCK:   -0.77 KCAL/MOL
REMARK 927      BINDING AFFINITY PREDICTED BY RF-SCORE:    0.00 PKD
ROOT
HETATM    1 MG   UNL     1      -8.372  16.502  70.550  1.00  0.00     0.689 Mg 
HETATM    2  C   UNL     2     -12.004  14.973  72.216  1.00  0.00    -0.359 C  
HETATM    3  N   UNL     2     -12.118  14.716  70.756  1.00  0.00    -0.299 N  
HETATM    4  O   UNL     3      -8.232  12.622  69.032  1.00  0.00    -0.336 OA 
HETATM    5  C   UNL     2     -13.018  15.652  69.996  1.00  0.00     0.231 C  
HETATM    6  C   UNL     5     -11.416  12.719  68.036  1.00  0.00    -0.318 C  
HETATM    7  C   UNL     3      -8.441  11.820  67.918  1.00  0.00    -0.154 A  
HETATM    8  C   UNL     2     -10.664  14.778  70.338  1.00  0.00     0.078 C  
HETATM    9  O   UNL     4      -6.663  16.056  70.618  1.00  0.00     0.565 OA 
HETATM   10  H   UNL     3      -8.127  12.162  69.856  1.00  0.00     0.000 HD 
HETATM   11  C   UNL     3      -8.597  12.500  66.700  1.00  0.00    -0.057 A  
HETATM   12  H   UNL     4      -6.402  15.560  71.385  1.00  0.00     0.000 HD 
HETATM   13  O   UNL     5     -10.907  16.097  68.064  1.00  0.00    -0.312 OA 
HETATM   14  O   UNL     5     -10.690  12.809  69.042  1.00  0.00    -0.197 OA 
HETATM   15  C   UNL     4      -6.472  15.496  69.362  1.00  0.00    -0.151 A  
HETATM   16  C   UNL     5     -11.236  15.253  66.994  1.00  0.00    -0.275 A  
HETATM   17  H   UNL     5     -10.805  15.572  68.851  1.00  0.00     0.000 HD 
HETATM   18  O   UNL     5     -12.321  11.815  67.897  1.00  0.00    -0.399 OA 
HETATM   19  C   UNL     4      -6.855  16.225  68.235  1.00  0.00    -0.134 A  
HETATM   20  C   UNL     3      -8.985  11.806  65.562  1.00  0.00     0.100 A  
HETATM   21  C   UNL     3      -9.239  10.446  65.656  1.00  0.00    -0.220 A  
HETATM   22  O   UNL     4      -5.126  12.379  70.610  1.00  0.00    -0.099 OA 
HETATM   23  C   UNL     5     -11.387  16.030  65.829  1.00  0.00     0.230 A  
HETATM   24  C   UNL     4      -6.687  15.643  66.985  1.00  0.00     0.058 A  
HETATM   25  C   UNL     5     -11.830  15.437  64.661  1.00  0.00    -0.218 A  
HETATM   26  C   UNL     4      -6.094  14.384  66.876  1.00  0.00     1.599 A  
HETATM   27  C   UNL     3      -9.095   9.781  66.889  1.00  0.00    -0.162 A  
HETATM   28  C   UNL     4      -5.745  13.655  68.020  1.00  0.00    -0.129 A  
HETATM   29  C   UNL     5     -12.118  14.090  64.617  1.00  0.00    -0.462 A  
HETATM   30  C   UNL     3      -8.721  10.456  68.054  1.00  0.00    -0.123 A  
HETATM   31  C   UNL     4      -5.986  14.187  69.287  1.00  0.00    -0.097 A  
HETATM   32  C   UNL     3      -8.781   9.816  69.391  1.00  0.00    -0.174 C  
HETATM   33  C   UNL     5     -11.930  13.335  65.750  1.00  0.00    -0.463 A  
HETATM   34  C   UNL     5     -11.483  13.865  66.980  1.00  0.00    -0.367 A  
HETATM   35  O   UNL     3      -8.735  10.585  70.425  1.00  0.00     0.470 OA 
HETATM   36  C   UNL     4      -5.898  13.365  70.556  1.00  0.00    -0.159 C  
HETATM   37  O   UNL     3      -8.866   8.514  69.461  1.00  0.00    -0.138 OA 
HETATM   38  O   UNL     4      -6.538  13.946  71.524  1.00  0.00     0.301 OA 
ENDROOT
BRANCH   3  39
HETATM   39  C   UNL     2     -12.740  13.263  70.522  1.00  0.00    -0.099 C  
BRANCH  39  40
HETATM   40  C   UNL     2     -12.669  12.269  71.687  1.00  0.00    -0.203 C  
HETATM   41  O   UNL     2     -11.719  11.248  71.453  1.00  0.00     0.033 OA 
HETATM   42  H   UNL     2     -11.674  10.632  72.174  1.00  0.00     0.000 HD 
ENDBRANCH  39  40
ENDBRANCH   3  39
TORSDOF 2
ENDMDL
MODEL       33
REMARK 921   NORMALIZED FREE ENERGY PREDICTED BY IDOCK:   -1.98 KCAL/MOL
REMARK 922        TOTAL FREE ENERGY PREDICTED BY IDOCK:   -2.50 KCAL/MOL
REMARK 923 INTER-LIGAND FREE ENERGY PREDICTED BY IDOCK:   -1.70 KCAL/MOL
REMARK 924 INTRA-LIGAND FREE ENERGY PREDICTED BY IDOCK:   -0.81 KCAL/MOL
REMARK 927      BINDING AFFINITY PREDICTED BY RF-SCORE:    0.00 PKD
ROOT
HETATM    1 MG   UNL     1      -6.035  11.978  69.975  1.00  0.00    -0.072 Mg 
HETATM    2  C   UNL     2      -9.488  14.482  69.658  1.00  0.00     0.411 C  
HETATM    3  N   UNL     2      -9.558  13.588  68.472  1.00  0.00    -0.191 N  
HETATM    4  O   UNL     3      -8.976   9.040  69.667  1.00  0.00    -0.142 OA 
HETATM    5  C   UNL     2      -9.155  14.207  67.161  1.00  0.00    -0.232 C  
HETATM    6  C   UNL     5     -10.461  10.561  67.095  1.00  0.00    -0.249 C  
HETATM    7  C   UNL     3      -9.599   8.126  68.827  1.00  0.00    -0.149 A  
HETATM    8  C   UNL     2      -8.668  12.447  68.919  1.00  0.00     0.296 C  
HETATM    9  O   UNL     4      -5.499  10.693  71.064  1.00  0.00    -0.097 OA 
HETATM   10  H   UNL     3      -9.418   9.209  70.490  1.00  0.00     0.000 HD 
HETATM   11  C   UNL     3      -8.945   7.875  67.610  1.00  0.00    -0.133 A  
HETATM   12  H   UNL     4      -5.880  10.712  71.934  1.00  0.00     0.000 HD 
HETATM   13  O   UNL     5      -7.381  11.973  66.664  1.00  0.00    -0.364 OA 
HETATM   14  O   UNL     5     -10.139  10.717  68.286  1.00  0.00    -0.161 OA 
HETATM   15  C   UNL     4      -5.686   9.565  70.276  1.00  0.00    -0.039 A  
HETATM   16  C   UNL     5      -8.109  11.139  65.803  1.00  0.00     0.029 A  
HETATM   17  H   UNL     5      -7.874  12.091  67.469  1.00  0.00     0.000 HD 
HETATM   18  O   UNL     5     -11.680  10.600  66.681  1.00  0.00     0.132 OA 
HETATM   19  C   UNL     4      -5.126   9.536  68.998  1.00  0.00    -0.037 A  
HETATM   20  C   UNL     3      -9.570   7.118  66.630  1.00  0.00    -0.226 A  
HETATM   21  C   UNL     3     -10.852   6.641  66.861  1.00  0.00    -0.415 A  
HETATM   22  O   UNL     4      -7.735   7.827  72.698  1.00  0.00    -0.091 OA 
HETATM   23  C   UNL     5      -7.379  10.965  64.610  1.00  0.00     0.462 A  
HETATM   24  C   UNL     4      -5.345   8.416  68.207  1.00  0.00    -0.034 A  
HETATM   25  C   UNL     5      -7.945  10.278  63.552  1.00  0.00    -0.143 A  
HETATM   26  C   UNL     4      -6.060   7.330  68.718  1.00  0.00    -0.027 A  
HETATM   27  C   UNL     3     -11.502   6.916  68.079  1.00  0.00     0.282 A  
HETATM   28  C   UNL     4      -6.641   7.391  69.991  1.00  0.00    -0.046 A  
HETATM   29  C   UNL     5      -9.215   9.751  63.652  1.00  0.00    -0.229 A  
HETATM   30  C   UNL     3     -10.903   7.688  69.078  1.00  0.00    -0.059 A  
HETATM   31  C   UNL     4      -6.505   8.543  70.766  1.00  0.00    -0.040 A  
HETATM   32  C   UNL     3     -11.657   8.167  70.264  1.00  0.00     0.013 C  
HETATM   33  C   UNL     5      -9.903   9.894  64.833  1.00  0.00    -0.282 A  
HETATM   34  C   UNL     5      -9.395  10.583  65.957  1.00  0.00    -0.215 A  
HETATM   35  O   UNL     3     -11.137   9.122  70.958  1.00  0.00    -0.256 OA 
HETATM   36  C   UNL     4      -7.321   8.795  72.017  1.00  0.00     0.020 C  
HETATM   37  O   UNL     3     -12.795   7.598  70.556  1.00  0.00     0.195 OA 
HETATM   38  O   UNL     4      -7.316  10.057  72.321  1.00  0.00     1.388 OA 
ENDROOT
BRANCH   3  39
HETATM   39  C   UNL     2     -11.068  13.113  68.257  1.00  0.00    -0.266 C  
BRANCH  39  40
HETATM   40  C   UNL     2     -11.997  13.138  69.476  1.00  0.00    -0.294 C  
HETATM   41  O   UNL     2     -11.866  11.972  70.265  1.00  0.00    -0.437 OA 
HETATM   42  H   UNL     2     -12.442  11.987  71.020  1.00  0.00     0.000 HD 
ENDBRANCH  39  40
ENDBRANCH   3  39
TORSDOF 2
ENDMDL
MODEL       34
REMARK 921   NORMALIZED FREE ENERGY PREDICTED BY IDOCK:   -1.80 KCAL/MOL
REMARK 922        TOTAL FREE ENERGY PREDICTED BY IDOCK:   -2.30 KCAL/MOL
REMARK 923 INTER-LIGAND FREE ENERGY PREDICTED BY IDOCK:   -2.02 KCAL/MOL
REMARK 924 INTRA-LIGAND FREE ENERGY PREDICTED BY IDOCK:   -0.28 KCAL/MOL
REMARK 927      BINDING AFFINITY PREDICTED BY RF-SCORE:    0.00 PKD
ROOT
HETATM    1 MG   UNL     1      -7.443  12.207  65.118  1.00  0.00     0.291 Mg 
HETATM    2  C   UNL     2      -5.134  12.746  68.679  1.00  0.00    -0.058 C  
HETATM    3  N   UNL     2      -6.140  13.840  68.710  1.00  0.00    -0.082 N  
HETATM    4  O   UNL     3     -10.523  12.217  67.927  1.00  0.00    -0.204 OA 
HETATM    5  C   UNL     2      -5.633  15.206  68.335  1.00  0.00    -0.106 C  
HETATM    6  C   UNL     5      -9.322  14.917  69.480  1.00  0.00     0.023 C  
HETATM    7  C   UNL     3     -11.539  12.963  68.510  1.00  0.00    -0.323 A  
HETATM    8  C   UNL     2      -7.193  13.290  67.770  1.00  0.00    -0.151 C  
HETATM    9  O   UNL     4      -8.593  11.001  64.526  1.00  0.00    -0.367 OA 
HETATM   10  H   UNL     3     -10.295  11.413  68.377  1.00  0.00     0.000 HD 
HETATM   11  C   UNL     3     -11.877  14.154  67.846  1.00  0.00    -0.405 A  
HETATM   12  H   UNL     4      -8.507  10.136  64.907  1.00  0.00     0.000 HD 
HETATM   13  O   UNL     5      -7.825  15.495  66.465  1.00  0.00    -0.280 OA 
HETATM   14  O   UNL     5      -9.038  13.747  69.164  1.00  0.00     0.187 OA 
HETATM   15  C   UNL     4      -9.799  11.677  64.664  1.00  0.00    -0.227 A  
HETATM   16  C   UNL     5      -8.768  16.269  67.155  1.00  0.00    -0.191 A  
HETATM   17  H   UNL     5      -7.652  14.703  66.961  1.00  0.00     0.000 HD 
HETATM   18  O   UNL     5      -9.376  15.326  70.699  1.00  0.00     0.650 OA 
HETATM   19  C   UNL     4      -9.925  12.949  64.103  1.00  0.00    -0.087 A  
HETATM   20  C   UNL     3     -12.751  15.054  68.438  1.00  0.00     0.931 A  
HETATM   21  C   UNL     3     -13.260  14.772  69.698  1.00  0.00     0.849 A  
HETATM   22  O   UNL     4     -11.384   9.090  66.633  1.00  0.00     0.837 OA 
HETATM   23  C   UNL     5      -9.024  17.443  66.419  1.00  0.00    -0.274 A  
HETATM   24  C   UNL     4     -11.125  13.628  64.273  1.00  0.00    -0.332 A  
HETATM   25  C   UNL     5      -9.833  18.427  66.955  1.00  0.00    -0.335 A  
HETATM   26  C   UNL     4     -12.186  13.012  64.940  1.00  0.00    -0.490 A  
HETATM   27  C   UNL     3     -12.898  13.583  70.358  1.00  0.00    -0.064 A  
HETATM   28  C   UNL     4     -12.030  11.748  65.522  1.00  0.00     0.135 A  
HETATM   29  C   UNL     5     -10.403  18.272  68.201  1.00  0.00    -0.393 A  
HETATM   30  C   UNL     3     -12.008  12.665  69.794  1.00  0.00    -0.365 A  
HETATM   31  C   UNL     4     -10.804  11.088  65.437  1.00  0.00    -0.168 A  
HETATM   32  C   UNL     3     -11.451  11.527  70.567  1.00  0.00     0.181 C  
HETATM   33  C   UNL     5     -10.177  17.106  68.893  1.00  0.00    -0.332 A  
HETATM   34  C   UNL     5      -9.362  16.056  68.416  1.00  0.00    -0.207 A  
HETATM   35  O   UNL     3     -10.413  10.930  70.090  1.00  0.00     0.036 OA 
HETATM   36  C   UNL     4     -10.469   9.863  66.262  1.00  0.00    -0.101 C  
HETATM   37  O   UNL     3     -12.039  11.176  71.679  1.00  0.00    -0.047 OA 
HETATM   38  O   UNL     4      -9.185   9.680  66.313  1.00  0.00    -0.152 OA 
ENDROOT
BRANCH   3  39
HETATM   39  C   UNL     2      -6.700  14.001  70.197  1.00  0.00     0.087 C  
BRANCH  39  40
HETATM   40  C   UNL     2      -5.778  14.660  71.230  1.00  0.00    -0.074 C  
HETATM   41  O   UNL     2      -5.767  13.955  72.455  1.00  0.00    -0.417 OA 
HETATM   42  H   UNL     2      -5.196  14.362  73.096  1.00  0.00     0.000 HD 
ENDBRANCH  39  40
ENDBRANCH   3  39
TORSDOF 2
ENDMDL
MODEL       35
REMARK 921   NORMALIZED FREE ENERGY PREDICTED BY IDOCK:   -0.64 KCAL/MOL
REMARK 922        TOTAL FREE ENERGY PREDICTED BY IDOCK:   -1.00 KCAL/MOL
REMARK 923 INTER-LIGAND FREE ENERGY PREDICTED BY IDOCK:   -0.74 KCAL/MOL
REMARK 924 INTRA-LIGAND FREE ENERGY PREDICTED BY IDOCK:   -0.27 KCAL/MOL
REMARK 927      BINDING AFFINITY PREDICTED BY RF-SCORE:    0.00 PKD
ROOT
HETATM    1 MG   UNL     1      -9.291   5.785  66.161  1.00  0.00    -0.135 Mg 
HETATM    2  C   UNL     2     -12.265   6.792  69.066  1.00  0.00     1.821 C  
HETATM    3  N   UNL     2     -10.970   7.111  69.723  1.00  0.00    -0.245 N  
HETATM    4  O   UNL     3      -8.182   9.730  66.925  1.00  0.00    -0.116 OA 
HETATM    5  C   UNL     2     -10.495   6.119  70.750  1.00  0.00    -0.230 C  
HETATM    6  C   UNL     5      -8.372   9.318  70.232  1.00  0.00    -0.186 C  
HETATM    7  C   UNL     3      -7.293  10.561  67.593  1.00  0.00    -0.087 A  
HETATM    8  C   UNL     2     -10.061   7.241  68.519  1.00  0.00    -0.172 C  
HETATM    9  O   UNL     4      -8.791   6.421  64.590  1.00  0.00    -0.335 OA 
HETATM   10  H   UNL     3      -8.954  10.155  66.571  1.00  0.00     0.000 HD 
HETATM   11  C   UNL     3      -6.151   9.933  68.118  1.00  0.00    -0.050 A  
HETATM   12  H   UNL     4      -9.458   6.903  64.115  1.00  0.00     0.000 HD 
HETATM   13  O   UNL     5      -7.910   6.025  69.448  1.00  0.00    -0.096 OA 
HETATM   14  O   UNL     5      -9.044   9.259  69.186  1.00  0.00    -0.139 OA 
HETATM   15  C   UNL     4      -7.605   7.066  64.916  1.00  0.00    -0.106 A  
HETATM   16  C   UNL     5      -7.106   6.881  70.215  1.00  0.00    -0.067 A  
HETATM   17  H   UNL     5      -8.654   6.515  69.116  1.00  0.00     0.000 HD 
HETATM   18  O   UNL     5      -8.645  10.117  71.203  1.00  0.00     0.650 OA 
HETATM   19  C   UNL     4      -6.624   6.358  65.614  1.00  0.00    -0.047 A  
HETATM   20  C   UNL     3      -5.293  10.637  68.950  1.00  0.00    -0.041 A  
HETATM   21  C   UNL     3      -5.594  11.952  69.273  1.00  0.00    -0.059 A  
HETATM   22  O   UNL     4      -8.575  10.247  63.494  1.00  0.00    -0.171 OA 
HETATM   23  C   UNL     5      -6.004   6.155  70.707  1.00  0.00    -0.026 A  
HETATM   24  C   UNL     4      -5.455   7.022  65.961  1.00  0.00    -0.026 A  
HETATM   25  C   UNL     5      -5.128   6.753  71.594  1.00  0.00    -0.027 A  
HETATM   26  C   UNL     4      -5.259   8.346  65.562  1.00  0.00    -0.031 A  
HETATM   27  C   UNL     3      -6.752  12.562  68.754  1.00  0.00    -0.093 A  
HETATM   28  C   UNL     4      -6.267   9.048  64.890  1.00  0.00    -0.065 A  
HETATM   29  C   UNL     5      -5.312   8.059  71.996  1.00  0.00    -0.035 A  
HETATM   30  C   UNL     3      -7.642  11.873  67.926  1.00  0.00    -0.128 A  
HETATM   31  C   UNL     4      -7.483   8.425  64.609  1.00  0.00    -0.098 A  
HETATM   32  C   UNL     3      -8.967  12.430  67.556  1.00  0.00    -0.183 C  
HETATM   33  C   UNL     5      -6.369   8.770  71.480  1.00  0.00    -0.071 A  
HETATM   34  C   UNL     5      -7.308   8.230  70.573  1.00  0.00    -0.056 A  
HETATM   35  O   UNL     3      -9.843  11.618  67.070  1.00  0.00    -0.190 OA 
HETATM   36  C   UNL     4      -8.708   9.182  64.142  1.00  0.00    -0.141 C  
HETATM   37  O   UNL     3      -9.181  13.708  67.725  1.00  0.00    -0.197 OA 
HETATM   38  O   UNL     4      -9.783   8.480  64.335  1.00  0.00     1.364 OA 
ENDROOT
BRANCH   3  39
HETATM   39  C   UNL     2     -11.105   8.492  70.514  1.00  0.00    -0.244 C  
BRANCH  39  40
HETATM   40  C   UNL     2     -12.014   8.512  71.749  1.00  0.00    -0.332 C  
HETATM   41  O   UNL     2     -13.293   9.036  71.455  1.00  0.00    -0.346 OA 
HETATM   42  H   UNL     2     -13.857   9.049  72.220  1.00  0.00     0.000 HD 
ENDBRANCH  39  40
ENDBRANCH   3  39
TORSDOF 2
ENDMDL
MODEL       36
REMARK 921   NORMALIZED FREE ENERGY PREDICTED BY IDOCK:   -0.37 KCAL/MOL
REMARK 922        TOTAL FREE ENERGY PREDICTED BY IDOCK:   -0.70 KCAL/MOL
REMARK 923 INTER-LIGAND FREE ENERGY PREDICTED BY IDOCK:   -0.39 KCAL/MOL
REMARK 924 INTRA-LIGAND FREE ENERGY PREDICTED BY IDOCK:   -0.32 KCAL/MOL
REMARK 927      BINDING AFFINITY PREDICTED BY RF-SCORE:    0.00 PKD
ROOT
HETATM    1 MG   UNL     1     -12.137   9.259  66.899  1.00  0.00     0.477 Mg 
HETATM    2  C   UNL     2      -9.919   5.628  67.345  1.00  0.00    -0.156 C  
HETATM    3  N   UNL     2      -8.978   6.568  66.679  1.00  0.00    -0.133 N  
HETATM    4  O   UNL     3      -8.800  10.746  68.907  1.00  0.00    -0.154 OA 
HETATM    5  C   UNL     2      -8.775   6.354  65.204  1.00  0.00     0.076 C  
HETATM    6  C   UNL     5      -6.671   9.117  66.920  1.00  0.00    -0.076 C  
HETATM    7  C   UNL     3      -7.598  11.430  68.781  1.00  0.00    -0.132 A  
HETATM    8  C   UNL     2      -9.605   7.901  67.031  1.00  0.00    -0.192 C  
HETATM    9  O   UNL     4     -12.784  10.488  67.992  1.00  0.00     1.189 OA 
HETATM   10  H   UNL     3      -8.934  10.300  69.734  1.00  0.00     0.000 HD 
HETATM   11  C   UNL     3      -7.400  12.090  67.558  1.00  0.00    -0.137 A  
HETATM   12  H   UNL     4     -12.950  10.196  68.880  1.00  0.00     0.000 HD 
HETATM   13  O   UNL     5      -9.296   9.163  64.734  1.00  0.00    -0.441 OA 
HETATM   14  O   UNL     5      -7.608   8.945  67.721  1.00  0.00    -0.092 OA 
HETATM   15  C   UNL     4     -11.897  11.537  67.787  1.00  0.00    -0.154 A  
HETATM   16  C   UNL     5      -8.021   9.734  64.610  1.00  0.00    -0.139 A  
HETATM   17  H   UNL     5      -9.365   8.745  65.585  1.00  0.00     0.000 HD 
HETATM   18  O   UNL     5      -5.490   8.638  67.102  1.00  0.00    -0.036 OA 
HETATM   19  C   UNL     4     -11.654  11.966  66.481  1.00  0.00    -0.328 A  
HETATM   20  C   UNL     3      -6.165  12.650  67.264  1.00  0.00    -0.094 A  
HETATM   21  C   UNL     3      -5.132  12.525  68.182  1.00  0.00    -0.069 A  
HETATM   22  O   UNL     4     -11.066  11.935  71.284  1.00  0.00     2.358 OA 
HETATM   23  C   UNL     5      -7.918  10.353  63.349  1.00  0.00    -0.107 A  
HETATM   24  C   UNL     4     -10.742  12.995  66.285  1.00  0.00    -0.290 A  
HETATM   25  C   UNL     5      -6.708  10.885  62.942  1.00  0.00     0.206 A  
HETATM   26  C   UNL     4     -10.138  13.612  67.383  1.00  0.00    -0.241 A  
HETATM   27  C   UNL     3      -5.341  11.844  69.396  1.00  0.00    -0.061 A  
HETATM   28  C   UNL     4     -10.372  13.146  68.683  1.00  0.00    -0.207 A  
HETATM   29  C   UNL     5      -5.600  10.827  63.760  1.00  0.00    -0.005 A  
HETATM   30  C   UNL     3      -6.569  11.256  69.712  1.00  0.00    -0.130 A  
HETATM   31  C   UNL     4     -11.217  12.057  68.893  1.00  0.00    -0.315 A  
HETATM   32  C   UNL     3      -6.735  10.355  70.878  1.00  0.00     0.354 C  
HETATM   33  C   UNL     5      -5.722  10.255  65.004  1.00  0.00    -0.128 A  
HETATM   34  C   UNL     5      -6.921   9.688  65.491  1.00  0.00    -0.093 A  
HETATM   35  O   UNL     3      -7.788   9.611  70.915  1.00  0.00    -0.317 OA 
HETATM   36  C   UNL     4     -11.305  11.325  70.216  1.00  0.00    -0.089 C  
HETATM   37  O   UNL     3      -5.823  10.362  71.813  1.00  0.00    -0.306 OA 
HETATM   38  O   UNL     4     -11.826  10.147  70.055  1.00  0.00    -0.240 OA 
ENDROOT
BRANCH   3  39
HETATM   39  C   UNL     2      -7.526   6.408  67.324  1.00  0.00    -0.088 C  
BRANCH  39  40
HETATM   40  C   UNL     2      -7.397   5.512  68.561  1.00  0.00    -0.076 C  
HETATM   41  O   UNL     2      -6.057   5.399  68.995  1.00  0.00    -0.023 OA 
HETATM   42  H   UNL     2      -5.977   4.844  69.762  1.00  0.00     0.000 HD 
ENDBRANCH  39  40
ENDBRANCH   3  39
TORSDOF 2
ENDMDL
MODEL       37
REMARK 921   NORMALIZED FREE ENERGY PREDICTED BY IDOCK:   -0.15 KCAL/MOL
REMARK 922        TOTAL FREE ENERGY PREDICTED BY IDOCK:   -0.45 KCAL/MOL
REMARK 923 INTER-LIGAND FREE ENERGY PREDICTED BY IDOCK:   -0.07 KCAL/MOL
REMARK 924 INTRA-LIGAND FREE ENERGY PREDICTED BY IDOCK:   -0.38 KCAL/MOL
REMARK 927      BINDING AFFINITY PREDICTED BY RF-SCORE:    0.00 PKD
ROOT
HETATM    1 MG   UNL     1     -11.018   3.549  71.999  1.00  0.00    -0.085 Mg 
HETATM    2  C   UNL     2      -7.223   1.755  71.173  1.00  0.00    -0.032 C  
HETATM    3  N   UNL     2      -7.488   2.637  70.006  1.00  0.00    -0.043 N  
HETATM    4  O   UNL     3      -8.766   6.997  71.353  1.00  0.00    -0.125 OA 
HETATM    5  C   UNL     2      -7.939   1.941  68.750  1.00  0.00    -0.048 C  
HETATM    6  C   UNL     5      -7.379   5.771  68.576  1.00  0.00    -0.084 C  
HETATM    7  C   UNL     3      -8.450   8.007  70.453  1.00  0.00    -0.130 A  
HETATM    8  C   UNL     2      -8.511   3.588  70.589  1.00  0.00    -0.068 C  
HETATM    9  O   UNL     4     -11.638   4.715  73.174  1.00  0.00    -0.276 OA 
HETATM   10  H   UNL     3      -8.192   6.922  72.105  1.00  0.00     0.000 HD 
HETATM   11  C   UNL     3      -9.299   8.117  69.340  1.00  0.00    -0.155 A  
HETATM   12  H   UNL     4     -11.146   4.776  73.984  1.00  0.00     0.000 HD 
HETATM   13  O   UNL     5     -10.160   3.788  68.538  1.00  0.00     0.148 OA 
HETATM   14  O   UNL     5      -7.500   5.564  69.797  1.00  0.00    -0.067 OA 
HETATM   15  C   UNL     4     -11.780   5.852  72.389  1.00  0.00    -0.253 A  
HETATM   16  C   UNL     5      -9.729   4.739  67.602  1.00  0.00    -0.160 A  
HETATM   17  H   UNL     5      -9.549   3.773  69.266  1.00  0.00     0.000 HD 
HETATM   18  O   UNL     5      -6.243   5.964  68.001  1.00  0.00    -0.026 OA 
HETATM   19  C   UNL     4     -12.503   5.761  71.199  1.00  0.00     1.451 A  
HETATM   20  C   UNL     3      -8.970   8.973  68.299  1.00  0.00    -0.133 A  
HETATM   21  C   UNL     3      -7.784   9.691  68.365  1.00  0.00    -0.081 A  
HETATM   22  O   UNL     4      -9.794   7.971  74.545  1.00  0.00     1.173 OA 
HETATM   23  C   UNL     5     -10.634   4.760  66.522  1.00  0.00    -0.158 A  
HETATM   24  C   UNL     4     -12.613   6.897  70.407  1.00  0.00     0.132 A  
HETATM   25  C   UNL     5     -10.359   5.535  65.410  1.00  0.00     0.608 A  
HETATM   26  C   UNL     4     -12.057   8.104  70.837  1.00  0.00    -0.158 A  
HETATM   27  C   UNL     3      -6.934   9.555  69.479  1.00  0.00    -0.059 A  
HETATM   28  C   UNL     4     -11.308   8.166  72.019  1.00  0.00    -0.378 A  
HETATM   29  C   UNL     5      -9.213   6.298  65.348  1.00  0.00     0.252 A  
HETATM   30  C   UNL     3      -7.232   8.690  70.535  1.00  0.00    -0.053 A  
HETATM   31  C   UNL     4     -11.113   7.016  72.783  1.00  0.00    -0.320 A  
HETATM   32  C   UNL     3      -6.247   8.375  71.599  1.00  0.00    -0.052 C  
HETATM   33  C   UNL     5      -8.356   6.299  66.423  1.00  0.00    -0.118 A  
HETATM   34  C   UNL     5      -8.565   5.534  67.592  1.00  0.00    -0.108 A  
HETATM   35  O   UNL     3      -6.474   7.344  72.339  1.00  0.00    -0.050 OA 
HETATM   36  C   UNL     4     -10.103   6.936  73.908  1.00  0.00    -0.357 C  
HETATM   37  O   UNL     3      -5.210   9.156  71.746  1.00  0.00    -0.041 OA 
HETATM   38  O   UNL     4      -9.823   5.699  74.187  1.00  0.00    -0.165 OA 
ENDROOT
BRANCH   3  39
HETATM   39  C   UNL     2      -6.141   3.393  69.598  1.00  0.00    -0.024 C  
BRANCH  39  40
HETATM   40  C   UNL     2      -5.272   2.751  68.510  1.00  0.00    -0.012 C  
HETATM   41  O   UNL     2      -5.413   3.408  67.266  1.00  0.00    -0.018 OA 
HETATM   42  H   UNL     2      -4.875   3.010  66.591  1.00  0.00     0.000 HD 
ENDBRANCH  39  40
ENDBRANCH   3  39
TORSDOF 2
ENDMDL
MODEL       38
REMARK 921   NORMALIZED FREE ENERGY PREDICTED BY IDOCK:    0.15 KCAL/MOL
REMARK 922        TOTAL FREE ENERGY PREDICTED BY IDOCK:   -0.13 KCAL/MOL
REMARK 923 INTER-LIGAND FREE ENERGY PREDICTED BY IDOCK:    0.63 KCAL/MOL
REMARK 924 INTRA-LIGAND FREE ENERGY PREDICTED BY IDOCK:   -0.76 KCAL/MOL
REMARK 927      BINDING AFFINITY PREDICTED BY RF-SCORE:    0.00 PKD
ROOT
HETATM    1 MG   UNL     1      -6.894   4.756  67.386  1.00  0.00    -0.044 Mg 
HETATM    2  C   UNL     2      -6.957   3.663  71.521  1.00  0.00    -0.031 C  
HETATM    3  N   UNL     2      -6.867   5.148  71.522  1.00  0.00    -0.050 N  
HETATM    4  O   UNL     3     -10.095   7.105  68.658  1.00  0.00    -0.162 OA 
HETATM    5  C   UNL     2      -5.511   5.720  71.833  1.00  0.00    -0.021 C  
HETATM    6  C   UNL     5      -8.436   8.210  71.335  1.00  0.00    -0.126 C  
HETATM    7  C   UNL     3     -10.507   8.380  69.021  1.00  0.00    -0.201 A  
HETATM    8  C   UNL     2      -7.372   5.468  70.131  1.00  0.00    -0.069 C  
HETATM    9  O   UNL     4      -8.046   4.706  66.046  1.00  0.00    -0.102 OA 
HETATM   10  H   UNL     3     -10.697   6.402  68.872  1.00  0.00     0.000 HD 
HETATM   11  C   UNL     3      -9.617   9.419  68.703  1.00  0.00    -0.152 A  
HETATM   12  H   UNL     4      -8.737   4.059  66.128  1.00  0.00     0.000 HD 
HETATM   13  O   UNL     5      -5.689   7.393  69.476  1.00  0.00    -0.022 OA 
HETATM   14  O   UNL     5      -8.858   7.175  70.788  1.00  0.00    -0.146 OA 
HETATM   15  C   UNL     4      -8.394   6.045  65.928  1.00  0.00    -0.138 A  
HETATM   16  C   UNL     5      -6.093   8.642  69.969  1.00  0.00    -0.030 A  
HETATM   17  H   UNL     5      -6.339   6.741  69.715  1.00  0.00     0.000 HD 
HETATM   18  O   UNL     5      -8.811   8.596  72.504  1.00  0.00    -0.356 OA 
HETATM   19  C   UNL     4      -7.378   6.996  65.808  1.00  0.00    -0.079 A  
HETATM   20  C   UNL     3      -9.851  10.702  69.178  1.00  0.00    -0.217 A  
HETATM   21  C   UNL     3     -10.956  10.931  69.985  1.00  0.00    -0.221 A  
HETATM   22  O   UNL     4     -11.955   5.470  66.195  1.00  0.00     1.502 OA 
HETATM   23  C   UNL     5      -5.130   9.607  69.615  1.00  0.00    -0.034 A  
HETATM   24  C   UNL     4      -7.736   8.335  65.721  1.00  0.00    -0.091 A  
HETATM   25  C   UNL     5      -5.245  10.899  70.093  1.00  0.00    -0.055 A  
HETATM   26  C   UNL     4      -9.085   8.696  65.697  1.00  0.00    -0.221 A  
HETATM   27  C   UNL     3     -11.829   9.876  70.309  1.00  0.00    -0.255 A  
HETATM   28  C   UNL     4     -10.088   7.731  65.850  1.00  0.00     0.690 A  
HETATM   29  C   UNL     5      -6.298  11.260  70.906  1.00  0.00     0.627 A  
HETATM   30  C   UNL     3     -11.610   8.571  69.859  1.00  0.00     0.277 A  
HETATM   31  C   UNL     4      -9.745   6.391  66.026  1.00  0.00     0.092 A  
HETATM   32  C   UNL     3     -12.392   7.418  70.370  1.00  0.00     0.179 C  
HETATM   33  C   UNL     5      -7.252  10.320  71.213  1.00  0.00     1.426 A  
HETATM   34  C   UNL     5      -7.205   8.981  70.767  1.00  0.00    -0.098 A  
HETATM   35  O   UNL     3     -11.924   6.236  70.156  1.00  0.00    -0.267 OA 
HETATM   36  C   UNL     4     -10.739   5.338  66.471  1.00  0.00    -0.221 C  
HETATM   37  O   UNL     3     -13.514   7.649  70.998  1.00  0.00    -0.158 OA 
HETATM   38  O   UNL     4     -10.124   4.296  66.942  1.00  0.00    -0.196 OA 
ENDROOT
BRANCH   3  39
HETATM   39  C   UNL     2      -7.832   5.735  72.652  1.00  0.00    -0.102 C  
BRANCH  39  40
HETATM   40  C   UNL     2      -9.085   4.923  73.003  1.00  0.00    -0.117 C  
HETATM   41  O   UNL     2     -10.269   5.670  72.808  1.00  0.00    -0.176 OA 
HETATM   42  H   UNL     2     -11.046   5.167  73.025  1.00  0.00     0.000 HD 
ENDBRANCH  39  40
ENDBRANCH   3  39
TORSDOF 2
ENDMDL
MODEL       39
REMARK 921   NORMALIZED FREE ENERGY PREDICTED BY IDOCK:    0.24 KCAL/MOL
REMARK 922        TOTAL FREE ENERGY PREDICTED BY IDOCK:   -0.02 KCAL/MOL
REMARK 923 INTER-LIGAND FREE ENERGY PREDICTED BY IDOCK:    0.54 KCAL/MOL
REMARK 924 INTRA-LIGAND FREE ENERGY PREDICTED BY IDOCK:   -0.57 KCAL/MOL
REMARK 927      BINDING AFFINITY PREDICTED BY RF-SCORE:    0.00 PKD
ROOT
HETATM    1 MG   UNL     1      -8.026   3.241  71.634  1.00  0.00    -0.049 Mg 
HETATM    2  C   UNL     2      -5.135   3.262  68.481  1.00  0.00    -0.011 C  
HETATM    3  N   UNL     2      -6.253   4.103  67.977  1.00  0.00    -0.035 N  
HETATM    4  O   UNL     3      -7.576   7.357  71.156  1.00  0.00    -0.080 OA 
HETATM    5  C   UNL     2      -7.155   3.451  66.964  1.00  0.00    -0.058 C  
HETATM    6  C   UNL     5      -7.824   7.166  67.834  1.00  0.00    -0.114 C  
HETATM    7  C   UNL     3      -8.124   8.515  70.620  1.00  0.00    -0.117 A  
HETATM    8  C   UNL     2      -6.942   4.474  69.273  1.00  0.00    -0.050 C  
HETATM    9  O   UNL     4      -8.114   3.894  73.275  1.00  0.00    -0.086 OA 
HETATM   10  H   UNL     3      -6.675   7.426  71.446  1.00  0.00     0.000 HD 
HETATM   11  C   UNL     3      -9.458   8.414  70.191  1.00  0.00    -0.165 A  
HETATM   12  H   UNL     4      -7.277   4.045  73.697  1.00  0.00     0.000 HD 
HETATM   13  O   UNL     5      -9.462   4.249  68.521  1.00  0.00    -0.141 OA 
HETATM   14  O   UNL     5      -7.147   6.774  68.801  1.00  0.00    -0.080 OA 
HETATM   15  C   UNL     4      -8.979   4.966  73.101  1.00  0.00    -0.111 A  
HETATM   16  C   UNL     5      -9.930   5.404  67.879  1.00  0.00    -0.160 A  
HETATM   17  H   UNL     5      -8.563   4.390  68.795  1.00  0.00     0.000 HD 
HETATM   18  O   UNL     5      -7.342   7.875  66.874  1.00  0.00    -0.086 OA 
HETATM   19  C   UNL     4     -10.209   4.744  72.479  1.00  0.00    -0.245 A  
HETATM   20  C   UNL     3     -10.040   9.455  69.482  1.00  0.00    -0.214 A  
HETATM   21  C   UNL     3      -9.279  10.577  69.186  1.00  0.00    -0.183 A  
HETATM   22  O   UNL     4      -6.743   7.413  74.547  1.00  0.00    -0.094 OA 
HETATM   23  C   UNL     5     -11.263   5.195  67.474  1.00  0.00     1.363 A  
HETATM   24  C   UNL     4     -11.054   5.829  72.283  1.00  0.00    -0.330 A  
HETATM   25  C   UNL     5     -11.906   6.151  66.709  1.00  0.00     1.687 A  
HETATM   26  C   UNL     4     -10.690   7.091  72.756  1.00  0.00    -0.306 A  
HETATM   27  C   UNL     3      -7.938  10.656  69.607  1.00  0.00    -0.017 A  
HETATM   28  C   UNL     4      -9.438   7.300  73.349  1.00  0.00    -0.252 A  
HETATM   29  C   UNL     5     -11.263   7.314  66.345  1.00  0.00     1.505 A  
HETATM   30  C   UNL     3      -7.321   9.616  70.308  1.00  0.00    -0.153 A  
HETATM   31  C   UNL     4      -8.540   6.240  73.475  1.00  0.00    -0.125 A  
HETATM   32  C   UNL     3      -5.859   9.595  70.562  1.00  0.00    -0.061 C  
HETATM   33  C   UNL     5      -9.976   7.525  66.778  1.00  0.00    -0.307 A  
HETATM   34  C   UNL     5      -9.250   6.597  67.559  1.00  0.00    -0.114 A  
HETATM   35  O   UNL     3      -5.330   8.474  70.920  1.00  0.00    -0.028 OA 
HETATM   36  C   UNL     4      -7.084   6.433  73.844  1.00  0.00    -0.082 C  
HETATM   37  O   UNL     3      -5.181  10.702  70.426  1.00  0.00    -0.051 OA 
HETATM   38  O   UNL     4      -6.384   5.391  73.512  1.00  0.00    -0.058 OA 
ENDROOT
BRANCH   3  39
HETATM   39  C   UNL     2      -5.657   5.385  67.234  1.00  0.00    -0.013 C  
BRANCH  39  40
HETATM   40  C   UNL     2      -5.275   5.232  65.757  1.00  0.00    -0.012 C  
HETATM   41  O   UNL     2      -5.773   6.296  64.970  1.00  0.00    -0.021 OA 
HETATM   42  H   UNL     2      -5.537   6.201  64.055  1.00  0.00     0.000 HD 
ENDBRANCH  39  40
ENDBRANCH   3  39
TORSDOF 2
ENDMDL
MODEL       40
REMARK 921   NORMALIZED FREE ENERGY PREDICTED BY IDOCK:    0.58 KCAL/MOL
REMARK 922        TOTAL FREE ENERGY PREDICTED BY IDOCK:    0.35 KCAL/MOL
REMARK 923 INTER-LIGAND FREE ENERGY PREDICTED BY IDOCK:    0.63 KCAL/MOL
REMARK 924 INTRA-LIGAND FREE ENERGY PREDICTED BY IDOCK:   -0.27 KCAL/MOL
REMARK 927      BINDING AFFINITY PREDICTED BY RF-SCORE:    0.00 PKD
ROOT
HETATM    1 MG   UNL     1      -7.175   7.182  67.346  1.00  0.00    -0.067 Mg 
HETATM    2  C   UNL     2     -10.542   7.357  69.979  1.00  0.00    -0.232 C  
HETATM    3  N   UNL     2      -9.919   8.704  70.070  1.00  0.00    -0.182 N  
HETATM    4  O   UNL     3      -9.082  10.544  65.785  1.00  0.00    -0.165 OA 
HETATM    5  C   UNL     2      -9.107   8.966  71.309  1.00  0.00    -0.253 C  
HETATM    6  C   UNL     5      -9.549  11.887  68.804  1.00  0.00    -0.012 C  
HETATM    7  C   UNL     3      -9.094  11.932  65.728  1.00  0.00    -0.038 A  
HETATM    8  C   UNL     2      -9.119   8.739  68.785  1.00  0.00    -0.138 C  
HETATM    9  O   UNL     4      -6.941   7.058  65.598  1.00  0.00    -0.054 OA 
HETATM   10  H   UNL     3      -9.863  10.113  65.458  1.00  0.00     0.000 HD 
HETATM   11  C   UNL     3      -7.940  12.570  66.211  1.00  0.00     0.718 A  
HETATM   12  H   UNL     4      -7.660   6.665  65.119  1.00  0.00     0.000 HD 
HETATM   13  O   UNL     5      -6.913   9.892  69.662  1.00  0.00    -0.065 OA 
HETATM   14  O   UNL     5      -9.815  10.888  68.113  1.00  0.00    -0.166 OA 
HETATM   15  C   UNL     4      -6.551   8.352  65.278  1.00  0.00    -0.056 A  
HETATM   16  C   UNL     5      -7.022  11.289  69.696  1.00  0.00    -0.056 A  
HETATM   17  H   UNL     5      -7.720   9.527  69.316  1.00  0.00     0.000 HD 
HETATM   18  O   UNL     5     -10.448  12.671  69.288  1.00  0.00     0.027 OA 
HETATM   19  C   UNL     4      -5.495   8.931  65.983  1.00  0.00    -0.037 A  
HETATM   20  C   UNL     3      -7.921  13.949  66.362  1.00  0.00     1.199 A  
HETATM   21  C   UNL     3      -9.061  14.676  66.055  1.00  0.00    -0.022 A  
HETATM   22  O   UNL     4      -9.089   8.826  62.745  1.00  0.00     0.053 OA 
HETATM   23  C   UNL     5      -5.826  11.829  70.209  1.00  0.00    -0.163 A  
HETATM   24  C   UNL     4      -5.133  10.236  65.675  1.00  0.00    -0.060 A  
HETATM   25  C   UNL     5      -5.735  13.187  70.453  1.00  0.00    -0.170 A  
HETATM   26  C   UNL     4      -5.784  10.915  64.642  1.00  0.00     0.164 A  
HETATM   27  C   UNL     3     -10.217  14.021  65.589  1.00  0.00    -0.351 A  
HETATM   28  C   UNL     4      -6.862  10.329  63.968  1.00  0.00    -0.054 A  
HETATM   29  C   UNL     5      -6.798  14.025  70.190  1.00  0.00     0.179 A  
HETATM   30  C   UNL     3     -10.270  12.632  65.442  1.00  0.00    -0.301 A  
HETATM   31  C   UNL     4      -7.296   9.051  64.323  1.00  0.00    -0.103 A  
HETATM   32  C   UNL     3     -11.540  11.916  65.166  1.00  0.00    -0.215 C  
HETATM   33  C   UNL     5      -7.946  13.492  69.654  1.00  0.00     1.047 A  
HETATM   34  C   UNL     5      -8.118  12.118  69.379  1.00  0.00     0.781 A  
HETATM   35  O   UNL     3     -11.564  10.642  65.363  1.00  0.00     0.659 OA 
HETATM   36  C   UNL     4      -8.607   8.464  63.844  1.00  0.00     0.119 C  
HETATM   37  O   UNL     3     -12.564  12.599  64.728  1.00  0.00    -0.542 OA 
HETATM   38  O   UNL     4      -8.971   7.475  64.602  1.00  0.00     0.414 OA 
ENDROOT
BRANCH   3  39
HETATM   39  C   UNL     2     -11.066   9.816  70.085  1.00  0.00    -0.285 C  
BRANCH  39  40
HETATM   40  C   UNL     2     -12.039   9.811  71.270  1.00  0.00    -0.382 C  
HETATM   41  O   UNL     2     -13.387   9.788  70.846  1.00  0.00    -0.562 OA 
HETATM   42  H   UNL     2     -13.991   9.785  71.579  1.00  0.00     0.000 HD 
ENDBRANCH  39  40
ENDBRANCH   3  39
TORSDOF 2
ENDMDL
MODEL       41
REMARK 921   NORMALIZED FREE ENERGY PREDICTED BY IDOCK:    0.77 KCAL/MOL
REMARK 922        TOTAL FREE ENERGY PREDICTED BY IDOCK:    0.57 KCAL/MOL
REMARK 923 INTER-LIGAND FREE ENERGY PREDICTED BY IDOCK:    0.25 KCAL/MOL
REMARK 924 INTRA-LIGAND FREE ENERGY PREDICTED BY IDOCK:    0.32 KCAL/MOL
REMARK 927      BINDING AFFINITY PREDICTED BY RF-SCORE:    0.00 PKD
ROOT
HETATM    1 MG   UNL     1     -10.309  14.366  70.517  1.00  0.00    -0.428 Mg 
HETATM    2  C   UNL     2      -7.041  16.586  68.877  1.00  0.00    -0.200 C  
HETATM    3  N   UNL     2      -6.592  15.169  68.843  1.00  0.00    -0.100 N  
HETATM    4  O   UNL     3      -9.858  12.337  66.903  1.00  0.00    -0.203 OA 
HETATM    5  C   UNL     2      -5.609  14.769  69.910  1.00  0.00    -0.105 C  
HETATM    6  C   UNL     5      -6.547  12.113  67.251  1.00  0.00    -0.146 C  
HETATM    7  C   UNL     3      -9.358  11.201  66.282  1.00  0.00    -0.195 A  
HETATM    8  C   UNL     2      -7.919  14.444  68.919  1.00  0.00    -0.109 C  
HETATM    9  O   UNL     4     -11.958  13.982  70.011  1.00  0.00    -0.297 OA 
HETATM   10  H   UNL     3     -10.112  13.044  66.322  1.00  0.00     0.000 HD 
HETATM   11  C   UNL     3      -8.982  10.154  67.141  1.00  0.00    -0.146 A  
HETATM   12  H   UNL     4     -12.348  14.594  69.398  1.00  0.00     0.000 HD 
HETATM   13  O   UNL     5      -7.268  12.489  70.568  1.00  0.00     0.779 OA 
HETATM   14  O   UNL     5      -7.481  12.931  67.166  1.00  0.00    -0.115 OA 
HETATM   15  C   UNL     4     -11.832  12.651  69.638  1.00  0.00    -0.311 A  
HETATM   16  C   UNL     5      -6.658  11.415  69.904  1.00  0.00    -0.081 A  
HETATM   17  H   UNL     5      -7.506  13.152  69.930  1.00  0.00     0.000 HD 
HETATM   18  O   UNL     5      -5.576  12.060  66.407  1.00  0.00    -0.260 OA 
HETATM   19  C   UNL     4     -11.258  11.751  70.538  1.00  0.00     0.750 A  
HETATM   20  C   UNL     3      -8.309   9.051  66.637  1.00  0.00    -0.118 A  
HETATM   21  C   UNL     3      -7.995   9.012  65.286  1.00  0.00    -0.114 A  
HETATM   22  O   UNL     4     -13.213  13.120  66.328  1.00  0.00     0.353 OA 
HETATM   23  C   UNL     5      -6.305  10.433  70.850  1.00  0.00     0.078 A  
HETATM   24  C   UNL     4     -11.109  10.428  70.143  1.00  0.00    -0.383 A  
HETATM   25  C   UNL     5      -5.578   9.326  70.452  1.00  0.00    -0.035 A  
HETATM   26  C   UNL     4     -11.580  10.015  68.895  1.00  0.00     0.029 A  
HETATM   27  C   UNL     3      -8.362  10.076  64.442  1.00  0.00    -0.169 A  
HETATM   28  C   UNL     4     -12.124  10.939  67.993  1.00  0.00     0.376 A  
HETATM   29  C   UNL     5      -5.201   9.165  69.136  1.00  0.00    -0.036 A  
HETATM   30  C   UNL     3      -9.026  11.207  64.924  1.00  0.00    -0.052 A  
HETATM   31  C   UNL     4     -12.202  12.288  68.339  1.00  0.00     0.122 A  
HETATM   32  C   UNL     3      -9.220  12.422  64.094  1.00  0.00     0.731 C  
HETATM   33  C   UNL     5      -5.584  10.110  68.215  1.00  0.00    -0.041 A  
HETATM   34  C   UNL     5      -6.324  11.268  68.542  1.00  0.00    -0.047 A  
HETATM   35  O   UNL     3      -9.543  13.515  64.699  1.00  0.00     0.136 OA 
HETATM   36  C   UNL     4     -12.513  13.379  67.335  1.00  0.00     0.152 C  
HETATM   37  O   UNL     3      -9.068  12.330  62.800  1.00  0.00     0.307 OA 
HETATM   38  O   UNL     4     -12.141  14.538  67.787  1.00  0.00    -0.338 OA 
ENDROOT
BRANCH   3  39
HETATM   39  C   UNL     2      -5.840  14.886  67.462  1.00  0.00     0.092 C  
BRANCH  39  40
HETATM   40  C   UNL     2      -5.160  16.074  66.772  1.00  0.00     0.645 C  
HETATM   41  O   UNL     2      -6.099  17.026  66.313  1.00  0.00    -0.269 OA 
HETATM   42  H   UNL     2      -5.679  17.762  65.884  1.00  0.00     0.000 HD 
ENDBRANCH  39  40
ENDBRANCH   3  39
TORSDOF 2
ENDMDL
MODEL       42
REMARK 921   NORMALIZED FREE ENERGY PREDICTED BY IDOCK:    0.78 KCAL/MOL
REMARK 922        TOTAL FREE ENERGY PREDICTED BY IDOCK:    0.58 KCAL/MOL
REMARK 923 INTER-LIGAND FREE ENERGY PREDICTED BY IDOCK:    0.85 KCAL/MOL
REMARK 924 INTRA-LIGAND FREE ENERGY PREDICTED BY IDOCK:   -0.26 KCAL/MOL
REMARK 927      BINDING AFFINITY PREDICTED BY RF-SCORE:    0.00 PKD
ROOT
HETATM    1 MG   UNL     1     -11.366  16.346  68.705  1.00  0.00    -0.271 Mg 
HETATM    2  C   UNL     2      -8.270  18.230  66.432  1.00  0.00    -0.251 C  
HETATM    3  N   UNL     2      -7.571  17.198  67.242  1.00  0.00    -0.161 N  
HETATM    4  O   UNL     3      -9.692  12.974  66.915  1.00  0.00    -0.225 OA 
HETATM    5  C   UNL     2      -6.817  17.709  68.440  1.00  0.00    -0.214 C  
HETATM    6  C   UNL     5      -6.579  13.924  67.651  1.00  0.00    -0.164 C  
HETATM    7  C   UNL     3      -8.855  11.880  67.091  1.00  0.00    -0.180 A  
HETATM    8  C   UNL     2      -8.719  16.271  67.581  1.00  0.00    -0.182 C  
HETATM    9  O   UNL     4     -12.745  15.302  68.342  1.00  0.00    -0.043 OA 
HETATM   10  H   UNL     3      -9.926  13.172  66.016  1.00  0.00     0.000 HD 
HETATM   11  C   UNL     3      -8.509  11.587  68.420  1.00  0.00    -0.159 A  
HETATM   12  H   UNL     4     -13.083  15.367  67.457  1.00  0.00     0.000 HD 
HETATM   13  O   UNL     5      -8.133  15.731  70.097  1.00  0.00     0.347 OA 
HETATM   14  O   UNL     5      -7.600  14.271  67.032  1.00  0.00    -0.054 OA 
HETATM   15  C   UNL     4     -12.287  14.071  68.794  1.00  0.00    -0.039 A  
HETATM   16  C   UNL     5      -7.193  14.697  70.213  1.00  0.00     0.304 A  
HETATM   17  H   UNL     5      -8.329  15.869  69.177  1.00  0.00     0.000 HD 
HETATM   18  O   UNL     5      -5.441  13.724  67.082  1.00  0.00    -0.214 OA 
HETATM   19  C   UNL     4     -11.790  13.974  70.095  1.00  0.00    -0.377 A  
HETATM   20  C   UNL     3      -7.543  10.629  68.691  1.00  0.00    -0.103 A  
HETATM   21  C   UNL     3      -6.911   9.991  67.633  1.00  0.00    -0.085 A  
HETATM   22  O   UNL     4     -12.896  12.345  65.675  1.00  0.00    -0.308 OA 
HETATM   23  C   UNL     5      -6.901  14.494  71.576  1.00  0.00     1.421 A  
HETATM   24  C   UNL     4     -11.308  12.746  70.527  1.00  0.00     0.771 A  
HETATM   25  C   UNL     5      -5.907  13.605  71.941  1.00  0.00     0.168 A  
HETATM   26  C   UNL     4     -11.380  11.633  69.686  1.00  0.00    -0.308 A  
HETATM   27  C   UNL     3      -7.256  10.309  66.306  1.00  0.00    -0.117 A  
HETATM   28  C   UNL     4     -11.853  11.757  68.373  1.00  0.00    -0.347 A  
HETATM   29  C   UNL     5      -5.202  12.904  70.986  1.00  0.00    -0.168 A  
HETATM   30  C   UNL     3      -8.214  11.280  66.003  1.00  0.00    -0.045 A  
HETATM   31  C   UNL     4     -12.261  13.002  67.893  1.00  0.00    -0.072 A  
HETATM   32  C   UNL     3      -8.425  11.776  64.621  1.00  0.00     1.141 C  
HETATM   33  C   UNL     5      -5.521  13.082  69.661  1.00  0.00    -0.088 A  
HETATM   34  C   UNL     5      -6.520  13.972  69.209  1.00  0.00    -0.114 A  
HETATM   35  O   UNL     3      -9.081  12.877  64.473  1.00  0.00     0.913 OA 
HETATM   36  C   UNL     4     -12.519  13.274  66.426  1.00  0.00    -0.165 C  
HETATM   37  O   UNL     3      -7.953  11.078  63.623  1.00  0.00     0.211 OA 
HETATM   38  O   UNL     4     -12.488  14.550  66.184  1.00  0.00    -0.315 OA 
ENDROOT
BRANCH   3  39
HETATM   39  C   UNL     2      -6.471  16.473  66.340  1.00  0.00     0.382 C  
BRANCH  39  40
HETATM   40  C   UNL     2      -5.183  17.248  66.037  1.00  0.00     0.035 C  
HETATM   41  O   UNL     2      -5.282  17.989  64.837  1.00  0.00    -0.076 OA 
HETATM   42  H   UNL     2      -4.485  18.470  64.649  1.00  0.00     0.000 HD 
ENDBRANCH  39  40
ENDBRANCH   3  39
TORSDOF 2
ENDMDL
MODEL       43
REMARK 921   NORMALIZED FREE ENERGY PREDICTED BY IDOCK:    1.02 KCAL/MOL
REMARK 922        TOTAL FREE ENERGY PREDICTED BY IDOCK:    0.84 KCAL/MOL
REMARK 923 INTER-LIGAND FREE ENERGY PREDICTED BY IDOCK:    1.13 KCAL/MOL
REMARK 924 INTRA-LIGAND FREE ENERGY PREDICTED BY IDOCK:   -0.29 KCAL/MOL
REMARK 927      BINDING AFFINITY PREDICTED BY RF-SCORE:    0.00 PKD
ROOT
HETATM    1 MG   UNL     1      -9.470  11.794  67.663  1.00  0.00    -0.159 Mg 
HETATM    2  C   UNL     2     -12.653  11.398  70.493  1.00  0.00    -0.224 C  
HETATM    3  N   UNL     2     -12.321  10.004  70.098  1.00  0.00    -0.078 N  
HETATM    4  O   UNL     3      -7.663   9.169  70.351  1.00  0.00    -0.094 OA 
HETATM    5  C   UNL     2     -13.276   9.352  69.135  1.00  0.00     4.817 C  
HETATM    6  C   UNL     5     -10.355   7.201  70.495  1.00  0.00    -0.202 C  
HETATM    7  C   UNL     3      -7.315   7.849  70.604  1.00  0.00    -0.061 A  
HETATM    8  C   UNL     2     -10.919  10.184  69.555  1.00  0.00    -0.256 C  
HETATM    9  O   UNL     4      -7.779  12.308  67.723  1.00  0.00    -0.117 OA 
HETATM   10  H   UNL     3      -7.608   9.758  71.093  1.00  0.00     0.000 HD 
HETATM   11  C   UNL     3      -7.396   6.977  69.506  1.00  0.00    -0.094 A  
HETATM   12  H   UNL     4      -7.557  12.891  68.439  1.00  0.00     0.000 HD 
HETATM   13  O   UNL     5     -11.044   8.593  67.453  1.00  0.00    -0.425 OA 
HETATM   14  O   UNL     5      -9.964   8.363  70.708  1.00  0.00    -0.183 OA 
HETATM   15  C   UNL     4      -7.115  11.093  67.618  1.00  0.00    -0.089 A  
HETATM   16  C   UNL     5     -10.801   7.252  67.786  1.00  0.00    -0.144 A  
HETATM   17  H   UNL     5     -10.962   9.126  68.236  1.00  0.00     0.000 HD 
HETATM   18  O   UNL     5     -10.838   6.439  71.413  1.00  0.00    -0.236 OA 
HETATM   19  C   UNL     4      -7.442  10.236  66.566  1.00  0.00    -0.113 A  
HETATM   20  C   UNL     3      -7.242   5.611  69.692  1.00  0.00    -0.065 A  
HETATM   21  C   UNL     3      -7.033   5.124  70.974  1.00  0.00    -0.051 A  
HETATM   22  O   UNL     4      -5.132  11.561  70.606  1.00  0.00    -0.088 OA 
HETATM   23  C   UNL     5     -10.923   6.463  66.626  1.00  0.00    -0.192 A  
HETATM   24  C   UNL     4      -6.793   9.011  66.488  1.00  0.00    -0.079 A  
HETATM   25  C   UNL     5     -10.847   5.085  66.722  1.00  0.00     0.054 A  
HETATM   26  C   UNL     4      -5.800   8.687  67.415  1.00  0.00    -0.043 A  
HETATM   27  C   UNL     3      -6.972   6.009  72.067  1.00  0.00    -0.078 A  
HETATM   28  C   UNL     4      -5.509   9.547  68.482  1.00  0.00    -0.040 A  
HETATM   29  C   UNL     5     -10.641   4.473  67.939  1.00  0.00     0.531 A  
HETATM   30  C   UNL     3      -7.139   7.388  71.913  1.00  0.00    -0.063 A  
HETATM   31  C   UNL     4      -6.211  10.743  68.626  1.00  0.00    -0.043 A  
HETATM   32  C   UNL     3      -7.296   8.299  73.073  1.00  0.00    -0.102 C  
HETATM   33  C   UNL     5     -10.485   5.255  69.059  1.00  0.00    -0.206 A  
HETATM   34  C   UNL     5     -10.552   6.666  69.044  1.00  0.00    -0.273 A  
HETATM   35  O   UNL     3      -7.762   9.480  72.849  1.00  0.00     0.781 OA 
HETATM   36  C   UNL     4      -6.156  11.584  69.884  1.00  0.00    -0.141 C  
HETATM   37  O   UNL     3      -6.949   7.873  74.258  1.00  0.00    -0.112 OA 
HETATM   38  O   UNL     4      -7.167  12.397  69.938  1.00  0.00     0.460 OA 
ENDROOT
BRANCH   3  39
HETATM   39  C   UNL     2     -12.338   9.069  71.393  1.00  0.00    -0.318 C  
BRANCH  39  40
HETATM   40  C   UNL     2     -13.211   9.514  72.573  1.00  0.00    -0.276 C  
HETATM   41  O   UNL     2     -14.341   8.681  72.738  1.00  0.00    -0.866 OA 
HETATM   42  H   UNL     2     -14.882   8.957  73.469  1.00  0.00     0.000 HD 
ENDBRANCH  39  40
ENDBRANCH   3  39
TORSDOF 2
ENDMDL
MODEL       44
REMARK 921   NORMALIZED FREE ENERGY PREDICTED BY IDOCK:    1.30 KCAL/MOL
REMARK 922        TOTAL FREE ENERGY PREDICTED BY IDOCK:    1.16 KCAL/MOL
REMARK 923 INTER-LIGAND FREE ENERGY PREDICTED BY IDOCK:    1.25 KCAL/MOL
REMARK 924 INTRA-LIGAND FREE ENERGY PREDICTED BY IDOCK:   -0.09 KCAL/MOL
REMARK 927      BINDING AFFINITY PREDICTED BY RF-SCORE:    0.00 PKD
ROOT
HETATM    1 MG   UNL     1      -7.719  10.121  71.575  1.00  0.00     0.216 Mg 
HETATM    2  C   UNL     2     -11.925   9.454  71.980  1.00  0.00    -0.275 C  
HETATM    3  N   UNL     2     -11.702   9.590  70.516  1.00  0.00    -0.251 N  
HETATM    4  O   UNL     3      -8.135   6.852  69.021  1.00  0.00    -0.114 OA 
HETATM    5  C   UNL     2     -12.105  10.908  69.913  1.00  0.00    -0.354 C  
HETATM    6  C   UNL     5     -10.808   8.161  67.511  1.00  0.00    -0.039 C  
HETATM    7  C   UNL     3      -8.227   6.435  67.700  1.00  0.00    -0.118 A  
HETATM    8  C   UNL     2     -10.220   9.292  70.422  1.00  0.00    -0.233 C  
HETATM    9  O   UNL     4      -6.255   9.164  71.832  1.00  0.00    -0.152 OA 
HETATM   10  H   UNL     3      -8.372   6.204  69.674  1.00  0.00     0.000 HD 
HETATM   11  C   UNL     3      -7.877   7.393  66.734  1.00  0.00    -0.110 A  
HETATM   12  H   UNL     4      -6.341   8.448  72.450  1.00  0.00     0.000 HD 
HETATM   13  O   UNL     5      -9.510  11.110  68.645  1.00  0.00    -0.190 OA 
HETATM   14  O   UNL     5     -10.380   7.785  68.617  1.00  0.00    -0.199 OA 
HETATM   15  C   UNL     4      -5.877   8.879  70.526  1.00  0.00    -0.032 A  
HETATM   16  C   UNL     5      -9.735  10.682  67.328  1.00  0.00    -0.168 A  
HETATM   17  H   UNL     5      -9.756  10.413  69.243  1.00  0.00     0.000 HD 
HETATM   18  O   UNL     5     -11.835   7.641  66.936  1.00  0.00     1.955 OA 
HETATM   19  C   UNL     4      -5.751   9.931  69.618  1.00  0.00    -0.037 A  
HETATM   20  C   UNL     3      -8.103   7.137  65.390  1.00  0.00    -0.137 A  
HETATM   21  C   UNL     3      -8.699   5.940  65.022  1.00  0.00    -0.010 A  
HETATM   22  O   UNL     4      -5.727   5.298  71.017  1.00  0.00    -0.015 OA 
HETATM   23  C   UNL     5      -9.371  11.715  66.443  1.00  0.00    -0.224 A  
HETATM   24  C   UNL     4      -5.402   9.631  68.307  1.00  0.00    -0.036 A  
HETATM   25  C   UNL     5      -9.616  11.577  65.089  1.00  0.00    -0.235 A  
HETATM   26  C   UNL     4      -5.130   8.311  67.942  1.00  0.00    -0.033 A  
HETATM   27  C   UNL     3      -9.061   4.997  66.002  1.00  0.00    -0.146 A  
HETATM   28  C   UNL     4      -5.293   7.266  68.860  1.00  0.00    -0.018 A  
HETATM   29  C   UNL     5     -10.203  10.434  64.590  1.00  0.00    -0.305 A  
HETATM   30  C   UNL     3      -8.860   5.234  67.365  1.00  0.00    -0.105 A  
HETATM   31  C   UNL     4      -5.727   7.538  70.157  1.00  0.00    -0.024 A  
HETATM   32  C   UNL     3      -9.434   4.353  68.412  1.00  0.00    -0.154 C  
HETATM   33  C   UNL     5     -10.519   9.417  65.459  1.00  0.00     0.757 A  
HETATM   34  C   UNL     5     -10.304   9.483  66.854  1.00  0.00    -0.307 A  
HETATM   35  O   UNL     3      -9.479   4.807  69.618  1.00  0.00    -0.123 OA 
HETATM   36  C   UNL     4      -6.189   6.459  71.114  1.00  0.00    -0.040 C  
HETATM   37  O   UNL     3      -9.852   3.163  68.072  1.00  0.00    -0.048 OA 
HETATM   38  O   UNL     4      -6.903   6.970  72.071  1.00  0.00    -0.057 OA 
ENDROOT
BRANCH   3  39
HETATM   39  C   UNL     2     -12.576   8.499  69.744  1.00  0.00     2.096 C  
BRANCH  39  40
HETATM   40  C   UNL     2     -12.796   7.150  70.439  1.00  0.00     0.446 C  
HETATM   41  O   UNL     2     -14.166   6.896  70.678  1.00  0.00     0.066 OA 
HETATM   42  H   UNL     2     -14.303   6.060  71.109  1.00  0.00     0.000 HD 
ENDBRANCH  39  40
ENDBRANCH   3  39
TORSDOF 2
ENDMDL
MODEL       45
REMARK 921   NORMALIZED FREE ENERGY PREDICTED BY IDOCK:    1.36 KCAL/MOL
REMARK 922        TOTAL FREE ENERGY PREDICTED BY IDOCK:    1.22 KCAL/MOL
REMARK 923 INTER-LIGAND FREE ENERGY PREDICTED BY IDOCK:    1.79 KCAL/MOL
REMARK 924 INTRA-LIGAND FREE ENERGY PREDICTED BY IDOCK:   -0.56 KCAL/MOL
REMARK 927      BINDING AFFINITY PREDICTED BY RF-SCORE:    0.00 PKD
ROOT
HETATM    1 MG   UNL     1     -12.969   9.951  68.742  1.00  0.00     0.062 Mg 
HETATM    2  C   UNL     2     -12.139  11.231  64.746  1.00  0.00     0.858 C  
HETATM    3  N   UNL     2     -11.098  11.889  65.579  1.00  0.00    -0.309 N  
HETATM    4  O   UNL     3      -8.969   8.808  68.482  1.00  0.00    -0.137 OA 
HETATM    5  C   UNL     2     -11.312  13.351  65.860  1.00  0.00    -0.309 C  
HETATM    6  C   UNL     5      -8.045  11.734  67.171  1.00  0.00    -0.169 C  
HETATM    7  C   UNL     3      -7.661   9.128  68.824  1.00  0.00    -0.087 A  
HETATM    8  C   UNL     2     -11.119  11.011  66.813  1.00  0.00    -0.172 C  
HETATM    9  O   UNL     4     -12.883   8.421  69.624  1.00  0.00     1.711 OA 
HETATM   10  H   UNL     3      -9.067   8.132  67.822  1.00  0.00     0.000 HD 
HETATM   11  C   UNL     3      -7.516  10.126  69.801  1.00  0.00    -0.166 A  
HETATM   12  H   UNL     4     -12.942   7.639  69.089  1.00  0.00     0.000 HD 
HETATM   13  O   UNL     5     -10.894  12.859  68.683  1.00  0.00    -0.246 OA 
HETATM   14  O   UNL     5      -8.782  10.751  66.978  1.00  0.00    -0.134 OA 
HETATM   15  C   UNL     4     -11.750   8.614  70.405  1.00  0.00    -0.007 A  
HETATM   16  C   UNL     5      -9.560  13.231  68.904  1.00  0.00     0.192 A  
HETATM   17  H   UNL     5     -10.919  12.176  68.023  1.00  0.00     0.000 HD 
HETATM   18  O   UNL     5      -7.101  12.078  66.367  1.00  0.00     0.166 OA 
HETATM   19  C   UNL     4     -11.664   9.764  71.191  1.00  0.00    -0.465 A  
HETATM   20  C   UNL     3      -6.259  10.642  70.083  1.00  0.00    -0.125 A  
HETATM   21  C   UNL     3      -5.163  10.176  69.371  1.00  0.00    -0.038 A  
HETATM   22  O   UNL     4     -10.087   5.600  69.295  1.00  0.00    -0.176 OA 
HETATM   23  C   UNL     5      -9.524  14.244  69.882  1.00  0.00     1.019 A  
HETATM   24  C   UNL     4     -10.513   9.962  71.945  1.00  0.00     1.445 A  
HETATM   25  C   UNL     5      -8.325  14.863  70.186  1.00  0.00     0.673 A  
HETATM   26  C   UNL     4      -9.506   8.995  71.946  1.00  0.00    -0.179 A  
HETATM   27  C   UNL     3      -5.328   9.188  68.383  1.00  0.00    -0.037 A  
HETATM   28  C   UNL     4      -9.598   7.863  71.126  1.00  0.00    -0.181 A  
HETATM   29  C   UNL     5      -7.159  14.493  69.551  1.00  0.00    -0.125 A  
HETATM   30  C   UNL     3      -6.583   8.661  68.066  1.00  0.00    -0.058 A  
HETATM   31  C   UNL     4     -10.706   7.691  70.297  1.00  0.00    -0.244 A  
HETATM   32  C   UNL     3      -6.797   7.789  66.885  1.00  0.00    -0.072 C  
HETATM   33  C   UNL     5      -7.200  13.477  68.626  1.00  0.00    -0.107 A  
HETATM   34  C   UNL     5      -8.383  12.799  68.259  1.00  0.00    -0.161 A  
HETATM   35  O   UNL     3      -8.010   7.614  66.482  1.00  0.00    -0.102 OA 
HETATM   36  C   UNL     4     -10.755   6.656  69.192  1.00  0.00    -0.264 C  
HETATM   37  O   UNL     3      -5.761   7.233  66.318  1.00  0.00    -0.030 OA 
HETATM   38  O   UNL     4     -11.681   6.949  68.330  1.00  0.00     0.355 OA 
ENDROOT
BRANCH   3  39
HETATM   39  C   UNL     2      -9.692  11.815  64.824  1.00  0.00    -0.161 C  
BRANCH  39  40
HETATM   40  C   UNL     2      -9.438  10.601  63.922  1.00  0.00    -0.282 C  
HETATM   41  O   UNL     2      -8.093  10.169  63.984  1.00  0.00    -0.153 OA 
HETATM   42  H   UNL     2      -7.935   9.417  63.426  1.00  0.00     0.000 HD 
ENDBRANCH  39  40
ENDBRANCH   3  39
TORSDOF 2
ENDMDL
MODEL       46
REMARK 921   NORMALIZED FREE ENERGY PREDICTED BY IDOCK:    1.45 KCAL/MOL
REMARK 922        TOTAL FREE ENERGY PREDICTED BY IDOCK:    1.33 KCAL/MOL
REMARK 923 INTER-LIGAND FREE ENERGY PREDICTED BY IDOCK:    2.10 KCAL/MOL
REMARK 924 INTRA-LIGAND FREE ENERGY PREDICTED BY IDOCK:   -0.77 KCAL/MOL
REMARK 927      BINDING AFFINITY PREDICTED BY RF-SCORE:    0.00 PKD
ROOT
HETATM    1 MG   UNL     1     -11.993   8.751  67.309  1.00  0.00     0.003 Mg 
HETATM    2  C   UNL     2      -9.471   8.359  63.876  1.00  0.00     2.058 C  
HETATM    3  N   UNL     2      -8.705   9.223  64.814  1.00  0.00    -0.184 N  
HETATM    4  O   UNL     3      -8.530   7.364  69.169  1.00  0.00    -0.131 OA 
HETATM    5  C   UNL     2      -8.693  10.691  64.488  1.00  0.00    -0.145 C  
HETATM    6  C   UNL     5      -6.582   9.509  67.513  1.00  0.00    -0.063 C  
HETATM    7  C   UNL     3      -7.410   7.713  69.913  1.00  0.00    -0.081 A  
HETATM    8  C   UNL     2      -9.374   8.884  66.129  1.00  0.00    -0.239 C  
HETATM    9  O   UNL     4     -12.572   7.672  68.584  1.00  0.00     3.158 OA 
HETATM   10  H   UNL     3      -8.514   6.495  68.786  1.00  0.00     0.000 HD 
HETATM   11  C   UNL     3      -7.434   8.998  70.478  1.00  0.00    -0.099 A  
HETATM   12  H   UNL     4     -12.590   6.749  68.359  1.00  0.00     0.000 HD 
HETATM   13  O   UNL     5      -9.481  11.290  67.209  1.00  0.00    -0.171 OA 
HETATM   14  O   UNL     5      -7.383   8.571  67.352  1.00  0.00    -0.086 OA 
HETATM   15  C   UNL     4     -11.802   8.081  69.665  1.00  0.00     0.844 A  
HETATM   16  C   UNL     5      -8.282  11.640  67.846  1.00  0.00    -0.141 A  
HETATM   17  H   UNL     5      -9.400  10.409  66.861  1.00  0.00     0.000 HD 
HETATM   18  O   UNL     5      -5.355   9.465  67.127  1.00  0.00    -0.036 OA 
HETATM   19  C   UNL     4     -11.775   9.437  69.997  1.00  0.00     0.028 A  
HETATM   20  C   UNL     3      -6.296   9.509  71.088  1.00  0.00    -0.054 A  
HETATM   21  C   UNL     3      -5.140   8.743  71.105  1.00  0.00    -0.028 A  
HETATM   22  O   UNL     4     -10.525   4.780  70.410  1.00  0.00    -0.186 OA 
HETATM   23  C   UNL     5      -8.401  12.946  68.361  1.00  0.00    -0.116 A  
HETATM   24  C   UNL     4     -10.978   9.840  71.061  1.00  0.00    -0.402 A  
HETATM   25  C   UNL     5      -7.302  13.562  68.931  1.00  0.00    -0.045 A  
HETATM   26  C   UNL     4     -10.275   8.889  71.805  1.00  0.00    -0.414 A  
HETATM   27  C   UNL     3      -5.127   7.464  70.518  1.00  0.00    -0.023 A  
HETATM   28  C   UNL     4     -10.290   7.538  71.437  1.00  0.00    -0.209 A  
HETATM   29  C   UNL     5      -6.090  12.911  69.013  1.00  0.00    -0.089 A  
HETATM   30  C   UNL     3      -6.252   6.930  69.884  1.00  0.00    -0.031 A  
HETATM   31  C   UNL     4     -11.015   7.127  70.319  1.00  0.00    -0.288 A  
HETATM   32  C   UNL     3      -6.187   5.688  69.076  1.00  0.00    -0.029 C  
HETATM   33  C   UNL     5      -5.996  11.623  68.542  1.00  0.00    -0.049 A  
HETATM   34  C   UNL     5      -7.070  10.926  67.945  1.00  0.00    -0.081 A  
HETATM   35  O   UNL     3      -7.167   5.443  68.274  1.00  0.00    -0.068 OA 
HETATM   36  C   UNL     4     -10.864   5.754  69.698  1.00  0.00    -0.348 C  
HETATM   37  O   UNL     3      -5.157   4.898  69.219  1.00  0.00     0.000 OA 
HETATM   38  O   UNL     4     -11.314   5.749  68.480  1.00  0.00     0.019 OA 
ENDROOT
BRANCH   3  39
HETATM   39  C   UNL     2      -7.169   8.784  64.800  1.00  0.00    -0.091 C  
BRANCH  39  40
HETATM   40  C   UNL     2      -6.856   7.317  64.483  1.00  0.00    -0.050 C  
HETATM   41  O   UNL     2      -6.165   6.684  65.541  1.00  0.00    -0.036 OA 
HETATM   42  H   UNL     2      -5.971   5.775  65.345  1.00  0.00     0.000 HD 
ENDBRANCH  39  40
ENDBRANCH   3  39
TORSDOF 2
ENDMDL
MODEL       47
REMARK 921   NORMALIZED FREE ENERGY PREDICTED BY IDOCK:    1.70 KCAL/MOL
REMARK 922        TOTAL FREE ENERGY PREDICTED BY IDOCK:    1.61 KCAL/MOL
REMARK 923 INTER-LIGAND FREE ENERGY PREDICTED BY IDOCK:    1.45 KCAL/MOL
REMARK 924 INTRA-LIGAND FREE ENERGY PREDICTED BY IDOCK:    0.16 KCAL/MOL
REMARK 927      BINDING AFFINITY PREDICTED BY RF-SCORE:    0.00 PKD
ROOT
HETATM    1 MG   UNL     1     -10.324  10.370  66.335  1.00  0.00    -0.191 Mg 
HETATM    2  C   UNL     2     -11.914  13.809  64.349  1.00  0.00    -0.445 C  
HETATM    3  N   UNL     2     -11.835  14.200  65.782  1.00  0.00    -0.367 N  
HETATM    4  O   UNL     3      -7.585  13.230  67.637  1.00  0.00    -0.141 OA 
HETATM    5  C   UNL     2     -13.140  14.198  66.532  1.00  0.00     1.046 C  
HETATM    6  C   UNL     5      -9.985  15.411  68.424  1.00  0.00    -0.215 C  
HETATM    7  C   UNL     3      -7.200  14.053  68.688  1.00  0.00    -0.114 A  
HETATM    8  C   UNL     2     -10.821  13.202  66.298  1.00  0.00    -0.279 C  
HETATM    9  O   UNL     4      -8.771   9.526  66.355  1.00  0.00    -0.131 OA 
HETATM   10  H   UNL     3      -7.185  13.422  66.798  1.00  0.00     0.000 HD 
HETATM   11  C   UNL     3      -7.791  13.769  69.930  1.00  0.00     1.174 A  
HETATM   12  H   UNL     4      -8.234   9.643  65.580  1.00  0.00     0.000 HD 
HETATM   13  O   UNL     5     -11.921  12.604  68.621  1.00  0.00    -0.304 OA 
HETATM   14  O   UNL     5      -9.506  14.765  67.475  1.00  0.00    -0.194 OA 
HETATM   15  C   UNL     4      -8.261   9.912  67.588  1.00  0.00    -0.114 A  
HETATM   16  C   UNL     5     -11.595  13.534  69.618  1.00  0.00    -0.275 A  
HETATM   17  H   UNL     5     -11.481  12.849  67.814  1.00  0.00     0.000 HD 
HETATM   18  O   UNL     5     -10.029  16.698  68.453  1.00  0.00    -0.236 OA 
HETATM   19  C   UNL     4      -9.050   9.739  68.726  1.00  0.00    -0.136 A  
HETATM   20  C   UNL     3      -7.610  14.636  70.998  1.00  0.00     2.047 A  
HETATM   21  C   UNL     3      -6.865  15.790  70.811  1.00  0.00     1.181 A  
HETATM   22  O   UNL     4      -5.136  11.157  66.257  1.00  0.00    -0.100 OA 
HETATM   23  C   UNL     5     -12.247  13.172  70.813  1.00  0.00    -0.375 A  
HETATM   24  C   UNL     4      -8.541  10.157  69.949  1.00  0.00    -0.100 A  
HETATM   25  C   UNL     5     -12.178  14.006  71.914  1.00  0.00    -0.115 A  
HETATM   26  C   UNL     4      -7.249  10.679  70.026  1.00  0.00    -0.043 A  
HETATM   27  C   UNL     3      -6.294  16.070  69.555  1.00  0.00    -0.182 A  
HETATM   28  C   UNL     4      -6.485  10.874  68.868  1.00  0.00    -0.049 A  
HETATM   29  C   UNL     5     -11.467  15.186  71.861  1.00  0.00    -0.457 A  
HETATM   30  C   UNL     3      -6.471  15.224  68.457  1.00  0.00    -0.092 A  
HETATM   31  C   UNL     4      -7.012  10.541  67.620  1.00  0.00    -0.079 A  
HETATM   32  C   UNL     3      -6.065  15.615  67.085  1.00  0.00     0.212 C  
HETATM   33  C   UNL     5     -10.803  15.511  70.703  1.00  0.00    -0.333 A  
HETATM   34  C   UNL     5     -10.827  14.714  69.537  1.00  0.00    -0.238 A  
HETATM   35  O   UNL     3      -6.546  14.934  66.101  1.00  0.00     2.658 OA 
HETATM   36  C   UNL     4      -6.374  10.970  66.315  1.00  0.00    -0.119 C  
HETATM   37  O   UNL     3      -5.236  16.614  66.936  1.00  0.00    -0.268 OA 
HETATM   38  O   UNL     4      -7.230  10.898  65.341  1.00  0.00     0.006 OA 
ENDROOT
BRANCH   3  39
HETATM   39  C   UNL     2     -11.300  15.701  65.891  1.00  0.00     0.044 C  
BRANCH  39  40
HETATM   40  C   UNL     2     -10.627  16.303  64.651  1.00  0.00     0.243 C  
HETATM   41  O   UNL     2     -11.561  16.584  63.628  1.00  0.00    -1.468 OA 
HETATM   42  H   UNL     2     -11.146  16.957  62.860  1.00  0.00     0.000 HD 
ENDBRANCH  39  40
ENDBRANCH   3  39
TORSDOF 2
ENDMDL
MODEL       48
REMARK 921   NORMALIZED FREE ENERGY PREDICTED BY IDOCK:    2.01 KCAL/MOL
REMARK 922        TOTAL FREE ENERGY PREDICTED BY IDOCK:    1.95 KCAL/MOL
REMARK 923 INTER-LIGAND FREE ENERGY PREDICTED BY IDOCK:    2.46 KCAL/MOL
REMARK 924 INTRA-LIGAND FREE ENERGY PREDICTED BY IDOCK:   -0.51 KCAL/MOL
REMARK 927      BINDING AFFINITY PREDICTED BY RF-SCORE:    0.00 PKD
ROOT
HETATM    1 MG   UNL     1      -8.570  14.489  71.295  1.00  0.00     0.438 Mg 
HETATM    2  C   UNL     2      -5.169  13.648  68.839  1.00  0.00    -0.071 C  
HETATM    3  N   UNL     2      -6.187  12.641  68.437  1.00  0.00    -0.063 N  
HETATM    4  O   UNL     3     -10.386  14.647  67.546  1.00  0.00    -0.234 OA 
HETATM    5  C   UNL     2      -5.976  11.250  68.971  1.00  0.00    -0.042 C  
HETATM    6  C   UNL     5      -8.943  11.810  66.543  1.00  0.00    -0.196 C  
HETATM    7  C   UNL     3     -11.178  13.970  66.628  1.00  0.00    -0.323 A  
HETATM    8  C   UNL     2      -7.458  13.306  68.921  1.00  0.00     0.002 C  
HETATM    9  O   UNL     4      -9.744  15.804  71.422  1.00  0.00     1.594 OA 
HETATM   10  H   UNL     3      -9.938  15.415  67.215  1.00  0.00     0.000 HD 
HETATM   11  C   UNL     3     -11.842  12.834  67.118  1.00  0.00    -0.415 A  
HETATM   12  H   UNL     4      -9.448  16.647  71.101  1.00  0.00     0.000 HD 
HETATM   13  O   UNL     5      -8.719  11.204  69.898  1.00  0.00     0.134 OA 
HETATM   14  O   UNL     5      -8.693  12.961  66.944  1.00  0.00    -0.209 OA 
HETATM   15  C   UNL     4     -10.870  15.227  70.848  1.00  0.00    -0.179 A  
HETATM   16  C   UNL     5      -9.407  10.489  68.906  1.00  0.00    -0.187 A  
HETATM   17  H   UNL     5      -8.306  11.962  69.501  1.00  0.00     0.000 HD 
HETATM   18  O   UNL     5      -8.580  11.368  65.390  1.00  0.00    -0.022 OA 
HETATM   19  C   UNL     4     -11.306  13.988  71.319  1.00  0.00     0.890 A  
HETATM   20  C   UNL     3     -12.513  11.991  66.244  1.00  0.00     1.151 A  
HETATM   21  C   UNL     3     -12.494  12.275  64.886  1.00  0.00    -0.327 A  
HETATM   22  O   UNL     4     -11.381  17.874  68.436  1.00  0.00     0.342 OA 
HETATM   23  C   UNL     5     -10.019   9.365  69.494  1.00  0.00    -0.200 A  
HETATM   24  C   UNL     4     -12.415  13.407  70.717  1.00  0.00    -0.418 A  
HETATM   25  C   UNL     5     -10.658   8.435  68.694  1.00  0.00    -0.149 A  
HETATM   26  C   UNL     4     -13.096  14.088  69.706  1.00  0.00     0.726 A  
HETATM   27  C   UNL     3     -11.810  13.408  64.408  1.00  0.00    -0.452 A  
HETATM   28  C   UNL     4     -12.624  15.315  69.225  1.00  0.00     0.115 A  
HETATM   29  C   UNL     5     -10.714   8.598  67.327  1.00  0.00    -0.209 A  
HETATM   30  C   UNL     3     -11.112  14.266  65.263  1.00  0.00    -0.335 A  
HETATM   31  C   UNL     4     -11.463  15.874  69.758  1.00  0.00    -0.342 A  
HETATM   32  C   UNL     3     -10.212  15.329  64.752  1.00  0.00    -0.006 C  
HETATM   33  C   UNL     5     -10.146   9.718  66.769  1.00  0.00    -0.295 A  
HETATM   34  C   UNL     5      -9.474  10.711  67.515  1.00  0.00    -0.169 A  
HETATM   35  O   UNL     3      -9.373  15.852  65.580  1.00  0.00    -0.343 OA 
HETATM   36  C   UNL     4     -10.740  17.040  69.117  1.00  0.00    -0.253 C  
HETATM   37  O   UNL     3     -10.314  15.692  63.501  1.00  0.00     2.646 OA 
HETATM   38  O   UNL     4      -9.516  17.113  69.545  1.00  0.00     0.062 OA 
ENDROOT
BRANCH   3  39
HETATM   39  C   UNL     2      -6.171  12.480  66.848  1.00  0.00     0.305 C  
BRANCH  39  40
HETATM   40  C   UNL     2      -5.290  11.371  66.259  1.00  0.00    -0.099 C  
HETATM   41  O   UNL     2      -5.655  11.057  64.930  1.00  0.00    -0.409 OA 
HETATM   42  H   UNL     2      -5.110  10.369  64.565  1.00  0.00     0.000 HD 
ENDBRANCH  39  40
ENDBRANCH   3  39
TORSDOF 2
ENDMDL
MODEL       49
REMARK 921   NORMALIZED FREE ENERGY PREDICTED BY IDOCK:    2.43 KCAL/MOL
REMARK 922        TOTAL FREE ENERGY PREDICTED BY IDOCK:    2.43 KCAL/MOL
REMARK 923 INTER-LIGAND FREE ENERGY PREDICTED BY IDOCK:    1.39 KCAL/MOL
REMARK 924 INTRA-LIGAND FREE ENERGY PREDICTED BY IDOCK:    1.04 KCAL/MOL
REMARK 927      BINDING AFFINITY PREDICTED BY RF-SCORE:    0.00 PKD
ROOT
HETATM    1 MG   UNL     1      -8.731   8.554  70.845  1.00  0.00    -0.109 Mg 
HETATM    2  C   UNL     2      -5.258   6.163  70.125  1.00  0.00    -0.013 C  
HETATM    3  N   UNL     2      -6.180   5.840  69.004  1.00  0.00    -0.028 N  
HETATM    4  O   UNL     3      -7.880   9.754  66.944  1.00  0.00    -0.101 OA 
HETATM    5  C   UNL     2      -6.900   4.522  69.109  1.00  0.00    -0.050 C  
HETATM    6  C   UNL     5      -7.450   6.615  65.896  1.00  0.00    -0.081 C  
HETATM    7  C   UNL     3      -8.216   9.615  65.604  1.00  0.00    -0.120 A  
HETATM    8  C   UNL     2      -7.092   7.048  69.024  1.00  0.00    -0.084 C  
HETATM    9  O   UNL     4      -9.106  10.281  70.816  1.00  0.00    -0.102 OA 
HETATM   10  H   UNL     3      -7.056  10.191  67.118  1.00  0.00     0.000 HD 
HETATM   11  C   UNL     3      -9.436   8.968  65.347  1.00  0.00    -0.163 A  
HETATM   12  H   UNL     4      -8.366  10.860  70.952  1.00  0.00     0.000 HD 
HETATM   13  O   UNL     5      -9.412   5.867  68.590  1.00  0.00    -0.120 OA 
HETATM   14  O   UNL     5      -7.019   7.457  66.704  1.00  0.00    -0.066 OA 
HETATM   15  C   UNL     4      -9.833  10.388  69.638  1.00  0.00    -0.144 A  
HETATM   16  C   UNL     5      -9.647   5.643  67.226  1.00  0.00    -0.119 A  
HETATM   17  H   UNL     5      -8.580   6.316  68.691  1.00  0.00     0.000 HD 
HETATM   18  O   UNL     5      -6.727   6.088  64.970  1.00  0.00    -0.041 OA 
HETATM   19  C   UNL     4     -10.921   9.537  69.439  1.00  0.00    -0.192 A  
HETATM   20  C   UNL     3      -9.778   8.622  64.048  1.00  0.00     2.355 A  
HETATM   21  C   UNL     3      -8.889   8.902  63.020  1.00  0.00     0.022 A  
HETATM   22  O   UNL     4      -7.764  12.999  68.229  1.00  0.00    -0.125 OA 
HETATM   23  C   UNL     5     -10.880   4.977  67.077  1.00  0.00     0.169 A  
HETATM   24  C   UNL     4     -11.622   9.631  68.244  1.00  0.00     0.581 A  
HETATM   25  C   UNL     5     -11.277   4.538  65.828  1.00  0.00     0.720 A  
HETATM   26  C   UNL     4     -11.268  10.600  67.302  1.00  0.00    -0.237 A  
HETATM   27  C   UNL     3      -7.663   9.535  63.295  1.00  0.00    -0.127 A  
HETATM   28  C   UNL     4     -10.154  11.424  67.507  1.00  0.00    -0.205 A  
HETATM   29  C   UNL     5     -10.485   4.753  64.720  1.00  0.00     0.282 A  
HETATM   30  C   UNL     3      -7.285   9.880  64.596  1.00  0.00    -0.137 A  
HETATM   31  C   UNL     4      -9.385  11.284  68.662  1.00  0.00    -0.167 A  
HETATM   32  C   UNL     3      -5.913  10.342  64.923  1.00  0.00    -0.133 C  
HETATM   33  C   UNL     5      -9.303   5.438  64.871  1.00  0.00     0.228 A  
HETATM   34  C   UNL     5      -8.828   5.915  66.112  1.00  0.00    -0.149 A  
HETATM   35  O   UNL     3      -5.556  10.329  66.162  1.00  0.00    -0.053 OA 
HETATM   36  C   UNL     4      -8.026  11.931  68.831  1.00  0.00     0.040 C  
HETATM   37  O   UNL     3      -5.139  10.749  63.952  1.00  0.00    -0.165 OA 
HETATM   38  O   UNL     4      -7.354  11.347  69.776  1.00  0.00     0.049 OA 
ENDROOT
BRANCH   3  39
HETATM   39  C   UNL     2      -5.348   5.747  67.644  1.00  0.00    -0.005 C  
BRANCH  39  40
HETATM   40  C   UNL     2      -5.255   4.376  66.964  1.00  0.00    -0.012 C  
HETATM   41  O   UNL     2      -5.346   4.477  65.557  1.00  0.00    -0.012 OA 
HETATM   42  H   UNL     2      -5.290   3.628  65.135  1.00  0.00     0.000 HD 
ENDBRANCH  39  40
ENDBRANCH   3  39
TORSDOF 2
ENDMDL
MODEL       50
REMARK 921   NORMALIZED FREE ENERGY PREDICTED BY IDOCK:    2.60 KCAL/MOL
REMARK 922        TOTAL FREE ENERGY PREDICTED BY IDOCK:    2.62 KCAL/MOL
REMARK 923 INTER-LIGAND FREE ENERGY PREDICTED BY IDOCK:    3.15 KCAL/MOL
REMARK 924 INTRA-LIGAND FREE ENERGY PREDICTED BY IDOCK:   -0.53 KCAL/MOL
REMARK 927      BINDING AFFINITY PREDICTED BY RF-SCORE:    0.00 PKD
ROOT
HETATM    1 MG   UNL     1      -8.966  12.902  64.310  1.00  0.00    -0.256 Mg 
HETATM    2  C   UNL     2      -6.834  10.488  67.125  1.00  0.00    -0.084 C  
HETATM    3  N   UNL     2      -6.775  11.865  67.685  1.00  0.00    -0.093 N  
HETATM    4  O   UNL     3     -11.050  13.906  67.778  1.00  0.00    -0.251 OA 
HETATM    5  C   UNL     2      -5.465  12.584  67.514  1.00  0.00    -0.123 C  
HETATM    6  C   UNL     5      -8.247  14.379  69.526  1.00  0.00     0.316 C  
HETATM    7  C   UNL     3     -11.226  14.857  68.774  1.00  0.00    -0.275 A  
HETATM    8  C   UNL     2      -7.939  12.516  66.969  1.00  0.00    -0.085 C  
HETATM    9  O   UNL     4     -10.649  13.054  63.792  1.00  0.00    -0.497 OA 
HETATM   10  H   UNL     3     -11.441  13.057  67.948  1.00  0.00     0.000 HD 
HETATM   11  C   UNL     3     -10.649  16.113  68.524  1.00  0.00    -0.284 A  
HETATM   12  H   UNL     4     -11.186  12.281  63.923  1.00  0.00     0.000 HD 
HETATM   13  O   UNL     5      -6.875  14.872  66.437  1.00  0.00     0.542 OA 
HETATM   14  O   UNL     5      -8.880  13.523  68.881  1.00  0.00     0.036 OA 
HETATM   15  C   UNL     4     -11.023  14.241  64.408  1.00  0.00    -0.188 A  
HETATM   16  C   UNL     5      -6.976  15.757  67.520  1.00  0.00    -0.186 A  
HETATM   17  H   UNL     5      -7.295  14.051  66.669  1.00  0.00     0.000 HD 
HETATM   18  O   UNL     5      -7.956  14.251  70.774  1.00  0.00     1.814 OA 
HETATM   19  C   UNL     4     -10.235  15.376  64.216  1.00  0.00     1.596 A  
HETATM   20  C   UNL     3     -10.614  17.072  69.526  1.00  0.00    -0.168 A  
HETATM   21  C   UNL     3     -11.133  16.763  70.774  1.00  0.00     0.299 A  
HETATM   22  O   UNL     4     -13.906  12.832  66.079  1.00  0.00     2.399 OA 
HETATM   23  C   UNL     5      -6.354  16.974  67.176  1.00  0.00    -0.215 A  
HETATM   24  C   UNL     4     -10.601  16.551  64.861  1.00  0.00    -0.057 A  
HETATM   25  C   UNL     5      -6.217  17.968  68.127  1.00  0.00    -0.180 A  
HETATM   26  C   UNL     4     -11.766  16.589  65.631  1.00  0.00     1.189 A  
HETATM   27  C   UNL     3     -11.692  15.494  71.015  1.00  0.00    -0.423 A  
HETATM   28  C   UNL     4     -12.527  15.431  65.837  1.00  0.00     1.014 A  
HETATM   29  C   UNL     5      -6.690  17.788  69.409  1.00  0.00    -0.171 A  
HETATM   30  C   UNL     3     -11.727  14.502  70.031  1.00  0.00    -0.359 A  
HETATM   31  C   UNL     4     -12.126  14.222  65.268  1.00  0.00    -0.400 A  
HETATM   32  C   UNL     3     -12.109  13.101  70.335  1.00  0.00    -0.317 C  
HETATM   33  C   UNL     5      -7.329  16.612  69.723  1.00  0.00     0.414 A  
HETATM   34  C   UNL     5      -7.507  15.550  68.809  1.00  0.00    -0.141 A  
HETATM   35  O   UNL     3     -11.809  12.196  69.466  1.00  0.00    -0.306 OA 
HETATM   36  C   UNL     4     -12.725  12.888  65.662  1.00  0.00    -0.031 C  
HETATM   37  O   UNL     3     -12.737  12.849  71.452  1.00  0.00    -0.356 OA 
HETATM   38  O   UNL     4     -11.941  11.913  65.315  1.00  0.00    -0.324 OA 
ENDROOT
BRANCH   3  39
HETATM   39  C   UNL     2      -7.009  11.804  69.264  1.00  0.00    -0.065 C  
BRANCH  39  40
HETATM   40  C   UNL     2      -5.770  11.667  70.157  1.00  0.00    -0.141 C  
HETATM   41  O   UNL     2      -5.893  12.418  71.349  1.00  0.00    -0.495 OA 
HETATM   42  H   UNL     2      -5.125  12.334  71.902  1.00  0.00     0.000 HD 
ENDBRANCH  39  40
ENDBRANCH   3  39
TORSDOF 2
ENDMDL
MODEL       51
REMARK 921   NORMALIZED FREE ENERGY PREDICTED BY IDOCK:    2.61 KCAL/MOL
REMARK 922        TOTAL FREE ENERGY PREDICTED BY IDOCK:    2.62 KCAL/MOL
REMARK 923 INTER-LIGAND FREE ENERGY PREDICTED BY IDOCK:    2.91 KCAL/MOL
REMARK 924 INTRA-LIGAND FREE ENERGY PREDICTED BY IDOCK:   -0.29 KCAL/MOL
REMARK 927      BINDING AFFINITY PREDICTED BY RF-SCORE:    0.00 PKD
ROOT
HETATM    1 MG   UNL     1     -10.737   8.209  65.541  1.00  0.00    -0.207 Mg 
HETATM    2  C   UNL     2     -12.694   8.268  69.345  1.00  0.00     3.642 C  
HETATM    3  N   UNL     2     -11.245   8.165  69.665  1.00  0.00    -0.002 N  
HETATM    4  O   UNL     3      -8.693  11.385  67.305  1.00  0.00    -0.141 OA 
HETATM    5  C   UNL     2     -10.764   6.803  70.084  1.00  0.00    -0.233 C  
HETATM    6  C   UNL     5      -8.202   9.708  70.148  1.00  0.00    -0.187 C  
HETATM    7  C   UNL     3      -7.522  11.785  67.936  1.00  0.00    -0.108 A  
HETATM    8  C   UNL     2     -10.629   8.672  68.378  1.00  0.00    -0.120 C  
HETATM    9  O   UNL     4     -10.489   9.366  64.228  1.00  0.00     0.798 OA 
HETATM   10  H   UNL     3      -9.420  11.992  67.366  1.00  0.00     0.000 HD 
HETATM   11  C   UNL     3      -6.446  10.887  67.845  1.00  0.00    -0.062 A  
HETATM   12  H   UNL     4     -11.132  10.062  64.172  1.00  0.00     0.000 HD 
HETATM   13  O   UNL     5      -8.621   6.975  68.144  1.00  0.00    -0.127 OA 
HETATM   14  O   UNL     5      -9.092  10.141  69.394  1.00  0.00    -0.188 OA 
HETATM   15  C   UNL     4      -9.153   9.702  64.402  1.00  0.00    -0.229 A  
HETATM   16  C   UNL     5      -7.505   7.366  68.896  1.00  0.00    -0.101 A  
HETATM   17  H   UNL     5      -9.304   7.629  68.240  1.00  0.00     0.000 HD 
HETATM   18  O   UNL     5      -8.075  10.076  71.375  1.00  0.00     0.646 OA 
HETATM   19  C   UNL     4      -8.207   8.679  64.485  1.00  0.00    -0.166 A  
HETATM   20  C   UNL     3      -5.294  11.109  68.586  1.00  0.00    -0.043 A  
HETATM   21  C   UNL     3      -5.235  12.209  69.429  1.00  0.00    -0.065 A  
HETATM   22  O   UNL     4      -9.744  13.267  64.557  1.00  0.00    -0.027 OA 
HETATM   23  C   UNL     5      -6.494   6.396  68.753  1.00  0.00    -0.046 A  
HETATM   24  C   UNL     4      -6.877   9.026  64.690  1.00  0.00    -0.084 A  
HETATM   25  C   UNL     5      -5.334   6.498  69.499  1.00  0.00    -0.014 A  
HETATM   26  C   UNL     4      -6.509  10.372  64.751  1.00  0.00    -0.059 A  
HETATM   27  C   UNL     3      -6.329  13.090  69.523  1.00  0.00    -0.103 A  
HETATM   28  C   UNL     4      -7.477  11.382  64.698  1.00  0.00     1.452 A  
HETATM   29  C   UNL     5      -5.148   7.545  70.375  1.00  0.00    -0.023 A  
HETATM   30  C   UNL     3      -7.508  12.884  68.801  1.00  0.00    -0.047 A  
HETATM   31  C   UNL     4      -8.826  11.050  64.580  1.00  0.00    -0.006 A  
HETATM   32  C   UNL     3      -8.738  13.674  69.056  1.00  0.00     0.322 C  
HETATM   33  C   UNL     5      -6.125   8.507  70.478  1.00  0.00    -0.032 A  
HETATM   34  C   UNL     5      -7.337   8.472  69.754  1.00  0.00    -0.056 A  
HETATM   35  O   UNL     3      -9.850  13.217  68.590  1.00  0.00    -0.188 OA 
HETATM   36  C   UNL     4      -9.942  12.052  64.792  1.00  0.00    -0.216 C  
HETATM   37  O   UNL     3      -8.639  14.792  69.725  1.00  0.00     0.081 OA 
HETATM   38  O   UNL     4     -11.066  11.444  65.025  1.00  0.00    -0.241 OA 
ENDROOT
BRANCH   3  39
HETATM   39  C   UNL     2     -10.908   9.121  70.899  1.00  0.00    -0.278 C  
BRANCH  39  40
HETATM   40  C   UNL     2     -12.086   9.790  71.617  1.00  0.00    -0.394 C  
HETATM   41  O   UNL     2     -12.528   9.033  72.727  1.00  0.00    -0.238 OA 
HETATM   42  H   UNL     2     -13.258   9.446  73.171  1.00  0.00     0.000 HD 
ENDBRANCH  39  40
ENDBRANCH   3  39
TORSDOF 2
ENDMDL
MODEL       52
REMARK 921   NORMALIZED FREE ENERGY PREDICTED BY IDOCK:    2.62 KCAL/MOL
REMARK 922        TOTAL FREE ENERGY PREDICTED BY IDOCK:    2.63 KCAL/MOL
REMARK 923 INTER-LIGAND FREE ENERGY PREDICTED BY IDOCK:    2.91 KCAL/MOL
REMARK 924 INTRA-LIGAND FREE ENERGY PREDICTED BY IDOCK:   -0.28 KCAL/MOL
REMARK 927      BINDING AFFINITY PREDICTED BY RF-SCORE:    0.00 PKD
ROOT
HETATM    1 MG   UNL     1     -13.262  12.033  66.891  1.00  0.00     1.112 Mg 
HETATM    2  C   UNL     2     -13.834  13.886  70.704  1.00  0.00     0.731 C  
HETATM    3  N   UNL     2     -12.366  13.668  70.604  1.00  0.00    -0.361 N  
HETATM    4  O   UNL     3     -10.633  15.243  66.485  1.00  0.00    -0.292 OA 
HETATM    5  C   UNL     2     -11.822  12.512  71.398  1.00  0.00     1.259 C  
HETATM    6  C   UNL     5      -9.283  14.733  69.494  1.00  0.00     0.128 C  
HETATM    7  C   UNL     3      -9.306  15.648  66.521  1.00  0.00    -0.276 A  
HETATM    8  C   UNL     2     -12.197  13.526  69.106  1.00  0.00    -0.194 C  
HETATM    9  O   UNL     4     -13.425  12.534  65.203  1.00  0.00    -0.275 OA 
HETATM   10  H   UNL     3     -11.276  15.942  66.493  1.00  0.00     0.000 HD 
HETATM   11  C   UNL     3      -8.354  14.615  66.510  1.00  0.00     0.192 A  
HETATM   12  H   UNL     4     -14.024  13.253  65.049  1.00  0.00     0.000 HD 
HETATM   13  O   UNL     5     -10.445  11.554  69.038  1.00  0.00    -0.273 OA 
HETATM   14  O   UNL     5     -10.357  14.987  68.920  1.00  0.00    -0.228 OA 
HETATM   15  C   UNL     4     -12.096  12.677  64.827  1.00  0.00    -0.436 A  
HETATM   16  C   UNL     5      -9.128  12.007  69.198  1.00  0.00     0.536 A  
HETATM   17  H   UNL     5     -11.032  12.301  69.043  1.00  0.00     0.000 HD 
HETATM   18  O   UNL     5      -8.740  15.517  70.358  1.00  0.00     0.579 OA 
HETATM   19  C   UNL     4     -11.214  11.619  65.054  1.00  0.00    -0.275 A  
HETATM   20  C   UNL     3      -7.014  14.904  66.721  1.00  0.00     1.034 A  
HETATM   21  C   UNL     3      -6.638  16.216  66.968  1.00  0.00    -0.150 A  
HETATM   22  O   UNL     4     -12.473  16.071  63.634  1.00  0.00    -0.631 OA 
HETATM   23  C   UNL     5      -8.258  10.900  69.190  1.00  0.00    -0.090 A  
HETATM   24  C   UNL     4      -9.881  11.785  64.701  1.00  0.00    -0.230 A  
HETATM   25  C   UNL     5      -6.913  11.081  69.454  1.00  0.00    -0.126 A  
HETATM   26  C   UNL     4      -9.465  12.966  64.082  1.00  0.00     0.801 A  
HETATM   27  C   UNL     3      -7.605  17.238  66.995  1.00  0.00    -0.228 A  
HETATM   28  C   UNL     4     -10.358  14.028  63.892  1.00  0.00     1.399 A  
HETATM   29  C   UNL     5      -6.408  12.336  69.715  1.00  0.00    -0.091 A  
HETATM   30  C   UNL     3      -8.964  16.975  66.801  1.00  0.00    -0.267 A  
HETATM   31  C   UNL     4     -11.681  13.912  64.319  1.00  0.00    -0.406 A  
HETATM   32  C   UNL     3     -10.009  18.000  67.044  1.00  0.00    -0.329 C  
HETATM   33  C   UNL     5      -7.259  13.415  69.682  1.00  0.00     0.413 A  
HETATM   34  C   UNL     5      -8.644  13.312  69.423  1.00  0.00     1.068 A  
HETATM   35  O   UNL     3     -11.229  17.597  67.156  1.00  0.00     0.067 OA 
HETATM   36  C   UNL     4     -12.625  15.093  64.403  1.00  0.00     0.092 C  
HETATM   37  O   UNL     3      -9.653  19.254  67.121  1.00  0.00    -0.310 OA 
HETATM   38  O   UNL     4     -13.628  14.824  65.183  1.00  0.00     0.109 OA 
ENDROOT
BRANCH   3  39
HETATM   39  C   UNL     2     -11.602  14.952  71.168  1.00  0.00    -0.298 C  
BRANCH  39  40
HETATM   40  C   UNL     2     -11.583  15.152  72.688  1.00  0.00    -0.317 C  
HETATM   41  O   UNL     2     -11.990  16.455  73.055  1.00  0.00    -0.523 OA 
HETATM   42  H   UNL     2     -11.978  16.579  73.997  1.00  0.00     0.000 HD 
ENDBRANCH  39  40
ENDBRANCH   3  39
TORSDOF 2
ENDMDL
MODEL       53
REMARK 921   NORMALIZED FREE ENERGY PREDICTED BY IDOCK:    2.79 KCAL/MOL
REMARK 922        TOTAL FREE ENERGY PREDICTED BY IDOCK:    2.83 KCAL/MOL
REMARK 923 INTER-LIGAND FREE ENERGY PREDICTED BY IDOCK:    3.16 KCAL/MOL
REMARK 924 INTRA-LIGAND FREE ENERGY PREDICTED BY IDOCK:   -0.34 KCAL/MOL
REMARK 927      BINDING AFFINITY PREDICTED BY RF-SCORE:    0.00 PKD
ROOT
HETATM    1 MG   UNL     1      -9.926   6.745  65.148  1.00  0.00    -0.178 Mg 
HETATM    2  C   UNL     2      -6.560   9.279  64.409  1.00  0.00    -0.086 C  
HETATM    3  N   UNL     2      -7.310   9.954  65.500  1.00  0.00    -0.116 N  
HETATM    4  O   UNL     3      -8.378   6.959  69.012  1.00  0.00    -0.123 OA 
HETATM    5  C   UNL     2      -8.129  11.148  65.088  1.00  0.00     0.325 C  
HETATM    6  C   UNL     5      -8.007  10.272  68.860  1.00  0.00    -0.113 C  
HETATM    7  C   UNL     3      -8.503   7.543  70.266  1.00  0.00    -0.138 A  
HETATM    8  C   UNL     2      -8.126   8.801  66.045  1.00  0.00    -0.112 C  
HETATM    9  O   UNL     4     -10.169   5.127  65.817  1.00  0.00    -0.368 OA 
HETATM   10  H   UNL     3      -7.563   6.498  68.854  1.00  0.00     0.000 HD 
HETATM   11  C   UNL     3      -9.708   8.224  70.501  1.00  0.00    -0.185 A  
HETATM   12  H   UNL     4      -9.422   4.545  65.756  1.00  0.00     0.000 HD 
HETATM   13  O   UNL     5     -10.424  10.033  66.458  1.00  0.00    -0.215 OA 
HETATM   14  O   UNL     5      -7.653   9.209  68.318  1.00  0.00    -0.082 OA 
HETATM   15  C   UNL     4     -10.688   5.421  67.072  1.00  0.00    -0.152 A  
HETATM   16  C   UNL     5     -10.452  10.705  67.688  1.00  0.00    -0.227 A  
HETATM   17  H   UNL     5      -9.589   9.586  66.369  1.00  0.00     0.000 HD 
HETATM   18  O   UNL     5      -7.183  11.091  69.415  1.00  0.00    -0.122 OA 
HETATM   19  C   UNL     4     -11.787   6.276  67.162  1.00  0.00     1.621 A  
HETATM   20  C   UNL     3      -9.860   8.989  71.649  1.00  0.00    -0.366 A  
HETATM   21  C   UNL     3      -8.801   9.087  72.539  1.00  0.00     0.534 A  
HETATM   22  O   UNL     4      -8.241   3.471  68.887  1.00  0.00    -0.060 OA 
HETATM   23  C   UNL     5     -11.688  11.368  67.819  1.00  0.00    -0.279 A  
HETATM   24  C   UNL     4     -12.279   6.587  68.423  1.00  0.00     3.031 A  
HETATM   25  C   UNL     5     -11.909  12.203  68.899  1.00  0.00    -0.358 A  
HETATM   26  C   UNL     4     -11.711   6.001  69.557  1.00  0.00     0.418 A  
HETATM   27  C   UNL     3      -7.593   8.412  72.281  1.00  0.00    -0.146 A  
HETATM   28  C   UNL     4     -10.589   5.170  69.448  1.00  0.00    -0.104 A  
HETATM   29  C   UNL     5     -10.937  12.388  69.858  1.00  0.00     0.400 A  
HETATM   30  C   UNL     3      -7.405   7.648  71.126  1.00  0.00    -0.073 A  
HETATM   31  C   UNL     4     -10.028   4.917  68.196  1.00  0.00    -0.171 A  
HETATM   32  C   UNL     3      -6.075   7.118  70.737  1.00  0.00    -0.035 C  
HETATM   33  C   UNL     5      -9.749  11.706  69.740  1.00  0.00     1.318 A  
HETATM   34  C   UNL     5      -9.447  10.839  68.667  1.00  0.00    -0.188 A  
HETATM   35  O   UNL     3      -5.923   6.712  69.523  1.00  0.00    -0.020 OA 
HETATM   36  C   UNL     4      -8.671   4.267  68.019  1.00  0.00    -0.105 C  
HETATM   37  O   UNL     3      -5.128   7.076  71.636  1.00  0.00    -0.026 OA 
HETATM   38  O   UNL     4      -8.203   4.500  66.831  1.00  0.00    -0.102 OA 
ENDROOT
BRANCH   3  39
HETATM   39  C   UNL     2      -6.279  10.515  66.583  1.00  0.00    -0.079 C  
BRANCH  39  40
HETATM   40  C   UNL     2      -5.333  11.638  66.142  1.00  0.00     0.187 C  
HETATM   41  O   UNL     2      -5.360  12.733  67.036  1.00  0.00    -0.343 OA 
HETATM   42  H   UNL     2      -4.775  13.429  66.764  1.00  0.00     0.000 HD 
ENDBRANCH  39  40
ENDBRANCH   3  39
TORSDOF 2
ENDMDL
MODEL       54
REMARK 921   NORMALIZED FREE ENERGY PREDICTED BY IDOCK:    3.06 KCAL/MOL
REMARK 922        TOTAL FREE ENERGY PREDICTED BY IDOCK:    3.13 KCAL/MOL
REMARK 923 INTER-LIGAND FREE ENERGY PREDICTED BY IDOCK:    3.96 KCAL/MOL
REMARK 924 INTRA-LIGAND FREE ENERGY PREDICTED BY IDOCK:   -0.83 KCAL/MOL
REMARK 927      BINDING AFFINITY PREDICTED BY RF-SCORE:    0.00 PKD
ROOT
HETATM    1 MG   UNL     1      -9.417  14.407  72.118  1.00  0.00     1.163 Mg 
HETATM    2  C   UNL     2      -5.677  15.716  70.506  1.00  0.00    -0.082 C  
HETATM    3  N   UNL     2      -5.961  14.432  69.813  1.00  0.00    -0.110 N  
HETATM    4  O   UNL     3     -10.361  14.317  68.059  1.00  0.00    -0.223 OA 
HETATM    5  C   UNL     2      -5.181  13.241  70.299  1.00  0.00    -0.104 C  
HETATM    6  C   UNL     5      -7.536  12.726  67.267  1.00  0.00    -0.112 C  
HETATM    7  C   UNL     3     -10.527  13.513  66.939  1.00  0.00    -0.271 A  
HETATM    8  C   UNL     2      -7.457  14.319  70.016  1.00  0.00     0.460 C  
HETATM    9  O   UNL     4     -11.094  14.961  72.036  1.00  0.00    -0.469 OA 
HETATM   10  H   UNL     3     -10.308  15.250  67.890  1.00  0.00     0.000 HD 
HETATM   11  C   UNL     3     -10.606  12.133  67.188  1.00  0.00    -0.254 A  
HETATM   12  H   UNL     4     -11.208  15.885  71.846  1.00  0.00     0.000 HD 
HETATM   13  O   UNL     5      -7.645  11.738  70.535  1.00  0.00     1.146 OA 
HETATM   14  O   UNL     5      -7.974  13.770  67.783  1.00  0.00    -0.139 OA 
HETATM   15  C   UNL     4     -11.654  14.026  71.175  1.00  0.00     0.303 A  
HETATM   16  C   UNL     5      -7.690  10.963  69.367  1.00  0.00    -0.066 A  
HETATM   17  H   UNL     5      -7.604  12.657  70.295  1.00  0.00     0.000 HD 
HETATM   18  O   UNL     5      -6.801  12.713  66.211  1.00  0.00     0.863 OA 
HETATM   19  C   UNL     4     -11.486  12.669  71.455  1.00  0.00     2.501 A  
HETATM   20  C   UNL     3     -10.594  11.235  66.130  1.00  0.00    -0.312 A  
HETATM   21  C   UNL     3     -10.478  11.721  64.835  1.00  0.00    -0.334 A  
HETATM   22  O   UNL     4     -12.982  16.478  68.871  1.00  0.00     1.405 OA 
HETATM   23  C   UNL     5      -7.750   9.602  69.724  1.00  0.00    -0.133 A  
HETATM   24  C   UNL     4     -12.024  11.743  70.571  1.00  0.00    -0.383 A  
HETATM   25  C   UNL     5      -7.680   8.631  68.741  1.00  0.00    -0.097 A  
HETATM   26  C   UNL     4     -12.761  12.178  69.468  1.00  0.00     0.608 A  
HETATM   27  C   UNL     3     -10.381  13.105  64.603  1.00  0.00    -0.381 A  
HETATM   28  C   UNL     4     -12.892  13.544  69.187  1.00  0.00     1.018 A  
HETATM   29  C   UNL     5      -7.564   8.979  67.412  1.00  0.00    -0.088 A  
HETATM   30  C   UNL     3     -10.375  14.032  65.649  1.00  0.00    -0.342 A  
HETATM   31  C   UNL     4     -12.284  14.488  70.016  1.00  0.00    -0.396 A  
HETATM   32  C   UNL     3     -10.054  15.464  65.433  1.00  0.00    -0.359 C  
HETATM   33  C   UNL     5      -7.545  10.310  67.074  1.00  0.00    -0.099 A  
HETATM   34  C   UNL     5      -7.609  11.360  68.017  1.00  0.00    -0.110 A  
HETATM   35  O   UNL     3      -9.755  16.174  66.468  1.00  0.00    -0.235 OA 
HETATM   36  C   UNL     4     -12.143  15.947  69.637  1.00  0.00    -0.201 C  
HETATM   37  O   UNL     3     -10.099  15.942  64.218  1.00  0.00     0.584 OA 
HETATM   38  O   UNL     4     -11.221  16.519  70.349  1.00  0.00    -0.336 OA 
ENDROOT
BRANCH   3  39
HETATM   39  C   UNL     2      -5.581  14.571  68.267  1.00  0.00    -0.118 C  
BRANCH  39  40
HETATM   40  C   UNL     2      -5.588  15.980  67.662  1.00  0.00    -0.141 C  
HETATM   41  O   UNL     2      -6.825  16.285  67.049  1.00  0.00    -0.192 OA 
HETATM   42  H   UNL     2      -6.830  17.158  66.674  1.00  0.00     0.000 HD 
ENDBRANCH  39  40
ENDBRANCH   3  39
TORSDOF 2
ENDMDL
MODEL       55
REMARK 921   NORMALIZED FREE ENERGY PREDICTED BY IDOCK:    3.08 KCAL/MOL
REMARK 922        TOTAL FREE ENERGY PREDICTED BY IDOCK:    3.15 KCAL/MOL
REMARK 923 INTER-LIGAND FREE ENERGY PREDICTED BY IDOCK:    3.38 KCAL/MOL
REMARK 924 INTRA-LIGAND FREE ENERGY PREDICTED BY IDOCK:   -0.23 KCAL/MOL
REMARK 927      BINDING AFFINITY PREDICTED BY RF-SCORE:    0.00 PKD
ROOT
HETATM    1 MG   UNL     1     -12.943  11.716  69.982  1.00  0.00    -0.184 Mg 
HETATM    2  C   UNL     2     -10.684   9.065  72.465  1.00  0.00     0.386 C  
HETATM    3  N   UNL     2      -9.995   9.030  71.148  1.00  0.00    -0.268 N  
HETATM    4  O   UNL     3      -9.156  13.389  69.491  1.00  0.00     0.314 OA 
HETATM    5  C   UNL     2     -10.251   7.809  70.308  1.00  0.00    -0.199 C  
HETATM    6  C   UNL     5      -7.731  10.420  68.953  1.00  0.00    -0.111 C  
HETATM    7  C   UNL     3      -8.051  13.499  68.656  1.00  0.00    -0.055 A  
HETATM    8  C   UNL     2     -10.488  10.322  70.531  1.00  0.00     0.016 C  
HETATM    9  O   UNL     4     -13.228  13.460  69.923  1.00  0.00     0.441 OA 
HETATM   10  H   UNL     3      -9.030  13.693  70.381  1.00  0.00     0.000 HD 
HETATM   11  C   UNL     3      -8.238  13.050  67.339  1.00  0.00    -0.183 A  
HETATM   12  H   UNL     4     -13.114  13.918  70.747  1.00  0.00     0.000 HD 
HETATM   13  O   UNL     5     -10.898   9.508  68.055  1.00  0.00    -0.378 OA 
HETATM   14  O   UNL     5      -8.378  11.070  69.793  1.00  0.00     0.278 OA 
HETATM   15  C   UNL     4     -12.449  13.832  68.835  1.00  0.00     0.193 A  
HETATM   16  C   UNL     5      -9.724   9.526  67.288  1.00  0.00    -0.167 A  
HETATM   17  H   UNL     5     -10.703   9.833  68.926  1.00  0.00     0.000 HD 
HETATM   18  O   UNL     5      -6.550   9.959  69.173  1.00  0.00    -0.051 OA 
HETATM   19  C   UNL     4     -12.617  13.158  67.625  1.00  0.00     0.690 A  
HETATM   20  C   UNL     3      -7.154  12.951  66.479  1.00  0.00     1.339 A  
HETATM   21  C   UNL     3      -5.889  13.277  66.949  1.00  0.00     1.142 A  
HETATM   22  O   UNL     4     -10.591  16.362  70.633  1.00  0.00     0.056 OA 
HETATM   23  C   UNL     5     -10.013   9.044  65.997  1.00  0.00    -0.246 A  
HETATM   24  C   UNL     4     -11.812  13.519  66.552  1.00  0.00    -0.441 A  
HETATM   25  C   UNL     5      -8.986   8.852  65.090  1.00  0.00    -0.189 A  
HETATM   26  C   UNL     4     -10.903  14.571  66.685  1.00  0.00    -0.311 A  
HETATM   27  C   UNL     3      -5.716  13.708  68.277  1.00  0.00    -0.103 A  
HETATM   28  C   UNL     4     -10.727  15.214  67.916  1.00  0.00    -0.268 A  
HETATM   29  C   UNL     5      -7.682   9.138  65.429  1.00  0.00    -0.098 A  
HETATM   30  C   UNL     3      -6.787  13.802  69.170  1.00  0.00    -0.102 A  
HETATM   31  C   UNL     4     -11.465  14.807  69.028  1.00  0.00    -0.316 A  
HETATM   32  C   UNL     3      -6.586  14.041  70.621  1.00  0.00     0.216 C  
HETATM   33  C   UNL     5      -7.416   9.645  66.679  1.00  0.00    -0.094 A  
HETATM   34  C   UNL     5      -8.407   9.866  67.661  1.00  0.00    -0.114 A  
HETATM   35  O   UNL     3      -7.576  13.795  71.410  1.00  0.00     3.110 OA 
HETATM   36  C   UNL     4     -11.143  15.253  70.439  1.00  0.00    -0.298 C  
HETATM   37  O   UNL     3      -5.432  14.496  71.029  1.00  0.00    -0.138 OA 
HETATM   38  O   UNL     4     -11.685  14.455  71.308  1.00  0.00    -0.289 OA 
ENDROOT
BRANCH   3  39
HETATM   39  C   UNL     2      -8.415   9.049  71.379  1.00  0.00    -0.080 C  
BRANCH  39  40
HETATM   40  C   UNL     2      -7.644   7.754  71.094  1.00  0.00    -0.079 C  
HETATM   41  O   UNL     2      -6.247   7.936  71.201  1.00  0.00    -0.034 OA 
HETATM   42  H   UNL     2      -5.769   7.134  71.025  1.00  0.00     0.000 HD 
ENDBRANCH  39  40
ENDBRANCH   3  39
TORSDOF 2
ENDMDL
MODEL       56
REMARK 921   NORMALIZED FREE ENERGY PREDICTED BY IDOCK:    3.09 KCAL/MOL
REMARK 922        TOTAL FREE ENERGY PREDICTED BY IDOCK:    3.16 KCAL/MOL
REMARK 923 INTER-LIGAND FREE ENERGY PREDICTED BY IDOCK:    3.45 KCAL/MOL
REMARK 924 INTRA-LIGAND FREE ENERGY PREDICTED BY IDOCK:   -0.30 KCAL/MOL
REMARK 927      BINDING AFFINITY PREDICTED BY RF-SCORE:    0.00 PKD
ROOT
HETATM    1 MG   UNL     1     -11.602   5.525  69.217  1.00  0.00    -0.315 Mg 
HETATM    2  C   UNL     2      -8.113   4.227  67.110  1.00  0.00    -0.100 C  
HETATM    3  N   UNL     2      -8.319   5.632  66.672  1.00  0.00    -0.112 N  
HETATM    4  O   UNL     3      -8.962   8.543  70.356  1.00  0.00    -0.141 OA 
HETATM    5  C   UNL     2      -8.916   5.809  65.302  1.00  0.00     0.011 C  
HETATM    6  C   UNL     5      -7.880   9.004  67.232  1.00  0.00    -0.099 C  
HETATM    7  C   UNL     3      -8.563   9.856  70.144  1.00  0.00    -0.105 A  
HETATM    8  C   UNL     2      -9.183   6.161  67.798  1.00  0.00    -0.111 C  
HETATM    9  O   UNL     4     -12.009   5.862  70.904  1.00  0.00     0.124 OA 
HETATM   10  H   UNL     3      -8.365   8.010  70.868  1.00  0.00     0.000 HD 
HETATM   11  C   UNL     3      -9.445  10.644  69.386  1.00  0.00    -0.101 A  
HETATM   12  H   UNL     4     -11.474   5.415  71.549  1.00  0.00     0.000 HD 
HETATM   13  O   UNL     5     -10.891   7.616  66.408  1.00  0.00    -0.197 OA 
HETATM   14  O   UNL     5      -7.968   8.152  68.135  1.00  0.00    -0.122 OA 
HETATM   15  C   UNL     4     -12.043   7.251  70.909  1.00  0.00    -0.288 A  
HETATM   16  C   UNL     5     -10.389   8.893  66.120  1.00  0.00     0.143 A  
HETATM   17  H   UNL     5     -10.252   7.143  66.930  1.00  0.00     0.000 HD 
HETATM   18  O   UNL     5      -6.759   9.400  66.739  1.00  0.00    -0.071 OA 
HETATM   19  C   UNL     4     -12.829   7.908  69.961  1.00  0.00     1.697 A  
HETATM   20  C   UNL     3      -9.061  11.911  68.970  1.00  0.00     0.285 A  
HETATM   21  C   UNL     3      -7.791  12.370  69.291  1.00  0.00     0.491 A  
HETATM   22  O   UNL     4      -9.699   7.612  73.640  1.00  0.00    -0.287 OA 
HETATM   23  C   UNL     5     -11.335   9.593  65.347  1.00  0.00     3.568 A  
HETATM   24  C   UNL     4     -12.832   9.297  69.956  1.00  0.00     1.159 A  
HETATM   25  C   UNL     5     -11.018  10.837  64.834  1.00  0.00     0.086 A  
HETATM   26  C   UNL     4     -12.106   9.999  70.920  1.00  0.00    -0.448 A  
HETATM   27  C   UNL     3      -6.912  11.561  70.036  1.00  0.00     0.342 A  
HETATM   28  C   UNL     4     -11.298   9.322  71.842  1.00  0.00    -0.359 A  
HETATM   29  C   UNL     5      -9.788  11.410  65.079  1.00  0.00    -0.304 A  
HETATM   30  C   UNL     3      -7.266  10.276  70.455  1.00  0.00     0.020 A  
HETATM   31  C   UNL     4     -11.214   7.930  71.807  1.00  0.00    -0.305 A  
HETATM   32  C   UNL     3      -6.278   9.338  71.043  1.00  0.00    -0.072 C  
HETATM   33  C   UNL     5      -8.887  10.734  65.867  1.00  0.00    -0.191 A  
HETATM   34  C   UNL     5      -9.134   9.460  66.425  1.00  0.00    -0.199 A  
HETATM   35  O   UNL     3      -6.599   8.090  71.102  1.00  0.00    -0.037 OA 
HETATM   36  C   UNL     4     -10.168   7.148  72.574  1.00  0.00    -0.194 C  
HETATM   37  O   UNL     3      -5.144   9.813  71.483  1.00  0.00    -0.058 OA 
HETATM   38  O   UNL     4     -10.036   5.954  72.082  1.00  0.00    -0.169 OA 
ENDROOT
BRANCH   3  39
HETATM   39  C   UNL     2      -6.908   6.378  66.607  1.00  0.00    -0.066 C  
BRANCH  39  40
HETATM   40  C   UNL     2      -5.684   5.621  67.135  1.00  0.00    -0.017 C  
HETATM   41  O   UNL     2      -5.618   5.643  68.547  1.00  0.00    -0.007 OA 
HETATM   42  H   UNL     2      -4.859   5.174  68.874  1.00  0.00     0.000 HD 
ENDBRANCH  39  40
ENDBRANCH   3  39
TORSDOF 2
ENDMDL
MODEL       57
REMARK 921   NORMALIZED FREE ENERGY PREDICTED BY IDOCK:    3.40 KCAL/MOL
REMARK 922        TOTAL FREE ENERGY PREDICTED BY IDOCK:    3.50 KCAL/MOL
REMARK 923 INTER-LIGAND FREE ENERGY PREDICTED BY IDOCK:    2.45 KCAL/MOL
REMARK 924 INTRA-LIGAND FREE ENERGY PREDICTED BY IDOCK:    1.05 KCAL/MOL
REMARK 927      BINDING AFFINITY PREDICTED BY RF-SCORE:    0.00 PKD
ROOT
HETATM    1 MG   UNL     1      -5.850  10.478  68.170  1.00  0.00    -0.043 Mg 
HETATM    2  C   UNL     2      -9.114  12.795  66.661  1.00  0.00    -0.187 C  
HETATM    3  N   UNL     2      -9.530  11.381  66.465  1.00  0.00    -0.195 N  
HETATM    4  O   UNL     3      -8.950   8.817  70.408  1.00  0.00    -0.145 OA 
HETATM    5  C   UNL     2      -9.427  10.858  65.058  1.00  0.00    -0.233 C  
HETATM    6  C   UNL     5     -10.930   8.501  67.740  1.00  0.00     0.163 C  
HETATM    7  C   UNL     3      -9.817   7.740  70.542  1.00  0.00    -0.182 A  
HETATM    8  C   UNL     2      -8.629  10.675  67.457  1.00  0.00    -0.122 C  
HETATM    9  O   UNL     4      -5.141  10.176  69.761  1.00  0.00    -0.038 OA 
HETATM   10  H   UNL     3      -9.164   9.583  70.926  1.00  0.00     0.000 HD 
HETATM   11  C   UNL     3      -9.501   6.606  69.776  1.00  0.00    -0.150 A  
HETATM   12  H   UNL     4      -5.293  10.853  70.409  1.00  0.00     0.000 HD 
HETATM   13  O   UNL     5      -7.971   8.552  66.034  1.00  0.00    -0.101 OA 
HETATM   14  O   UNL     5     -10.314   9.339  68.423  1.00  0.00    -0.196 OA 
HETATM   15  C   UNL     4      -5.586   8.887  70.023  1.00  0.00    -0.028 A  
HETATM   16  C   UNL     5      -8.939   7.541  66.111  1.00  0.00    -0.153 A  
HETATM   17  H   UNL     5      -8.241   9.281  66.582  1.00  0.00     0.000 HD 
HETATM   18  O   UNL     5     -12.208   8.516  67.587  1.00  0.00     3.989 OA 
HETATM   19  C   UNL     4      -5.363   7.891  69.071  1.00  0.00    -0.023 A  
HETATM   20  C   UNL     3     -10.394   5.548  69.703  1.00  0.00    -0.359 A  
HETATM   21  C   UNL     3     -11.606   5.640  70.373  1.00  0.00     0.558 A  
HETATM   22  O   UNL     4      -7.075   9.712  73.215  1.00  0.00     0.671 OA 
HETATM   23  C   UNL     5      -8.539   6.462  65.298  1.00  0.00    -0.051 A  
HETATM   24  C   UNL     4      -5.839   6.612  69.330  1.00  0.00    -0.018 A  
HETATM   25  C   UNL     5      -9.391   5.388  65.113  1.00  0.00     0.105 A  
HETATM   26  C   UNL     4      -6.470   6.336  70.545  1.00  0.00    -0.044 A  
HETATM   27  C   UNL     3     -11.916   6.791  71.122  1.00  0.00    -0.421 A  
HETATM   28  C   UNL     4      -6.713   7.356  71.474  1.00  0.00    -0.050 A  
HETATM   29  C   UNL     5     -10.627   5.354  65.724  1.00  0.00     0.110 A  
HETATM   30  C   UNL     3     -11.042   7.879  71.201  1.00  0.00    -0.278 A  
HETATM   31  C   UNL     4      -6.320   8.664  71.193  1.00  0.00    -0.049 A  
HETATM   32  C   UNL     3     -11.448   9.174  71.800  1.00  0.00    -0.381 C  
HETATM   33  C   UNL     5     -10.990   6.395  66.545  1.00  0.00    -0.014 A  
HETATM   34  C   UNL     5     -10.179   7.526  66.782  1.00  0.00    -0.324 A  
HETATM   35  O   UNL     3     -10.716  10.206  71.548  1.00  0.00     0.273 OA 
HETATM   36  C   UNL     4      -6.784   9.856  72.004  1.00  0.00     1.135 C  
HETATM   37  O   UNL     3     -12.512   9.211  72.557  1.00  0.00    -0.308 OA 
HETATM   38  O   UNL     4      -6.626  10.956  71.334  1.00  0.00     0.438 OA 
ENDROOT
BRANCH   3  39
HETATM   39  C   UNL     2     -11.072  11.225  66.851  1.00  0.00    -0.275 C  
BRANCH  39  40
HETATM   40  C   UNL     2     -11.884  12.511  67.048  1.00  0.00    -0.323 C  
HETATM   41  O   UNL     2     -11.283  13.619  66.407  1.00  0.00    -0.301 OA 
HETATM   42  H   UNL     2     -11.786  14.416  66.529  1.00  0.00     0.000 HD 
ENDBRANCH  39  40
ENDBRANCH   3  39
TORSDOF 2
ENDMDL
MODEL       58
REMARK 921   NORMALIZED FREE ENERGY PREDICTED BY IDOCK:    3.47 KCAL/MOL
REMARK 922        TOTAL FREE ENERGY PREDICTED BY IDOCK:    3.58 KCAL/MOL
REMARK 923 INTER-LIGAND FREE ENERGY PREDICTED BY IDOCK:    4.40 KCAL/MOL
REMARK 924 INTRA-LIGAND FREE ENERGY PREDICTED BY IDOCK:   -0.82 KCAL/MOL
REMARK 927      BINDING AFFINITY PREDICTED BY RF-SCORE:    0.00 PKD
ROOT
HETATM    1 MG   UNL     1     -10.806  10.476  64.037  1.00  0.00    -0.358 Mg 
HETATM    2  C   UNL     2     -11.143   7.517  67.107  1.00  0.00     0.115 C  
HETATM    3  N   UNL     2     -10.068   8.430  67.577  1.00  0.00    -0.199 N  
HETATM    4  O   UNL     3     -11.390  12.974  67.323  1.00  0.00    -0.276 OA 
HETATM    5  C   UNL     2      -8.661   7.918  67.424  1.00  0.00    -0.128 C  
HETATM    6  C   UNL     5      -9.143  11.341  69.173  1.00  0.00     0.124 C  
HETATM    7  C   UNL     3     -10.782  13.816  68.245  1.00  0.00    -0.253 A  
HETATM    8  C   UNL     2     -10.368   9.671  66.763  1.00  0.00    -0.222 C  
HETATM    9  O   UNL     4     -11.822  11.788  63.427  1.00  0.00    -0.659 OA 
HETATM   10  H   UNL     3     -12.281  12.716  67.528  1.00  0.00     0.000 HD 
HETATM   11  C   UNL     3      -9.464  14.198  67.942  1.00  0.00    -0.211 A  
HETATM   12  H   UNL     4     -12.753  11.686  63.581  1.00  0.00     0.000 HD 
HETATM   13  O   UNL     5      -7.911  10.398  66.130  1.00  0.00    -0.123 OA 
HETATM   14  O   UNL     5     -10.213  11.194  68.555  1.00  0.00    -0.183 OA 
HETATM   15  C   UNL     4     -11.176  12.903  63.944  1.00  0.00    -0.423 A  
HETATM   16  C   UNL     5      -7.300  11.146  67.147  1.00  0.00    -0.121 A  
HETATM   17  H   UNL     5      -8.799  10.184  66.395  1.00  0.00     0.000 HD 
HETATM   18  O   UNL     5      -9.025  11.142  70.440  1.00  0.00     1.744 OA 
HETATM   19  C   UNL     4      -9.806  13.053  63.717  1.00  0.00     0.749 A  
HETATM   20  C   UNL     3      -8.710  14.889  68.878  1.00  0.00    -0.180 A  
HETATM   21  C   UNL     3      -9.266  15.171  70.117  1.00  0.00     0.440 A  
HETATM   22  O   UNL     4     -14.119  14.251  65.557  1.00  0.00     0.678 OA 
HETATM   23  C   UNL     5      -5.985  11.462  66.755  1.00  0.00    -0.143 A  
HETATM   24  C   UNL     4      -9.164  14.156  64.265  1.00  0.00     3.942 A  
HETATM   25  C   UNL     5      -5.136  12.095  67.645  1.00  0.00    -0.083 A  
HETATM   26  C   UNL     4      -9.899  15.111  64.971  1.00  0.00    -0.055 A  
HETATM   27  C   UNL     3     -10.581  14.766  70.413  1.00  0.00     0.122 A  
HETATM   28  C   UNL     4     -11.266  14.927  65.215  1.00  0.00    -0.369 A  
HETATM   29  C   UNL     5      -5.565  12.433  68.911  1.00  0.00    -0.062 A  
HETATM   30  C   UNL     3     -11.360  14.055  69.495  1.00  0.00    -0.298 A  
HETATM   31  C   UNL     4     -11.910  13.781  64.747  1.00  0.00    -0.413 A  
HETATM   32  C   UNL     3     -12.654  13.435  69.871  1.00  0.00     0.026 C  
HETATM   33  C   UNL     5      -6.863  12.154  69.269  1.00  0.00    -0.052 A  
HETATM   34  C   UNL     5      -7.788  11.508  68.419  1.00  0.00    -0.136 A  
HETATM   35  O   UNL     3     -13.143  12.542  69.080  1.00  0.00     1.386 OA 
HETATM   36  C   UNL     4     -13.298  13.375  65.197  1.00  0.00     0.523 C  
HETATM   37  O   UNL     3     -13.242  13.826  70.970  1.00  0.00    -0.258 OA 
HETATM   38  O   UNL     4     -13.509  12.117  64.954  1.00  0.00    -0.161 OA 
ENDROOT
BRANCH   3  39
HETATM   39  C   UNL     2     -10.244   8.692  69.143  1.00  0.00    -0.208 C  
BRANCH  39  40
HETATM   40  C   UNL     2     -11.652   8.536  69.731  1.00  0.00     0.392 C  
HETATM   41  O   UNL     2     -12.381   9.747  69.684  1.00  0.00    -0.267 OA 
HETATM   42  H   UNL     2     -13.253   9.651  70.049  1.00  0.00     0.000 HD 
ENDBRANCH  39  40
ENDBRANCH   3  39
TORSDOF 2
ENDMDL
MODEL       59
REMARK 921   NORMALIZED FREE ENERGY PREDICTED BY IDOCK:    3.65 KCAL/MOL
REMARK 922        TOTAL FREE ENERGY PREDICTED BY IDOCK:    3.78 KCAL/MOL
REMARK 923 INTER-LIGAND FREE ENERGY PREDICTED BY IDOCK:    4.58 KCAL/MOL
REMARK 924 INTRA-LIGAND FREE ENERGY PREDICTED BY IDOCK:   -0.80 KCAL/MOL
REMARK 927      BINDING AFFINITY PREDICTED BY RF-SCORE:    0.00 PKD
ROOT
HETATM    1 MG   UNL     1     -10.033   8.427  66.629  1.00  0.00    -0.151 Mg 
HETATM    2  C   UNL     2     -12.658  10.315  69.428  1.00  0.00     0.631 C  
HETATM    3  N   UNL     2     -11.297  10.764  69.822  1.00  0.00    -0.276 N  
HETATM    4  O   UNL     3      -8.840  12.387  66.110  1.00  0.00    -0.414 OA 
HETATM    5  C   UNL     2     -10.711  10.089  71.033  1.00  0.00    -0.031 C  
HETATM    6  C   UNL     5      -8.656  12.937  69.397  1.00  0.00     1.223 C  
HETATM    7  C   UNL     3      -7.879  13.343  66.413  1.00  0.00     1.302 A  
HETATM    8  C   UNL     2     -10.529  10.516  68.541  1.00  0.00    -0.188 C  
HETATM    9  O   UNL     4      -9.712   8.574  64.897  1.00  0.00     0.167 OA 
HETATM   10  H   UNL     3      -9.646  12.719  65.734  1.00  0.00     0.000 HD 
HETATM   11  C   UNL     3      -6.687  12.852  66.969  1.00  0.00     0.290 A  
HETATM   12  H   UNL     4     -10.428   8.923  64.379  1.00  0.00     0.000 HD 
HETATM   13  O   UNL     5      -8.289   9.543  69.542  1.00  0.00    -0.120 OA 
HETATM   14  O   UNL     5      -9.441  12.606  68.490  1.00  0.00    -0.185 OA 
HETATM   15  C   UNL     4      -8.496   9.244  64.896  1.00  0.00    -0.168 A  
HETATM   16  C   UNL     5      -7.403  10.554  69.941  1.00  0.00    -0.108 A  
HETATM   17  H   UNL     5      -9.065   9.944  69.166  1.00  0.00     0.000 HD 
HETATM   18  O   UNL     5      -8.816  13.987  70.123  1.00  0.00     1.590 OA 
HETATM   19  C   UNL     4      -7.444   8.732  65.657  1.00  0.00    -0.085 A  
HETATM   20  C   UNL     3      -5.739  13.734  67.468  1.00  0.00     0.083 A  
HETATM   21  C   UNL     3      -6.000  15.096  67.432  1.00  0.00     0.116 A  
HETATM   22  O   UNL     4      -9.616  11.922  62.737  1.00  0.00    -0.307 OA 
HETATM   23  C   UNL     5      -6.253   9.961  70.498  1.00  0.00    -0.101 A  
HETATM   24  C   UNL     4      -6.242   9.427  65.672  1.00  0.00    -0.064 A  
HETATM   25  C   UNL     5      -5.282  10.757  71.077  1.00  0.00    -0.103 A  
HETATM   26  C   UNL     4      -6.090  10.576  64.893  1.00  0.00    -0.068 A  
HETATM   27  C   UNL     3      -7.208  15.572  66.888  1.00  0.00     0.008 A  
HETATM   28  C   UNL     4      -7.167  11.092  64.161  1.00  0.00     0.812 A  
HETATM   29  C   UNL     5      -5.418  12.128  71.107  1.00  0.00    -0.043 A  
HETATM   30  C   UNL     3      -8.187  14.707  66.392  1.00  0.00     0.539 A  
HETATM   31  C   UNL     4      -8.408  10.456  64.202  1.00  0.00    -0.139 A  
HETATM   32  C   UNL     3      -9.544  15.180  66.023  1.00  0.00    -0.330 C  
HETATM   33  C   UNL     5      -6.526  12.698  70.526  1.00  0.00     0.642 A  
HETATM   34  C   UNL     5      -7.562  11.955  69.918  1.00  0.00     1.216 A  
HETATM   35  O   UNL     3     -10.471  14.293  65.887  1.00  0.00    -0.287 OA 
HETATM   36  C   UNL     4      -9.677  11.090  63.673  1.00  0.00    -0.324 C  
HETATM   37  O   UNL     3      -9.737  16.459  65.843  1.00  0.00    -0.355 OA 
HETATM   38  O   UNL     4     -10.724  10.508  64.173  1.00  0.00    -0.052 OA 
ENDROOT
BRANCH   3  39
HETATM   39  C   UNL     2     -11.340  12.317  70.196  1.00  0.00     0.215 C  
BRANCH  39  40
HETATM   40  C   UNL     2     -12.535  13.132  69.688  1.00  0.00     0.073 C  
HETATM   41  O   UNL     2     -12.248  13.788  68.469  1.00  0.00    -0.429 OA 
HETATM   42  H   UNL     2     -12.988  14.293  68.154  1.00  0.00     0.000 HD 
ENDBRANCH  39  40
ENDBRANCH   3  39
TORSDOF 2
ENDMDL
MODEL       60
REMARK 921   NORMALIZED FREE ENERGY PREDICTED BY IDOCK:    3.67 KCAL/MOL
REMARK 922        TOTAL FREE ENERGY PREDICTED BY IDOCK:    3.81 KCAL/MOL
REMARK 923 INTER-LIGAND FREE ENERGY PREDICTED BY IDOCK:    4.51 KCAL/MOL
REMARK 924 INTRA-LIGAND FREE ENERGY PREDICTED BY IDOCK:   -0.70 KCAL/MOL
REMARK 927      BINDING AFFINITY PREDICTED BY RF-SCORE:    0.00 PKD
ROOT
HETATM    1 MG   UNL     1      -6.373   6.265  67.002  1.00  0.00    -0.028 Mg 
HETATM    2  C   UNL     2      -6.669   2.760  69.436  1.00  0.00    -0.034 C  
HETATM    3  N   UNL     2      -6.734   3.894  70.395  1.00  0.00    -0.032 N  
HETATM    4  O   UNL     3      -9.895   7.156  69.046  1.00  0.00    -0.152 OA 
HETATM    5  C   UNL     2      -5.475   4.165  71.173  1.00  0.00    -0.008 C  
HETATM    6  C   UNL     5      -8.590   6.314  72.000  1.00  0.00    -0.131 C  
HETATM    7  C   UNL     3     -10.466   7.886  70.081  1.00  0.00    -0.231 A  
HETATM    8  C   UNL     2      -7.150   5.024  69.477  1.00  0.00    -0.055 C  
HETATM    9  O   UNL     4      -7.397   7.063  65.802  1.00  0.00    -0.074 OA 
HETATM   10  H   UNL     3     -10.437   6.467  68.682  1.00  0.00     0.000 HD 
HETATM   11  C   UNL     3      -9.665   8.906  70.619  1.00  0.00    -0.260 A  
HETATM   12  H   UNL     4      -8.021   6.499  65.361  1.00  0.00     0.000 HD 
HETATM   13  O   UNL     5      -5.627   6.959  70.427  1.00  0.00    -0.022 OA 
HETATM   14  O   UNL     5      -8.855   5.866  70.870  1.00  0.00    -0.136 OA 
HETATM   15  C   UNL     4      -7.870   8.153  66.521  1.00  0.00    -0.093 A  
HETATM   16  C   UNL     5      -6.198   7.584  71.545  1.00  0.00    -0.036 A  
HETATM   17  H   UNL     5      -6.224   6.291  70.108  1.00  0.00     0.000 HD 
HETATM   18  O   UNL     5      -9.100   5.844  73.084  1.00  0.00    -0.132 OA 
HETATM   19  C   UNL     4      -6.952   8.981  67.168  1.00  0.00    -0.078 A  
HETATM   20  C   UNL     3     -10.069   9.573  71.766  1.00  0.00     0.366 A  
HETATM   21  C   UNL     3     -11.256   9.199  72.381  1.00  0.00     0.186 A  
HETATM   22  O   UNL     4     -11.362   7.452  65.890  1.00  0.00     2.876 OA 
HETATM   23  C   UNL     5      -5.314   8.573  72.018  1.00  0.00    -0.040 A  
HETATM   24  C   UNL     4      -7.438  10.051  67.910  1.00  0.00    -0.089 A  
HETATM   25  C   UNL     5      -5.601   9.248  73.190  1.00  0.00    -0.012 A  
HETATM   26  C   UNL     4      -8.810  10.308  67.945  1.00  0.00    -0.122 A  
HETATM   27  C   UNL     3     -12.039   8.162  71.839  1.00  0.00    -0.368 A  
HETATM   28  C   UNL     4      -9.717   9.447  67.315  1.00  0.00    -0.215 A  
HETATM   29  C   UNL     5      -6.751   8.973  73.899  1.00  0.00     0.199 A  
HETATM   30  C   UNL     3     -11.649   7.463  70.694  1.00  0.00    -0.295 A  
HETATM   31  C   UNL     4      -9.254   8.319  66.639  1.00  0.00    -0.224 A  
HETATM   32  C   UNL     3     -12.347   6.233  70.245  1.00  0.00     0.784 C  
HETATM   33  C   UNL     5      -7.625   8.033  73.408  1.00  0.00    -0.201 A  
HETATM   34  C   UNL     5      -7.402   7.300  72.222  1.00  0.00    -0.072 A  
HETATM   35  O   UNL     3     -11.744   5.480  69.389  1.00  0.00     1.034 OA 
HETATM   36  C   UNL     4     -10.167   7.204  66.174  1.00  0.00     0.462 C  
HETATM   37  O   UNL     3     -13.536   5.975  70.721  1.00  0.00     2.020 OA 
HETATM   38  O   UNL     4      -9.489   6.120  65.948  1.00  0.00    -0.077 OA 
ENDROOT
BRANCH   3  39
HETATM   39  C   UNL     2      -7.845   3.589  71.501  1.00  0.00    -0.057 C  
BRANCH  39  40
HETATM   40  C   UNL     2      -8.909   2.538  71.161  1.00  0.00    -0.072 C  
HETATM   41  O   UNL     2      -9.905   3.053  70.300  1.00  0.00    -0.069 OA 
HETATM   42  H   UNL     2     -10.564   2.402  70.090  1.00  0.00     0.000 HD 
ENDBRANCH  39  40
ENDBRANCH   3  39
TORSDOF 2
ENDMDL
MODEL       61
REMARK 921   NORMALIZED FREE ENERGY PREDICTED BY IDOCK:    3.98 KCAL/MOL
REMARK 922        TOTAL FREE ENERGY PREDICTED BY IDOCK:    4.15 KCAL/MOL
REMARK 923 INTER-LIGAND FREE ENERGY PREDICTED BY IDOCK:    4.47 KCAL/MOL
REMARK 924 INTRA-LIGAND FREE ENERGY PREDICTED BY IDOCK:   -0.31 KCAL/MOL
REMARK 927      BINDING AFFINITY PREDICTED BY RF-SCORE:    0.00 PKD
ROOT
HETATM    1 MG   UNL     1     -12.122  10.724  69.594  1.00  0.00    -0.223 Mg 
HETATM    2  C   UNL     2     -13.438  13.209  66.370  1.00  0.00     3.440 C  
HETATM    3  N   UNL     2     -12.061  13.679  66.673  1.00  0.00    -0.415 N  
HETATM    4  O   UNL     3      -8.991  10.077  66.919  1.00  0.00    -0.134 OA 
HETATM    5  C   UNL     2     -11.965  14.965  67.447  1.00  0.00    -0.119 C  
HETATM    6  C   UNL     5      -8.656  13.333  66.265  1.00  0.00     0.512 C  
HETATM    7  C   UNL     3      -7.680  10.398  66.590  1.00  0.00    -0.117 A  
HETATM    8  C   UNL     2     -11.499  12.474  67.398  1.00  0.00    -0.341 C  
HETATM    9  O   UNL     4     -11.713   9.016  69.789  1.00  0.00    -0.427 OA 
HETATM   10  H   UNL     3      -9.484   9.624  66.246  1.00  0.00     0.000 HD 
HETATM   11  C   UNL     3      -6.951  11.069  67.586  1.00  0.00    -0.083 A  
HETATM   12  H   UNL     4     -12.116   8.427  69.162  1.00  0.00     0.000 HD 
HETATM   13  O   UNL     5     -10.153  13.693  69.314  1.00  0.00    -0.424 OA 
HETATM   14  O   UNL     5      -9.465  12.389  66.209  1.00  0.00    -0.233 OA 
HETATM   15  C   UNL     4     -10.327   9.069  69.863  1.00  0.00    -0.207 A  
HETATM   16  C   UNL     5      -8.880  14.101  68.892  1.00  0.00     0.021 A  
HETATM   17  H   UNL     5     -10.585  13.238  68.600  1.00  0.00     0.000 HD 
HETATM   18  O   UNL     5      -8.259  13.985  65.229  1.00  0.00     3.334 OA 
HETATM   19  C   UNL     4      -9.735   9.934  70.784  1.00  0.00     0.118 A  
HETATM   20  C   UNL     3      -5.697  11.588  67.296  1.00  0.00    -0.090 A  
HETATM   21  C   UNL     3      -5.194  11.457  66.010  1.00  0.00    -0.008 A  
HETATM   22  O   UNL     4      -9.779   6.687  67.197  1.00  0.00    -0.130 OA 
HETATM   23  C   UNL     5      -8.241  14.775  69.951  1.00  0.00     0.365 A  
HETATM   24  C   UNL     4      -8.348  10.001  70.829  1.00  0.00     0.766 A  
HETATM   25  C   UNL     5      -7.016  15.381  69.739  1.00  0.00    -0.152 A  
HETATM   26  C   UNL     4      -7.583   9.173  70.005  1.00  0.00    -0.080 A  
HETATM   27  C   UNL     3      -5.945  10.798  65.018  1.00  0.00     0.033 A  
HETATM   28  C   UNL     4      -8.196   8.335  69.065  1.00  0.00    -0.119 A  
HETATM   29  C   UNL     5      -6.404  15.324  68.506  1.00  0.00    -0.091 A  
HETATM   30  C   UNL     3      -7.216  10.278  65.276  1.00  0.00    -0.134 A  
HETATM   31  C   UNL     4      -9.585   8.318  68.946  1.00  0.00    -0.153 A  
HETATM   32  C   UNL     3      -8.101   9.783  64.194  1.00  0.00    -0.153 C  
HETATM   33  C   UNL     5      -7.018  14.631  67.491  1.00  0.00    -0.193 A  
HETATM   34  C   UNL     5      -8.269  13.989  67.626  1.00  0.00    -0.185 A  
HETATM   35  O   UNL     3      -9.352   9.627  64.467  1.00  0.00    -0.261 OA 
HETATM   36  C   UNL     4     -10.304   7.660  67.786  1.00  0.00    -0.219 C  
HETATM   37  O   UNL     3      -7.578   9.517  63.027  1.00  0.00    -0.108 OA 
HETATM   38  O   UNL     4     -11.518   8.111  67.684  1.00  0.00     0.743 OA 
ENDROOT
BRANCH   3  39
HETATM   39  C   UNL     2     -11.286  13.961  65.305  1.00  0.00    -0.313 C  
BRANCH  39  40
HETATM   40  C   UNL     2     -11.914  13.425  64.013  1.00  0.00    -0.464 C  
HETATM   41  O   UNL     2     -11.182  13.813  62.868  1.00  0.00     0.709 OA 
HETATM   42  H   UNL     2     -11.571  13.481  62.068  1.00  0.00     0.000 HD 
ENDBRANCH  39  40
ENDBRANCH   3  39
TORSDOF 2
ENDMDL
MODEL       62
REMARK 921   NORMALIZED FREE ENERGY PREDICTED BY IDOCK:    4.27 KCAL/MOL
REMARK 922        TOTAL FREE ENERGY PREDICTED BY IDOCK:    4.47 KCAL/MOL
REMARK 923 INTER-LIGAND FREE ENERGY PREDICTED BY IDOCK:    5.03 KCAL/MOL
REMARK 924 INTRA-LIGAND FREE ENERGY PREDICTED BY IDOCK:   -0.56 KCAL/MOL
REMARK 927      BINDING AFFINITY PREDICTED BY RF-SCORE:    0.00 PKD
ROOT
HETATM    1 MG   UNL     1      -7.189   2.413  68.506  1.00  0.00    -0.042 Mg 
HETATM    2  C   UNL     2     -10.300   2.657  71.431  1.00  0.00     0.538 C  
HETATM    3  N   UNL     2      -9.597   3.964  71.516  1.00  0.00    -0.156 N  
HETATM    4  O   UNL     3      -9.031   5.933  67.243  1.00  0.00    -0.111 OA 
HETATM    5  C   UNL     2      -8.667   4.131  72.687  1.00  0.00    -0.104 C  
HETATM    6  C   UNL     5      -9.159   7.173  70.339  1.00  0.00    -0.156 C  
HETATM    7  C   UNL     3      -8.969   7.321  67.239  1.00  0.00    -0.123 A  
HETATM    8  C   UNL     2      -8.910   4.009  70.167  1.00  0.00    -0.083 C  
HETATM    9  O   UNL     4      -7.114   2.349  66.741  1.00  0.00    -0.047 OA 
HETATM   10  H   UNL     3      -9.860   5.558  66.972  1.00  0.00     0.000 HD 
HETATM   11  C   UNL     3      -7.743   7.876  67.641  1.00  0.00    -0.117 A  
HETATM   12  H   UNL     4      -7.892   2.015  66.312  1.00  0.00     0.000 HD 
HETATM   13  O   UNL     5      -6.575   5.007  70.887  1.00  0.00    -0.032 OA 
HETATM   14  O   UNL     5      -9.539   6.218  69.638  1.00  0.00    -0.145 OA 
HETATM   15  C   UNL     4      -6.681   3.633  66.435  1.00  0.00    -0.049 A  
HETATM   16  C   UNL     5      -6.602   6.405  70.981  1.00  0.00    -0.053 A  
HETATM   17  H   UNL     5      -7.428   4.700  70.600  1.00  0.00     0.000 HD 
HETATM   18  O   UNL     5      -9.967   7.983  70.930  1.00  0.00    -0.185 OA 
HETATM   19  C   UNL     4      -5.536   4.125  67.064  1.00  0.00    -0.021 A  
HETATM   20  C   UNL     3      -7.634   9.244  67.840  1.00  0.00    -0.084 A  
HETATM   21  C   UNL     3      -8.754  10.044  67.662  1.00  0.00    -0.121 A  
HETATM   22  O   UNL     4      -9.397   4.345  64.155  1.00  0.00    -0.153 OA 
HETATM   23  C   UNL     5      -5.338   6.859  71.406  1.00  0.00    -0.027 A  
HETATM   24  C   UNL     4      -5.130   5.421  66.773  1.00  0.00    -0.005 A  
HETATM   25  C   UNL     5      -5.149   8.199  71.691  1.00  0.00    -0.034 A  
HETATM   26  C   UNL     4      -5.828   6.176  65.828  1.00  0.00    -0.025 A  
HETATM   27  C   UNL     3      -9.980   9.470  67.276  1.00  0.00    -0.244 A  
HETATM   28  C   UNL     4      -6.992   5.676  65.231  1.00  0.00    -0.060 A  
HETATM   29  C   UNL     5      -6.181   9.102  71.554  1.00  0.00    -0.069 A  
HETATM   30  C   UNL     3     -10.124   8.094  67.084  1.00  0.00    -0.334 A  
HETATM   31  C   UNL     4      -7.465   4.410  65.575  1.00  0.00    -0.081 A  
HETATM   32  C   UNL     3     -11.452   7.458  66.895  1.00  0.00     1.259 C  
HETATM   33  C   UNL     5      -7.400   8.654  71.102  1.00  0.00    -0.092 A  
HETATM   34  C   UNL     5      -7.672   7.303  70.793  1.00  0.00    -0.092 A  
HETATM   35  O   UNL     3     -11.530   6.180  67.047  1.00  0.00    -0.064 OA 
HETATM   36  C   UNL     4      -8.843   3.913  65.193  1.00  0.00    -0.126 C  
HETATM   37  O   UNL     3     -12.470   8.212  66.575  1.00  0.00     7.267 OA 
HETATM   38  O   UNL     4      -9.196   2.914  65.944  1.00  0.00    -0.152 OA 
ENDROOT
BRANCH   3  39
HETATM   39  C   UNL     2     -10.673   5.134  71.673  1.00  0.00    -0.111 C  
BRANCH  39  40
HETATM   40  C   UNL     2     -11.199   5.425  73.083  1.00  0.00    -0.297 C  
HETATM   41  O   UNL     2     -10.864   6.729  73.513  1.00  0.00    -0.437 OA 
HETATM   42  H   UNL     2     -11.190   6.910  74.387  1.00  0.00     0.000 HD 
ENDBRANCH  39  40
ENDBRANCH   3  39
TORSDOF 2
ENDMDL
MODEL       63
REMARK 921   NORMALIZED FREE ENERGY PREDICTED BY IDOCK:    4.41 KCAL/MOL
REMARK 922        TOTAL FREE ENERGY PREDICTED BY IDOCK:    4.63 KCAL/MOL
REMARK 923 INTER-LIGAND FREE ENERGY PREDICTED BY IDOCK:    5.01 KCAL/MOL
REMARK 924 INTRA-LIGAND FREE ENERGY PREDICTED BY IDOCK:   -0.37 KCAL/MOL
REMARK 927      BINDING AFFINITY PREDICTED BY RF-SCORE:    0.00 PKD
ROOT
HETATM    1 MG   UNL     1      -8.665  11.068  66.900  1.00  0.00    -0.130 Mg 
HETATM    2  C   UNL     2      -5.423  11.540  69.650  1.00  0.00    -0.064 C  
HETATM    3  N   UNL     2      -6.424  10.719  70.381  1.00  0.00    -0.125 N  
HETATM    4  O   UNL     3      -7.932   7.059  67.777  1.00  0.00    -0.111 OA 
HETATM    5  C   UNL     2      -7.233  11.447  71.420  1.00  0.00     5.031 C  
HETATM    6  C   UNL     5      -7.793   7.630  71.062  1.00  0.00    -0.090 C  
HETATM    7  C   UNL     3      -8.347   5.951  68.504  1.00  0.00    -0.109 A  
HETATM    8  C   UNL     2      -7.241  10.169  69.231  1.00  0.00    -0.085 C  
HETATM    9  O   UNL     4      -8.911  10.223  65.367  1.00  0.00    -0.159 OA 
HETATM   10  H   UNL     3      -7.069   6.994  67.386  1.00  0.00     0.000 HD 
HETATM   11  C   UNL     3      -9.623   6.046  69.082  1.00  0.00    -0.156 A  
HETATM   12  H   UNL     4      -8.124  10.058  64.863  1.00  0.00     0.000 HD 
HETATM   13  O   UNL     5      -9.662  10.375  70.262  1.00  0.00    -0.352 OA 
HETATM   14  O   UNL     5      -7.259   7.934  69.980  1.00  0.00    -0.060 OA 
HETATM   15  C   UNL     4      -9.689   9.143  65.767  1.00  0.00    -0.229 A  
HETATM   16  C   UNL     5      -9.984   9.285  71.083  1.00  0.00    -0.286 A  
HETATM   17  H   UNL     5      -8.794  10.241  69.896  1.00  0.00     0.000 HD 
HETATM   18  O   UNL     5      -7.160   7.061  72.027  1.00  0.00    -0.071 OA 
HETATM   19  C   UNL     4     -10.846   9.386  66.509  1.00  0.00     0.131 A  
HETATM   20  C   UNL     3     -10.057   5.072  69.970  1.00  0.00    -0.342 A  
HETATM   21  C   UNL     3      -9.205   4.026  70.293  1.00  0.00    -0.210 A  
HETATM   22  O   UNL     4      -7.507   6.639  64.336  1.00  0.00    -0.081 OA 
HETATM   23  C   UNL     5     -11.268   9.485  71.625  1.00  0.00    -0.378 A  
HETATM   24  C   UNL     4     -11.600   8.297  66.929  1.00  0.00     2.797 A  
HETATM   25  C   UNL     5     -11.761   8.600  72.567  1.00  0.00    -0.330 A  
HETATM   26  C   UNL     4     -11.224   7.004  66.559  1.00  0.00     0.815 A  
HETATM   27  C   UNL     3      -7.922   3.954  69.719  1.00  0.00    -0.058 A  
HETATM   28  C   UNL     4     -10.042   6.779  65.842  1.00  0.00     0.635 A  
HETATM   29  C   UNL     5     -11.015   7.516  72.975  1.00  0.00    -0.443 A  
HETATM   30  C   UNL     3      -7.452   4.928  68.834  1.00  0.00    -0.065 A  
HETATM   31  C   UNL     4      -9.227   7.854  65.486  1.00  0.00     0.146 A  
HETATM   32  C   UNL     3      -6.034   4.981  68.398  1.00  0.00    -0.026 C  
HETATM   33  C   UNL     5      -9.779   7.310  72.411  1.00  0.00    -0.186 A  
HETATM   34  C   UNL     5      -9.205   8.168  71.447  1.00  0.00    -0.195 A  
HETATM   35  O   UNL     3      -5.615   6.073  67.854  1.00  0.00    -0.008 OA 
HETATM   36  C   UNL     4      -7.817   7.679  64.962  1.00  0.00    -0.126 C  
HETATM   37  O   UNL     3      -5.284   3.927  68.572  1.00  0.00    -0.010 OA 
HETATM   38  O   UNL     4      -7.142   8.782  65.086  1.00  0.00    -0.084 OA 
ENDROOT
BRANCH   3  39
HETATM   39  C   UNL     2      -5.672   9.559  71.182  1.00  0.00    -0.068 C  
BRANCH  39  40
HETATM   40  C   UNL     2      -5.463   9.762  72.688  1.00  0.00     0.133 C  
HETATM   41  O   UNL     2      -5.272   8.535  73.364  1.00  0.00    -0.050 OA 
HETATM   42  H   UNL     2      -5.143   8.660  74.297  1.00  0.00     0.000 HD 
ENDBRANCH  39  40
ENDBRANCH   3  39
TORSDOF 2
ENDMDL
MODEL       64
REMARK 921   NORMALIZED FREE ENERGY PREDICTED BY IDOCK:    4.93 KCAL/MOL
REMARK 922        TOTAL FREE ENERGY PREDICTED BY IDOCK:    5.21 KCAL/MOL
REMARK 923 INTER-LIGAND FREE ENERGY PREDICTED BY IDOCK:    4.57 KCAL/MOL
REMARK 924 INTRA-LIGAND FREE ENERGY PREDICTED BY IDOCK:    0.65 KCAL/MOL
REMARK 927      BINDING AFFINITY PREDICTED BY RF-SCORE:    0.00 PKD
ROOT
HETATM    1 MG   UNL     1     -13.532  11.222  66.060  1.00  0.00     2.849 Mg 
HETATM    2  C   UNL     2     -13.424  10.861  70.321  1.00  0.00     0.774 C  
HETATM    3  N   UNL     2     -12.179  10.198  69.852  1.00  0.00    -0.062 N  
HETATM    4  O   UNL     3      -9.790  12.909  66.787  1.00  0.00    -0.229 OA 
HETATM    5  C   UNL     2     -12.198   8.693  69.860  1.00  0.00     1.070 C  
HETATM    6  C   UNL     5      -8.892  10.440  68.845  1.00  0.00    -0.161 C  
HETATM    7  C   UNL     3      -8.417  12.703  66.766  1.00  0.00    -0.049 A  
HETATM    8  C   UNL     2     -12.027  10.809  68.475  1.00  0.00     0.016 C  
HETATM    9  O   UNL     4     -13.406  12.549  64.898  1.00  0.00    -0.702 OA 
HETATM   10  H   UNL     3     -10.083  13.681  67.257  1.00  0.00     0.000 HD 
HETATM   11  C   UNL     3      -7.984  11.562  66.071  1.00  0.00     0.179 A  
HETATM   12  H   UNL     4     -13.644  13.405  65.232  1.00  0.00     0.000 HD 
HETATM   13  O   UNL     5     -11.257   8.678  67.121  1.00  0.00    -0.214 OA 
HETATM   14  O   UNL     5      -9.740  11.337  68.684  1.00  0.00    -0.196 OA 
HETATM   15  C   UNL     4     -12.125  12.358  64.397  1.00  0.00    -0.426 A  
HETATM   16  C   UNL     5      -9.878   8.449  67.231  1.00  0.00    -0.203 A  
HETATM   17  H   UNL     5     -11.478   9.468  67.603  1.00  0.00     0.000 HD 
HETATM   18  O   UNL     5      -8.105  10.386  69.862  1.00  0.00    -0.119 OA 
HETATM   19  C   UNL     4     -11.775  11.099  63.906  1.00  0.00     0.443 A  
HETATM   20  C   UNL     3      -6.655  11.171  66.140  1.00  0.00    -0.022 A  
HETATM   21  C   UNL     3      -5.775  11.906  66.921  1.00  0.00    -0.114 A  
HETATM   22  O   UNL     4     -11.005  15.722  65.112  1.00  0.00    -0.387 OA 
HETATM   23  C   UNL     5      -9.550   7.279  66.519  1.00  0.00    -0.211 A  
HETATM   24  C   UNL     4     -10.481  10.912  63.435  1.00  0.00    -0.220 A  
HETATM   25  C   UNL     5      -8.264   6.776  66.578  1.00  0.00    -0.117 A  
HETATM   26  C   UNL     4      -9.587  11.984  63.407  1.00  0.00    -0.093 A  
HETATM   27  C   UNL     3      -6.227  13.037  67.626  1.00  0.00    -0.158 A  
HETATM   28  C   UNL     4      -9.947  13.231  63.933  1.00  0.00     0.757 A  
HETATM   29  C   UNL     5      -7.291   7.412  67.319  1.00  0.00    -0.098 A  
HETATM   30  C   UNL     3      -7.563  13.446  67.588  1.00  0.00    -0.177 A  
HETATM   31  C   UNL     4     -11.213  13.414  64.490  1.00  0.00    -0.393 A  
HETATM   32  C   UNL     3      -8.094  14.495  68.494  1.00  0.00    -0.148 C  
HETATM   33  C   UNL     5      -7.612   8.574  67.979  1.00  0.00    -0.098 A  
HETATM   34  C   UNL     5      -8.902   9.149  67.970  1.00  0.00    -0.129 A  
HETATM   35  O   UNL     3      -9.374  14.584  68.623  1.00  0.00    -0.199 OA 
HETATM   36  C   UNL     4     -11.581  14.628  65.318  1.00  0.00    -0.354 C  
HETATM   37  O   UNL     3      -7.250  15.282  69.106  1.00  0.00    -0.139 OA 
HETATM   38  O   UNL     4     -12.633  14.389  66.040  1.00  0.00    -0.382 OA 
ENDROOT
BRANCH   3  39
HETATM   39  C   UNL     2     -10.971  10.600  70.816  1.00  0.00     0.315 C  
BRANCH  39  40
HETATM   40  C   UNL     2     -11.066  11.948  71.542  1.00  0.00     4.462 C  
HETATM   41  O   UNL     2     -11.815  12.893  70.805  1.00  0.00    -0.494 OA 
HETATM   42  H   UNL     2     -11.874  13.728  71.254  1.00  0.00     0.000 HD 
ENDBRANCH  39  40
ENDBRANCH   3  39
TORSDOF 2
ENDMDL
MODEL       65
REMARK 921   NORMALIZED FREE ENERGY PREDICTED BY IDOCK:    5.67 KCAL/MOL
REMARK 922        TOTAL FREE ENERGY PREDICTED BY IDOCK:    6.05 KCAL/MOL
REMARK 923 INTER-LIGAND FREE ENERGY PREDICTED BY IDOCK:    6.31 KCAL/MOL
REMARK 924 INTRA-LIGAND FREE ENERGY PREDICTED BY IDOCK:   -0.26 KCAL/MOL
REMARK 927      BINDING AFFINITY PREDICTED BY RF-SCORE:    0.00 PKD
ROOT
HETATM    1 MG   UNL     1      -9.126  12.059  66.502  1.00  0.00    -0.166 Mg 
HETATM    2  C   UNL     2      -6.433  11.739  69.810  1.00  0.00    -0.094 C  
HETATM    3  N   UNL     2      -6.364  13.167  69.401  1.00  0.00    -0.110 N  
HETATM    4  O   UNL     3     -10.678  15.070  68.930  1.00  0.00    -0.225 OA 
HETATM    5  C   UNL     2      -5.142  13.564  68.618  1.00  0.00    -0.074 C  
HETATM    6  C   UNL     5      -7.661  16.356  69.548  1.00  0.00     0.045 C  
HETATM    7  C   UNL     3     -10.745  16.439  69.157  1.00  0.00    -0.317 A  
HETATM    8  C   UNL     2      -7.664  13.311  68.638  1.00  0.00    -0.080 C  
HETATM    9  O   UNL     4     -10.877  11.954  66.280  1.00  0.00    -0.260 OA 
HETATM   10  H   UNL     3     -10.987  14.521  69.641  1.00  0.00     0.000 HD 
HETATM   11  C   UNL     3     -10.288  17.252  68.107  1.00  0.00    -0.357 A  
HETATM   12  H   UNL     4     -11.341  11.450  66.938  1.00  0.00     0.000 HD 
HETATM   13  O   UNL     5      -6.836  14.799  66.621  1.00  0.00    -0.013 OA 
HETATM   14  O   UNL     5      -8.340  15.321  69.668  1.00  0.00    -0.235 OA 
HETATM   15  C   UNL     4     -11.214  13.289  66.100  1.00  0.00    -0.296 A  
HETATM   16  C   UNL     5      -6.811  16.164  66.944  1.00  0.00    -0.113 A  
HETATM   17  H   UNL     5      -7.165  14.312  67.368  1.00  0.00     0.000 HD 
HETATM   18  O   UNL     5      -7.166  16.997  70.548  1.00  0.00     1.697 OA 
HETATM   19  C   UNL     4     -10.533  14.031  65.134  1.00  0.00    -0.415 A  
HETATM   20  C   UNL     3     -10.147  18.619  68.298  1.00  0.00    -0.431 A  
HETATM   21  C   UNL     3     -10.439  19.159  69.542  1.00  0.00     0.598 A  
HETATM   22  O   UNL     4     -13.704  13.340  68.723  1.00  0.00     4.198 OA 
HETATM   23  C   UNL     5      -6.324  16.887  65.837  1.00  0.00     0.758 A  
HETATM   24  C   UNL     4     -10.857  15.373  64.983  1.00  0.00    -0.462 A  
HETATM   25  C   UNL     5      -6.091  18.245  65.952  1.00  0.00    -0.259 A  
HETATM   26  C   UNL     4     -11.883  15.933  65.748  1.00  0.00     0.816 A  
HETATM   27  C   UNL     3     -10.879  18.328  70.590  1.00  0.00     2.506 A  
HETATM   28  C   UNL     4     -12.533  15.181  66.735  1.00  0.00     0.845 A  
HETATM   29  C   UNL     5      -6.341  18.906  67.136  1.00  0.00    -0.187 A  
HETATM   30  C   UNL     3     -11.015  16.947  70.432  1.00  0.00     0.309 A  
HETATM   31  C   UNL     4     -12.161  13.855  66.960  1.00  0.00    -0.451 A  
HETATM   32  C   UNL     3     -11.262  16.041  71.580  1.00  0.00    -0.057 C  
HETATM   33  C   UNL     5      -6.853  18.198  68.197  1.00  0.00    -0.212 A  
HETATM   34  C   UNL     5      -7.114  16.810  68.159  1.00  0.00    -0.161 A  
HETATM   35  O   UNL     3     -11.055  14.780  71.404  1.00  0.00    -0.123 OA 
HETATM   36  C   UNL     4     -12.611  13.068  68.173  1.00  0.00     0.856 C  
HETATM   37  O   UNL     3     -11.686  16.553  72.705  1.00  0.00    -0.500 OA 
HETATM   38  O   UNL     4     -11.839  12.043  68.367  1.00  0.00    -0.320 OA 
ENDROOT
BRANCH   3  39
HETATM   39  C   UNL     2      -6.337  14.089  70.704  1.00  0.00    -0.018 C  
BRANCH  39  40
HETATM   40  C   UNL     2      -5.515  13.596  71.901  1.00  0.00    -0.148 C  
HETATM   41  O   UNL     2      -5.791  14.337  73.073  1.00  0.00    -0.239 OA 
HETATM   42  H   UNL     2      -5.283  14.032  73.815  1.00  0.00     0.000 HD 
ENDBRANCH  39  40
ENDBRANCH   3  39
TORSDOF 2
ENDMDL
MODEL       66
REMARK 921   NORMALIZED FREE ENERGY PREDICTED BY IDOCK:    6.97 KCAL/MOL
REMARK 922        TOTAL FREE ENERGY PREDICTED BY IDOCK:    7.50 KCAL/MOL
REMARK 923 INTER-LIGAND FREE ENERGY PREDICTED BY IDOCK:    7.82 KCAL/MOL
REMARK 924 INTRA-LIGAND FREE ENERGY PREDICTED BY IDOCK:   -0.32 KCAL/MOL
REMARK 927      BINDING AFFINITY PREDICTED BY RF-SCORE:    0.00 PKD
ROOT
HETATM    1 MG   UNL     1     -12.305   8.710  67.794  1.00  0.00     1.126 Mg 
HETATM    2  C   UNL     2     -10.457   5.849  65.206  1.00  0.00     1.651 C  
HETATM    3  N   UNL     2      -9.336   6.687  65.706  1.00  0.00     0.080 N  
HETATM    4  O   UNL     3      -9.462   7.159  70.419  1.00  0.00    -0.162 OA 
HETATM    5  C   UNL     2      -8.801   7.708  64.738  1.00  0.00     0.437 C  
HETATM    6  C   UNL     5      -7.015   7.373  68.160  1.00  0.00    -0.075 C  
HETATM    7  C   UNL     3      -8.228   7.363  71.023  1.00  0.00    -0.110 A  
HETATM    8  C   UNL     2      -9.955   7.281  66.954  1.00  0.00    -0.232 C  
HETATM    9  O   UNL     4     -13.124   8.657  69.360  1.00  0.00     2.999 OA 
HETATM   10  H   UNL     3      -9.812   6.279  70.488  1.00  0.00     0.000 HD 
HETATM   11  C   UNL     3      -7.710   8.665  70.922  1.00  0.00    -0.104 A  
HETATM   12  H   UNL     4     -13.511   7.820  69.588  1.00  0.00     0.000 HD 
HETATM   13  O   UNL     5      -9.041   9.751  66.777  1.00  0.00    -0.143 OA 
HETATM   14  O   UNL     5      -8.123   6.849  68.374  1.00  0.00    -0.117 OA 
HETATM   15  C   UNL     4     -12.157   9.198  70.198  1.00  0.00     0.363 A  
HETATM   16  C   UNL     5      -7.744   9.875  67.294  1.00  0.00    -0.095 A  
HETATM   17  H   UNL     5      -9.333   8.853  66.888  1.00  0.00     0.000 HD 
HETATM   18  O   UNL     5      -5.939   6.695  67.963  1.00  0.00    -0.022 OA 
HETATM   19  C   UNL     4     -11.588  10.428  69.862  1.00  0.00    -0.358 A  
HETATM   20  C   UNL     3      -6.412   8.929  71.334  1.00  0.00    -0.076 A  
HETATM   21  C   UNL     3      -5.634   7.888  71.821  1.00  0.00    -0.035 A  
HETATM   22  O   UNL     4     -12.158   6.420  72.513  1.00  0.00    -0.175 OA 
HETATM   23  C   UNL     5      -7.311  11.206  67.129  1.00  0.00    -0.121 A  
HETATM   24  C   UNL     4     -10.601  10.945  70.691  1.00  0.00     1.026 A  
HETATM   25  C   UNL     5      -6.012  11.551  67.454  1.00  0.00    -0.082 A  
HETATM   26  C   UNL     4     -10.242  10.265  71.857  1.00  0.00     3.610 A  
HETATM   27  C   UNL     3      -6.162   6.585  71.899  1.00  0.00    -0.042 A  
HETATM   28  C   UNL     4     -10.801   9.018  72.159  1.00  0.00    -0.237 A  
HETATM   29  C   UNL     5      -5.134  10.610  67.949  1.00  0.00    -0.037 A  
HETATM   30  C   UNL     3      -7.460   6.287  71.477  1.00  0.00    -0.090 A  
HETATM   31  C   UNL     4     -11.731   8.441  71.294  1.00  0.00    -0.325 A  
HETATM   32  C   UNL     3      -7.947   4.891  71.349  1.00  0.00    -0.105 C  
HETATM   33  C   UNL     5      -5.579   9.324  68.142  1.00  0.00    -0.038 A  
HETATM   34  C   UNL     5      -6.888   8.893  67.833  1.00  0.00    -0.070 A  
HETATM   35  O   UNL     3      -9.018   4.691  70.659  1.00  0.00    -0.110 OA 
HETATM   36  C   UNL     4     -12.170   6.996  71.400  1.00  0.00    -0.366 C  
HETATM   37  O   UNL     3      -7.283   3.937  71.945  1.00  0.00    -0.053 OA 
HETATM   38  O   UNL     4     -12.702   6.595  70.286  1.00  0.00     0.119 OA 
ENDROOT
BRANCH   3  39
HETATM   39  C   UNL     2      -8.089   5.751  66.051  1.00  0.00    -0.110 C  
BRANCH  39  40
HETATM   40  C   UNL     2      -7.413   5.018  64.886  1.00  0.00    -0.076 C  
HETATM   41  O   UNL     2      -6.042   4.781  65.134  1.00  0.00    -0.028 OA 
HETATM   42  H   UNL     2      -5.623   4.326  64.413  1.00  0.00     0.000 HD 
ENDBRANCH  39  40
ENDBRANCH   3  39
TORSDOF 2
ENDMDL
MODEL       67
REMARK 921   NORMALIZED FREE ENERGY PREDICTED BY IDOCK:    7.02 KCAL/MOL
REMARK 922        TOTAL FREE ENERGY PREDICTED BY IDOCK:    7.55 KCAL/MOL
REMARK 923 INTER-LIGAND FREE ENERGY PREDICTED BY IDOCK:    7.08 KCAL/MOL
REMARK 924 INTRA-LIGAND FREE ENERGY PREDICTED BY IDOCK:    0.47 KCAL/MOL
REMARK 927      BINDING AFFINITY PREDICTED BY RF-SCORE:    0.00 PKD
ROOT
HETATM    1 MG   UNL     1     -12.530   9.988  65.349  1.00  0.00     2.819 Mg 
HETATM    2  C   UNL     2     -12.830   8.697  69.416  1.00  0.00     3.864 C  
HETATM    3  N   UNL     2     -11.372   8.862  69.176  1.00  0.00     0.278 N  
HETATM    4  O   UNL     3     -10.381  13.048  67.190  1.00  0.00    -0.240 OA 
HETATM    5  C   UNL     2     -10.595   7.590  68.971  1.00  0.00    -0.180 C  
HETATM    6  C   UNL     5      -8.606  10.913  69.042  1.00  0.00    -0.103 C  
HETATM    7  C   UNL     3      -9.118  13.550  67.475  1.00  0.00    -0.214 A  
HETATM    8  C   UNL     2     -11.379   9.785  67.976  1.00  0.00     0.174 C  
HETATM    9  O   UNL     4     -12.966  11.445  64.448  1.00  0.00     0.313 OA 
HETATM   10  H   UNL     3     -11.097  13.438  67.677  1.00  0.00     0.000 HD 
HETATM   11  C   UNL     3      -8.059  12.975  66.755  1.00  0.00     0.172 A  
HETATM   12  H   UNL     4     -13.663  11.965  64.830  1.00  0.00     0.000 HD 
HETATM   13  O   UNL     5      -9.426   8.705  66.568  1.00  0.00    -0.180 OA 
HETATM   14  O   UNL     5      -9.767  11.291  68.806  1.00  0.00    -0.205 OA 
HETATM   15  C   UNL     4     -11.723  12.033  64.252  1.00  0.00    -0.344 A  
HETATM   16  C   UNL     5      -8.163   9.158  66.977  1.00  0.00    -0.116 A  
HETATM   17  H   UNL     5     -10.093   9.141  67.085  1.00  0.00     0.000 HD 
HETATM   18  O   UNL     5      -8.055  11.003  70.202  1.00  0.00     0.563 OA 
HETATM   19  C   UNL     4     -10.699  11.268  63.691  1.00  0.00    -0.438 A  
HETATM   20  C   UNL     3      -6.747  13.278  67.089  1.00  0.00     0.272 A  
HETATM   21  C   UNL     3      -6.503  14.132  68.154  1.00  0.00    -0.127 A  
HETATM   22  O   UNL     4     -12.656  15.223  65.677  1.00  0.00     0.483 OA 
HETATM   23  C   UNL     5      -7.174   8.512  66.210  1.00  0.00    -0.078 A  
HETATM   24  C   UNL     4      -9.452  11.857  63.527  1.00  0.00    -0.079 A  
HETATM   25  C   UNL     5      -5.838   8.703  66.510  1.00  0.00    -0.051 A  
HETATM   26  C   UNL     4      -9.263  13.198  63.866  1.00  0.00     2.611 A  
HETATM   27  C   UNL     3      -7.575  14.687  68.878  1.00  0.00    -0.139 A  
HETATM   28  C   UNL     4     -10.295  13.939  64.456  1.00  0.00    -0.260 A  
HETATM   29  C   UNL     5      -5.458   9.529  67.545  1.00  0.00    -0.037 A  
HETATM   30  C   UNL     3      -8.906  14.388  68.575  1.00  0.00    -0.182 A  
HETATM   31  C   UNL     4     -11.528  13.340  64.709  1.00  0.00    -0.355 A  
HETATM   32  C   UNL     3     -10.027  14.787  69.461  1.00  0.00    -0.020 C  
HETATM   33  C   UNL     5      -6.431  10.185  68.262  1.00  0.00    -0.053 A  
HETATM   34  C   UNL     5      -7.814  10.040  68.020  1.00  0.00    -0.089 A  
HETATM   35  O   UNL     3     -11.165  14.207  69.285  1.00  0.00    -0.255 OA 
HETATM   36  C   UNL     4     -12.590  13.975  65.583  1.00  0.00    -0.512 C  
HETATM   37  O   UNL     3      -9.817  15.709  70.362  1.00  0.00    -0.023 OA 
HETATM   38  O   UNL     4     -13.445  13.086  65.987  1.00  0.00     0.619 OA 
ENDROOT
BRANCH   3  39
HETATM   39  C   UNL     2     -10.702   9.553  70.451  1.00  0.00    -0.284 C  
BRANCH  39  40
HETATM   40  C   UNL     2     -10.687   8.755  71.761  1.00  0.00    -0.343 C  
HETATM   41  O   UNL     2     -10.131   7.467  71.589  1.00  0.00    -0.180 OA 
HETATM   42  H   UNL     2     -10.122   6.972  72.400  1.00  0.00     0.000 HD 
ENDBRANCH  39  40
ENDBRANCH   3  39
TORSDOF 2
ENDMDL
MODEL       68
REMARK 921   NORMALIZED FREE ENERGY PREDICTED BY IDOCK:    7.12 KCAL/MOL
REMARK 922        TOTAL FREE ENERGY PREDICTED BY IDOCK:    7.66 KCAL/MOL
REMARK 923 INTER-LIGAND FREE ENERGY PREDICTED BY IDOCK:    8.33 KCAL/MOL
REMARK 924 INTRA-LIGAND FREE ENERGY PREDICTED BY IDOCK:   -0.67 KCAL/MOL
REMARK 927      BINDING AFFINITY PREDICTED BY RF-SCORE:    0.00 PKD
ROOT
HETATM    1 MG   UNL     1     -12.389  10.445  66.904  1.00  0.00     0.623 Mg 
HETATM    2  C   UNL     2      -9.218   9.254  64.292  1.00  0.00     0.087 C  
HETATM    3  N   UNL     2      -8.918  10.670  64.632  1.00  0.00    -0.196 N  
HETATM    4  O   UNL     3      -9.127  11.435  69.304  1.00  0.00    -0.389 OA 
HETATM    5  C   UNL     2      -9.237  11.681  63.564  1.00  0.00     0.024 C  
HETATM    6  C   UNL     5      -7.538  12.966  66.800  1.00  0.00     0.407 C  
HETATM    7  C   UNL     3      -8.316  12.463  69.768  1.00  0.00     2.145 A  
HETATM    8  C   UNL     2      -9.721  10.837  65.905  1.00  0.00    -0.224 C  
HETATM    9  O   UNL     4     -12.899  10.032  68.546  1.00  0.00     1.582 OA 
HETATM   10  H   UNL     3      -8.801  10.556  69.452  1.00  0.00     0.000 HD 
HETATM   11  C   UNL     3      -8.798  13.763  69.549  1.00  0.00     1.032 A  
HETATM   12  H   UNL     4     -12.622   9.178  68.854  1.00  0.00     0.000 HD 
HETATM   13  O   UNL     5     -10.687  13.261  65.510  1.00  0.00    -0.280 OA 
HETATM   14  O   UNL     5      -8.008  11.869  67.151  1.00  0.00    -0.158 OA 
HETATM   15  C   UNL     4     -12.502  11.160  69.252  1.00  0.00     0.060 A  
HETATM   16  C   UNL     5      -9.780  14.262  65.886  1.00  0.00    -0.262 A  
HETATM   17  H   UNL     5     -10.304  12.411  65.695  1.00  0.00     0.000 HD 
HETATM   18  O   UNL     5      -6.293  13.148  66.529  1.00  0.00     0.837 OA 
HETATM   19  C   UNL     4     -12.908  12.416  68.799  1.00  0.00     1.726 A  
HETATM   20  C   UNL     3      -7.987  14.858  69.814  1.00  0.00     0.082 A  
HETATM   21  C   UNL     3      -6.695  14.644  70.271  1.00  0.00    -0.050 A  
HETATM   22  O   UNL     4     -10.559   9.331  71.695  1.00  0.00    -0.349 OA 
HETATM   23  C   UNL     5     -10.348  15.521  65.611  1.00  0.00    -0.407 A  
HETATM   24  C   UNL     4     -12.480  13.538  69.496  1.00  0.00    -0.054 A  
HETATM   25  C   UNL     5      -9.594  16.667  65.784  1.00  0.00    -0.151 A  
HETATM   26  C   UNL     4     -11.712  13.390  70.652  1.00  0.00    -0.003 A  
HETATM   27  C   UNL     3      -6.220  13.334  70.469  1.00  0.00     0.063 A  
HETATM   28  C   UNL     4     -11.288  12.123  71.073  1.00  0.00     1.895 A  
HETATM   29  C   UNL     5      -8.293  16.595  66.235  1.00  0.00    -0.360 A  
HETATM   30  C   UNL     3      -7.009  12.213  70.196  1.00  0.00     0.888 A  
HETATM   31  C   UNL     4     -11.635  10.991  70.337  1.00  0.00    -0.389 A  
HETATM   32  C   UNL     3      -6.450  10.838  70.189  1.00  0.00    -0.155 C  
HETATM   33  C   UNL     5      -7.762  15.364  66.537  1.00  0.00     0.302 A  
HETATM   34  C   UNL     5      -8.466  14.149  66.385  1.00  0.00     0.431 A  
HETATM   35  O   UNL     3      -7.146   9.912  69.623  1.00  0.00    -0.069 OA 
HETATM   36  C   UNL     4     -10.998   9.635  70.561  1.00  0.00    -0.313 C  
HETATM   37  O   UNL     3      -5.296  10.626  70.763  1.00  0.00    -0.079 OA 
HETATM   38  O   UNL     4     -11.176   8.869  69.528  1.00  0.00    -0.075 OA 
ENDROOT
BRANCH   3  39
HETATM   39  C   UNL     2      -7.350  10.829  64.895  1.00  0.00     0.238 C  
BRANCH  39  40
HETATM   40  C   UNL     2      -6.597   9.606  65.432  1.00  0.00    -0.082 C  
HETATM   41  O   UNL     2      -5.797   9.927  66.553  1.00  0.00    -0.052 OA 
HETATM   42  H   UNL     2      -5.330   9.170  66.885  1.00  0.00     0.000 HD 
ENDBRANCH  39  40
ENDBRANCH   3  39
TORSDOF 2
ENDMDL
MODEL       69
REMARK 921   NORMALIZED FREE ENERGY PREDICTED BY IDOCK:    7.20 KCAL/MOL
REMARK 922        TOTAL FREE ENERGY PREDICTED BY IDOCK:    7.75 KCAL/MOL
REMARK 923 INTER-LIGAND FREE ENERGY PREDICTED BY IDOCK:    8.30 KCAL/MOL
REMARK 924 INTRA-LIGAND FREE ENERGY PREDICTED BY IDOCK:   -0.54 KCAL/MOL
REMARK 927      BINDING AFFINITY PREDICTED BY RF-SCORE:    0.00 PKD
ROOT
HETATM    1 MG   UNL     1     -11.951   8.200  72.332  1.00  0.00    -0.265 Mg 
HETATM    2  C   UNL     2     -12.636   9.960  68.494  1.00  0.00     3.464 C  
HETATM    3  N   UNL     2     -11.158   9.969  68.657  1.00  0.00    -0.208 N  
HETATM    4  O   UNL     3      -9.515   5.737  70.013  1.00  0.00    -0.152 OA 
HETATM    5  C   UNL     2     -10.547  11.299  69.008  1.00  0.00    -0.208 C  
HETATM    6  C   UNL     5      -8.141   8.322  68.412  1.00  0.00    -0.127 C  
HETATM    7  C   UNL     3      -8.213   5.457  69.618  1.00  0.00    -0.100 A  
HETATM    8  C   UNL     2     -10.979   8.905  69.718  1.00  0.00    -0.156 C  
HETATM    9  O   UNL     4     -12.141   6.591  73.038  1.00  0.00    -0.263 OA 
HETATM   10  H   UNL     3     -10.198   5.319  69.502  1.00  0.00     0.000 HD 
HETATM   11  C   UNL     3      -7.203   6.075  70.374  1.00  0.00    -0.083 A  
HETATM   12  H   UNL     4     -12.781   6.033  72.613  1.00  0.00     0.000 HD 
HETATM   13  O   UNL     5      -9.114  10.051  71.193  1.00  0.00    -0.088 OA 
HETATM   14  O   UNL     5      -9.227   7.759  68.634  1.00  0.00    -0.139 OA 
HETATM   15  C   UNL     4     -10.822   6.161  73.109  1.00  0.00    -0.254 A  
HETATM   16  C   UNL     5      -7.826   9.835  70.682  1.00  0.00     0.059 A  
HETATM   17  H   UNL     5      -9.744   9.598  70.644  1.00  0.00     0.000 HD 
HETATM   18  O   UNL     5      -7.646   8.463  67.232  1.00  0.00    -0.094 OA 
HETATM   19  C   UNL     4      -9.880   6.980  73.733  1.00  0.00    -0.341 A  
HETATM   20  C   UNL     3      -5.882   6.003  69.955  1.00  0.00    -0.017 A  
HETATM   21  C   UNL     3      -5.584   5.338  68.774  1.00  0.00    -0.015 A  
HETATM   22  O   UNL     4     -11.396   3.087  71.292  1.00  0.00     2.821 OA 
HETATM   23  C   UNL     5      -6.892  10.507  71.495  1.00  0.00     1.838 A  
HETATM   24  C   UNL     4      -8.558   6.554  73.771  1.00  0.00    -0.134 A  
HETATM   25  C   UNL     5      -5.561  10.544  71.126  1.00  0.00    -0.040 A  
HETATM   26  C   UNL     4      -8.211   5.308  73.244  1.00  0.00    -0.111 A  
HETATM   27  C   UNL     3      -6.610   4.740  68.019  1.00  0.00    -0.046 A  
HETATM   28  C   UNL     4      -9.165   4.515  72.594  1.00  0.00    -0.145 A  
HETATM   29  C   UNL     5      -5.130   9.922  69.974  1.00  0.00    -0.037 A  
HETATM   30  C   UNL     3      -7.950   4.809  68.407  1.00  0.00    -0.084 A  
HETATM   31  C   UNL     4     -10.479   4.965  72.469  1.00  0.00    -0.262 A  
HETATM   32  C   UNL     3      -9.054   4.377  67.514  1.00  0.00    -0.129 C  
HETATM   33  C   UNL     5      -6.043   9.237  69.208  1.00  0.00    -0.041 A  
HETATM   34  C   UNL     5      -7.419   9.155  69.516  1.00  0.00    -0.077 A  
HETATM   35  O   UNL     3     -10.248   4.766  67.807  1.00  0.00    -0.108 OA 
HETATM   36  C   UNL     4     -11.492   4.309  71.554  1.00  0.00     2.192 C  
HETATM   37  O   UNL     3      -8.772   3.620  66.488  1.00  0.00    -0.111 OA 
HETATM   38  O   UNL     4     -12.478   5.116  71.306  1.00  0.00     2.441 OA 
ENDROOT
BRANCH   3  39
HETATM   39  C   UNL     2     -10.471   9.551  67.277  1.00  0.00    -0.262 C  
BRANCH  39  40
HETATM   40  C   UNL     2     -10.188  10.666  66.263  1.00  0.00    -0.245 C  
HETATM   41  O   UNL     2      -8.801  10.861  66.066  1.00  0.00    -0.176 OA 
HETATM   42  H   UNL     2      -8.625  11.552  65.438  1.00  0.00     0.000 HD 
ENDBRANCH  39  40
ENDBRANCH   3  39
TORSDOF 2
ENDMDL
MODEL       70
REMARK 921   NORMALIZED FREE ENERGY PREDICTED BY IDOCK:    7.81 KCAL/MOL
REMARK 922        TOTAL FREE ENERGY PREDICTED BY IDOCK:    8.43 KCAL/MOL
REMARK 923 INTER-LIGAND FREE ENERGY PREDICTED BY IDOCK:    8.73 KCAL/MOL
REMARK 924 INTRA-LIGAND FREE ENERGY PREDICTED BY IDOCK:   -0.30 KCAL/MOL
REMARK 927      BINDING AFFINITY PREDICTED BY RF-SCORE:    0.00 PKD
ROOT
HETATM    1 MG   UNL     1      -7.004  15.314  69.084  1.00  0.00    -0.102 Mg 
HETATM    2  C   UNL     2      -5.183  12.528  66.397  1.00  0.00     1.260 C  
HETATM    3  N   UNL     2      -6.429  11.857  66.852  1.00  0.00    -0.132 N  
HETATM    4  O   UNL     3     -10.197  14.705  66.474  1.00  0.00    -0.266 OA 
HETATM    5  C   UNL     2      -6.249  10.775  67.883  1.00  0.00    -0.054 C  
HETATM    6  C   UNL     5      -9.828  11.388  66.532  1.00  0.00    -0.208 C  
HETATM    7  C   UNL     3     -11.408  14.054  66.278  1.00  0.00    -0.333 A  
HETATM    8  C   UNL     2      -7.236  13.044  67.334  1.00  0.00    -0.116 C  
HETATM    9  O   UNL     4      -7.769  16.901  68.934  1.00  0.00    -0.238 OA 
HETATM   10  H   UNL     3      -9.811  15.096  65.700  1.00  0.00     0.000 HD 
HETATM   11  C   UNL     3     -11.980  13.475  67.423  1.00  0.00    -0.398 A  
HETATM   12  H   UNL     4      -7.501  17.413  68.181  1.00  0.00     0.000 HD 
HETATM   13  O   UNL     5      -8.293  12.010  69.520  1.00  0.00     0.121 OA 
HETATM   14  O   UNL     5      -9.239  12.446  66.244  1.00  0.00    -0.219 OA 
HETATM   15  C   UNL     4      -9.112  16.577  69.079  1.00  0.00    -0.229 A  
HETATM   16  C   UNL     5      -9.449  11.264  69.249  1.00  0.00     0.202 A  
HETATM   17  H   UNL     5      -7.968  12.381  68.708  1.00  0.00     0.000 HD 
HETATM   18  O   UNL     5     -10.075  10.461  65.674  1.00  0.00    -0.259 OA 
HETATM   19  C   UNL     4      -9.507  15.825  70.186  1.00  0.00     0.399 A  
HETATM   20  C   UNL     3     -13.093  12.656  67.304  1.00  0.00     3.632 A  
HETATM   21  C   UNL     3     -13.610  12.400  66.043  1.00  0.00     5.115 A  
HETATM   22  O   UNL     4     -10.151  18.164  66.000  1.00  0.00    -0.495 OA 
HETATM   23  C   UNL     5      -9.932  10.714  70.453  1.00  0.00     0.800 A  
HETATM   24  C   UNL     4     -10.847  15.480  70.305  1.00  0.00    -0.358 A  
HETATM   25  C   UNL     5     -10.999   9.835  70.428  1.00  0.00    -0.371 A  
HETATM   26  C   UNL     4     -11.770  15.934  69.361  1.00  0.00    -0.350 A  
HETATM   27  C   UNL     3     -13.016  12.974  64.903  1.00  0.00    -0.218 A  
HETATM   28  C   UNL     4     -11.350  16.661  68.240  1.00  0.00    -0.121 A  
HETATM   29  C   UNL     5     -11.607   9.497  69.238  1.00  0.00     0.281 A  
HETATM   30  C   UNL     3     -11.885  13.790  64.990  1.00  0.00    -0.381 A  
HETATM   31  C   UNL     4      -9.996  16.942  68.058  1.00  0.00    -0.279 A  
HETATM   32  C   UNL     3     -11.125  14.216  63.789  1.00  0.00     0.712 C  
HETATM   33  C   UNL     5     -11.152  10.070  68.074  1.00  0.00    -0.263 A  
HETATM   34  C   UNL     5     -10.068  10.973  68.016  1.00  0.00    -0.198 A  
HETATM   35  O   UNL     3      -9.937  14.685  63.968  1.00  0.00     1.013 OA 
HETATM   36  C   UNL     4      -9.432  17.471  66.757  1.00  0.00    -0.275 C  
HETATM   37  O   UNL     3     -11.691  14.110  62.617  1.00  0.00     1.194 OA 
HETATM   38  O   UNL     4      -8.150  17.272  66.697  1.00  0.00    -0.222 OA 
ENDROOT
BRANCH   3  39
HETATM   39  C   UNL     2      -7.123  11.133  65.610  1.00  0.00     0.272 C  
BRANCH  39  40
HETATM   40  C   UNL     2      -6.507   9.814  65.127  1.00  0.00    -0.095 C  
HETATM   41  O   UNL     2      -6.953   9.466  63.831  1.00  0.00    -0.091 OA 
HETATM   42  H   UNL     2      -6.572   8.649  63.531  1.00  0.00     0.000 HD 
ENDBRANCH  39  40
ENDBRANCH   3  39
TORSDOF 2
ENDMDL
MODEL       71
REMARK 921   NORMALIZED FREE ENERGY PREDICTED BY IDOCK:    8.84 KCAL/MOL
REMARK 922        TOTAL FREE ENERGY PREDICTED BY IDOCK:    9.58 KCAL/MOL
REMARK 923 INTER-LIGAND FREE ENERGY PREDICTED BY IDOCK:    8.02 KCAL/MOL
REMARK 924 INTRA-LIGAND FREE ENERGY PREDICTED BY IDOCK:    1.56 KCAL/MOL
REMARK 927      BINDING AFFINITY PREDICTED BY RF-SCORE:    0.00 PKD
ROOT
HETATM    1 MG   UNL     1     -12.796   7.930  68.910  1.00  0.00     1.769 Mg 
HETATM    2  C   UNL     2     -12.029   9.306  72.887  1.00  0.00     1.125 C  
HETATM    3  N   UNL     2     -11.146   8.122  72.718  1.00  0.00    -0.382 N  
HETATM    4  O   UNL     3      -8.654   8.351  68.694  1.00  0.00    -0.130 OA 
HETATM    5  C   UNL     2     -11.611   6.858  73.389  1.00  0.00     0.599 C  
HETATM    6  C   UNL     5      -8.176   6.778  71.599  1.00  0.00    -0.110 C  
HETATM    7  C   UNL     3      -7.432   7.691  68.720  1.00  0.00    -0.100 A  
HETATM    8  C   UNL     2     -11.071   8.032  71.209  1.00  0.00    -0.247 C  
HETATM    9  O   UNL     4     -12.493   8.542  67.279  1.00  0.00     5.523 OA 
HETATM   10  H   UNL     3      -8.612   9.295  68.785  1.00  0.00     0.000 HD 
HETATM   11  C   UNL     3      -7.494   6.294  68.586  1.00  0.00    -0.088 A  
HETATM   12  H   UNL     4     -12.400   9.484  67.209  1.00  0.00     0.000 HD 
HETATM   13  O   UNL     5     -11.231   5.414  70.908  1.00  0.00    -0.055 OA 
HETATM   14  O   UNL     5      -8.732   7.767  71.087  1.00  0.00    -0.131 OA 
HETATM   15  C   UNL     4     -11.440   7.733  66.871  1.00  0.00     1.773 A  
HETATM   16  C   UNL     5      -9.987   4.785  71.062  1.00  0.00    -0.209 A  
HETATM   17  H   UNL     5     -11.115   6.354  70.999  1.00  0.00     0.000 HD 
HETATM   18  O   UNL     5      -7.270   6.869  72.509  1.00  0.00    -0.080 OA 
HETATM   19  C   UNL     4     -11.577   6.348  66.974  1.00  0.00     0.560 A  
HETATM   20  C   UNL     3      -6.352   5.528  68.775  1.00  0.00    -0.038 A  
HETATM   21  C   UNL     3      -5.167   6.160  69.122  1.00  0.00    -0.004 A  
HETATM   22  O   UNL     4      -9.257  10.480  65.992  1.00  0.00    -0.165 OA 
HETATM   23  C   UNL     5     -10.158   3.394  70.927  1.00  0.00     0.204 A  
HETATM   24  C   UNL     4     -10.506   5.549  66.591  1.00  0.00    -0.355 A  
HETATM   25  C   UNL     5      -9.092   2.545  71.159  1.00  0.00    -0.179 A  
HETATM   26  C   UNL     4      -9.353   6.135  66.063  1.00  0.00    -0.085 A  
HETATM   27  C   UNL     3      -5.125   7.559  69.271  1.00  0.00    -0.015 A  
HETATM   28  C   UNL     4      -9.223   7.528  65.997  1.00  0.00    -0.102 A  
HETATM   29  C   UNL     5      -7.856   3.043  71.511  1.00  0.00    -0.056 A  
HETATM   30  C   UNL     3      -6.262   8.354  69.102  1.00  0.00    -0.043 A  
HETATM   31  C   UNL     4     -10.253   8.348  66.458  1.00  0.00    -0.277 A  
HETATM   32  C   UNL     3      -6.281   9.792  69.469  1.00  0.00    -0.044 C  
HETATM   33  C   UNL     5      -7.691   4.405  71.601  1.00  0.00    -0.078 A  
HETATM   34  C   UNL     5      -8.730   5.336  71.383  1.00  0.00    -0.137 A  
HETATM   35  O   UNL     3      -7.431  10.364  69.588  1.00  0.00    -0.136 OA 
HETATM   36  C   UNL     4     -10.086   9.836  66.678  1.00  0.00    -0.237 C  
HETATM   37  O   UNL     3      -5.145  10.411  69.643  1.00  0.00    -0.038 OA 
HETATM   38  O   UNL     4     -11.012  10.291  67.466  1.00  0.00    -0.297 OA 
ENDROOT
BRANCH   3  39
HETATM   39  C   UNL     2      -9.718   8.432  73.365  1.00  0.00     0.283 C  
BRANCH  39  40
HETATM   40  C   UNL     2      -9.281   7.571  74.557  1.00  0.00     0.152 C  
HETATM   41  O   UNL     2      -9.511   6.195  74.328  1.00  0.00    -0.149 OA 
HETATM   42  H   UNL     2      -9.241   5.662  75.066  1.00  0.00     0.000 HD 
ENDBRANCH  39  40
ENDBRANCH   3  39
TORSDOF 2
ENDMDL
MODEL       72
REMARK 921   NORMALIZED FREE ENERGY PREDICTED BY IDOCK:   10.09 KCAL/MOL
REMARK 922        TOTAL FREE ENERGY PREDICTED BY IDOCK:   10.98 KCAL/MOL
REMARK 923 INTER-LIGAND FREE ENERGY PREDICTED BY IDOCK:    7.08 KCAL/MOL
REMARK 924 INTRA-LIGAND FREE ENERGY PREDICTED BY IDOCK:    3.91 KCAL/MOL
REMARK 927      BINDING AFFINITY PREDICTED BY RF-SCORE:    0.00 PKD
ROOT
HETATM    1 MG   UNL     1     -10.669  15.434  66.264  1.00  0.00    -0.269 Mg 
HETATM    2  C   UNL     2     -11.948  12.281  63.671  1.00  0.00    -0.543 C  
HETATM    3  N   UNL     2     -10.746  11.741  64.360  1.00  0.00    -0.305 N  
HETATM    4  O   UNL     3     -10.991  12.353  69.053  1.00  0.00    -0.275 OA 
HETATM    5  C   UNL     2      -9.481  11.716  63.546  1.00  0.00    -0.172 C  
HETATM    6  C   UNL     5      -9.351  10.195  67.106  1.00  0.00    -0.153 C  
HETATM    7  C   UNL     3     -10.300  11.412  69.806  1.00  0.00     0.487 A  
HETATM    8  C   UNL     2     -10.683  12.641  65.576  1.00  0.00    -0.274 C  
HETATM    9  O   UNL     4     -11.304  16.212  67.718  1.00  0.00    -0.257 OA 
HETATM   10  H   UNL     3     -11.932  12.233  69.009  1.00  0.00     0.000 HD 
HETATM   11  C   UNL     3      -8.908  11.589  69.870  1.00  0.00     1.871 A  
HETATM   12  H   UNL     4     -12.245  16.155  67.832  1.00  0.00     0.000 HD 
HETATM   13  O   UNL     5      -8.077  13.038  65.706  1.00  0.00     1.031 OA 
HETATM   14  O   UNL     5     -10.363  10.917  67.151  1.00  0.00    -0.201 OA 
HETATM   15  C   UNL     4     -10.478  15.682  68.700  1.00  0.00    -0.231 A  
HETATM   16  C   UNL     5      -7.414  11.998  66.374  1.00  0.00     0.371 A  
HETATM   17  H   UNL     5      -9.011  12.862  65.709  1.00  0.00     0.000 HD 
HETATM   18  O   UNL     5      -9.401   8.915  66.975  1.00  0.00    -0.141 OA 
HETATM   19  C   UNL     4      -9.095  15.766  68.533  1.00  0.00    -0.194 A  
HETATM   20  C   UNL     3      -8.111  10.610  70.445  1.00  0.00     1.246 A  
HETATM   21  C   UNL     3      -8.706   9.453  70.928  1.00  0.00    -0.145 A  
HETATM   22  O   UNL     4     -13.186  14.462  70.764  1.00  0.00    -0.353 OA 
HETATM   23  C   UNL     5      -6.030  12.260  66.368  1.00  0.00     1.011 A  
HETATM   24  C   UNL     4      -8.277  15.205  69.506  1.00  0.00    -0.160 A  
HETATM   25  C   UNL     5      -5.150  11.315  66.863  1.00  0.00    -0.084 A  
HETATM   26  C   UNL     4      -8.844  14.629  70.645  1.00  0.00     2.224 A  
HETATM   27  C   UNL     3     -10.100   9.283  70.840  1.00  0.00    -0.373 A  
HETATM   28  C   UNL     4     -10.235  14.526  70.779  1.00  0.00     1.314 A  
HETATM   29  C   UNL     5      -5.611  10.120  67.374  1.00  0.00    -0.041 A  
HETATM   30  C   UNL     3     -10.927  10.244  70.251  1.00  0.00    -0.375 A  
HETATM   31  C   UNL     4     -11.070  15.005  69.771  1.00  0.00    -0.297 A  
HETATM   32  C   UNL     3     -12.357   9.981  69.956  1.00  0.00     0.083 C  
HETATM   33  C   UNL     5      -6.966   9.892  67.409  1.00  0.00    -0.083 A  
HETATM   34  C   UNL     5      -7.928  10.805  66.922  1.00  0.00    -0.133 A  
HETATM   35  O   UNL     3     -12.955  10.778  69.137  1.00  0.00     0.046 OA 
HETATM   36  C   UNL     4     -12.550  14.689  69.708  1.00  0.00    -0.121 C  
HETATM   37  O   UNL     3     -12.944   8.972  70.541  1.00  0.00     0.271 OA 
HETATM   38  O   UNL     4     -13.013  14.893  68.512  1.00  0.00     0.867 OA 
ENDROOT
BRANCH   3  39
HETATM   39  C   UNL     2     -11.007  10.218  64.764  1.00  0.00     1.202 C  
BRANCH  39  40
HETATM   40  C   UNL     2      -9.797   9.277  64.789  1.00  0.00     0.593 C  
HETATM   41  O   UNL     2      -9.276   9.051  63.494  1.00  0.00    -0.358 OA 
HETATM   42  H   UNL     2      -8.527   8.467  63.509  1.00  0.00     0.000 HD 
ENDBRANCH  39  40
ENDBRANCH   3  39
TORSDOF 2
ENDMDL
MODEL       73
REMARK 921   NORMALIZED FREE ENERGY PREDICTED BY IDOCK:   10.22 KCAL/MOL
REMARK 922        TOTAL FREE ENERGY PREDICTED BY IDOCK:   11.12 KCAL/MOL
REMARK 923 INTER-LIGAND FREE ENERGY PREDICTED BY IDOCK:   11.69 KCAL/MOL
REMARK 924 INTRA-LIGAND FREE ENERGY PREDICTED BY IDOCK:   -0.57 KCAL/MOL
REMARK 927      BINDING AFFINITY PREDICTED BY RF-SCORE:    0.00 PKD
ROOT
HETATM    1 MG   UNL     1      -5.128   7.750  68.172  1.00  0.00    -0.020 Mg 
HETATM    2  C   UNL     2      -5.146   8.506  72.383  1.00  0.00    -0.039 C  
HETATM    3  N   UNL     2      -6.114   9.484  71.818  1.00  0.00     0.020 N  
HETATM    4  O   UNL     3      -9.217   7.401  68.905  1.00  0.00    -0.143 OA 
HETATM    5  C   UNL     2      -5.619  10.900  71.702  1.00  0.00     0.291 C  
HETATM    6  C   UNL     5      -9.300  10.201  70.719  1.00  0.00     0.938 C  
HETATM    7  C   UNL     3     -10.454   8.026  68.819  1.00  0.00    -0.173 A  
HETATM    8  C   UNL     2      -6.442   8.831  70.492  1.00  0.00    -0.040 C  
HETATM    9  O   UNL     4      -5.660   6.432  67.121  1.00  0.00    -0.011 OA 
HETATM   10  H   UNL     3      -9.188   6.622  69.447  1.00  0.00     0.000 HD 
HETATM   11  C   UNL     3     -10.498   9.178  68.017  1.00  0.00    -0.276 A  
HETATM   12  H   UNL     4      -5.708   5.578  67.533  1.00  0.00     0.000 HD 
HETATM   13  O   UNL     5      -6.487  10.965  68.940  1.00  0.00    -0.044 OA 
HETATM   14  O   UNL     5      -8.780   9.072  70.663  1.00  0.00    -0.173 OA 
HETATM   15  C   UNL     4      -6.811   6.971  66.561  1.00  0.00    -0.061 A  
HETATM   16  C   UNL     5      -7.723  11.626  68.982  1.00  0.00    -0.002 A  
HETATM   17  H   UNL     5      -6.531  10.193  69.492  1.00  0.00     0.000 HD 
HETATM   18  O   UNL     5     -10.037  10.591  71.700  1.00  0.00     2.359 OA 
HETATM   19  C   UNL     4      -6.741   8.227  65.956  1.00  0.00    -0.057 A  
HETATM   20  C   UNL     3     -11.635   9.973  68.006  1.00  0.00     0.361 A  
HETATM   21  C   UNL     3     -12.708   9.626  68.814  1.00  0.00     3.762 A  
HETATM   22  O   UNL     4      -8.945   4.210  67.512  1.00  0.00    -0.111 OA 
HETATM   23  C   UNL     5      -7.657  12.771  68.164  1.00  0.00    -0.134 A  
HETATM   24  C   UNL     4      -7.904   8.769  65.426  1.00  0.00    -0.100 A  
HETATM   25  C   UNL     5      -8.719  13.657  68.136  1.00  0.00    -0.177 A  
HETATM   26  C   UNL     4      -9.092   8.036  65.455  1.00  0.00     0.010 A  
HETATM   27  C   UNL     3     -12.642   8.478  69.626  1.00  0.00     2.402 A  
HETATM   28  C   UNL     4      -9.150   6.791  66.095  1.00  0.00    -0.138 A  
HETATM   29  C   UNL     5      -9.848  13.429  68.892  1.00  0.00     0.074 A  
HETATM   30  C   UNL     3     -11.505   7.667  69.669  1.00  0.00     0.220 A  
HETATM   31  C   UNL     4      -8.012   6.269  66.709  1.00  0.00    -0.108 A  
HETATM   32  C   UNL     3     -11.341   6.590  70.677  1.00  0.00    -0.351 C  
HETATM   33  C   UNL     5      -9.917  12.289  69.657  1.00  0.00     1.266 A  
HETATM   34  C   UNL     5      -8.875  11.339  69.741  1.00  0.00     1.118 A  
HETATM   35  O   UNL     3     -10.156   6.114  70.857  1.00  0.00    -0.185 OA 
HETATM   36  C   UNL     4      -8.053   5.081  67.647  1.00  0.00    -0.098 C  
HETATM   37  O   UNL     3     -12.395   6.167  71.322  1.00  0.00     0.017 OA 
HETATM   38  O   UNL     4      -6.985   5.039  68.383  1.00  0.00    -0.054 OA 
ENDROOT
BRANCH   3  39
HETATM   39  C   UNL     2      -7.394   9.570  72.769  1.00  0.00     1.632 C  
BRANCH  39  40
HETATM   40  C   UNL     2      -7.570   8.466  73.818  1.00  0.00    -0.099 C  
HETATM   41  O   UNL     2      -8.745   7.711  73.598  1.00  0.00    -0.181 OA 
HETATM   42  H   UNL     2      -8.855   7.027  74.247  1.00  0.00     0.000 HD 
ENDBRANCH  39  40
ENDBRANCH   3  39
TORSDOF 2
ENDMDL
MODEL       74
REMARK 921   NORMALIZED FREE ENERGY PREDICTED BY IDOCK:   10.89 KCAL/MOL
REMARK 922        TOTAL FREE ENERGY PREDICTED BY IDOCK:   11.87 KCAL/MOL
REMARK 923 INTER-LIGAND FREE ENERGY PREDICTED BY IDOCK:   12.15 KCAL/MOL
REMARK 924 INTRA-LIGAND FREE ENERGY PREDICTED BY IDOCK:   -0.28 KCAL/MOL
REMARK 927      BINDING AFFINITY PREDICTED BY RF-SCORE:    0.00 PKD
ROOT
HETATM    1 MG   UNL     1      -6.036  13.967  66.940  1.00  0.00    -0.037 Mg 
HETATM    2  C   UNL     2      -8.413  16.961  68.858  1.00  0.00    -0.202 C  
HETATM    3  N   UNL     2      -9.375  16.186  68.031  1.00  0.00    -0.202 N  
HETATM    4  O   UNL     3      -8.910  11.519  68.708  1.00  0.00    -0.300 OA 
HETATM    5  C   UNL     2      -9.817  16.845  66.753  1.00  0.00    -0.279 C  
HETATM    6  C   UNL     5     -11.430  13.444  67.667  1.00  0.00    -0.319 C  
HETATM    7  C   UNL     3     -10.066  10.777  68.503  1.00  0.00    -0.176 A  
HETATM    8  C   UNL     2      -8.608  14.896  67.830  1.00  0.00    -0.160 C  
HETATM    9  O   UNL     4      -5.143  12.533  67.462  1.00  0.00    -0.089 OA 
HETATM   10  H   UNL     3      -8.683  11.684  69.615  1.00  0.00     0.000 HD 
HETATM   11  C   UNL     3     -10.402  10.534  67.161  1.00  0.00    -0.285 A  
HETATM   12  H   UNL     4      -4.864  12.536  68.370  1.00  0.00     0.000 HD 
HETATM   13  O   UNL     5      -9.176  14.426  65.296  1.00  0.00    -0.213 OA 
HETATM   14  O   UNL     5     -10.396  13.454  68.358  1.00  0.00    -0.242 OA 
HETATM   15  C   UNL     4      -5.974  11.512  67.020  1.00  0.00    -0.125 A  
HETATM   16  C   UNL     5     -10.410  13.780  65.140  1.00  0.00    -0.372 A  
HETATM   17  H   UNL     5      -9.006  14.548  66.223  1.00  0.00     0.000 HD 
HETATM   18  O   UNL     5     -12.600  13.693  68.142  1.00  0.00     0.133 OA 
HETATM   19  C   UNL     4      -6.384  11.508  65.686  1.00  0.00     0.857 A  
HETATM   20  C   UNL     3     -11.624   9.958  66.846  1.00  0.00     1.641 A  
HETATM   21  C   UNL     3     -12.510   9.654  67.869  1.00  0.00     5.480 A  
HETATM   22  O   UNL     4      -6.227   9.897  70.247  1.00  0.00    -0.060 OA 
HETATM   23  C   UNL     5     -10.661  13.600  63.765  1.00  0.00     0.524 A  
HETATM   24  C   UNL     4      -7.239  10.498  65.263  1.00  0.00    -0.051 A  
HETATM   25  C   UNL     5     -11.878  13.091  63.350  1.00  0.00    -0.543 A  
HETATM   26  C   UNL     4      -7.621   9.490  66.150  1.00  0.00    -0.100 A  
HETATM   27  C   UNL     3     -12.166   9.920  69.207  1.00  0.00     0.670 A  
HETATM   28  C   UNL     4      -7.225   9.530  67.493  1.00  0.00    -0.090 A  
HETATM   29  C   UNL     5     -12.849  12.746  64.267  1.00  0.00    -0.245 A  
HETATM   30  C   UNL     3     -10.950  10.513  69.554  1.00  0.00    -0.312 A  
HETATM   31  C   UNL     4      -6.437  10.583  67.957  1.00  0.00    -0.059 A  
HETATM   32  C   UNL     3     -10.671  10.997  70.929  1.00  0.00     1.734 C  
HETATM   33  C   UNL     5     -12.578  12.890  65.607  1.00  0.00    -0.268 A  
HETATM   34  C   UNL     5     -11.362  13.405  66.109  1.00  0.00    -0.324 A  
HETATM   35  O   UNL     3      -9.680  11.807  71.089  1.00  0.00     6.311 OA 
HETATM   36  C   UNL     4      -6.199  10.847  69.429  1.00  0.00    -0.063 C  
HETATM   37  O   UNL     3     -11.426  10.577  71.908  1.00  0.00     0.622 OA 
HETATM   38  O   UNL     4      -5.794  12.066  69.617  1.00  0.00    -0.083 OA 
ENDROOT
BRANCH   3  39
HETATM   39  C   UNL     2     -10.719  15.953  68.862  1.00  0.00    -0.254 C  
BRANCH  39  40
HETATM   40  C   UNL     2     -11.008  16.915  70.020  1.00  0.00     0.156 C  
HETATM   41  O   UNL     2     -11.564  16.248  71.135  1.00  0.00    -0.524 OA 
HETATM   42  H   UNL     2     -11.744  16.843  71.853  1.00  0.00     0.000 HD 
ENDBRANCH  39  40
ENDBRANCH   3  39
TORSDOF 2
ENDMDL
MODEL       75
REMARK 921   NORMALIZED FREE ENERGY PREDICTED BY IDOCK:   11.26 KCAL/MOL
REMARK 922        TOTAL FREE ENERGY PREDICTED BY IDOCK:   12.28 KCAL/MOL
REMARK 923 INTER-LIGAND FREE ENERGY PREDICTED BY IDOCK:   12.52 KCAL/MOL
REMARK 924 INTRA-LIGAND FREE ENERGY PREDICTED BY IDOCK:   -0.24 KCAL/MOL
REMARK 927      BINDING AFFINITY PREDICTED BY RF-SCORE:    0.00 PKD
ROOT
HETATM    1 MG   UNL     1      -7.506  12.917  65.961  1.00  0.00    -0.146 Mg 
HETATM    2  C   UNL     2      -5.145  15.227  68.679  1.00  0.00    -0.093 C  
HETATM    3  N   UNL     2      -6.310  16.093  68.358  1.00  0.00    -0.110 N  
HETATM    4  O   UNL     3     -10.411  13.766  68.828  1.00  0.00    -0.259 OA 
HETATM    5  C   UNL     2      -6.045  17.212  67.388  1.00  0.00    -0.147 C  
HETATM    6  C   UNL     5      -9.582  16.996  68.952  1.00  0.00    -0.248 C  
HETATM    7  C   UNL     3     -11.504  14.559  69.152  1.00  0.00    -0.294 A  
HETATM    8  C   UNL     2      -7.306  15.065  67.863  1.00  0.00    -0.143 C  
HETATM    9  O   UNL     4      -8.476  11.443  66.066  1.00  0.00    -0.291 OA 
HETATM   10  H   UNL     3     -10.036  13.270  69.547  1.00  0.00     0.000 HD 
HETATM   11  C   UNL     3     -12.058  15.292  68.090  1.00  0.00     0.052 A  
HETATM   12  H   UNL     4      -8.236  10.846  66.764  1.00  0.00     0.000 HD 
HETATM   13  O   UNL     5      -8.342  16.389  65.828  1.00  0.00    -0.278 OA 
HETATM   14  O   UNL     5      -9.131  15.850  69.130  1.00  0.00    -0.227 OA 
HETATM   15  C   UNL     4      -9.766  11.956  66.039  1.00  0.00    -0.237 A  
HETATM   16  C   UNL     5      -9.362  17.263  66.228  1.00  0.00    -0.223 A  
HETATM   17  H   UNL     5      -8.021  15.919  66.590  1.00  0.00     0.000 HD 
HETATM   18  O   UNL     5      -9.642  17.884  69.882  1.00  0.00     0.687 OA 
HETATM   19  C   UNL     4     -10.120  12.833  65.013  1.00  0.00    -0.239 A  
HETATM   20  C   UNL     3     -13.035  16.245  68.340  1.00  0.00     2.983 A  
HETATM   21  C   UNL     3     -13.432  16.476  69.649  1.00  0.00     4.589 A  
HETATM   22  O   UNL     4     -10.823  10.307  69.079  1.00  0.00    -0.207 OA 
HETATM   23  C   UNL     5      -9.837  17.960  65.099  1.00  0.00     1.590 A  
HETATM   24  C   UNL     4     -11.403  13.365  65.013  1.00  0.00    -0.330 A  
HETATM   25  C   UNL     5     -10.766  18.972  65.257  1.00  0.00     0.402 A  
HETATM   26  C   UNL     4     -12.320  12.974  65.991  1.00  0.00    -0.387 A  
HETATM   27  C   UNL     3     -12.854  15.746  70.705  1.00  0.00    -0.269 A  
HETATM   28  C   UNL     4     -11.936  12.117  67.031  1.00  0.00    -0.156 A  
HETATM   29  C   UNL     5     -11.244  19.303  66.507  1.00  0.00     0.155 A  
HETATM   30  C   UNL     3     -11.857  14.792  70.485  1.00  0.00    -0.362 A  
HETATM   31  C   UNL     4     -10.627  11.642  67.096  1.00  0.00    -0.269 A  
HETATM   32  C   UNL     3     -11.090  14.180  71.598  1.00  0.00     1.886 C  
HETATM   33  C   UNL     5     -10.803  18.591  67.596  1.00  0.00    -0.319 A  
HETATM   34  C   UNL     5      -9.854  17.547  67.519  1.00  0.00    -0.293 A  
HETATM   35  O   UNL     3      -9.993  13.568  71.305  1.00  0.00     5.681 OA 
HETATM   36  C   UNL     4     -10.062  10.948  68.318  1.00  0.00    -0.174 C  
HETATM   37  O   UNL     3     -11.560  14.277  72.813  1.00  0.00     0.551 OA 
HETATM   38  O   UNL     4      -8.764  10.966  68.297  1.00  0.00    -0.128 OA 
ENDROOT
BRANCH   3  39
HETATM   39  C   UNL     2      -6.816  16.814  69.691  1.00  0.00    -0.032 C  
BRANCH  39  40
HETATM   40  C   UNL     2      -6.308  18.235  69.962  1.00  0.00     0.040 C  
HETATM   41  O   UNL     2      -5.496  18.294  71.118  1.00  0.00    -0.234 OA 
HETATM   42  H   UNL     2      -5.182  19.175  71.286  1.00  0.00     0.000 HD 
ENDBRANCH  39  40
ENDBRANCH   3  39
TORSDOF 2
ENDMDL
MODEL       76
REMARK 921   NORMALIZED FREE ENERGY PREDICTED BY IDOCK:   11.46 KCAL/MOL
REMARK 922        TOTAL FREE ENERGY PREDICTED BY IDOCK:   12.51 KCAL/MOL
REMARK 923 INTER-LIGAND FREE ENERGY PREDICTED BY IDOCK:   12.86 KCAL/MOL
REMARK 924 INTRA-LIGAND FREE ENERGY PREDICTED BY IDOCK:   -0.35 KCAL/MOL
REMARK 927      BINDING AFFINITY PREDICTED BY RF-SCORE:    0.00 PKD
ROOT
HETATM    1 MG   UNL     1     -10.084   3.941  70.942  1.00  0.00    -0.157 Mg 
HETATM    2  C   UNL     2     -10.604   3.994  66.697  1.00  0.00     1.053 C  
HETATM    3  N   UNL     2     -11.020   5.349  67.147  1.00  0.00     0.018 N  
HETATM    4  O   UNL     3      -7.804   7.307  70.023  1.00  0.00    -0.107 OA 
HETATM    5  C   UNL     2     -12.504   5.595  67.197  1.00  0.00     7.436 C  
HETATM    6  C   UNL     5     -10.165   8.568  68.030  1.00  0.00    -0.213 C  
HETATM    7  C   UNL     3      -7.766   8.696  70.005  1.00  0.00    -0.080 A  
HETATM    8  C   UNL     2     -10.333   5.429  68.494  1.00  0.00    -0.149 C  
HETATM    9  O   UNL     4      -8.707   3.864  72.048  1.00  0.00    -0.097 OA 
HETATM   10  H   UNL     3      -7.116   6.871  69.535  1.00  0.00     0.000 HD 
HETATM   11  C   UNL     3      -8.783   9.341  70.727  1.00  0.00    -0.272 A  
HETATM   12  H   UNL     4      -7.920   3.470  71.690  1.00  0.00     0.000 HD 
HETATM   13  O   UNL     5     -12.236   6.597  69.900  1.00  0.00    -0.598 OA 
HETATM   14  O   UNL     5      -9.424   7.582  68.186  1.00  0.00    -0.143 OA 
HETATM   15  C   UNL     4      -8.649   5.172  72.512  1.00  0.00    -0.121 A  
HETATM   16  C   UNL     5     -12.226   7.992  69.751  1.00  0.00     1.318 A  
HETATM   17  H   UNL     5     -11.519   6.228  69.397  1.00  0.00     0.000 HD 
HETATM   18  O   UNL     5     -10.125   9.325  66.990  1.00  0.00    -0.209 OA 
HETATM   19  C   UNL     4      -9.805   5.750  73.037  1.00  0.00    -0.179 A  
HETATM   20  C   UNL     3      -8.939  10.716  70.628  1.00  0.00     2.270 A  
HETATM   21  C   UNL     3      -8.096  11.431  69.790  1.00  0.00     0.960 A  
HETATM   22  O   UNL     4      -5.176   5.663  71.632  1.00  0.00    -0.009 OA 
HETATM   23  C   UNL     5     -13.289   8.539  70.496  1.00  0.00     0.941 A  
HETATM   24  C   UNL     4      -9.744   7.069  73.470  1.00  0.00    -0.269 A  
HETATM   25  C   UNL     5     -13.562   9.892  70.412  1.00  0.00     0.430 A  
HETATM   26  C   UNL     4      -8.532   7.761  73.427  1.00  0.00    -0.248 A  
HETATM   27  C   UNL     3      -7.093  10.768  69.059  1.00  0.00    -0.091 A  
HETATM   28  C   UNL     4      -7.391   7.174  72.867  1.00  0.00    -0.074 A  
HETATM   29  C   UNL     5     -12.798  10.718  69.614  1.00  0.00     0.275 A  
HETATM   30  C   UNL     3      -6.922   9.383  69.127  1.00  0.00    -0.058 A  
HETATM   31  C   UNL     4      -7.455   5.881  72.347  1.00  0.00    -0.099 A  
HETATM   32  C   UNL     3      -6.022   8.652  68.201  1.00  0.00    -0.046 C  
HETATM   33  C   UNL     5     -11.740  10.179  68.922  1.00  0.00     0.036 A  
HETATM   34  C   UNL     5     -11.399   8.809  68.954  1.00  0.00     0.517 A  
HETATM   35  O   UNL     3      -6.163   7.373  68.113  1.00  0.00    -0.040 OA 
HETATM   36  C   UNL     4      -6.361   5.283  71.487  1.00  0.00    -0.034 C  
HETATM   37  O   UNL     3      -5.127   9.328  67.531  1.00  0.00    -0.036 OA 
HETATM   38  O   UNL     4      -6.811   4.270  70.812  1.00  0.00    -0.034 OA 
ENDROOT
BRANCH   3  39
HETATM   39  C   UNL     2     -10.455   6.441  66.128  1.00  0.00     0.386 C  
BRANCH  39  40
HETATM   40  C   UNL     2      -9.647   5.935  64.926  1.00  0.00     0.929 C  
HETATM   41  O   UNL     2      -8.574   6.799  64.609  1.00  0.00    -0.348 OA 
HETATM   42  H   UNL     2      -8.074   6.486  63.865  1.00  0.00     0.000 HD 
ENDBRANCH  39  40
ENDBRANCH   3  39
TORSDOF 2
ENDMDL
MODEL       77
REMARK 921   NORMALIZED FREE ENERGY PREDICTED BY IDOCK:   11.61 KCAL/MOL
REMARK 922        TOTAL FREE ENERGY PREDICTED BY IDOCK:   12.68 KCAL/MOL
REMARK 923 INTER-LIGAND FREE ENERGY PREDICTED BY IDOCK:   12.84 KCAL/MOL
REMARK 924 INTRA-LIGAND FREE ENERGY PREDICTED BY IDOCK:   -0.16 KCAL/MOL
REMARK 927      BINDING AFFINITY PREDICTED BY RF-SCORE:    0.00 PKD
ROOT
HETATM    1 MG   UNL     1     -12.809  11.429  70.796  1.00  0.00    -0.287 Mg 
HETATM    2  C   UNL     2      -9.471   9.408  69.044  1.00  0.00    -0.160 C  
HETATM    3  N   UNL     2      -9.819  10.478  68.072  1.00  0.00    -0.146 N  
HETATM    4  O   UNL     3     -10.284  14.690  70.192  1.00  0.00    -0.423 OA 
HETATM    5  C   UNL     2     -10.563  10.029  66.844  1.00  0.00    -0.192 C  
HETATM    6  C   UNL     5      -9.561  13.764  67.068  1.00  0.00    -0.251 C  
HETATM    7  C   UNL     3     -10.002  15.787  69.388  1.00  0.00    -0.274 A  
HETATM    8  C   UNL     2     -10.598  11.428  68.957  1.00  0.00    -0.191 C  
HETATM    9  O   UNL     4     -13.064  12.460  72.208  1.00  0.00    -0.395 OA 
HETATM   10  H   UNL     3      -9.603  14.445  70.806  1.00  0.00     0.000 HD 
HETATM   11  C   UNL     3     -11.009  16.150  68.479  1.00  0.00    -0.338 A  
HETATM   12  H   UNL     4     -12.437  12.349  72.912  1.00  0.00     0.000 HD 
HETATM   13  O   UNL     5     -12.536  12.100  67.296  1.00  0.00    -0.088 OA 
HETATM   14  O   UNL     5      -9.496  13.389  68.252  1.00  0.00    -0.210 OA 
HETATM   15  C   UNL     4     -13.194  13.711  71.619  1.00  0.00    -0.367 A  
HETATM   16  C   UNL     5     -12.156  13.134  66.428  1.00  0.00    -0.382 A  
HETATM   17  H   UNL     5     -11.816  11.914  67.888  1.00  0.00     0.000 HD 
HETATM   18  O   UNL     5      -8.526  13.926  66.320  1.00  0.00     0.334 OA 
HETATM   19  C   UNL     4     -14.117  13.875  70.585  1.00  0.00     1.156 A  
HETATM   20  C   UNL     3     -10.758  17.115  67.515  1.00  0.00    -0.276 A  
HETATM   21  C   UNL     3      -9.498  17.692  67.449  1.00  0.00    -0.256 A  
HETATM   22  O   UNL     4     -10.615  15.269  73.620  1.00  0.00     2.335 OA 
HETATM   23  C   UNL     5     -13.223  13.409  65.550  1.00  0.00     0.270 A  
HETATM   24  C   UNL     4     -14.217  15.123  69.983  1.00  0.00     2.132 A  
HETATM   25  C   UNL     5     -13.048  14.311  64.517  1.00  0.00     0.616 A  
HETATM   26  C   UNL     4     -13.448  16.188  70.454  1.00  0.00     2.068 A  
HETATM   27  C   UNL     3      -8.493  17.305  68.356  1.00  0.00    -0.254 A  
HETATM   28  C   UNL     4     -12.505  15.996  71.471  1.00  0.00    -0.380 A  
HETATM   29  C   UNL     5     -11.842  14.955  64.340  1.00  0.00    -0.372 A  
HETATM   30  C   UNL     3      -8.712  16.324  69.327  1.00  0.00    -0.151 A  
HETATM   31  C   UNL     4     -12.328  14.730  72.029  1.00  0.00    -0.416 A  
HETATM   32  C   UNL     3      -7.606  15.755  70.137  1.00  0.00     0.610 C  
HETATM   33  C   UNL     5     -10.820  14.708  65.225  1.00  0.00    -0.387 A  
HETATM   34  C   UNL     5     -10.920  13.800  66.303  1.00  0.00    -0.297 A  
HETATM   35  O   UNL     3      -7.831  14.651  70.765  1.00  0.00     1.150 OA 
HETATM   36  C   UNL     4     -11.157  14.379  72.923  1.00  0.00     2.131 C  
HETATM   37  O   UNL     3      -6.469  16.395  70.186  1.00  0.00    -0.080 OA 
HETATM   38  O   UNL     4     -10.993  13.093  72.981  1.00  0.00     6.978 OA 
ENDROOT
BRANCH   3  39
HETATM   39  C   UNL     2      -8.477  11.147  67.520  1.00  0.00    -0.126 C  
BRANCH  39  40
HETATM   40  C   UNL     2      -7.492  10.241  66.772  1.00  0.00    -0.107 C  
HETATM   41  O   UNL     2      -7.722  10.248  65.377  1.00  0.00    -0.139 OA 
HETATM   42  H   UNL     2      -7.113   9.687  64.913  1.00  0.00     0.000 HD 
ENDBRANCH  39  40
ENDBRANCH   3  39
TORSDOF 2
ENDMDL
MODEL       78
REMARK 921   NORMALIZED FREE ENERGY PREDICTED BY IDOCK:   11.68 KCAL/MOL
REMARK 922        TOTAL FREE ENERGY PREDICTED BY IDOCK:   12.75 KCAL/MOL
REMARK 923 INTER-LIGAND FREE ENERGY PREDICTED BY IDOCK:   13.03 KCAL/MOL
REMARK 924 INTRA-LIGAND FREE ENERGY PREDICTED BY IDOCK:   -0.28 KCAL/MOL
REMARK 927      BINDING AFFINITY PREDICTED BY RF-SCORE:    0.00 PKD
ROOT
HETATM    1 MG   UNL     1      -5.844   4.823  68.658  1.00  0.00    -0.014 Mg 
HETATM    2  C   UNL     2      -8.176   5.434  72.192  1.00  0.00    -0.115 C  
HETATM    3  N   UNL     2      -8.049   6.785  71.583  1.00  0.00    -0.106 N  
HETATM    4  O   UNL     3      -9.139   6.741  66.972  1.00  0.00    -0.124 OA 
HETATM    5  C   UNL     2      -7.058   7.707  72.240  1.00  0.00    -0.071 C  
HETATM    6  C   UNL     5      -9.157   9.124  69.309  1.00  0.00    -0.146 C  
HETATM    7  C   UNL     3      -9.637   7.938  66.474  1.00  0.00    -0.212 A  
HETATM    8  C   UNL     2      -7.708   6.425  70.153  1.00  0.00    -0.098 C  
HETATM    9  O   UNL     4      -6.088   4.013  67.106  1.00  0.00    -0.026 OA 
HETATM   10  H   UNL     3      -9.785   6.067  67.141  1.00  0.00     0.000 HD 
HETATM   11  C   UNL     3      -8.681   8.936  66.224  1.00  0.00    -0.162 A  
HETATM   12  H   UNL     4      -6.735   3.318  67.107  1.00  0.00     0.000 HD 
HETATM   13  O   UNL     5      -5.872   8.255  69.655  1.00  0.00    -0.026 OA 
HETATM   14  O   UNL     5      -9.252   7.894  69.147  1.00  0.00    -0.145 OA 
HETATM   15  C   UNL     4      -6.268   5.094  66.254  1.00  0.00    -0.035 A  
HETATM   16  C   UNL     5      -6.435   9.480  69.270  1.00  0.00    -0.044 A  
HETATM   17  H   UNL     5      -6.570   7.625  69.797  1.00  0.00     0.000 HD 
HETATM   18  O   UNL     5     -10.092   9.844  69.823  1.00  0.00    -0.214 OA 
HETATM   19  C   UNL     4      -5.317   6.116  66.252  1.00  0.00    -0.013 A  
HETATM   20  C   UNL     3      -9.090  10.221  65.895  1.00  0.00    -0.194 A  
HETATM   21  C   UNL     3     -10.447  10.505  65.844  1.00  0.00    -0.224 A  
HETATM   22  O   UNL     4      -9.424   3.924  64.928  1.00  0.00    -0.148 OA 
HETATM   23  C   UNL     5      -5.400  10.413  69.062  1.00  0.00    -0.038 A  
HETATM   24  C   UNL     4      -5.524   7.207  65.417  1.00  0.00    -0.028 A  
HETATM   25  C   UNL     5      -5.710  11.733  68.791  1.00  0.00    -0.049 A  
HETATM   26  C   UNL     4      -6.631   7.235  64.566  1.00  0.00    -0.040 A  
HETATM   27  C   UNL     3     -11.392   9.498  66.115  1.00  0.00     2.058 A  
HETATM   28  C   UNL     4      -7.590   6.215  64.606  1.00  0.00    -0.093 A  
HETATM   29  C   UNL     5      -7.022  12.148  68.711  1.00  0.00    -0.101 A  
HETATM   30  C   UNL     3     -11.010   8.200  66.464  1.00  0.00     0.939 A  
HETATM   31  C   UNL     4      -7.445   5.154  65.500  1.00  0.00    -0.077 A  
HETATM   32  C   UNL     3     -11.984   7.198  66.964  1.00  0.00     3.049 C  
HETATM   33  C   UNL     5      -8.023  11.221  68.879  1.00  0.00    -0.104 A  
HETATM   34  C   UNL     5      -7.789   9.857  69.160  1.00  0.00    -0.105 A  
HETATM   35  O   UNL     3     -11.517   6.154  67.559  1.00  0.00    -0.028 OA 
HETATM   36  C   UNL     4      -8.557   4.171  65.799  1.00  0.00    -0.114 C  
HETATM   37  O   UNL     3     -13.259   7.410  66.770  1.00  0.00    10.982 OA 
HETATM   38  O   UNL     4      -8.332   3.551  66.917  1.00  0.00    -0.097 OA 
ENDROOT
BRANCH   3  39
HETATM   39  C   UNL     2      -9.450   7.544  71.685  1.00  0.00    -0.149 C  
BRANCH  39  40
HETATM   40  C   UNL     2      -9.906   8.003  73.076  1.00  0.00    -0.282 C  
HETATM   41  O   UNL     2     -11.224   7.583  73.365  1.00  0.00    -0.574 OA 
HETATM   42  H   UNL     2     -11.507   7.867  74.226  1.00  0.00     0.000 HD 
ENDBRANCH  39  40
ENDBRANCH   3  39
TORSDOF 2
ENDMDL
MODEL       79
REMARK 921   NORMALIZED FREE ENERGY PREDICTED BY IDOCK:   12.05 KCAL/MOL
REMARK 922        TOTAL FREE ENERGY PREDICTED BY IDOCK:   13.17 KCAL/MOL
REMARK 923 INTER-LIGAND FREE ENERGY PREDICTED BY IDOCK:   11.45 KCAL/MOL
REMARK 924 INTRA-LIGAND FREE ENERGY PREDICTED BY IDOCK:    1.72 KCAL/MOL
REMARK 927      BINDING AFFINITY PREDICTED BY RF-SCORE:    0.00 PKD
ROOT
HETATM    1 MG   UNL     1     -12.152   9.089  65.967  1.00  0.00     2.286 Mg 
HETATM    2  C   UNL     2     -12.502   5.609  68.429  1.00  0.00     7.750 C  
HETATM    3  N   UNL     2     -11.064   5.665  68.054  1.00  0.00     0.076 N  
HETATM    4  O   UNL     3      -9.223   9.967  68.800  1.00  0.00    -0.138 OA 
HETATM    5  C   UNL     2     -10.629   4.700  66.984  1.00  0.00     0.224 C  
HETATM    6  C   UNL     5      -7.901   6.907  68.625  1.00  0.00    -0.118 C  
HETATM    7  C   UNL     3      -7.861   9.985  69.072  1.00  0.00    -0.101 A  
HETATM    8  C   UNL     2     -10.924   7.123  67.669  1.00  0.00    -0.155 C  
HETATM    9  O   UNL     4     -12.281  10.835  66.218  1.00  0.00     1.594 OA 
HETATM   10  H   UNL     3      -9.793  10.070  69.552  1.00  0.00     0.000 HD 
HETATM   11  C   UNL     3      -7.017   9.833  67.960  1.00  0.00    -0.077 A  
HETATM   12  H   UNL     4     -12.808  11.101  66.961  1.00  0.00     0.000 HD 
HETATM   13  O   UNL     5      -9.377   6.878  65.544  1.00  0.00    -0.365 OA 
HETATM   14  O   UNL     5      -8.950   7.519  68.894  1.00  0.00    -0.135 OA 
HETATM   15  C   UNL     4     -10.947  11.221  66.169  1.00  0.00    -0.191 A  
HETATM   16  C   UNL     5      -8.020   6.781  65.884  1.00  0.00    -0.112 A  
HETATM   17  H   UNL     5      -9.887   6.991  66.339  1.00  0.00     0.000 HD 
HETATM   18  O   UNL     5      -7.275   6.170  69.474  1.00  0.00    -0.073 OA 
HETATM   19  C   UNL     4     -10.173  10.830  65.076  1.00  0.00    -0.373 A  
HETATM   20  C   UNL     3      -5.653   9.660  68.143  1.00  0.00    -0.040 A  
HETATM   21  C   UNL     3      -5.146   9.615  69.434  1.00  0.00    -0.035 A  
HETATM   22  O   UNL     4     -10.998  12.921  69.361  1.00  0.00    -0.132 OA 
HETATM   23  C   UNL     5      -7.264   6.614  64.707  1.00  0.00    -0.071 A  
HETATM   24  C   UNL     4      -8.833  11.196  65.053  1.00  0.00    -0.021 A  
HETATM   25  C   UNL     5      -5.905   6.373  64.792  1.00  0.00    -0.022 A  
HETATM   26  C   UNL     4      -8.308  11.986  66.078  1.00  0.00     0.347 A  
HETATM   27  C   UNL     3      -6.007   9.751  70.539  1.00  0.00    -0.072 A  
HETATM   28  C   UNL     4      -9.093  12.342  67.182  1.00  0.00    -0.193 A  
HETATM   29  C   UNL     5      -5.275   6.305  66.016  1.00  0.00    -0.013 A  
HETATM   30  C   UNL     3      -7.387   9.910  70.386  1.00  0.00    -0.139 A  
HETATM   31  C   UNL     4     -10.417  11.910  67.265  1.00  0.00    -0.248 A  
HETATM   32  C   UNL     3      -8.323   9.833  71.535  1.00  0.00     1.538 C  
HETATM   33  C   UNL     5      -6.016   6.508  67.156  1.00  0.00    -0.021 A  
HETATM   34  C   UNL     5      -7.406   6.756  67.154  1.00  0.00    -0.086 A  
HETATM   35  O   UNL     3      -9.575   9.668  71.276  1.00  0.00    -0.151 OA 
HETATM   36  C   UNL     4     -11.239  12.012  68.533  1.00  0.00    -0.256 C  
HETATM   37  O   UNL     3      -7.843   9.947  72.744  1.00  0.00     2.172 OA 
HETATM   38  O   UNL     4     -12.256  11.206  68.487  1.00  0.00    -0.600 OA 
ENDROOT
BRANCH   3  39
HETATM   39  C   UNL     2     -10.171   5.300  69.327  1.00  0.00    -0.231 C  
BRANCH  39  40
HETATM   40  C   UNL     2     -10.161   6.298  70.491  1.00  0.00    -0.189 C  
HETATM   41  O   UNL     2     -10.148   5.645  71.746  1.00  0.00    -0.181 OA 
HETATM   42  H   UNL     2     -10.142   6.263  72.467  1.00  0.00     0.000 HD 
ENDBRANCH  39  40
ENDBRANCH   3  39
TORSDOF 2
ENDMDL
MODEL       80
REMARK 921   NORMALIZED FREE ENERGY PREDICTED BY IDOCK:   12.24 KCAL/MOL
REMARK 922        TOTAL FREE ENERGY PREDICTED BY IDOCK:   13.38 KCAL/MOL
REMARK 923 INTER-LIGAND FREE ENERGY PREDICTED BY IDOCK:   13.63 KCAL/MOL
REMARK 924 INTRA-LIGAND FREE ENERGY PREDICTED BY IDOCK:   -0.25 KCAL/MOL
REMARK 927      BINDING AFFINITY PREDICTED BY RF-SCORE:    0.00 PKD
ROOT
HETATM    1 MG   UNL     1     -10.381   9.564  65.475  1.00  0.00    -0.280 Mg 
HETATM    2  C   UNL     2     -13.080  10.234  68.725  1.00  0.00     3.816 C  
HETATM    3  N   UNL     2     -12.113   9.228  69.237  1.00  0.00     1.096 N  
HETATM    4  O   UNL     3      -7.630  10.545  68.449  1.00  0.00    -0.091 OA 
HETATM    5  C   UNL     2     -12.612   7.809  69.292  1.00  0.00     3.383 C  
HETATM    6  C   UNL     5      -9.064   8.516  70.678  1.00  0.00    -0.160 C  
HETATM    7  C   UNL     3      -6.703  10.054  69.360  1.00  0.00    -0.060 A  
HETATM    8  C   UNL     2     -10.949   9.440  68.292  1.00  0.00    -0.032 C  
HETATM    9  O   UNL     4      -9.142  10.512  64.644  1.00  0.00    -0.192 OA 
HETATM   10  H   UNL     3      -7.885  11.451  68.572  1.00  0.00     0.000 HD 
HETATM   11  C   UNL     3      -6.326   8.713  69.180  1.00  0.00    -0.043 A  
HETATM   12  H   UNL     4      -9.247  11.454  64.698  1.00  0.00     0.000 HD 
HETATM   13  O   UNL     5     -10.236   6.932  67.888  1.00  0.00    -0.154 OA 
HETATM   14  O   UNL     5      -9.281   9.506  69.955  1.00  0.00    -0.200 OA 
HETATM   15  C   UNL     4      -7.977   9.939  65.136  1.00  0.00    -0.139 A  
HETATM   16  C   UNL     5      -9.395   6.449  68.901  1.00  0.00    -0.130 A  
HETATM   17  H   UNL     5     -10.442   7.843  68.065  1.00  0.00     0.000 HD 
HETATM   18  O   UNL     5      -9.155   8.545  71.961  1.00  0.00    -0.207 OA 
HETATM   19  C   UNL     4      -7.823   8.554  65.057  1.00  0.00    -0.112 A  
HETATM   20  C   UNL     3      -5.546   8.078  70.136  1.00  0.00    -0.023 A  
HETATM   21  C   UNL     3      -5.172   8.777  71.274  1.00  0.00    -0.033 A  
HETATM   22  O   UNL     4      -6.550  13.060  66.279  1.00  0.00     1.421 OA 
HETATM   23  C   UNL     5      -9.090   5.099  68.638  1.00  0.00    -0.135 A  
HETATM   24  C   UNL     4      -6.667   7.988  65.579  1.00  0.00    -0.048 A  
HETATM   25  C   UNL     5      -8.371   4.365  69.563  1.00  0.00    -0.074 A  
HETATM   26  C   UNL     4      -5.670   8.807  66.113  1.00  0.00    -0.046 A  
HETATM   27  C   UNL     3      -5.573  10.114  71.449  1.00  0.00    -0.012 A  
HETATM   28  C   UNL     4      -5.856  10.191  66.212  1.00  0.00    -0.065 A  
HETATM   29  C   UNL     5      -7.937   4.941  70.738  1.00  0.00    -0.083 A  
HETATM   30  C   UNL     3      -6.371  10.775  70.511  1.00  0.00    -0.053 A  
HETATM   31  C   UNL     4      -7.048  10.768  65.772  1.00  0.00    -0.053 A  
HETATM   32  C   UNL     3      -6.979  12.101  70.787  1.00  0.00     2.677 C  
HETATM   33  C   UNL     5      -8.207   6.269  70.966  1.00  0.00    -0.123 A  
HETATM   34  C   UNL     5      -8.937   7.084  70.073  1.00  0.00    -0.142 A  
HETATM   35  O   UNL     3      -7.944  12.487  70.023  1.00  0.00     1.761 OA 
HETATM   36  C   UNL     4      -7.439  12.196  66.091  1.00  0.00     0.911 C  
HETATM   37  O   UNL     3      -6.509  12.815  71.774  1.00  0.00     1.558 OA 
HETATM   38  O   UNL     4      -8.716  12.368  65.933  1.00  0.00     0.176 OA 
ENDROOT
BRANCH   3  39
HETATM   39  C   UNL     2     -11.725   9.587  70.745  1.00  0.00    -0.298 C  
BRANCH  39  40
HETATM   40  C   UNL     2     -12.509   8.888  71.861  1.00  0.00    -0.378 C  
HETATM   41  O   UNL     2     -12.632   9.703  73.010  1.00  0.00     0.198 OA 
HETATM   42  H   UNL     2     -13.118   9.270  73.702  1.00  0.00     0.000 HD 
ENDBRANCH  39  40
ENDBRANCH   3  39
TORSDOF 2
ENDMDL
MODEL       81
REMARK 921   NORMALIZED FREE ENERGY PREDICTED BY IDOCK:   12.56 KCAL/MOL
REMARK 922        TOTAL FREE ENERGY PREDICTED BY IDOCK:   13.74 KCAL/MOL
REMARK 923 INTER-LIGAND FREE ENERGY PREDICTED BY IDOCK:   13.03 KCAL/MOL
REMARK 924 INTRA-LIGAND FREE ENERGY PREDICTED BY IDOCK:    0.71 KCAL/MOL
REMARK 927      BINDING AFFINITY PREDICTED BY RF-SCORE:    0.00 PKD
ROOT
HETATM    1 MG   UNL     1     -10.088  11.906  71.912  1.00  0.00     4.714 Mg 
HETATM    2  C   UNL     2      -6.210  10.286  72.711  1.00  0.00     1.633 C  
HETATM    3  N   UNL     2      -7.097   9.100  72.578  1.00  0.00     0.370 N  
HETATM    4  O   UNL     3      -9.751   9.321  68.659  1.00  0.00    -0.146 OA 
HETATM    5  C   UNL     2      -7.494   8.433  73.867  1.00  0.00    -0.114 C  
HETATM    6  C   UNL     5      -8.682   6.797  70.563  1.00  0.00    -0.147 C  
HETATM    7  C   UNL     3     -10.121   8.092  68.129  1.00  0.00    -0.198 A  
HETATM    8  C   UNL     2      -8.256   9.692  71.804  1.00  0.00     1.504 C  
HETATM    9  O   UNL     4     -10.845  12.774  70.570  1.00  0.00     0.811 OA 
HETATM   10  H   UNL     3      -9.038   9.762  68.213  1.00  0.00     0.000 HD 
HETATM   11  C   UNL     3     -11.176   7.439  68.788  1.00  0.00     0.226 A  
HETATM   12  H   UNL     4     -10.248  13.252  70.007  1.00  0.00     0.000 HD 
HETATM   13  O   UNL     5     -10.269   8.523  73.047  1.00  0.00    -0.115 OA 
HETATM   14  O   UNL     5      -8.408   7.959  70.213  1.00  0.00    -0.122 OA 
HETATM   15  C   UNL     4     -11.642  11.783  70.013  1.00  0.00    -0.236 A  
HETATM   16  C   UNL     5     -10.524   7.236  72.551  1.00  0.00    -0.237 A  
HETATM   17  H   UNL     5      -9.556   8.909  72.551  1.00  0.00     0.000 HD 
HETATM   18  O   UNL     5      -7.912   5.791  70.337  1.00  0.00    -0.100 OA 
HETATM   19  C   UNL     4     -12.519  11.080  70.841  1.00  0.00    -0.509 A  
HETATM   20  C   UNL     3     -11.503   6.134  68.450  1.00  0.00     0.257 A  
HETATM   21  C   UNL     3     -10.760   5.483  67.476  1.00  0.00    -0.211 A  
HETATM   22  O   UNL     4     -10.299  12.142  66.674  1.00  0.00    -0.206 OA 
HETATM   23  C   UNL     5     -11.580   6.663  73.286  1.00  0.00     0.409 A  
HETATM   24  C   UNL     4     -13.289  10.070  70.278  1.00  0.00     0.306 A  
HETATM   25  C   UNL     5     -11.937   5.346  73.063  1.00  0.00     0.011 A  
HETATM   26  C   UNL     4     -13.217   9.819  68.907  1.00  0.00     4.932 A  
HETATM   27  C   UNL     3      -9.695   6.145  66.837  1.00  0.00    -0.178 A  
HETATM   28  C   UNL     4     -12.308  10.514  68.099  1.00  0.00     1.675 A  
HETATM   29  C   UNL     5     -11.279   4.586  72.121  1.00  0.00     0.350 A  
HETATM   30  C   UNL     3      -9.332   7.453  67.167  1.00  0.00    -0.172 A  
HETATM   31  C   UNL     4     -11.464  11.471  68.661  1.00  0.00    -0.354 A  
HETATM   32  C   UNL     3      -8.084   8.078  66.663  1.00  0.00    -0.103 C  
HETATM   33  C   UNL     5     -10.276   5.167  71.383  1.00  0.00    -0.282 A  
HETATM   34  C   UNL     5      -9.851   6.503  71.552  1.00  0.00    -0.182 A  
HETATM   35  O   UNL     3      -7.665   9.142  67.258  1.00  0.00    -0.094 OA 
HETATM   36  C   UNL     4     -10.279  12.060  67.924  1.00  0.00    -0.196 C  
HETATM   37  O   UNL     3      -7.478   7.535  65.642  1.00  0.00    -0.077 OA 
HETATM   38  O   UNL     4      -9.441  12.597  68.758  1.00  0.00    -0.047 OA 
ENDROOT
BRANCH   3  39
HETATM   39  C   UNL     2      -6.343   7.967  71.742  1.00  0.00    -0.040 C  
BRANCH  39  40
HETATM   40  C   UNL     2      -5.461   6.983  72.521  1.00  0.00    -0.038 C  
HETATM   41  O   UNL     2      -6.175   6.342  73.559  1.00  0.00    -0.062 OA 
HETATM   42  H   UNL     2      -5.629   5.733  74.042  1.00  0.00     0.000 HD 
ENDBRANCH  39  40
ENDBRANCH   3  39
TORSDOF 2
ENDMDL
MODEL       82
REMARK 921   NORMALIZED FREE ENERGY PREDICTED BY IDOCK:   13.58 KCAL/MOL
REMARK 922        TOTAL FREE ENERGY PREDICTED BY IDOCK:   14.88 KCAL/MOL
REMARK 923 INTER-LIGAND FREE ENERGY PREDICTED BY IDOCK:   15.26 KCAL/MOL
REMARK 924 INTRA-LIGAND FREE ENERGY PREDICTED BY IDOCK:   -0.38 KCAL/MOL
REMARK 927      BINDING AFFINITY PREDICTED BY RF-SCORE:    0.00 PKD
ROOT
HETATM    1 MG   UNL     1     -11.393  17.868  71.201  1.00  0.00    -0.457 Mg 
HETATM    2  C   UNL     2     -11.015  20.507  67.855  1.00  0.00     0.842 C  
HETATM    3  N   UNL     2      -9.889  19.547  67.711  1.00  0.00    -0.344 N  
HETATM    4  O   UNL     3     -11.344  15.056  68.124  1.00  0.00    -0.303 OA 
HETATM    5  C   UNL     2      -8.532  20.067  68.103  1.00  0.00    -0.172 C  
HETATM    6  C   UNL     5      -8.723  16.488  66.633  1.00  0.00    -0.251 C  
HETATM    7  C   UNL     3     -10.578  14.124  67.436  1.00  0.00    -0.279 A  
HETATM    8  C   UNL     2     -10.381  18.395  68.561  1.00  0.00    -0.294 C  
HETATM    9  O   UNL     4     -12.544  16.628  71.710  1.00  0.00    -0.115 OA 
HETATM   10  H   UNL     3     -12.166  15.296  67.714  1.00  0.00     0.000 HD 
HETATM   11  C   UNL     3      -9.362  13.770  68.043  1.00  0.00    -0.199 A  
HETATM   12  H   UNL     4     -13.421  16.716  71.356  1.00  0.00     0.000 HD 
HETATM   13  O   UNL     5      -8.126  17.727  69.760  1.00  0.00     0.715 OA 
HETATM   14  O   UNL     5      -9.894  16.700  66.997  1.00  0.00    -0.246 OA 
HETATM   15  C   UNL     4     -11.832  15.464  71.450  1.00  0.00    -0.384 A  
HETATM   16  C   UNL     5      -7.336  16.879  68.970  1.00  0.00    -0.231 A  
HETATM   17  H   UNL     5      -8.934  17.916  69.297  1.00  0.00     0.000 HD 
HETATM   18  O   UNL     5      -8.341  16.559  65.406  1.00  0.00     0.277 OA 
HETATM   19  C   UNL     4     -10.544  15.333  71.971  1.00  0.00     0.975 A  
HETATM   20  C   UNL     3      -8.446  12.986  67.356  1.00  0.00    -0.200 A  
HETATM   21  C   UNL     3      -8.741  12.583  66.061  1.00  0.00     0.364 A  
HETATM   22  O   UNL     4     -14.409  13.971  69.398  1.00  0.00     5.091 OA 
HETATM   23  C   UNL     5      -6.138  16.599  69.657  1.00  0.00    -0.220 A  
HETATM   24  C   UNL     4      -9.829  14.178  71.679  1.00  0.00     5.824 A  
HETATM   25  C   UNL     5      -5.140  15.877  69.029  1.00  0.00    -0.100 A  
HETATM   26  C   UNL     4     -10.424  13.160  70.931  1.00  0.00     4.557 A  
HETATM   27  C   UNL     3      -9.956  12.961  65.460  1.00  0.00    -0.226 A  
HETATM   28  C   UNL     4     -11.706  13.324  70.392  1.00  0.00    -0.161 A  
HETATM   29  C   UNL     5      -5.305  15.416  67.741  1.00  0.00    -0.103 A  
HETATM   30  C   UNL     3     -10.890  13.763  66.122  1.00  0.00    -0.279 A  
HETATM   31  C   UNL     4     -12.405  14.512  70.601  1.00  0.00    -0.407 A  
HETATM   32  C   UNL     3     -12.064  14.346  65.425  1.00  0.00    -0.364 C  
HETATM   33  C   UNL     5      -6.493  15.662  67.095  1.00  0.00     0.026 A  
HETATM   34  C   UNL     5      -7.559  16.393  67.666  1.00  0.00    -0.161 A  
HETATM   35  O   UNL     3     -12.684  15.316  66.007  1.00  0.00     0.725 OA 
HETATM   36  C   UNL     4     -13.659  14.876  69.834  1.00  0.00     1.231 C  
HETATM   37  O   UNL     3     -12.420  13.849  64.271  1.00  0.00    -0.638 OA 
HETATM   38  O   UNL     4     -13.886  16.153  69.904  1.00  0.00     1.462 OA 
ENDROOT
BRANCH   3  39
HETATM   39  C   UNL     2      -9.743  19.130  66.176  1.00  0.00    -0.315 C  
BRANCH  39  40
HETATM   40  C   UNL     2     -11.032  18.850  65.394  1.00  0.00     0.427 C  
HETATM   41  O   UNL     2     -10.923  17.692  64.592  1.00  0.00    -0.803 OA 
HETATM   42  H   UNL     2     -11.721  17.518  64.108  1.00  0.00     0.000 HD 
ENDBRANCH  39  40
ENDBRANCH   3  39
TORSDOF 2
ENDMDL
MODEL       83
REMARK 921   NORMALIZED FREE ENERGY PREDICTED BY IDOCK:   13.74 KCAL/MOL
REMARK 922        TOTAL FREE ENERGY PREDICTED BY IDOCK:   15.05 KCAL/MOL
REMARK 923 INTER-LIGAND FREE ENERGY PREDICTED BY IDOCK:   15.59 KCAL/MOL
REMARK 924 INTRA-LIGAND FREE ENERGY PREDICTED BY IDOCK:   -0.54 KCAL/MOL
REMARK 927      BINDING AFFINITY PREDICTED BY RF-SCORE:    0.00 PKD
ROOT
HETATM    1 MG   UNL     1      -7.642   7.094  72.031  1.00  0.00    -0.080 Mg 
HETATM    2  C   UNL     2      -5.859   3.757  70.035  1.00  0.00    -0.018 C  
HETATM    3  N   UNL     2      -7.059   4.089  69.222  1.00  0.00    -0.046 N  
HETATM    4  O   UNL     3      -7.270   8.712  68.207  1.00  0.00    -0.083 OA 
HETATM    5  C   UNL     2      -8.242   3.177  69.402  1.00  0.00    -0.055 C  
HETATM    6  C   UNL     5      -8.530   5.986  66.751  1.00  0.00    -0.110 C  
HETATM    7  C   UNL     3      -7.931   9.026  67.026  1.00  0.00    -0.102 A  
HETATM    8  C   UNL     2      -7.308   5.520  69.647  1.00  0.00    -0.066 C  
HETATM    9  O   UNL     4      -7.208   8.787  72.301  1.00  0.00    -0.281 OA 
HETATM   10  H   UNL     3      -6.322   8.736  68.166  1.00  0.00     0.000 HD 
HETATM   11  C   UNL     3      -9.334   8.990  67.087  1.00  0.00    -0.184 A  
HETATM   12  H   UNL     4      -6.279   8.979  72.265  1.00  0.00     0.000 HD 
HETATM   13  O   UNL     5      -9.942   5.484  69.821  1.00  0.00    -0.175 OA 
HETATM   14  O   UNL     5      -7.598   6.382  67.473  1.00  0.00    -0.096 OA 
HETATM   15  C   UNL     4      -8.061   9.437  71.419  1.00  0.00     0.382 A  
HETATM   16  C   UNL     5     -10.558   5.688  68.578  1.00  0.00    -0.189 A  
HETATM   17  H   UNL     5      -8.999   5.532  69.709  1.00  0.00     0.000 HD 
HETATM   18  O   UNL     5      -8.350   5.442  65.598  1.00  0.00    -0.119 OA 
HETATM   19  C   UNL     4      -9.427   9.154  71.473  1.00  0.00    -0.239 A  
HETATM   20  C   UNL     3     -10.082   9.113  65.926  1.00  0.00    -0.118 A  
HETATM   21  C   UNL     3      -9.425   9.244  64.711  1.00  0.00     0.024 A  
HETATM   22  O   UNL     4      -5.436  11.263  69.731  1.00  0.00    -0.050 OA 
HETATM   23  C   UNL     5     -11.955   5.616  68.743  1.00  0.00     3.376 A  
HETATM   24  C   UNL     4     -10.268   9.787  70.566  1.00  0.00    -0.321 A  
HETATM   25  C   UNL     5     -12.782   5.665  67.635  1.00  0.00    10.453 A  
HETATM   26  C   UNL     4      -9.748  10.723  69.670  1.00  0.00     0.086 A  
HETATM   27  C   UNL     3      -8.018   9.260  64.664  1.00  0.00    -0.125 A  
HETATM   28  C   UNL     4      -8.371  10.970  69.610  1.00  0.00     0.433 A  
HETATM   29  C   UNL     5     -12.256   5.796  66.368  1.00  0.00     3.778 A  
HETATM   30  C   UNL     3      -7.239   9.123  65.816  1.00  0.00    -0.089 A  
HETATM   31  C   UNL     4      -7.501  10.279  70.454  1.00  0.00     0.156 A  
HETATM   32  C   UNL     3      -5.770   8.918  65.755  1.00  0.00    -0.050 C  
HETATM   33  C   UNL     5     -10.893   5.904  66.222  1.00  0.00     0.026 A  
HETATM   34  C   UNL     5      -9.984   5.859  67.302  1.00  0.00    -0.179 A  
HETATM   35  O   UNL     3      -5.182   8.483  66.817  1.00  0.00    -0.031 OA 
HETATM   36  C   UNL     4      -5.998  10.280  70.267  1.00  0.00    -0.088 C  
HETATM   37  O   UNL     3      -5.143   9.194  64.643  1.00  0.00    -0.047 OA 
HETATM   38  O   UNL     4      -5.457   9.280  70.895  1.00  0.00    -0.032 OA 
ENDROOT
BRANCH   3  39
HETATM   39  C   UNL     2      -6.691   3.986  67.671  1.00  0.00    -0.047 C  
BRANCH  39  40
HETATM   40  C   UNL     2      -6.904   2.633  66.983  1.00  0.00    -0.044 C  
HETATM   41  O   UNL     2      -7.207   2.781  65.610  1.00  0.00    -0.063 OA 
HETATM   42  H   UNL     2      -7.340   1.943  65.183  1.00  0.00     0.000 HD 
ENDBRANCH  39  40
ENDBRANCH   3  39
TORSDOF 2
ENDMDL
MODEL       84
REMARK 921   NORMALIZED FREE ENERGY PREDICTED BY IDOCK:   16.21 KCAL/MOL
REMARK 922        TOTAL FREE ENERGY PREDICTED BY IDOCK:   17.81 KCAL/MOL
REMARK 923 INTER-LIGAND FREE ENERGY PREDICTED BY IDOCK:   18.08 KCAL/MOL
REMARK 924 INTRA-LIGAND FREE ENERGY PREDICTED BY IDOCK:   -0.27 KCAL/MOL
REMARK 927      BINDING AFFINITY PREDICTED BY RF-SCORE:    0.00 PKD
ROOT
HETATM    1 MG   UNL     1      -8.135  11.128  69.135  1.00  0.00    -0.119 Mg 
HETATM    2  C   UNL     2      -6.761  10.018  65.239  1.00  0.00    -0.117 C  
HETATM    3  N   UNL     2      -6.570   8.800  66.070  1.00  0.00    -0.057 N  
HETATM    4  O   UNL     3     -10.471   7.728  68.536  1.00  0.00    -0.205 OA 
HETATM    5  C   UNL     2      -5.156   8.518  66.501  1.00  0.00    -0.027 C  
HETATM    6  C   UNL     5      -7.873   5.929  67.460  1.00  0.00    -0.098 C  
HETATM    7  C   UNL     3     -10.629   6.380  68.831  1.00  0.00    -0.252 A  
HETATM    8  C   UNL     2      -7.523   9.078  67.212  1.00  0.00    -0.084 C  
HETATM    9  O   UNL     4      -9.697  11.525  69.860  1.00  0.00     0.364 OA 
HETATM   10  H   UNL     3     -11.002   8.056  67.821  1.00  0.00     0.000 HD 
HETATM   11  C   UNL     3      -9.844   5.893  69.889  1.00  0.00    -0.223 A  
HETATM   12  H   UNL     4     -10.355  11.849  69.256  1.00  0.00     0.000 HD 
HETATM   13  O   UNL     5      -6.062   8.218  69.235  1.00  0.00    -0.037 OA 
HETATM   14  O   UNL     5      -8.539   6.951  67.217  1.00  0.00    -0.120 OA 
HETATM   15  C   UNL     4      -9.966  10.374  70.588  1.00  0.00     0.812 A  
HETATM   16  C   UNL     5      -6.167   6.831  69.414  1.00  0.00    -0.030 A  
HETATM   17  H   UNL     5      -6.625   8.480  68.515  1.00  0.00     0.000 HD 
HETATM   18  O   UNL     5      -7.766   4.943  66.640  1.00  0.00    -0.090 OA 
HETATM   19  C   UNL     4      -8.999   9.898  71.475  1.00  0.00     1.965 A  
HETATM   20  C   UNL     3      -9.795   4.530  70.147  1.00  0.00    -0.296 A  
HETATM   21  C   UNL     3     -10.508   3.664  69.331  1.00  0.00     1.709 A  
HETATM   22  O   UNL     4     -13.215   9.813  69.100  1.00  0.00     1.969 OA 
HETATM   23  C   UNL     5      -5.333   6.443  70.480  1.00  0.00    -0.018 A  
HETATM   24  C   UNL     4      -9.267   8.729  72.176  1.00  0.00    -0.248 A  
HETATM   25  C   UNL     5      -5.171   5.102  70.773  1.00  0.00    -0.004 A  
HETATM   26  C   UNL     4     -10.501   8.093  72.027  1.00  0.00    -0.329 A  
HETATM   27  C   UNL     3     -11.276   4.165  68.264  1.00  0.00     4.787 A  
HETATM   28  C   UNL     4     -11.445   8.569  71.109  1.00  0.00    -0.322 A  
HETATM   29  C   UNL     5      -5.826   4.135  70.039  1.00  0.00    -0.017 A  
HETATM   30  C   UNL     3     -11.332   5.531  67.970  1.00  0.00     1.097 A  
HETATM   31  C   UNL     4     -11.160   9.691  70.332  1.00  0.00    -0.346 A  
HETATM   32  C   UNL     3     -11.954   6.046  66.726  1.00  0.00     2.485 C  
HETATM   33  C   UNL     5      -6.666   4.527  69.025  1.00  0.00    -0.046 A  
HETATM   34  C   UNL     5      -6.882   5.876  68.664  1.00  0.00    -0.066 A  
HETATM   35  O   UNL     3     -11.683   7.258  66.379  1.00  0.00     1.892 OA 
HETATM   36  C   UNL     4     -11.995  10.101  69.138  1.00  0.00     0.237 C  
HETATM   37  O   UNL     3     -12.749   5.261  66.049  1.00  0.00     4.545 OA 
HETATM   38  O   UNL     4     -11.328  10.901  68.363  1.00  0.00    -0.259 OA 
ENDROOT
BRANCH   3  39
HETATM   39  C   UNL     2      -7.009   7.514  65.231  1.00  0.00    -0.059 C  
BRANCH  39  40
HETATM   40  C   UNL     2      -7.975   7.731  64.060  1.00  0.00    -0.104 C  
HETATM   41  O   UNL     2      -8.139   6.559  63.286  1.00  0.00    -0.209 OA 
HETATM   42  H   UNL     2      -8.737   6.693  62.560  1.00  0.00     0.000 HD 
ENDBRANCH  39  40
ENDBRANCH   3  39
TORSDOF 2
ENDMDL
MODEL       85
REMARK 921   NORMALIZED FREE ENERGY PREDICTED BY IDOCK:   16.56 KCAL/MOL
REMARK 922        TOTAL FREE ENERGY PREDICTED BY IDOCK:   18.20 KCAL/MOL
REMARK 923 INTER-LIGAND FREE ENERGY PREDICTED BY IDOCK:   18.68 KCAL/MOL
REMARK 924 INTRA-LIGAND FREE ENERGY PREDICTED BY IDOCK:   -0.48 KCAL/MOL
REMARK 927      BINDING AFFINITY PREDICTED BY RF-SCORE:    0.00 PKD
ROOT
HETATM    1 MG   UNL     1      -7.302   5.467  70.643  1.00  0.00    -0.058 Mg 
HETATM    2  C   UNL     2      -5.394   5.400  66.815  1.00  0.00    -0.008 C  
HETATM    3  N   UNL     2      -6.659   6.150  66.596  1.00  0.00    -0.056 N  
HETATM    4  O   UNL     3      -7.266   9.556  69.833  1.00  0.00    -0.069 OA 
HETATM    5  C   UNL     2      -7.760   5.388  65.910  1.00  0.00    -0.091 C  
HETATM    6  C   UNL     5      -8.402   9.120  66.726  1.00  0.00    -0.123 C  
HETATM    7  C   UNL     3      -8.013  10.647  69.407  1.00  0.00    -0.111 A  
HETATM    8  C   UNL     2      -6.989   6.579  68.010  1.00  0.00    -0.077 C  
HETATM    9  O   UNL     4      -6.979   6.230  72.205  1.00  0.00    -0.072 OA 
HETATM   10  H   UNL     3      -6.326   9.687  69.857  1.00  0.00     0.000 HD 
HETATM   11  C   UNL     3      -9.404  10.453  69.371  1.00  0.00    -0.186 A  
HETATM   12  H   UNL     4      -6.070   6.449  72.370  1.00  0.00     0.000 HD 
HETATM   13  O   UNL     5      -9.598   6.185  68.001  1.00  0.00    -0.116 OA 
HETATM   14  O   UNL     5      -7.462   8.828  67.487  1.00  0.00    -0.088 OA 
HETATM   15  C   UNL     4      -7.926   7.246  72.219  1.00  0.00    -0.096 A  
HETATM   16  C   UNL     5     -10.297   7.269  67.451  1.00  0.00    -0.260 A  
HETATM   17  H   UNL     5      -8.669   6.387  68.005  1.00  0.00     0.000 HD 
HETATM   18  O   UNL     5      -8.248   9.781  65.632  1.00  0.00    -0.123 OA 
HETATM   19  C   UNL     4      -9.262   6.923  71.977  1.00  0.00    -0.146 A  
HETATM   20  C   UNL     3     -10.223  11.414  68.796  1.00  0.00    -0.209 A  
HETATM   21  C   UNL     3      -9.646  12.546  68.239  1.00  0.00    -0.209 A  
HETATM   22  O   UNL     4      -5.540   9.890  72.851  1.00  0.00    -0.314 OA 
HETATM   23  C   UNL     5     -11.674   6.970  67.444  1.00  0.00     1.206 A  
HETATM   24  C   UNL     4     -10.196   7.951  71.964  1.00  0.00    -0.270 A  
HETATM   25  C   UNL     5     -12.562   7.838  66.836  1.00  0.00     9.842 A  
HETATM   26  C   UNL     4      -9.798   9.259  72.246  1.00  0.00     0.688 A  
HETATM   27  C   UNL     3      -8.250  12.717  68.266  1.00  0.00    -0.164 A  
HETATM   28  C   UNL     4      -8.448   9.567  72.456  1.00  0.00     2.309 A  
HETATM   29  C   UNL     5     -12.119   9.002  66.245  1.00  0.00     8.154 A  
HETATM   30  C   UNL     3      -7.399  11.759  68.825  1.00  0.00    -0.114 A  
HETATM   31  C   UNL     4      -7.484   8.562  72.387  1.00  0.00    -0.085 A  
HETATM   32  C   UNL     3      -5.925  11.823  68.664  1.00  0.00    -0.050 C  
HETATM   33  C   UNL     5     -10.779   9.302  66.291  1.00  0.00     0.278 A  
HETATM   34  C   UNL     5      -9.809   8.467  66.889  1.00  0.00    -0.310 A  
HETATM   35  O   UNL     3      -5.247  10.757  68.921  1.00  0.00    -0.042 OA 
HETATM   36  C   UNL     4      -5.998   8.848  72.325  1.00  0.00    -0.066 C  
HETATM   37  O   UNL     3      -5.383  12.949  68.284  1.00  0.00    -0.060 OA 
HETATM   38  O   UNL     4      -5.351   7.819  71.870  1.00  0.00    -0.035 OA 
ENDROOT
BRANCH   3  39
HETATM   39  C   UNL     2      -6.373   7.403  65.647  1.00  0.00    -0.041 C  
BRANCH  39  40
HETATM   40  C   UNL     2      -6.398   7.163  64.133  1.00  0.00    -0.040 C  
HETATM   41  O   UNL     2      -7.571   7.680  63.536  1.00  0.00    -0.105 OA 
HETATM   42  H   UNL     2      -7.587   7.531  62.598  1.00  0.00     0.000 HD 
ENDBRANCH  39  40
ENDBRANCH   3  39
TORSDOF 2
ENDMDL
MODEL       86
REMARK 921   NORMALIZED FREE ENERGY PREDICTED BY IDOCK:   17.71 KCAL/MOL
REMARK 922        TOTAL FREE ENERGY PREDICTED BY IDOCK:   19.48 KCAL/MOL
REMARK 923 INTER-LIGAND FREE ENERGY PREDICTED BY IDOCK:   19.33 KCAL/MOL
REMARK 924 INTRA-LIGAND FREE ENERGY PREDICTED BY IDOCK:    0.15 KCAL/MOL
REMARK 927      BINDING AFFINITY PREDICTED BY RF-SCORE:    0.00 PKD
ROOT
HETATM    1 MG   UNL     1      -5.498  13.563  68.701  1.00  0.00    -0.069 Mg 
HETATM    2  C   UNL     2      -6.492  11.321  65.196  1.00  0.00     0.900 C  
HETATM    3  N   UNL     2      -7.324  10.727  66.275  1.00  0.00    -0.136 N  
HETATM    4  O   UNL     3      -9.638  14.049  68.739  1.00  0.00    -0.326 OA 
HETATM    5  C   UNL     2      -6.845   9.409  66.819  1.00  0.00    -0.080 C  
HETATM    6  C   UNL     5     -10.190  10.804  68.187  1.00  0.00    -0.172 C  
HETATM    7  C   UNL     3     -10.835  13.633  69.307  1.00  0.00    -0.082 A  
HETATM    8  C   UNL     2      -7.328  11.852  67.289  1.00  0.00    -0.146 C  
HETATM    9  O   UNL     4      -5.749  15.223  69.254  1.00  0.00    -0.095 OA 
HETATM   10  H   UNL     3      -9.717  14.567  67.947  1.00  0.00     0.000 HD 
HETATM   11  C   UNL     3     -10.718  12.867  70.478  1.00  0.00     2.477 A  
HETATM   12  H   UNL     4      -5.872  15.867  68.567  1.00  0.00     0.000 HD 
HETATM   13  O   UNL     5      -7.061  10.454  69.511  1.00  0.00    -0.082 OA 
HETATM   14  O   UNL     5      -9.648  11.813  67.702  1.00  0.00    -0.177 OA 
HETATM   15  C   UNL     4      -6.752  15.052  70.199  1.00  0.00    -0.097 A  
HETATM   16  C   UNL     5      -8.287   9.957  69.977  1.00  0.00    -0.168 A  
HETATM   17  H   UNL     5      -7.214  10.970  68.728  1.00  0.00     0.000 HD 
HETATM   18  O   UNL     5     -11.139  10.160  67.602  1.00  0.00    -0.301 OA 
HETATM   19  C   UNL     4      -6.571  14.106  71.209  1.00  0.00     0.750 A  
HETATM   20  C   UNL     3     -11.839  12.256  71.022  1.00  0.00     0.468 A  
HETATM   21  C   UNL     3     -13.061  12.394  70.380  1.00  0.00     0.555 A  
HETATM   22  O   UNL     4      -8.990  17.480  68.723  1.00  0.00    -0.272 OA 
HETATM   23  C   UNL     5      -8.060   9.193  71.138  1.00  0.00    -0.136 A  
HETATM   24  C   UNL     4      -7.594  13.922  72.131  1.00  0.00     6.486 A  
HETATM   25  C   UNL     5      -9.105   8.496  71.716  1.00  0.00    -0.304 A  
HETATM   26  C   UNL     4      -8.742  14.715  72.067  1.00  0.00     6.293 A  
HETATM   27  C   UNL     3     -13.158  13.150  69.197  1.00  0.00     1.967 A  
HETATM   28  C   UNL     4      -8.918  15.636  71.027  1.00  0.00     2.924 A  
HETATM   29  C   UNL     5     -10.372   8.548  71.178  1.00  0.00    -0.273 A  
HETATM   30  C   UNL     3     -12.044  13.763  68.617  1.00  0.00    -0.333 A  
HETATM   31  C   UNL     4      -7.940  15.773  70.042  1.00  0.00     0.523 A  
HETATM   32  C   UNL     3     -12.093  14.372  67.265  1.00  0.00    -0.323 C  
HETATM   33  C   UNL     5     -10.590   9.328  70.067  1.00  0.00    -0.256 A  
HETATM   34  C   UNL     5      -9.576  10.066  69.417  1.00  0.00    -0.237 A  
HETATM   35  O   UNL     3     -10.971  14.621  66.679  1.00  0.00    -0.310 OA 
HETATM   36  C   UNL     4      -8.171  16.532  68.752  1.00  0.00    -0.248 C  
HETATM   37  O   UNL     3     -13.258  14.637  66.736  1.00  0.00     1.182 OA 
HETATM   38  O   UNL     4      -7.298  16.188  67.855  1.00  0.00    -0.121 OA 
ENDROOT
BRANCH   3  39
HETATM   39  C   UNL     2      -8.790  10.433  65.711  1.00  0.00    -0.170 C  
BRANCH  39  40
HETATM   40  C   UNL     2      -8.973   9.187  64.837  1.00  0.00    -0.151 C  
HETATM   41  O   UNL     2      -7.979   9.093  63.836  1.00  0.00    -0.126 OA 
HETATM   42  H   UNL     2      -8.092   8.322  63.294  1.00  0.00     0.000 HD 
ENDBRANCH  39  40
ENDBRANCH   3  39
TORSDOF 2
ENDMDL
MODEL       87
REMARK 921   NORMALIZED FREE ENERGY PREDICTED BY IDOCK:   17.75 KCAL/MOL
REMARK 922        TOTAL FREE ENERGY PREDICTED BY IDOCK:   19.53 KCAL/MOL
REMARK 923 INTER-LIGAND FREE ENERGY PREDICTED BY IDOCK:   19.72 KCAL/MOL
REMARK 924 INTRA-LIGAND FREE ENERGY PREDICTED BY IDOCK:   -0.18 KCAL/MOL
REMARK 927      BINDING AFFINITY PREDICTED BY RF-SCORE:    0.00 PKD
ROOT
HETATM    1 MG   UNL     1     -12.525  13.571  70.351  1.00  0.00    -0.272 Mg 
HETATM    2  C   UNL     2     -11.858  17.021  67.911  1.00  0.00     1.064 C  
HETATM    3  N   UNL     2     -10.501  16.597  68.348  1.00  0.00    -0.303 N  
HETATM    4  O   UNL     3      -9.798  11.965  67.638  1.00  0.00    -0.182 OA 
HETATM    5  C   UNL     2      -9.881  17.419  69.445  1.00  0.00     0.042 C  
HETATM    6  C   UNL     5      -7.742  14.581  67.901  1.00  0.00    -0.140 C  
HETATM    7  C   UNL     3      -8.476  11.596  67.425  1.00  0.00    -0.150 A  
HETATM    8  C   UNL     2     -10.758  15.153  68.724  1.00  0.00    -0.239 C  
HETATM    9  O   UNL     4     -13.088  11.918  70.077  1.00  0.00     0.475 OA 
HETATM   10  H   UNL     3     -10.342  12.011  66.861  1.00  0.00     0.000 HD 
HETATM   11  C   UNL     3      -7.671  11.528  68.574  1.00  0.00    -0.134 A  
HETATM   12  H   UNL     4     -13.632  11.795  69.309  1.00  0.00     0.000 HD 
HETATM   13  O   UNL     5      -9.296  14.993  70.915  1.00  0.00     0.580 OA 
HETATM   14  O   UNL     5      -8.901  14.259  67.581  1.00  0.00    -0.177 OA 
HETATM   15  C   UNL     4     -11.902  11.201  70.179  1.00  0.00    -0.365 A  
HETATM   16  C   UNL     5      -7.946  14.737  70.635  1.00  0.00     1.622 A  
HETATM   17  H   UNL     5      -9.782  15.015  70.098  1.00  0.00     0.000 HD 
HETATM   18  O   UNL     5      -6.911  15.131  67.087  1.00  0.00    -0.259 OA 
HETATM   19  C   UNL     4     -11.102  11.381  71.309  1.00  0.00     2.539 A  
HETATM   20  C   UNL     3      -6.302  11.343  68.452  1.00  0.00    -0.046 A  
HETATM   21  C   UNL     3      -5.744  11.254  67.184  1.00  0.00    -0.077 A  
HETATM   22  O   UNL     4     -12.247   9.566  66.971  1.00  0.00     3.784 OA 
HETATM   23  C   UNL     5      -7.226  14.705  71.845  1.00  0.00     2.890 A  
HETATM   24  C   UNL     4      -9.904  10.682  71.386  1.00  0.00     4.322 A  
HETATM   25  C   UNL     5      -5.848  14.588  71.821  1.00  0.00     0.042 A  
HETATM   26  C   UNL     4      -9.555   9.782  70.377  1.00  0.00    -0.223 A  
HETATM   27  C   UNL     3      -6.561  11.343  66.042  1.00  0.00     0.219 A  
HETATM   28  C   UNL     4     -10.356   9.639  69.237  1.00  0.00    -0.223 A  
HETATM   29  C   UNL     5      -5.168  14.490  70.626  1.00  0.00    -0.122 A  
HETATM   30  C   UNL     3      -7.941  11.545  66.134  1.00  0.00     0.093 A  
HETATM   31  C   UNL     4     -11.519  10.397  69.101  1.00  0.00    -0.261 A  
HETATM   32  C   UNL     3      -8.773  11.859  64.947  1.00  0.00     0.815 C  
HETATM   33  C   UNL     5      -5.885  14.484  69.453  1.00  0.00    -0.097 A  
HETATM   34  C   UNL     5      -7.291  14.602  69.394  1.00  0.00    -0.135 A  
HETATM   35  O   UNL     3      -9.952  12.341  65.152  1.00  0.00    -0.261 OA 
HETATM   36  C   UNL     4     -12.283  10.508  67.798  1.00  0.00     2.045 C  
HETATM   37  O   UNL     3      -8.286  11.624  63.758  1.00  0.00     0.733 OA 
HETATM   38  O   UNL     4     -13.059  11.549  67.807  1.00  0.00     2.875 OA 
ENDROOT
BRANCH   3  39
HETATM   39  C   UNL     2      -9.489  16.718  67.118  1.00  0.00    -0.232 C  
BRANCH  39  40
HETATM   40  C   UNL     2      -9.555  17.995  66.272  1.00  0.00    -0.238 C  
HETATM   41  O   UNL     2      -8.771  19.034  66.823  1.00  0.00    -0.286 OA 
HETATM   42  H   UNL     2      -8.811  19.826  66.300  1.00  0.00     0.000 HD 
ENDBRANCH  39  40
ENDBRANCH   3  39
TORSDOF 2
ENDMDL
MODEL       88
REMARK 921   NORMALIZED FREE ENERGY PREDICTED BY IDOCK:   19.59 KCAL/MOL
REMARK 922        TOTAL FREE ENERGY PREDICTED BY IDOCK:   21.58 KCAL/MOL
REMARK 923 INTER-LIGAND FREE ENERGY PREDICTED BY IDOCK:   21.85 KCAL/MOL
REMARK 924 INTRA-LIGAND FREE ENERGY PREDICTED BY IDOCK:   -0.27 KCAL/MOL
REMARK 927      BINDING AFFINITY PREDICTED BY RF-SCORE:    0.00 PKD
ROOT
HETATM    1 MG   UNL     1      -5.132  15.869  68.604  1.00  0.00    -0.085 Mg 
HETATM    2  C   UNL     2      -5.634  19.022  71.451  1.00  0.00    -0.142 C  
HETATM    3  N   UNL     2      -6.730  19.221  70.467  1.00  0.00     0.305 N  
HETATM    4  O   UNL     3      -9.111  15.206  69.652  1.00  0.00    -0.411 OA 
HETATM    5  C   UNL     2      -6.523  20.333  69.474  1.00  0.00    -0.240 C  
HETATM    6  C   UNL     5      -9.899  18.437  69.363  1.00  0.00     0.091 C  
HETATM    7  C   UNL     3     -10.438  15.375  69.278  1.00  0.00    -0.251 A  
HETATM    8  C   UNL     2      -6.815  17.843  69.846  1.00  0.00     0.397 C  
HETATM    9  O   UNL     4      -5.303  14.110  68.620  1.00  0.00    -0.081 OA 
HETATM   10  H   UNL     3      -8.969  14.950  70.555  1.00  0.00     0.000 HD 
HETATM   11  C   UNL     3     -10.649  15.754  67.942  1.00  0.00    -0.282 A  
HETATM   12  H   UNL     4      -5.210  13.701  69.472  1.00  0.00     0.000 HD 
HETATM   13  O   UNL     5      -7.165  18.511  67.317  1.00  0.00    -0.207 OA 
HETATM   14  O   UNL     5      -9.160  17.649  69.979  1.00  0.00     1.312 OA 
HETATM   15  C   UNL     4      -6.490  13.940  67.921  1.00  0.00    -0.162 A  
HETATM   16  C   UNL     5      -8.508  18.786  67.021  1.00  0.00    -0.281 A  
HETATM   17  H   UNL     5      -7.096  18.251  68.229  1.00  0.00     0.000 HD 
HETATM   18  O   UNL     5     -10.775  19.183  69.941  1.00  0.00     0.945 OA 
HETATM   19  C   UNL     4      -6.626  14.542  66.669  1.00  0.00     2.223 A  
HETATM   20  C   UNL     3     -11.918  16.118  67.516  1.00  0.00     0.780 A  
HETATM   21  C   UNL     3     -12.960  16.126  68.432  1.00  0.00     2.776 A  
HETATM   22  O   UNL     4      -8.094  11.975  70.500  1.00  0.00     3.195 OA 
HETATM   23  C   UNL     5      -8.610  19.172  65.671  1.00  0.00     0.509 A  
HETATM   24  C   UNL     4      -7.830  14.390  65.992  1.00  0.00     2.669 A  
HETATM   25  C   UNL     5      -9.822  19.611  65.171  1.00  0.00     1.210 A  
HETATM   26  C   UNL     4      -8.844  13.603  66.541  1.00  0.00     0.000 A  
HETATM   27  C   UNL     3     -12.729  15.761  69.772  1.00  0.00     0.200 A  
HETATM   28  C   UNL     4      -8.701  13.034  67.812  1.00  0.00    -0.188 A  
HETATM   29  C   UNL     5     -10.939  19.667  65.977  1.00  0.00    -0.288 A  
HETATM   30  C   UNL     3     -11.459  15.405  70.233  1.00  0.00    -0.339 A  
HETATM   31  C   UNL     4      -7.533  13.247  68.544  1.00  0.00    -0.115 A  
HETATM   32  C   UNL     3     -11.162  15.234  71.676  1.00  0.00    -0.301 C  
HETATM   33  C   UNL     5     -10.837  19.252  67.283  1.00  0.00    -0.554 A  
HETATM   34  C   UNL     5      -9.636  18.793  67.868  1.00  0.00    -0.345 A  
HETATM   35  O   UNL     3      -9.924  15.226  72.036  1.00  0.00     1.753 OA 
HETATM   36  C   UNL     4      -7.409  12.906  70.015  1.00  0.00     1.357 C  
HETATM   37  O   UNL     3     -12.157  15.089  72.510  1.00  0.00    -0.351 OA 
HETATM   38  O   UNL     4      -6.415  13.546  70.552  1.00  0.00     0.030 OA 
ENDROOT
BRANCH   3  39
HETATM   39  C   UNL     2      -8.073  19.605  71.242  1.00  0.00     2.841 C  
BRANCH  39  40
HETATM   40  C   UNL     2      -7.932  20.363  72.567  1.00  0.00     2.755 C  
HETATM   41  O   UNL     2      -9.043  21.200  72.819  1.00  0.00     1.126 OA 
HETATM   42  H   UNL     2      -8.955  21.670  73.640  1.00  0.00     0.000 HD 
ENDBRANCH  39  40
ENDBRANCH   3  39
TORSDOF 2
ENDMDL
MODEL       89
REMARK 921   NORMALIZED FREE ENERGY PREDICTED BY IDOCK:   20.84 KCAL/MOL
REMARK 922        TOTAL FREE ENERGY PREDICTED BY IDOCK:   22.99 KCAL/MOL
REMARK 923 INTER-LIGAND FREE ENERGY PREDICTED BY IDOCK:   23.28 KCAL/MOL
REMARK 924 INTRA-LIGAND FREE ENERGY PREDICTED BY IDOCK:   -0.29 KCAL/MOL
REMARK 927      BINDING AFFINITY PREDICTED BY RF-SCORE:    0.00 PKD
ROOT
HETATM    1 MG   UNL     1     -10.239   9.601  71.418  1.00  0.00    -0.239 Mg 
HETATM    2  C   UNL     2     -13.010  12.757  70.602  1.00  0.00     0.173 C  
HETATM    3  N   UNL     2     -11.765  13.151  69.891  1.00  0.00    -0.287 N  
HETATM    4  O   UNL     3     -10.050   9.609  67.253  1.00  0.00    -0.185 OA 
HETATM    5  C   UNL     2     -10.945  14.224  70.556  1.00  0.00     0.375 C  
HETATM    6  C   UNL     5      -9.746  12.929  67.108  1.00  0.00    -0.221 C  
HETATM    7  C   UNL     3      -9.319  10.004  66.141  1.00  0.00    -0.173 A  
HETATM    8  C   UNL     2     -11.062  11.815  69.777  1.00  0.00     0.006 C  
HETATM    9  O   UNL     4     -10.097   7.896  70.973  1.00  0.00    -0.191 OA 
HETATM   10  H   UNL     3     -10.938   9.321  67.080  1.00  0.00     0.000 HD 
HETATM   11  C   UNL     3      -8.005  10.430  66.396  1.00  0.00    -0.130 A  
HETATM   12  H   UNL     4     -10.912   7.466  70.744  1.00  0.00     0.000 HD 
HETATM   13  O   UNL     5      -8.586  12.565  70.300  1.00  0.00     2.908 OA 
HETATM   14  O   UNL     5     -10.500  12.019  67.498  1.00  0.00    -0.207 OA 
HETATM   15  C   UNL     4      -9.075   7.938  70.034  1.00  0.00    -0.152 A  
HETATM   16  C   UNL     5      -7.932  13.067  69.165  1.00  0.00     0.447 A  
HETATM   17  H   UNL     5      -9.461  12.286  70.054  1.00  0.00     0.000 HD 
HETATM   18  O   UNL     5     -10.091  13.806  66.230  1.00  0.00    -0.284 OA 
HETATM   19  C   UNL     4      -7.877   8.570  70.371  1.00  0.00    -0.089 A  
HETATM   20  C   UNL     3      -7.254  11.009  65.384  1.00  0.00     0.293 A  
HETATM   21  C   UNL     3      -7.829  11.182  64.133  1.00  0.00     0.771 A  
HETATM   22  O   UNL     4     -10.954   6.241  67.451  1.00  0.00    -0.325 OA 
HETATM   23  C   UNL     5      -6.636  13.481  69.529  1.00  0.00    -0.054 A  
HETATM   24  C   UNL     4      -6.873   8.633  69.413  1.00  0.00    -0.049 A  
HETATM   25  C   UNL     5      -5.836  14.126  68.604  1.00  0.00    -0.086 A  
HETATM   26  C   UNL     4      -7.055   8.022  68.170  1.00  0.00    -0.089 A  
HETATM   27  C   UNL     3      -9.153  10.767  63.897  1.00  0.00    -0.207 A  
HETATM   28  C   UNL     4      -8.276   7.421  67.840  1.00  0.00    -0.120 A  
HETATM   29  C   UNL     5      -6.286  14.360  67.322  1.00  0.00     0.369 A  
HETATM   30  C   UNL     3      -9.938  10.195  64.901  1.00  0.00    -0.358 A  
HETATM   31  C   UNL     4      -9.327   7.424  68.758  1.00  0.00    -0.144 A  
HETATM   32  C   UNL     3     -11.392   9.958  64.728  1.00  0.00     4.066 C  
HETATM   33  C   UNL     5      -7.538  13.917  66.967  1.00  0.00     0.220 A  
HETATM   34  C   UNL     5      -8.415  13.254  67.854  1.00  0.00    -0.177 A  
HETATM   35  O   UNL     3     -12.094   9.736  65.787  1.00  0.00     4.450 OA 
HETATM   36  C   UNL     4     -10.746   7.049  68.386  1.00  0.00    -0.179 C  
HETATM   37  O   UNL     3     -11.892   9.973  63.521  1.00  0.00     4.791 OA 
HETATM   38  O   UNL     4     -11.586   7.505  69.265  1.00  0.00     0.310 OA 
ENDROOT
BRANCH   3  39
HETATM   39  C   UNL     2     -12.141  13.748  68.458  1.00  0.00    -0.292 C  
BRANCH  39  40
HETATM   40  C   UNL     2     -12.774  15.144  68.418  1.00  0.00     1.019 C  
HETATM   41  O   UNL     2     -14.181  15.082  68.296  1.00  0.00     7.317 OA 
HETATM   42  H   UNL     2     -14.573  15.947  68.270  1.00  0.00     0.000 HD 
ENDBRANCH  39  40
ENDBRANCH   3  39
TORSDOF 2
ENDMDL
MODEL       90
REMARK 921   NORMALIZED FREE ENERGY PREDICTED BY IDOCK:   22.35 KCAL/MOL
REMARK 922        TOTAL FREE ENERGY PREDICTED BY IDOCK:   24.68 KCAL/MOL
REMARK 923 INTER-LIGAND FREE ENERGY PREDICTED BY IDOCK:   23.96 KCAL/MOL
REMARK 924 INTRA-LIGAND FREE ENERGY PREDICTED BY IDOCK:    0.71 KCAL/MOL
REMARK 927      BINDING AFFINITY PREDICTED BY RF-SCORE:    0.00 PKD
ROOT
HETATM    1 MG   UNL     1     -12.658  11.405  66.520  1.00  0.00     0.194 Mg 
HETATM    2  C   UNL     2     -12.473   7.206  65.725  1.00  0.00    10.240 C  
HETATM    3  N   UNL     2     -11.062   7.609  65.964  1.00  0.00     2.415 N  
HETATM    4  O   UNL     3     -10.613  10.160  69.933  1.00  0.00    -0.251 OA 
HETATM    5  C   UNL     2     -10.203   7.743  64.736  1.00  0.00     4.707 C  
HETATM    6  C   UNL     5      -8.503   8.262  68.178  1.00  0.00    -0.132 C  
HETATM    7  C   UNL     3      -9.376  10.065  70.556  1.00  0.00     0.282 A  
HETATM    8  C   UNL     2     -11.257   8.902  66.728  1.00  0.00     1.190 C  
HETATM    9  O   UNL     4     -13.296  12.420  67.819  1.00  0.00     3.525 OA 
HETATM   10  H   UNL     3     -11.312   9.651  70.327  1.00  0.00     0.000 HD 
HETATM   11  C   UNL     3      -8.343  10.817  69.974  1.00  0.00     0.747 A  
HETATM   12  H   UNL     4     -13.996  12.033  68.331  1.00  0.00     0.000 HD 
HETATM   13  O   UNL     5      -9.358  10.366  65.626  1.00  0.00    -0.176 OA 
HETATM   14  O   UNL     5      -9.708   8.421  68.439  1.00  0.00    -0.150 OA 
HETATM   15  C   UNL     4     -12.130  12.809  68.466  1.00  0.00    -0.100 A  
HETATM   16  C   UNL     5      -8.106  10.142  66.217  1.00  0.00    -0.124 A  
HETATM   17  H   UNL     5     -10.009   9.837  66.074  1.00  0.00     0.000 HD 
HETATM   18  O   UNL     5      -7.857   7.182  68.450  1.00  0.00    -0.117 OA 
HETATM   19  C   UNL     4     -11.101  13.377  67.714  1.00  0.00    -0.292 A  
HETATM   20  C   UNL     3      -7.036  10.655  70.410  1.00  0.00     0.167 A  
HETATM   21  C   UNL     3      -6.768   9.726  71.406  1.00  0.00     0.278 A  
HETATM   22  O   UNL     4     -13.192  11.677  71.733  1.00  0.00    -0.453 OA 
HETATM   23  C   UNL     5      -7.141  10.925  65.553  1.00  0.00     0.117 A  
HETATM   24  C   UNL     4      -9.928  13.735  68.366  1.00  0.00    -0.229 A  
HETATM   25  C   UNL     5      -5.803  10.787  65.876  1.00  0.00    -0.142 A  
HETATM   26  C   UNL     4      -9.823  13.575  69.749  1.00  0.00     1.438 A  
HETATM   27  C   UNL     3      -7.811   8.967  71.967  1.00  0.00     0.219 A  
HETATM   28  C   UNL     4     -10.854  12.973  70.481  1.00  0.00     2.020 A  
HETATM   29  C   UNL     5      -5.401   9.898  66.850  1.00  0.00    -0.041 A  
HETATM   30  C   UNL     3      -9.135   9.097  71.537  1.00  0.00    -0.118 A  
HETATM   31  C   UNL     4     -12.004  12.529  69.830  1.00  0.00    -0.371 A  
HETATM   32  C   UNL     3     -10.199   8.155  71.961  1.00  0.00    -0.249 C  
HETATM   33  C   UNL     5      -6.355   9.168  67.518  1.00  0.00    -0.063 A  
HETATM   34  C   UNL     5      -7.738   9.250  67.245  1.00  0.00    -0.095 A  
HETATM   35  O   UNL     3     -11.296   8.145  71.282  1.00  0.00    -0.254 OA 
HETATM   36  C   UNL     4     -13.030  11.632  70.491  1.00  0.00     0.162 C  
HETATM   37  O   UNL     3      -9.986   7.393  73.000  1.00  0.00    -0.201 OA 
HETATM   38  O   UNL     4     -13.767  11.042  69.599  1.00  0.00     1.238 OA 
ENDROOT
BRANCH   3  39
HETATM   39  C   UNL     2     -10.338   6.498  66.855  1.00  0.00    -0.243 C  
BRANCH  39  40
HETATM   40  C   UNL     2     -10.351   5.056  66.333  1.00  0.00    -0.294 C  
HETATM   41  O   UNL     2     -11.337   4.863  65.338  1.00  0.00    -0.881 OA 
HETATM   42  H   UNL     2     -11.346   3.970  65.015  1.00  0.00     0.000 HD 
ENDBRANCH  39  40
ENDBRANCH   3  39
TORSDOF 2
ENDMDL
MODEL       91
REMARK 921   NORMALIZED FREE ENERGY PREDICTED BY IDOCK:   23.59 KCAL/MOL
REMARK 922        TOTAL FREE ENERGY PREDICTED BY IDOCK:   26.06 KCAL/MOL
REMARK 923 INTER-LIGAND FREE ENERGY PREDICTED BY IDOCK:   26.26 KCAL/MOL
REMARK 924 INTRA-LIGAND FREE ENERGY PREDICTED BY IDOCK:   -0.20 KCAL/MOL
REMARK 927      BINDING AFFINITY PREDICTED BY RF-SCORE:    0.00 PKD
ROOT
HETATM    1 MG   UNL     1     -12.314   8.705  69.793  1.00  0.00    -0.413 Mg 
HETATM    2  C   UNL     2      -9.737  10.173  72.876  1.00  0.00     8.154 C  
HETATM    3  N   UNL     2      -9.071   8.940  72.380  1.00  0.00    -0.005 N  
HETATM    4  O   UNL     3      -8.742   8.903  67.653  1.00  0.00    -0.124 OA 
HETATM    5  C   UNL     2      -9.206   7.726  73.258  1.00  0.00    -0.258 C  
HETATM    6  C   UNL     5      -7.010   7.407  70.082  1.00  0.00    -0.060 C  
HETATM    7  C   UNL     3      -7.670   8.181  67.144  1.00  0.00    -0.097 A  
HETATM    8  C   UNL     2      -9.712   8.795  71.016  1.00  0.00    -0.230 C  
HETATM    9  O   UNL     4     -12.789   9.244  68.178  1.00  0.00     5.174 OA 
HETATM   10  H   UNL     3      -8.635   9.846  67.663  1.00  0.00     0.000 HD 
HETATM   11  C   UNL     3      -7.829   6.786  67.129  1.00  0.00    -0.112 A  
HETATM   12  H   UNL     4     -12.712  10.177  68.022  1.00  0.00     0.000 HD 
HETATM   13  O   UNL     5     -10.073   6.181  70.967  1.00  0.00    -0.181 OA 
HETATM   14  O   UNL     5      -7.710   8.405  69.835  1.00  0.00    -0.087 OA 
HETATM   15  C   UNL     4     -12.074   8.368  67.372  1.00  0.00     5.415 A  
HETATM   16  C   UNL     5      -8.921   5.493  70.558  1.00  0.00    -0.136 A  
HETATM   17  H   UNL     5      -9.900   7.115  70.943  1.00  0.00     0.000 HD 
HETATM   18  O   UNL     5      -5.782   7.481  70.460  1.00  0.00    -0.026 OA 
HETATM   19  C   UNL     4     -12.189   6.996  67.602  1.00  0.00     3.860 A  
HETATM   20  C   UNL     3      -6.755   5.969  66.807  1.00  0.00    -0.057 A  
HETATM   21  C   UNL     3      -5.526   6.549  66.528  1.00  0.00    -0.014 A  
HETATM   22  O   UNL     4     -10.473  10.966  65.431  1.00  0.00    -0.265 OA 
HETATM   23  C   UNL     5      -9.177   4.109  70.595  1.00  0.00    -0.195 A  
HETATM   24  C   UNL     4     -11.446   6.131  66.809  1.00  0.00     0.393 A  
HETATM   25  C   UNL     5      -8.152   3.214  70.350  1.00  0.00    -0.058 A  
HETATM   26  C   UNL     4     -10.656   6.637  65.774  1.00  0.00     1.637 A  
HETATM   27  C   UNL     3      -5.378   7.948  66.564  1.00  0.00    -0.025 A  
HETATM   28  C   UNL     4     -10.530   8.019  65.580  1.00  0.00     2.771 A  
HETATM   29  C   UNL     5      -6.880   3.660  70.059  1.00  0.00    -0.034 A  
HETATM   30  C   UNL     3      -6.438   8.795  66.900  1.00  0.00    -0.061 A  
HETATM   31  C   UNL     4     -11.200   8.906  66.422  1.00  0.00     1.827 A  
HETATM   32  C   UNL     3      -6.240  10.243  67.156  1.00  0.00    -0.062 C  
HETATM   33  C   UNL     5      -6.651   5.013  69.988  1.00  0.00    -0.036 A  
HETATM   34  C   UNL     5      -7.643   5.989  70.227  1.00  0.00    -0.095 A  
HETATM   35  O   UNL     3      -7.183  10.878  67.764  1.00  0.00    -0.088 OA 
HETATM   36  C   UNL     4     -10.905  10.391  66.457  1.00  0.00    -0.028 C  
HETATM   37  O   UNL     3      -5.136  10.809  66.747  1.00  0.00    -0.042 OA 
HETATM   38  O   UNL     4     -11.341  10.920  67.559  1.00  0.00    -0.394 OA 
ENDROOT
BRANCH   3  39
HETATM   39  C   UNL     2      -7.498   9.197  72.270  1.00  0.00     0.541 C  
BRANCH  39  40
HETATM   40  C   UNL     2      -6.617   8.678  73.413  1.00  0.00    -0.007 C  
HETATM   41  O   UNL     2      -6.159   9.726  74.245  1.00  0.00    -0.319 OA 
HETATM   42  H   UNL     2      -5.613   9.406  74.952  1.00  0.00     0.000 HD 
ENDBRANCH  39  40
ENDBRANCH   3  39
TORSDOF 2
ENDMDL
MODEL       92
REMARK 921   NORMALIZED FREE ENERGY PREDICTED BY IDOCK:   24.22 KCAL/MOL
REMARK 922        TOTAL FREE ENERGY PREDICTED BY IDOCK:   26.76 KCAL/MOL
REMARK 923 INTER-LIGAND FREE ENERGY PREDICTED BY IDOCK:   27.06 KCAL/MOL
REMARK 924 INTRA-LIGAND FREE ENERGY PREDICTED BY IDOCK:   -0.30 KCAL/MOL
REMARK 927      BINDING AFFINITY PREDICTED BY RF-SCORE:    0.00 PKD
ROOT
HETATM    1 MG   UNL     1     -13.818  14.513  70.533  1.00  0.00    -0.447 Mg 
HETATM    2  C   UNL     2     -12.874  10.472  71.573  1.00  0.00    -0.463 C  
HETATM    3  N   UNL     2     -12.431  10.614  70.161  1.00  0.00    -0.312 N  
HETATM    4  O   UNL     3      -9.771  14.484  69.534  1.00  0.00    -0.418 OA 
HETATM    5  C   UNL     2     -13.333   9.995  69.128  1.00  0.00     3.642 C  
HETATM    6  C   UNL     5     -10.024  11.588  67.895  1.00  0.00    -0.183 C  
HETATM    7  C   UNL     3      -8.846  14.402  68.502  1.00  0.00    -0.182 A  
HETATM    8  C   UNL     2     -12.300  12.118  70.049  1.00  0.00    -0.096 C  
HETATM    9  O   UNL     4     -13.230  16.111  71.005  1.00  0.00    -0.401 OA 
HETATM   10  H   UNL     3      -9.420  14.373  70.410  1.00  0.00     0.000 HD 
HETATM   11  C   UNL     3      -9.365  14.567  67.207  1.00  0.00    -0.213 A  
HETATM   12  H   UNL     4     -12.821  16.158  71.861  1.00  0.00     0.000 HD 
HETATM   13  O   UNL     5     -13.312  12.478  67.639  1.00  0.00     3.301 OA 
HETATM   14  O   UNL     5     -10.183  12.111  69.013  1.00  0.00    -0.093 OA 
HETATM   15  C   UNL     4     -12.487  16.475  69.889  1.00  0.00     1.576 A  
HETATM   16  C   UNL     5     -12.364  12.266  66.628  1.00  0.00     0.566 A  
HETATM   17  H   UNL     5     -12.893  12.363  68.484  1.00  0.00     0.000 HD 
HETATM   18  O   UNL     5      -9.197  10.627  67.676  1.00  0.00    -0.145 OA 
HETATM   19  C   UNL     4     -13.088  16.406  68.630  1.00  0.00     3.446 A  
HETATM   20  C   UNL     3      -8.561  14.328  66.102  1.00  0.00     0.630 A  
HETATM   21  C   UNL     3      -7.255  13.902  66.297  1.00  0.00     3.171 A  
HETATM   22  O   UNL     4      -9.460  17.175  71.739  1.00  0.00     7.125 OA 
HETATM   23  C   UNL     5     -12.985  12.437  65.375  1.00  0.00     0.805 A  
HETATM   24  C   UNL     4     -12.327  16.744  67.518  1.00  0.00     2.471 A  
HETATM   25  C   UNL     5     -12.282  12.161  64.217  1.00  0.00    -0.469 A  
HETATM   26  C   UNL     4     -11.015  17.193  67.681  1.00  0.00    -0.148 A  
HETATM   27  C   UNL     3      -6.755  13.724  67.601  1.00  0.00    -0.189 A  
HETATM   28  C   UNL     4     -10.421  17.225  68.948  1.00  0.00    -0.327 A  
HETATM   29  C   UNL     5     -10.974  11.730  64.270  1.00  0.00    -0.419 A  
HETATM   30  C   UNL     3      -7.546  13.942  68.732  1.00  0.00    -0.108 A  
HETATM   31  C   UNL     4     -11.141  16.807  70.067  1.00  0.00     0.036 A  
HETATM   32  C   UNL     3      -7.103  13.548  70.093  1.00  0.00     0.785 C  
HETATM   33  C   UNL     5     -10.366  11.604  65.497  1.00  0.00    -0.309 A  
HETATM   34  C   UNL     5     -11.016  11.863  66.724  1.00  0.00    -0.337 A  
HETATM   35  O   UNL     3      -7.998  13.484  71.019  1.00  0.00     4.002 OA 
HETATM   36  C   UNL     4     -10.496  16.550  71.413  1.00  0.00     1.955 C  
HETATM   37  O   UNL     3      -5.837  13.298  70.293  1.00  0.00    -0.143 OA 
HETATM   38  O   UNL     4     -11.261  15.807  72.154  1.00  0.00    -0.292 OA 
ENDROOT
BRANCH   3  39
HETATM   39  C   UNL     2     -11.024   9.881  69.973  1.00  0.00    -0.291 C  
BRANCH  39  40
HETATM   40  C   UNL     2     -10.456   9.122  71.178  1.00  0.00    -0.315 C  
HETATM   41  O   UNL     2      -9.195   8.548  70.895  1.00  0.00    -0.152 OA 
HETATM   42  H   UNL     2      -8.843   8.077  71.641  1.00  0.00     0.000 HD 
ENDBRANCH  39  40
ENDBRANCH   3  39
TORSDOF 2
ENDMDL
MODEL       93
REMARK 921   NORMALIZED FREE ENERGY PREDICTED BY IDOCK:   31.96 KCAL/MOL
REMARK 922        TOTAL FREE ENERGY PREDICTED BY IDOCK:   35.41 KCAL/MOL
REMARK 923 INTER-LIGAND FREE ENERGY PREDICTED BY IDOCK:   36.20 KCAL/MOL
REMARK 924 INTRA-LIGAND FREE ENERGY PREDICTED BY IDOCK:   -0.80 KCAL/MOL
REMARK 927      BINDING AFFINITY PREDICTED BY RF-SCORE:    0.00 PKD
ROOT
HETATM    1 MG   UNL     1     -11.479   9.609  65.410  1.00  0.00     0.656 Mg 
HETATM    2  C   UNL     2      -8.185  10.199  62.746  1.00  0.00    -0.153 C  
HETATM    3  N   UNL     2      -7.566  10.067  64.091  1.00  0.00    -0.139 N  
HETATM    4  O   UNL     3      -9.194   6.268  66.409  1.00  0.00    -0.153 OA 
HETATM    5  C   UNL     2      -7.107  11.350  64.728  1.00  0.00     1.574 C  
HETATM    6  C   UNL     5      -6.380   8.050  66.621  1.00  0.00    -0.054 C  
HETATM    7  C   UNL     3      -8.311   5.717  67.329  1.00  0.00    -0.104 A  
HETATM    8  C   UNL     2      -8.670   9.359  64.848  1.00  0.00    -0.190 C  
HETATM    9  O   UNL     4     -12.662   8.327  65.695  1.00  0.00    11.638 OA 
HETATM   10  H   UNL     3      -9.266   5.807  65.582  1.00  0.00     0.000 HD 
HETATM   11  C   UNL     3      -8.204   6.399  68.552  1.00  0.00    -0.113 A  
HETATM   12  H   UNL     4     -12.827   7.754  64.956  1.00  0.00     0.000 HD 
HETATM   13  O   UNL     5      -8.534  10.648  67.147  1.00  0.00    -0.126 OA 
HETATM   14  O   UNL     5      -7.290   7.724  65.837  1.00  0.00    -0.071 OA 
HETATM   15  C   UNL     4     -12.192   7.773  66.879  1.00  0.00     6.392 A  
HETATM   16  C   UNL     5      -7.545  10.124  67.992  1.00  0.00    -0.088 A  
HETATM   17  H   UNL     5      -8.561  10.135  66.347  1.00  0.00     0.000 HD 
HETATM   18  O   UNL     5      -5.141   7.763  66.424  1.00  0.00    -0.023 OA 
HETATM   19  C   UNL     4     -11.949   8.614  67.966  1.00  0.00     3.451 A  
HETATM   20  C   UNL     3      -7.225   6.036  69.465  1.00  0.00    -0.070 A  
HETATM   21  C   UNL     3      -6.347   5.013  69.140  1.00  0.00    -0.031 A  
HETATM   22  O   UNL     4     -12.027   4.393  65.600  1.00  0.00     1.714 OA 
HETATM   23  C   UNL     5      -7.505  10.885  69.177  1.00  0.00    -0.130 A  
HETATM   24  C   UNL     4     -11.450   8.054  69.135  1.00  0.00     0.678 A  
HETATM   25  C   UNL     5      -6.525  10.637  70.120  1.00  0.00    -0.152 A  
HETATM   26  C   UNL     4     -11.258   6.673  69.220  1.00  0.00    -0.326 A  
HETATM   27  C   UNL     3      -6.455   4.351  67.903  1.00  0.00    -0.038 A  
HETATM   28  C   UNL     4     -11.477   5.850  68.108  1.00  0.00     0.732 A  
HETATM   29  C   UNL     5      -5.588   9.646  69.920  1.00  0.00    -0.032 A  
HETATM   30  C   UNL     3      -7.421   4.706  66.957  1.00  0.00    -0.086 A  
HETATM   31  C   UNL     4     -11.896   6.406  66.899  1.00  0.00     1.615 A  
HETATM   32  C   UNL     3      -7.405   4.170  65.574  1.00  0.00    -0.076 C  
HETATM   33  C   UNL     5      -5.659   8.885  68.778  1.00  0.00    -0.041 A  
HETATM   34  C   UNL     5      -6.628   9.077  67.768  1.00  0.00    -0.061 A  
HETATM   35  O   UNL     3      -8.116   4.779  64.687  1.00  0.00    -0.098 OA 
HETATM   36  C   UNL     4     -11.889   5.639  65.593  1.00  0.00     2.741 C  
HETATM   37  O   UNL     3      -6.687   3.108  65.319  1.00  0.00    -0.039 OA 
HETATM   38  O   UNL     4     -11.926   6.453  64.583  1.00  0.00     7.614 OA 
ENDROOT
BRANCH   3  39
HETATM   39  C   UNL     2      -6.251   9.167  63.981  1.00  0.00    -0.083 C  
BRANCH  39  40
HETATM   40  C   UNL     2      -6.105   8.278  62.741  1.00  0.00    -0.082 C  
HETATM   41  O   UNL     2      -6.562   6.961  62.977  1.00  0.00    -0.042 OA 
HETATM   42  H   UNL     2      -6.471   6.410  62.209  1.00  0.00     0.000 HD 
ENDBRANCH  39  40
ENDBRANCH   3  39
TORSDOF 2
ENDMDL
MODEL       94
REMARK 921   NORMALIZED FREE ENERGY PREDICTED BY IDOCK:   33.34 KCAL/MOL
REMARK 922        TOTAL FREE ENERGY PREDICTED BY IDOCK:   36.95 KCAL/MOL
REMARK 923 INTER-LIGAND FREE ENERGY PREDICTED BY IDOCK:   37.07 KCAL/MOL
REMARK 924 INTRA-LIGAND FREE ENERGY PREDICTED BY IDOCK:   -0.11 KCAL/MOL
REMARK 927      BINDING AFFINITY PREDICTED BY RF-SCORE:    0.00 PKD
ROOT
HETATM    1 MG   UNL     1     -10.167  10.459  64.583  1.00  0.00    -0.246 Mg 
HETATM    2  C   UNL     2      -6.024   9.442  64.264  1.00  0.00    -0.077 C  
HETATM    3  N   UNL     2      -6.104  10.343  65.444  1.00  0.00    -0.124 N  
HETATM    4  O   UNL     3      -9.526   9.015  68.440  1.00  0.00    -0.145 OA 
HETATM    5  C   UNL     2      -5.636  11.756  65.220  1.00  0.00     1.995 C  
HETATM    6  C   UNL     5      -6.712  10.771  68.809  1.00  0.00    -0.060 C  
HETATM    7  C   UNL     3      -9.309   9.355  69.769  1.00  0.00    -0.203 A  
HETATM    8  C   UNL     2      -7.572  10.225  65.798  1.00  0.00    -0.143 C  
HETATM    9  O   UNL     4     -11.655   9.595  64.990  1.00  0.00     3.339 OA 
HETATM   10  H   UNL     3      -9.358   8.108  68.215  1.00  0.00     0.000 HD 
HETATM   11  C   UNL     3      -9.558  10.696  70.102  1.00  0.00     0.672 A  
HETATM   12  H   UNL     4     -11.634   8.657  64.842  1.00  0.00     0.000 HD 
HETATM   13  O   UNL     5      -8.095  12.744  66.387  1.00  0.00    -0.313 OA 
HETATM   14  O   UNL     5      -7.247   9.892  68.109  1.00  0.00    -0.077 OA 
HETATM   15  C   UNL     4     -11.907  10.065  66.272  1.00  0.00     3.563 A  
HETATM   16  C   UNL     5      -7.746  13.064  67.707  1.00  0.00    -0.151 A  
HETATM   17  H   UNL     5      -7.913  11.823  66.234  1.00  0.00     0.000 HD 
HETATM   18  O   UNL     5      -5.637  10.575  69.489  1.00  0.00    -0.038 OA 
HETATM   19  C   UNL     4     -11.938  11.443  66.489  1.00  0.00     0.748 A  
HETATM   20  C   UNL     3      -9.205  11.177  71.355  1.00  0.00     8.463 A  
HETATM   21  C   UNL     3      -8.584  10.323  72.254  1.00  0.00     6.678 A  
HETATM   22  O   UNL     4     -12.125   6.781  67.772  1.00  0.00     1.482 OA 
HETATM   23  C   UNL     5      -8.017  14.427  67.934  1.00  0.00    -0.150 A  
HETATM   24  C   UNL     4     -12.161  11.902  67.782  1.00  0.00     0.054 A  
HETATM   25  C   UNL     5      -7.643  15.012  69.130  1.00  0.00    -0.176 A  
HETATM   26  C   UNL     4     -12.404  10.991  68.813  1.00  0.00     0.172 A  
HETATM   27  C   UNL     3      -8.324   8.986  71.899  1.00  0.00     0.131 A  
HETATM   28  C   UNL     4     -12.337   9.612  68.580  1.00  0.00     2.579 A  
HETATM   29  C   UNL     5      -7.017  14.274  70.112  1.00  0.00     0.146 A  
HETATM   30  C   UNL     3      -8.654   8.478  70.640  1.00  0.00    -0.163 A  
HETATM   31  C   UNL     4     -12.028   9.132  67.307  1.00  0.00     4.480 A  
HETATM   32  C   UNL     3      -8.190   7.146  70.180  1.00  0.00    -0.135 C  
HETATM   33  C   UNL     5      -6.793  12.935  69.894  1.00  0.00     0.369 A  
HETATM   34  C   UNL     5      -7.142  12.266  68.700  1.00  0.00    -0.103 A  
HETATM   35  O   UNL     3      -8.258   6.891  68.917  1.00  0.00    -0.119 OA 
HETATM   36  C   UNL     4     -11.668   7.687  67.037  1.00  0.00     2.526 C  
HETATM   37  O   UNL     3      -7.748   6.294  71.066  1.00  0.00    -0.100 OA 
HETATM   38  O   UNL     4     -11.047   7.573  65.902  1.00  0.00     2.294 OA 
ENDROOT
BRANCH   3  39
HETATM   39  C   UNL     2      -5.166   9.777  66.606  1.00  0.00    -0.040 C  
BRANCH  39  40
HETATM   40  C   UNL     2      -5.262   8.280  66.925  1.00  0.00    -0.032 C  
HETATM   41  O   UNL     2      -5.212   8.032  68.315  1.00  0.00    -0.030 OA 
HETATM   42  H   UNL     2      -5.272   7.105  68.513  1.00  0.00     0.000 HD 
ENDBRANCH  39  40
ENDBRANCH   3  39
TORSDOF 2
ENDMDL
MODEL       95
REMARK 921   NORMALIZED FREE ENERGY PREDICTED BY IDOCK:   37.42 KCAL/MOL
REMARK 922        TOTAL FREE ENERGY PREDICTED BY IDOCK:   41.50 KCAL/MOL
REMARK 923 INTER-LIGAND FREE ENERGY PREDICTED BY IDOCK:   30.44 KCAL/MOL
REMARK 924 INTRA-LIGAND FREE ENERGY PREDICTED BY IDOCK:   11.06 KCAL/MOL
REMARK 927      BINDING AFFINITY PREDICTED BY RF-SCORE:    0.00 PKD
ROOT
HETATM    1 MG   UNL     1     -12.487   7.500  68.589  1.00  0.00     0.701 Mg 
HETATM    2  C   UNL     2     -10.574   6.634  72.315  1.00  0.00    -0.214 C  
HETATM    3  N   UNL     2      -9.518   6.427  71.290  1.00  0.00    -0.166 N  
HETATM    4  O   UNL     3      -9.235  10.090  68.297  1.00  0.00    -0.128 OA 
HETATM    5  C   UNL     2      -9.207   4.995  70.951  1.00  0.00    -0.146 C  
HETATM    6  C   UNL     5      -7.066   7.742  69.256  1.00  0.00    -0.076 C  
HETATM    7  C   UNL     3      -7.981  10.296  67.736  1.00  0.00    -0.102 A  
HETATM    8  C   UNL     2     -10.077   7.230  70.134  1.00  0.00    -0.189 C  
HETATM    9  O   UNL     4     -13.136   8.945  67.805  1.00  0.00     9.123 OA 
HETATM   10  H   UNL     3      -9.468  10.676  69.007  1.00  0.00     0.000 HD 
HETATM   11  C   UNL     3      -7.635   9.431  66.686  1.00  0.00    -0.094 A  
HETATM   12  H   UNL     4     -13.395   9.645  68.392  1.00  0.00     0.000 HD 
HETATM   13  O   UNL     5      -9.488   5.610  68.136  1.00  0.00    -0.107 OA 
HETATM   14  O   UNL     5      -8.076   8.367  69.625  1.00  0.00    -0.110 OA 
HETATM   15  C   UNL     4     -12.163   9.202  66.847  1.00  0.00     7.424 A  
HETATM   16  C   UNL     5      -8.171   5.779  67.686  1.00  0.00    -0.101 A  
HETATM   17  H   UNL     5      -9.658   6.232  68.835  1.00  0.00     0.000 HD 
HETATM   18  O   UNL     5      -5.940   7.787  69.879  1.00  0.00    -0.023 OA 
HETATM   19  C   UNL     4     -11.782   8.174  65.983  1.00  0.00     6.574 A  
HETATM   20  C   UNL     3      -6.343   9.437  66.179  1.00  0.00    -0.068 A  
HETATM   21  C   UNL     3      -5.402  10.287  66.740  1.00  0.00    -0.041 A  
HETATM   22  O   UNL     4     -11.602  12.623  67.878  1.00  0.00    -0.306 OA 
HETATM   23  C   UNL     5      -7.919   4.857  66.651  1.00  0.00    -0.103 A  
HETATM   24  C   UNL     4     -10.787   8.433  65.049  1.00  0.00     6.370 A  
HETATM   25  C   UNL     5      -6.645   4.746  66.125  1.00  0.00    -0.045 A  
HETATM   26  C   UNL     4     -10.236   9.712  64.954  1.00  0.00     0.540 A  
HETATM   27  C   UNL     3      -5.760  11.136  67.805  1.00  0.00    -0.043 A  
HETATM   28  C   UNL     4     -10.609  10.721  65.850  1.00  0.00    -0.216 A  
HETATM   29  C   UNL     5      -5.616   5.535  66.593  1.00  0.00    -0.017 A  
HETATM   30  C   UNL     3      -7.048  11.141  68.346  1.00  0.00    -0.076 A  
HETATM   31  C   UNL     4     -11.544  10.455  66.851  1.00  0.00     0.922 A  
HETATM   32  C   UNL     3      -7.374  11.864  69.600  1.00  0.00     0.446 C  
HETATM   33  C   UNL     5      -5.882   6.457  67.577  1.00  0.00    -0.013 A  
HETATM   34  C   UNL     5      -7.154   6.629  68.167  1.00  0.00    -0.083 A  
HETATM   35  O   UNL     3      -8.476  11.560  70.197  1.00  0.00     1.627 OA 
HETATM   36  C   UNL     4     -11.793  11.392  68.015  1.00  0.00    -0.202 C  
HETATM   37  O   UNL     3      -6.545  12.775  70.034  1.00  0.00     0.027 OA 
HETATM   38  O   UNL     4     -12.381  10.766  68.989  1.00  0.00    -0.422 OA 
ENDROOT
BRANCH   3  39
HETATM   39  C   UNL     2      -8.139   7.035  71.821  1.00  0.00    -0.099 C  
BRANCH  39  40
HETATM   40  C   UNL     2      -6.842   6.438  71.261  1.00  0.00    -0.067 C  
HETATM   41  O   UNL     2      -7.033   5.865  69.982  1.00  0.00    -0.061 OA 
HETATM   42  H   UNL     2      -6.230   5.495  69.635  1.00  0.00     0.000 HD 
ENDBRANCH  39  40
ENDBRANCH   3  39
TORSDOF 2
ENDMDL
MODEL       96
REMARK 921   NORMALIZED FREE ENERGY PREDICTED BY IDOCK:   39.80 KCAL/MOL
REMARK 922        TOTAL FREE ENERGY PREDICTED BY IDOCK:   44.16 KCAL/MOL
REMARK 923 INTER-LIGAND FREE ENERGY PREDICTED BY IDOCK:   42.49 KCAL/MOL
REMARK 924 INTRA-LIGAND FREE ENERGY PREDICTED BY IDOCK:    1.68 KCAL/MOL
REMARK 927      BINDING AFFINITY PREDICTED BY RF-SCORE:    0.00 PKD
ROOT
HETATM    1 MG   UNL     1      -5.796  14.249  69.034  1.00  0.00    -0.082 Mg 
HETATM    2  C   UNL     2      -6.754  18.022  70.807  1.00  0.00     1.999 C  
HETATM    3  N   UNL     2      -7.685  17.897  69.655  1.00  0.00     0.472 N  
HETATM    4  O   UNL     3      -9.886  13.701  69.623  1.00  0.00     0.060 OA 
HETATM    5  C   UNL     2      -7.332  18.710  68.439  1.00  0.00    -0.287 C  
HETATM    6  C   UNL     5     -10.639  16.693  68.351  1.00  0.00    -0.343 C  
HETATM    7  C   UNL     3     -11.139  13.699  69.025  1.00  0.00    -0.255 A  
HETATM    8  C   UNL     2      -7.663  16.400  69.428  1.00  0.00    -0.072 C  
HETATM    9  O   UNL     4      -5.957  12.552  69.505  1.00  0.00    -0.094 OA 
HETATM   10  H   UNL     3      -9.884  13.704  70.573  1.00  0.00     0.000 HD 
HETATM   11  C   UNL     3     -11.142  13.694  67.620  1.00  0.00    -0.293 A  
HETATM   12  H   UNL     4      -5.996  12.391  70.440  1.00  0.00     0.000 HD 
HETATM   13  O   UNL     5      -7.620  16.347  66.790  1.00  0.00    -0.209 OA 
HETATM   14  O   UNL     5      -9.999  16.136  69.261  1.00  0.00    -0.230 OA 
HETATM   15  C   UNL     4      -7.021  12.144  68.711  1.00  0.00    -0.101 A  
HETATM   16  C   UNL     5      -8.903  16.467  66.235  1.00  0.00    -0.329 A  
HETATM   17  H   UNL     5      -7.692  16.345  67.738  1.00  0.00     0.000 HD 
HETATM   18  O   UNL     5     -11.598  17.524  68.567  1.00  0.00     0.574 OA 
HETATM   19  C   UNL     4      -6.964  12.380  67.336  1.00  0.00    -0.149 A  
HETATM   20  C   UNL     3     -12.332  13.870  66.929  1.00  0.00    -0.331 A  
HETATM   21  C   UNL     3     -13.504  14.073  67.643  1.00  0.00     5.062 A  
HETATM   22  O   UNL     4      -8.993  10.869  71.461  1.00  0.00     5.315 OA 
HETATM   23  C   UNL     5      -8.796  16.471  64.831  1.00  0.00     3.467 A  
HETATM   24  C   UNL     4      -8.046  11.994  66.556  1.00  0.00     0.054 A  
HETATM   25  C   UNL     5      -9.918  16.701  64.057  1.00  0.00     5.424 A  
HETATM   26  C   UNL     4      -9.129  11.336  67.142  1.00  0.00    -0.160 A  
HETATM   27  C   UNL     3     -13.482  14.093  69.051  1.00  0.00     3.565 A  
HETATM   28  C   UNL     4      -9.181  11.136  68.527  1.00  0.00    -0.183 A  
HETATM   29  C   UNL     5     -11.147  16.917  64.642  1.00  0.00     0.200 A  
HETATM   30  C   UNL     3     -12.297  13.935  69.774  1.00  0.00    -0.330 A  
HETATM   31  C   UNL     4      -8.143  11.594  69.338  1.00  0.00     0.479 A  
HETATM   32  C   UNL     3     -12.227  14.172  71.237  1.00  0.00    -0.339 C  
HETATM   33  C   UNL     5     -11.247  16.874  66.013  1.00  0.00     0.529 A  
HETATM   34  C   UNL     5     -10.148  16.647  66.871  1.00  0.00    -0.280 A  
HETATM   35  O   UNL     3     -11.059  14.321  71.764  1.00  0.00     0.931 OA 
HETATM   36  C   UNL     4      -8.247  11.667  70.847  1.00  0.00     6.754 C  
HETATM   37  O   UNL     3     -13.339  14.208  71.921  1.00  0.00    -0.340 OA 
HETATM   38  O   UNL     4      -7.353  12.475  71.330  1.00  0.00     4.794 OA 
ENDROOT
BRANCH   3  39
HETATM   39  C   UNL     2      -9.134  18.410  70.089  1.00  0.00     2.144 C  
BRANCH  39  40
HETATM   40  C   UNL     2      -9.931  17.533  71.062  1.00  0.00     3.760 C  
HETATM   41  O   UNL     2     -11.200  18.086  71.353  1.00  0.00     1.311 OA 
HETATM   42  H   UNL     2     -11.694  17.543  71.956  1.00  0.00     0.000 HD 
ENDBRANCH  39  40
ENDBRANCH   3  39
TORSDOF 2
ENDMDL
MODEL       97
REMARK 921   NORMALIZED FREE ENERGY PREDICTED BY IDOCK:   39.84 KCAL/MOL
REMARK 922        TOTAL FREE ENERGY PREDICTED BY IDOCK:   44.21 KCAL/MOL
REMARK 923 INTER-LIGAND FREE ENERGY PREDICTED BY IDOCK:   39.28 KCAL/MOL
REMARK 924 INTRA-LIGAND FREE ENERGY PREDICTED BY IDOCK:    4.93 KCAL/MOL
REMARK 927      BINDING AFFINITY PREDICTED BY RF-SCORE:    0.00 PKD
ROOT
HETATM    1 MG   UNL     1     -13.029  10.640  66.314  1.00  0.00     2.768 Mg 
HETATM    2  C   UNL     2     -11.181   9.447  69.983  1.00  0.00    -0.190 C  
HETATM    3  N   UNL     2     -10.050   9.808  69.087  1.00  0.00    -0.181 N  
HETATM    4  O   UNL     3     -10.710  14.028  67.036  1.00  0.00    -0.281 OA 
HETATM    5  C   UNL     2      -9.296   8.651  68.488  1.00  0.00    -0.138 C  
HETATM    6  C   UNL     5      -7.993  12.221  67.739  1.00  0.00    -0.154 C  
HETATM    7  C   UNL     3      -9.546  14.710  66.707  1.00  0.00    -0.253 A  
HETATM    8  C   UNL     2     -10.753  10.683  68.072  1.00  0.00    -0.233 C  
HETATM    9  O   UNL     4     -14.037  11.993  65.786  1.00  0.00     5.181 OA 
HETATM   10  H   UNL     3     -11.155  14.328  67.819  1.00  0.00     0.000 HD 
HETATM   11  C   UNL     3      -8.887  14.267  65.548  1.00  0.00     1.434 A  
HETATM   12  H   UNL     4     -14.534  12.422  66.472  1.00  0.00     0.000 HD 
HETATM   13  O   UNL     5      -9.575   9.844  65.864  1.00  0.00    -0.201 OA 
HETATM   14  O   UNL     5      -9.167  12.425  68.096  1.00  0.00    -0.196 OA 
HETATM   15  C   UNL     4     -13.131  12.743  65.047  1.00  0.00     0.212 A  
HETATM   16  C   UNL     5      -8.346  10.482  65.643  1.00  0.00    -0.167 A  
HETATM   17  H   UNL     5      -9.969  10.198  66.653  1.00  0.00     0.000 HD 
HETATM   18  O   UNL     5      -6.976  12.424  68.502  1.00  0.00    -0.080 OA 
HETATM   19  C   UNL     4     -12.401  12.112  64.038  1.00  0.00    -0.550 A  
HETATM   20  C   UNL     3      -7.630  14.761  65.233  1.00  0.00     8.135 A  
HETATM   21  C   UNL     3      -7.030  15.674  66.088  1.00  0.00     2.330 A  
HETATM   22  O   UNL     4     -13.706  15.814  66.868  1.00  0.00     4.983 OA 
HETATM   23  C   UNL     5      -7.761   9.957  64.474  1.00  0.00    -0.142 A  
HETATM   24  C   UNL     4     -11.476  12.864  63.326  1.00  0.00    -0.241 A  
HETATM   25  C   UNL     5      -6.484  10.343  64.112  1.00  0.00    -0.021 A  
HETATM   26  C   UNL     4     -11.337  14.229  63.587  1.00  0.00     0.755 A  
HETATM   27  C   UNL     3      -7.695  16.096  67.254  1.00  0.00    -0.212 A  
HETATM   28  C   UNL     4     -12.055  14.836  64.625  1.00  0.00    -0.437 A  
HETATM   29  C   UNL     5      -5.776  11.246  64.876  1.00  0.00     0.851 A  
HETATM   30  C   UNL     3      -8.955  15.603  67.606  1.00  0.00    -0.183 A  
HETATM   31  C   UNL     4     -12.925  14.078  65.408  1.00  0.00    -0.346 A  
HETATM   32  C   UNL     3      -9.564  15.869  68.933  1.00  0.00    -0.230 C  
HETATM   33  C   UNL     5      -6.371  11.781  65.993  1.00  0.00     0.790 A  
HETATM   34  C   UNL     5      -7.669  11.437  66.430  1.00  0.00    -0.051 A  
HETATM   35  O   UNL     3     -10.556  15.130  69.296  1.00  0.00    -0.233 OA 
HETATM   36  C   UNL     4     -13.520  14.585  66.705  1.00  0.00     3.605 C  
HETATM   37  O   UNL     3      -9.081  16.839  69.663  1.00  0.00     0.166 OA 
HETATM   38  O   UNL     4     -13.949  13.598  67.431  1.00  0.00     6.351 OA 
ENDROOT
BRANCH   3  39
HETATM   39  C   UNL     2      -8.958  10.625  69.918  1.00  0.00     0.480 C  
BRANCH  39  40
HETATM   40  C   UNL     2      -9.370  11.996  70.470  1.00  0.00     5.891 C  
HETATM   41  O   UNL     2      -9.955  12.811  69.474  1.00  0.00     0.063 OA 
HETATM   42  H   UNL     2     -10.210  13.660  69.815  1.00  0.00     0.000 HD 
ENDBRANCH  39  40
ENDBRANCH   3  39
TORSDOF 2
ENDMDL
MODEL       98
REMARK 921   NORMALIZED FREE ENERGY PREDICTED BY IDOCK:   39.93 KCAL/MOL
REMARK 922        TOTAL FREE ENERGY PREDICTED BY IDOCK:   44.31 KCAL/MOL
REMARK 923 INTER-LIGAND FREE ENERGY PREDICTED BY IDOCK:   40.54 KCAL/MOL
REMARK 924 INTRA-LIGAND FREE ENERGY PREDICTED BY IDOCK:    3.77 KCAL/MOL
REMARK 927      BINDING AFFINITY PREDICTED BY RF-SCORE:    0.00 PKD
ROOT
HETATM    1 MG   UNL     1     -12.873  10.620  66.268  1.00  0.00     2.285 Mg 
HETATM    2  C   UNL     2     -13.600   8.185  69.709  1.00  0.00     4.286 C  
HETATM    3  N   UNL     2     -12.213   7.849  69.293  1.00  0.00     1.925 N  
HETATM    4  O   UNL     3      -9.599  11.739  68.593  1.00  0.00    -0.284 OA 
HETATM    5  C   UNL     2     -12.046   6.541  68.569  1.00  0.00     2.255 C  
HETATM    6  C   UNL     5      -8.845   8.577  69.351  1.00  0.00    -0.141 C  
HETATM    7  C   UNL     3      -8.236  11.578  68.805  1.00  0.00    -0.082 A  
HETATM    8  C   UNL     2     -11.858   9.066  68.465  1.00  0.00     1.880 C  
HETATM    9  O   UNL     4     -12.676  12.350  65.960  1.00  0.00    -0.230 OA 
HETATM   10  H   UNL     3     -10.075  12.173  69.291  1.00  0.00     0.000 HD 
HETATM   11  C   UNL     3      -7.531  10.937  67.773  1.00  0.00    -0.094 A  
HETATM   12  H   UNL     4     -13.082  12.925  66.598  1.00  0.00     0.000 HD 
HETATM   13  O   UNL     5     -10.568   7.897  66.481  1.00  0.00    -0.451 OA 
HETATM   14  O   UNL     5      -9.745   9.431  69.444  1.00  0.00    -0.164 OA 
HETATM   15  C   UNL     4     -11.305  12.441  65.753  1.00  0.00    -0.352 A  
HETATM   16  C   UNL     5      -9.224   7.650  66.794  1.00  0.00    -0.160 A  
HETATM   17  H   UNL     5     -10.980   8.341  67.214  1.00  0.00     0.000 HD 
HETATM   18  O   UNL     5      -8.283   8.028  70.370  1.00  0.00    -0.113 OA 
HETATM   19  C   UNL     4     -10.709  11.595  64.817  1.00  0.00    -0.365 A  
HETATM   20  C   UNL     3      -6.207  10.570  67.961  1.00  0.00    -0.054 A  
HETATM   21  C   UNL     3      -5.604  10.823  69.185  1.00  0.00    -0.040 A  
HETATM   22  O   UNL     4     -10.782  15.007  68.248  1.00  0.00    -0.244 OA 
HETATM   23  C   UNL     5      -8.614   6.992  65.708  1.00  0.00    -0.138 A  
HETATM   24  C   UNL     4      -9.333  11.674  64.640  1.00  0.00     0.021 A  
HETATM   25  C   UNL     5      -7.315   6.533  65.824  1.00  0.00    -0.079 A  
HETATM   26  C   UNL     4      -8.592  12.622  65.348  1.00  0.00     1.491 A  
HETATM   27  C   UNL     3      -6.328  11.450  70.216  1.00  0.00    -0.043 A  
HETATM   28  C   UNL     4      -9.204  13.439  66.306  1.00  0.00    -0.068 A  
HETATM   29  C   UNL     5      -6.602   6.721  66.988  1.00  0.00    -0.044 A  
HETATM   30  C   UNL     3      -7.668  11.816  70.061  1.00  0.00     1.663 A  
HETATM   31  C   UNL     4     -10.570  13.314  66.560  1.00  0.00    -0.289 A  
HETATM   32  C   UNL     3      -8.499  12.272  71.203  1.00  0.00    11.296 C  
HETATM   33  C   UNL     5      -7.193   7.398  68.028  1.00  0.00    -0.090 A  
HETATM   34  C   UNL     5      -8.515   7.894  67.988  1.00  0.00    -0.123 A  
HETATM   35  O   UNL     3      -9.779  12.279  71.047  1.00  0.00     6.922 OA 
HETATM   36  C   UNL     4     -11.247  13.953  67.755  1.00  0.00    -0.293 C  
HETATM   37  O   UNL     3      -7.903  12.654  72.301  1.00  0.00    11.476 OA 
HETATM   38  O   UNL     4     -12.388  13.381  67.995  1.00  0.00    -0.199 OA 
ENDROOT
BRANCH   3  39
HETATM   39  C   UNL     2     -11.288   7.725  70.589  1.00  0.00    -0.264 C  
BRANCH  39  40
HETATM   40  C   UNL     2     -11.087   8.986  71.438  1.00  0.00    -0.329 C  
HETATM   41  O   UNL     2      -9.731   9.384  71.480  1.00  0.00    -0.226 OA 
HETATM   42  H   UNL     2      -9.606  10.165  72.006  1.00  0.00     0.000 HD 
ENDBRANCH  39  40
ENDBRANCH   3  39
TORSDOF 2
ENDMDL
MODEL       99
REMARK 921   NORMALIZED FREE ENERGY PREDICTED BY IDOCK:   40.19 KCAL/MOL
REMARK 922        TOTAL FREE ENERGY PREDICTED BY IDOCK:   44.60 KCAL/MOL
REMARK 923 INTER-LIGAND FREE ENERGY PREDICTED BY IDOCK:   44.70 KCAL/MOL
REMARK 924 INTRA-LIGAND FREE ENERGY PREDICTED BY IDOCK:   -0.10 KCAL/MOL
REMARK 927      BINDING AFFINITY PREDICTED BY RF-SCORE:    0.00 PKD
ROOT
HETATM    1 MG   UNL     1     -10.297   9.026  69.651  1.00  0.00    -0.176 Mg 
HETATM    2  C   UNL     2     -12.771  12.515  69.614  1.00  0.00     0.615 C  
HETATM    3  N   UNL     2     -11.385  13.032  69.470  1.00  0.00    -0.200 N  
HETATM    4  O   UNL     3      -8.999  10.738  66.079  1.00  0.00    -0.168 OA 
HETATM    5  C   UNL     2     -10.781  13.638  70.708  1.00  0.00     2.329 C  
HETATM    6  C   UNL     5      -8.693  13.766  67.448  1.00  0.00    -0.207 C  
HETATM    7  C   UNL     3      -8.000  11.478  65.459  1.00  0.00     0.574 A  
HETATM    8  C   UNL     2     -10.667  11.796  68.971  1.00  0.00    -0.169 C  
HETATM    9  O   UNL     4     -10.027   7.654  68.569  1.00  0.00    -0.169 OA 
HETATM   10  H   UNL     3      -9.806  10.645  65.587  1.00  0.00     0.000 HD 
HETATM   11  C   UNL     3      -6.806  11.615  66.186  1.00  0.00     0.379 A  
HETATM   12  H   UNL     4     -10.748   7.449  67.986  1.00  0.00     0.000 HD 
HETATM   13  O   UNL     5      -8.427  11.989  70.353  1.00  0.00     2.741 OA 
HETATM   14  O   UNL     5      -9.516  12.864  67.213  1.00  0.00    -0.203 OA 
HETATM   15  C   UNL     4      -8.792   7.971  68.021  1.00  0.00    -0.128 A  
HETATM   16  C   UNL     5      -7.498  12.843  69.741  1.00  0.00     1.022 A  
HETATM   17  H   UNL     5      -9.202  11.933  69.805  1.00  0.00     0.000 HD 
HETATM   18  O   UNL     5      -8.797  14.959  66.976  1.00  0.00    -0.205 OA 
HETATM   19  C   UNL     4      -7.732   8.273  68.878  1.00  0.00    -0.102 A  
HETATM   20  C   UNL     3      -5.816  12.477  65.737  1.00  0.00     3.759 A  
HETATM   21  C   UNL     3      -6.036  13.214  64.582  1.00  0.00    13.410 A  
HETATM   22  O   UNL     4      -9.897   7.711  64.587  1.00  0.00     2.394 OA 
HETATM   23  C   UNL     5      -6.349  12.926  70.553  1.00  0.00     0.342 A  
HETATM   24  C   UNL     4      -6.509   8.619  68.318  1.00  0.00    -0.060 A  
HETATM   25  C   UNL     5      -5.336  13.806  70.220  1.00  0.00    -0.110 A  
HETATM   26  C   UNL     4      -6.347   8.602  66.931  1.00  0.00    -0.060 A  
HETATM   27  C   UNL     3      -7.245  13.079  63.875  1.00  0.00    13.363 A  
HETATM   28  C   UNL     4      -7.431   8.327  66.087  1.00  0.00    -0.081 A  
HETATM   29  C   UNL     5      -5.428  14.597  69.095  1.00  0.00    -0.092 A  
HETATM   30  C   UNL     3      -8.267  12.230  64.311  1.00  0.00     3.084 A  
HETATM   31  C   UNL     4      -8.688   8.063  66.629  1.00  0.00    -0.153 A  
HETATM   32  C   UNL     3      -9.619  12.245  63.702  1.00  0.00     0.131 C  
HETATM   33  C   UNL     5      -6.536  14.479  68.290  1.00  0.00    -0.118 A  
HETATM   34  C   UNL     5      -7.613  13.608  68.562  1.00  0.00    -0.130 A  
HETATM   35  O   UNL     3     -10.577  11.681  64.357  1.00  0.00    -0.281 OA 
HETATM   36  C   UNL     4      -9.954   8.031  65.798  1.00  0.00     0.690 C  
HETATM   37  O   UNL     3      -9.778  12.813  62.536  1.00  0.00     1.894 OA 
HETATM   38  O   UNL     4     -11.002   8.169  66.551  1.00  0.00     0.251 OA 
ENDROOT
BRANCH   3  39
HETATM   39  C   UNL     2     -11.368  14.205  68.386  1.00  0.00    -0.287 C  
BRANCH  39  40
HETATM   40  C   UNL     2     -11.988  15.548  68.789  1.00  0.00    -0.243 C  
HETATM   41  O   UNL     2     -13.400  15.484  68.840  1.00  0.00     1.068 OA 
HETATM   42  H   UNL     2     -13.785  16.316  69.090  1.00  0.00     0.000 HD 
ENDBRANCH  39  40
ENDBRANCH   3  39
TORSDOF 2
ENDMDL
MODEL      100
REMARK 921   NORMALIZED FREE ENERGY PREDICTED BY IDOCK:   40.89 KCAL/MOL
REMARK 922        TOTAL FREE ENERGY PREDICTED BY IDOCK:   45.37 KCAL/MOL
REMARK 923 INTER-LIGAND FREE ENERGY PREDICTED BY IDOCK:   45.74 KCAL/MOL
REMARK 924 INTRA-LIGAND FREE ENERGY PREDICTED BY IDOCK:   -0.37 KCAL/MOL
REMARK 927      BINDING AFFINITY PREDICTED BY RF-SCORE:    0.00 PKD
ROOT
HETATM    1 MG   UNL     1     -10.620   4.575  71.124  1.00  0.00    -0.193 Mg 
HETATM    2  C   UNL     2      -7.832   4.065  67.920  1.00  0.00    -0.078 C  
HETATM    3  N   UNL     2      -8.633   5.258  67.540  1.00  0.00    -0.105 N  
HETATM    4  O   UNL     3      -8.924   8.383  71.090  1.00  0.00    -0.142 OA 
HETATM    5  C   UNL     2      -9.681   5.032  66.484  1.00  0.00    -0.180 C  
HETATM    6  C   UNL     5      -9.187   8.652  67.774  1.00  0.00    -0.134 C  
HETATM    7  C   UNL     3      -9.085   9.705  70.698  1.00  0.00    -0.063 A  
HETATM    8  C   UNL     2      -9.188   5.674  68.886  1.00  0.00    -0.119 C  
HETATM    9  O   UNL     4     -10.520   5.035  72.828  1.00  0.00    -0.192 OA 
HETATM   10  H   UNL     3      -8.048   8.139  71.363  1.00  0.00     0.000 HD 
HETATM   11  C   UNL     3     -10.381  10.066  70.294  1.00  0.00    -0.301 A  
HETATM   12  H   UNL     4      -9.681   4.874  73.243  1.00  0.00     0.000 HD 
HETATM   13  O   UNL     5     -11.647   6.317  68.178  1.00  0.00    -0.479 OA 
HETATM   14  O   UNL     5      -8.672   7.964  68.675  1.00  0.00    -0.128 OA 
HETATM   15  C   UNL     4     -11.013   6.333  72.795  1.00  0.00    -0.260 A  
HETATM   16  C   UNL     5     -11.731   7.625  67.678  1.00  0.00     1.915 A  
HETATM   17  H   UNL     5     -10.751   6.145  68.442  1.00  0.00     0.000 HD 
HETATM   18  O   UNL     5      -8.500   9.282  66.886  1.00  0.00    -0.125 OA 
HETATM   19  C   UNL     4     -12.245   6.569  72.184  1.00  0.00    -0.277 A  
HETATM   20  C   UNL     3     -10.609  11.308  69.719  1.00  0.00     0.108 A  
HETATM   21  C   UNL     3      -9.537  12.169  69.529  1.00  0.00     1.212 A  
HETATM   22  O   UNL     4      -8.147   7.799  74.444  1.00  0.00    -0.192 OA 
HETATM   23  C   UNL     5     -13.060   7.880  67.287  1.00  0.00    15.214 A  
HETATM   24  C   UNL     4     -12.715   7.875  72.129  1.00  0.00    -0.254 A  
HETATM   25  C   UNL     5     -13.372   9.067  66.648  1.00  0.00    20.374 A  
HETATM   26  C   UNL     4     -11.985   8.904  72.729  1.00  0.00     0.153 A  
HETATM   27  C   UNL     3      -8.241  11.786  69.923  1.00  0.00     1.898 A  
HETATM   28  C   UNL     4     -10.735   8.652  73.309  1.00  0.00     1.246 A  
HETATM   29  C   UNL     5     -12.399  10.011  66.398  1.00  0.00     6.927 A  
HETATM   30  C   UNL     3      -7.980  10.536  70.490  1.00  0.00     1.182 A  
HETATM   31  C   UNL     4     -10.208   7.361  73.296  1.00  0.00    -0.386 A  
HETATM   32  C   UNL     3      -6.598  10.039  70.703  1.00  0.00    -0.086 C  
HETATM   33  C   UNL     5     -11.114   9.767  66.819  1.00  0.00     0.228 A  
HETATM   34  C   UNL     5     -10.715   8.581  67.474  1.00  0.00    -0.211 A  
HETATM   35  O   UNL     3      -6.442   8.778  70.921  1.00  0.00    -0.041 OA 
HETATM   36  C   UNL     4      -8.766   7.056  73.647  1.00  0.00    -0.144 C  
HETATM   37  O   UNL     3      -5.611  10.894  70.672  1.00  0.00    -0.104 OA 
HETATM   38  O   UNL     4      -8.417   5.894  73.184  1.00  0.00    -0.117 OA 
ENDROOT
BRANCH   3  39
HETATM   39  C   UNL     2      -7.665   6.372  66.928  1.00  0.00    -0.100 C  
BRANCH  39  40
HETATM   40  C   UNL     2      -7.501   6.405  65.404  1.00  0.00    -0.084 C  
HETATM   41  O   UNL     2      -8.231   7.463  64.817  1.00  0.00    -0.219 OA 
HETATM   42  H   UNL     2      -8.130   7.484  63.872  1.00  0.00     0.000 HD 
ENDBRANCH  39  40
ENDBRANCH   3  39
TORSDOF 2
ENDMDL
MODEL      101
REMARK 921   NORMALIZED FREE ENERGY PREDICTED BY IDOCK:   41.52 KCAL/MOL
REMARK 922        TOTAL FREE ENERGY PREDICTED BY IDOCK:   46.08 KCAL/MOL
REMARK 923 INTER-LIGAND FREE ENERGY PREDICTED BY IDOCK:   42.50 KCAL/MOL
REMARK 924 INTRA-LIGAND FREE ENERGY PREDICTED BY IDOCK:    3.58 KCAL/MOL
REMARK 927      BINDING AFFINITY PREDICTED BY RF-SCORE:    0.00 PKD
ROOT
HETATM    1 MG   UNL     1     -13.377   9.214  65.919  1.00  0.00     9.565 Mg 
HETATM    2  C   UNL     2     -12.765   7.549  69.812  1.00  0.00     1.937 C  
HETATM    3  N   UNL     2     -11.747   6.889  68.952  1.00  0.00     0.306 N  
HETATM    4  O   UNL     3      -9.316  10.036  66.377  1.00  0.00    -0.157 OA 
HETATM    5  C   UNL     2     -12.055   5.474  68.543  1.00  0.00     5.131 C  
HETATM    6  C   UNL     5      -8.642   6.951  67.458  1.00  0.00    -0.121 C  
HETATM    7  C   UNL     3      -8.024   9.651  66.043  1.00  0.00    -0.108 A  
HETATM    8  C   UNL     2     -11.667   7.865  67.798  1.00  0.00     2.156 C  
HETATM    9  O   UNL     4     -13.155  10.801  65.173  1.00  0.00     4.731 OA 
HETATM   10  H   UNL     3      -9.387  10.660  67.089  1.00  0.00     0.000 HD 
HETATM   11  C   UNL     3      -7.918   8.729  64.989  1.00  0.00    -0.132 A  
HETATM   12  H   UNL     4     -13.175  11.538  65.771  1.00  0.00     0.000 HD 
HETATM   13  O   UNL     5     -11.515   6.166  65.784  1.00  0.00     0.510 OA 
HETATM   14  O   UNL     5      -9.314   7.967  67.715  1.00  0.00    -0.139 OA 
HETATM   15  C   UNL     4     -12.015  10.591  64.408  1.00  0.00     3.527 A  
HETATM   16  C   UNL     5     -10.204   5.718  65.566  1.00  0.00     0.691 A  
HETATM   17  H   UNL     5     -11.512   6.793  66.499  1.00  0.00     0.000 HD 
HETATM   18  O   UNL     5      -7.750   6.474  68.253  1.00  0.00    -0.101 OA 
HETATM   19  C   UNL     4     -11.984   9.507  63.529  1.00  0.00    11.492 A  
HETATM   20  C   UNL     3      -6.693   8.148  64.695  1.00  0.00    -0.067 A  
HETATM   21  C   UNL     3      -5.590   8.472  65.472  1.00  0.00    -0.043 A  
HETATM   22  O   UNL     4     -10.179  13.373  65.812  1.00  0.00    -0.285 OA 
HETATM   23  C   UNL     5     -10.209   4.789  64.506  1.00  0.00     0.355 A  
HETATM   24  C   UNL     4     -10.828   9.289  62.791  1.00  0.00     6.337 A  
HETATM   25  C   UNL     5      -9.048   4.112  64.181  1.00  0.00    -0.147 A  
HETATM   26  C   UNL     4      -9.755  10.177  62.897  1.00  0.00    -0.096 A  
HETATM   27  C   UNL     3      -5.715   9.384  66.536  1.00  0.00    -0.054 A  
HETATM   28  C   UNL     4      -9.793  11.240  63.808  1.00  0.00    -0.361 A  
HETATM   29  C   UNL     5      -7.879   4.342  64.875  1.00  0.00    -0.085 A  
HETATM   30  C   UNL     3      -6.940   9.973  66.865  1.00  0.00    -0.089 A  
HETATM   31  C   UNL     4     -10.912  11.424  64.620  1.00  0.00    -0.324 A  
HETATM   32  C   UNL     3      -7.129  10.758  68.110  1.00  0.00    -0.078 C  
HETATM   33  C   UNL     5      -7.877   5.278  65.881  1.00  0.00    -0.103 A  
HETATM   34  C   UNL     5      -9.020   6.008  66.274  1.00  0.00    -0.156 A  
HETATM   35  O   UNL     3      -8.338  10.987  68.495  1.00  0.00    -0.134 OA 
HETATM   36  C   UNL     4     -10.922  12.364  65.808  1.00  0.00    -0.298 C  
HETATM   37  O   UNL     3      -6.074  11.188  68.748  1.00  0.00    -0.043 OA 
HETATM   38  O   UNL     4     -11.893  12.069  66.617  1.00  0.00    -0.583 OA 
ENDROOT
BRANCH   3  39
HETATM   39  C   UNL     2     -10.364   6.796  69.747  1.00  0.00    -0.201 C  
BRANCH  39  40
HETATM   40  C   UNL     2      -9.450   5.604  69.439  1.00  0.00    -0.131 C  
HETATM   41  O   UNL     2      -9.825   4.450  70.164  1.00  0.00    -0.205 OA 
HETATM   42  H   UNL     2      -9.259   3.711  69.973  1.00  0.00     0.000 HD 
ENDBRANCH  39  40
ENDBRANCH   3  39
TORSDOF 2
ENDMDL
MODEL      102
REMARK 921   NORMALIZED FREE ENERGY PREDICTED BY IDOCK:   41.61 KCAL/MOL
REMARK 922        TOTAL FREE ENERGY PREDICTED BY IDOCK:   46.19 KCAL/MOL
REMARK 923 INTER-LIGAND FREE ENERGY PREDICTED BY IDOCK:   46.45 KCAL/MOL
REMARK 924 INTRA-LIGAND FREE ENERGY PREDICTED BY IDOCK:   -0.27 KCAL/MOL
REMARK 927      BINDING AFFINITY PREDICTED BY RF-SCORE:    0.00 PKD
ROOT
HETATM    1 MG   UNL     1      -5.812   6.716  68.276  1.00  0.00    -0.013 Mg 
HETATM    2  C   UNL     2      -8.925   5.419  70.908  1.00  0.00    -0.138 C  
HETATM    3  N   UNL     2      -9.322   6.791  70.497  1.00  0.00    -0.162 N  
HETATM    4  O   UNL     3      -9.102   7.350  65.797  1.00  0.00    -0.355 OA 
HETATM    5  C   UNL     2      -9.093   7.872  71.519  1.00  0.00    -0.137 C  
HETATM    6  C   UNL     5     -10.834   8.876  68.207  1.00  0.00     0.007 C  
HETATM    7  C   UNL     3      -9.978   8.292  65.275  1.00  0.00     1.562 A  
HETATM    8  C   UNL     2      -8.515   6.957  69.227  1.00  0.00    -0.129 C  
HETATM    9  O   UNL     4      -5.249   6.264  66.662  1.00  0.00    -0.011 OA 
HETATM   10  H   UNL     3      -9.361   6.443  65.687  1.00  0.00     0.000 HD 
HETATM   11  C   UNL     3      -9.595   9.634  65.437  1.00  0.00    -0.361 A  
HETATM   12  H   UNL     4      -5.458   5.378  66.392  1.00  0.00     0.000 HD 
HETATM   13  O   UNL     5      -7.734   9.461  69.516  1.00  0.00    -0.076 OA 
HETATM   14  O   UNL     5     -10.281   7.801  67.913  1.00  0.00    -0.186 OA 
HETATM   15  C   UNL     4      -5.717   7.326  65.898  1.00  0.00    -0.036 A  
HETATM   16  C   UNL     5      -8.706  10.374  69.082  1.00  0.00    -0.166 A  
HETATM   17  H   UNL     5      -8.051   8.578  69.367  1.00  0.00     0.000 HD 
HETATM   18  O   UNL     5     -12.093   8.979  68.455  1.00  0.00     1.990 OA 
HETATM   19  C   UNL     4      -5.410   8.628  66.296  1.00  0.00    -0.031 A  
HETATM   20  C   UNL     3     -10.480  10.652  65.111  1.00  0.00    -0.271 A  
HETATM   21  C   UNL     3     -11.747  10.323  64.651  1.00  0.00     3.824 A  
HETATM   22  O   UNL     4      -7.486   5.247  63.525  1.00  0.00    -0.049 OA 
HETATM   23  C   UNL     5      -8.235  11.683  69.303  1.00  0.00     0.360 A  
HETATM   24  C   UNL     4      -5.908   9.682  65.541  1.00  0.00    -0.061 A  
HETATM   25  C   UNL     5      -9.068  12.762  69.067  1.00  0.00     0.499 A  
HETATM   26  C   UNL     4      -6.647   9.424  64.385  1.00  0.00    -0.090 A  
HETATM   27  C   UNL     3     -12.122   8.974  64.510  1.00  0.00    15.030 A  
HETATM   28  C   UNL     4      -6.971   8.111  64.020  1.00  0.00    -0.071 A  
HETATM   29  C   UNL     5     -10.353  12.573  68.606  1.00  0.00    -0.193 A  
HETATM   30  C   UNL     3     -11.258   7.928  64.845  1.00  0.00    10.523 A  
HETATM   31  C   UNL     4      -6.553   7.043  64.813  1.00  0.00    -0.043 A  
HETATM   32  C   UNL     3     -11.715   6.517  64.911  1.00  0.00     8.766 C  
HETATM   33  C   UNL     5     -10.789  11.294  68.357  1.00  0.00    -0.248 A  
HETATM   34  C   UNL     5     -10.001  10.142  68.575  1.00  0.00    -0.177 A  
HETATM   35  O   UNL     3     -10.962   5.672  65.529  1.00  0.00     0.619 OA 
HETATM   36  C   UNL     4      -7.087   5.635  64.648  1.00  0.00    -0.057 C  
HETATM   37  O   UNL     3     -12.842   6.194  64.336  1.00  0.00     7.150 OA 
HETATM   38  O   UNL     4      -6.869   4.933  65.718  1.00  0.00    -0.058 OA 
ENDROOT
BRANCH   3  39
HETATM   39  C   UNL     2     -10.893   6.822  70.209  1.00  0.00    -0.270 C  
BRANCH  39  40
HETATM   40  C   UNL     2     -11.815   7.237  71.362  1.00  0.00    -0.305 C  
HETATM   41  O   UNL     2     -13.100   6.661  71.245  1.00  0.00    -0.183 OA 
HETATM   42  H   UNL     2     -13.671   6.918  71.959  1.00  0.00     0.000 HD 
ENDBRANCH  39  40
ENDBRANCH   3  39
TORSDOF 2
ENDMDL
MODEL      103
REMARK 921   NORMALIZED FREE ENERGY PREDICTED BY IDOCK:   43.34 KCAL/MOL
REMARK 922        TOTAL FREE ENERGY PREDICTED BY IDOCK:   48.12 KCAL/MOL
REMARK 923 INTER-LIGAND FREE ENERGY PREDICTED BY IDOCK:   48.55 KCAL/MOL
REMARK 924 INTRA-LIGAND FREE ENERGY PREDICTED BY IDOCK:   -0.43 KCAL/MOL
REMARK 927      BINDING AFFINITY PREDICTED BY RF-SCORE:    0.00 PKD
ROOT
HETATM    1 MG   UNL     1     -12.576   8.970  68.694  1.00  0.00     0.975 Mg 
HETATM    2  C   UNL     2     -11.716   9.156  64.508  1.00  0.00    11.608 C  
HETATM    3  N   UNL     2     -10.387   9.215  65.171  1.00  0.00     1.146 N  
HETATM    4  O   UNL     3      -9.890   5.795  68.413  1.00  0.00    -0.127 OA 
HETATM    5  C   UNL     2      -9.743  10.574  65.227  1.00  0.00    -0.270 C  
HETATM    6  C   UNL     5      -7.718   7.574  66.607  1.00  0.00    -0.101 C  
HETATM    7  C   UNL     3      -8.583   5.376  68.631  1.00  0.00    -0.095 A  
HETATM    8  C   UNL     2     -10.715   8.628  66.528  1.00  0.00     0.292 C  
HETATM    9  O   UNL     4     -13.210   7.748  69.802  1.00  0.00     1.787 OA 
HETATM   10  H   UNL     3     -10.420   5.220  67.874  1.00  0.00     0.000 HD 
HETATM   11  C   UNL     3      -7.798   6.225  69.428  1.00  0.00    -0.104 A  
HETATM   12  H   UNL     4     -13.749   7.076  69.402  1.00  0.00     0.000 HD 
HETATM   13  O   UNL     5      -9.292  10.231  68.066  1.00  0.00    -0.137 OA 
HETATM   14  O   UNL     5      -8.886   7.144  66.611  1.00  0.00    -0.121 OA 
HETATM   15  C   UNL     4     -12.061   7.366  70.483  1.00  0.00    -0.055 A  
HETATM   16  C   UNL     5      -7.952   9.829  68.157  1.00  0.00    -0.100 A  
HETATM   17  H   UNL     5      -9.765   9.610  67.525  1.00  0.00     0.000 HD 
HETATM   18  O   UNL     5      -6.851   7.255  65.711  1.00  0.00    -0.054 OA 
HETATM   19  C   UNL     4     -11.269   8.353  71.071  1.00  0.00    -0.304 A  
HETATM   20  C   UNL     3      -6.437   5.991  69.560  1.00  0.00    -0.042 A  
HETATM   21  C   UNL     3      -5.867   4.927  68.875  1.00  0.00    -0.020 A  
HETATM   22  O   UNL     4     -12.438   3.838  69.781  1.00  0.00    15.049 OA 
HETATM   23  C   UNL     5      -7.250  10.750  68.958  1.00  0.00    -0.096 A  
HETATM   24  C   UNL     4     -10.106   7.963  71.723  1.00  0.00    -0.236 A  
HETATM   25  C   UNL     5      -5.879  10.635  69.098  1.00  0.00    -0.040 A  
HETATM   26  C   UNL     4      -9.786   6.607  71.826  1.00  0.00    -0.168 A  
HETATM   27  C   UNL     3      -6.664   4.096  68.066  1.00  0.00    -0.047 A  
HETATM   28  C   UNL     4     -10.577   5.635  71.202  1.00  0.00    -0.312 A  
HETATM   29  C   UNL     5      -5.188   9.620  68.470  1.00  0.00    -0.033 A  
HETATM   30  C   UNL     3      -8.034   4.317  67.902  1.00  0.00    -0.087 A  
HETATM   31  C   UNL     4     -11.701   6.015  70.469  1.00  0.00     0.017 A  
HETATM   32  C   UNL     3      -8.835   3.589  66.887  1.00  0.00    -0.134 C  
HETATM   33  C   UNL     5      -5.889   8.705  67.722  1.00  0.00    -0.043 A  
HETATM   34  C   UNL     5      -7.287   8.755  67.529  1.00  0.00    -0.081 A  
HETATM   35  O   UNL     3      -9.992   4.069  66.581  1.00  0.00    -0.199 OA 
HETATM   36  C   UNL     4     -12.441   5.069  69.546  1.00  0.00    10.095 C  
HETATM   37  O   UNL     3      -8.343   2.498  66.363  1.00  0.00    -0.085 OA 
HETATM   38  O   UNL     4     -13.168   5.731  68.698  1.00  0.00     9.559 OA 
ENDROOT
BRANCH   3  39
HETATM   39  C   UNL     2      -9.353   8.301  64.365  1.00  0.00     1.383 C  
BRANCH  39  40
HETATM   40  C   UNL     2      -8.436   8.997  63.353  1.00  0.00    -0.173 C  
HETATM   41  O   UNL     2      -7.493   8.105  62.793  1.00  0.00    -0.100 OA 
HETATM   42  H   UNL     2      -6.924   8.536  62.166  1.00  0.00     0.000 HD 
ENDBRANCH  39  40
ENDBRANCH   3  39
TORSDOF 2
ENDMDL
MODEL      104
REMARK 921   NORMALIZED FREE ENERGY PREDICTED BY IDOCK:   43.64 KCAL/MOL
REMARK 922        TOTAL FREE ENERGY PREDICTED BY IDOCK:   48.46 KCAL/MOL
REMARK 923 INTER-LIGAND FREE ENERGY PREDICTED BY IDOCK:   37.56 KCAL/MOL
REMARK 924 INTRA-LIGAND FREE ENERGY PREDICTED BY IDOCK:   10.90 KCAL/MOL
REMARK 927      BINDING AFFINITY PREDICTED BY RF-SCORE:    0.00 PKD
ROOT
HETATM    1 MG   UNL     1     -11.482  10.639  70.213  1.00  0.00    -0.206 Mg 
HETATM    2  C   UNL     2     -13.747  10.643  66.584  1.00  0.00    17.104 C  
HETATM    3  N   UNL     2     -12.624  11.585  66.332  1.00  0.00     2.465 N  
HETATM    4  O   UNL     3      -8.445   9.694  67.519  1.00  0.00    -0.124 OA 
HETATM    5  C   UNL     2     -12.972  13.048  66.392  1.00  0.00     1.246 C  
HETATM    6  C   UNL     5      -9.348  12.106  65.397  1.00  0.00     0.071 C  
HETATM    7  C   UNL     3      -7.356  10.176  66.804  1.00  0.00    -0.104 A  
HETATM    8  C   UNL     2     -11.632  11.139  67.385  1.00  0.00    -0.071 C  
HETATM    9  O   UNL     4     -10.470   9.472  71.072  1.00  0.00    -0.300 OA 
HETATM   10  H   UNL     3      -8.766   8.841  67.252  1.00  0.00     0.000 HD 
HETATM   11  C   UNL     3      -6.881  11.437  67.199  1.00  0.00    -0.124 A  
HETATM   12  H   UNL     4     -10.656   8.559  70.887  1.00  0.00     0.000 HD 
HETATM   13  O   UNL     5     -10.745  13.491  68.190  1.00  0.00    -0.239 OA 
HETATM   14  O   UNL     5      -9.759  11.073  65.956  1.00  0.00    -0.207 OA 
HETATM   15  C   UNL     4      -9.197   9.962  70.810  1.00  0.00     0.423 A  
HETATM   16  C   UNL     5      -9.727  13.986  67.362  1.00  0.00    -0.233 A  
HETATM   17  H   UNL     5     -11.010  12.635  67.874  1.00  0.00     0.000 HD 
HETATM   18  O   UNL     5      -9.260  12.231  64.119  1.00  0.00     0.312 OA 
HETATM   19  C   UNL     4      -8.924  11.304  71.082  1.00  0.00     7.665 A  
HETATM   20  C   UNL     3      -5.917  12.084  66.439  1.00  0.00     0.550 A  
HETATM   21  C   UNL     3      -5.454  11.478  65.280  1.00  0.00     1.041 A  
HETATM   22  O   UNL     4      -7.930   6.848  69.477  1.00  0.00    -0.119 OA 
HETATM   23  C   UNL     5      -9.334  15.256  67.829  1.00  0.00    -0.196 A  
HETATM   24  C   UNL     4      -7.657  11.791  70.788  1.00  0.00     4.407 A  
HETATM   25  C   UNL     5      -8.424  16.003  67.105  1.00  0.00    -0.223 A  
HETATM   26  C   UNL     4      -6.677  10.930  70.288  1.00  0.00     0.010 A  
HETATM   27  C   UNL     3      -5.953  10.222  64.888  1.00  0.00    -0.133 A  
HETATM   28  C   UNL     4      -6.980   9.595  69.993  1.00  0.00    -0.093 A  
HETATM   29  C   UNL     5      -7.886  15.517  65.933  1.00  0.00     1.877 A  
HETATM   30  C   UNL     3      -6.936   9.555  65.624  1.00  0.00    -0.092 A  
HETATM   31  C   UNL     4      -8.272   9.110  70.200  1.00  0.00    -0.161 A  
HETATM   32  C   UNL     3      -7.623   8.345  65.108  1.00  0.00    -0.088 C  
HETATM   33  C   UNL     5      -8.247  14.261  65.507  1.00  0.00     3.719 A  
HETATM   34  C   UNL     5      -9.171  13.438  66.188  1.00  0.00     0.008 A  
HETATM   35  O   UNL     3      -8.719   7.986  65.687  1.00  0.00    -0.154 OA 
HETATM   36  C   UNL     4      -8.749   7.780  69.656  1.00  0.00    -0.135 C  
HETATM   37  O   UNL     3      -7.089   7.697  64.108  1.00  0.00    -0.062 OA 
HETATM   38  O   UNL     4     -10.046   7.735  69.625  1.00  0.00    -0.187 OA 
ENDROOT
BRANCH   3  39
HETATM   39  C   UNL     2     -12.063  11.355  64.854  1.00  0.00     0.687 C  
BRANCH  39  40
HETATM   40  C   UNL     2     -10.576  11.011  64.709  1.00  0.00    -0.280 C  
HETATM   41  O   UNL     2     -10.265  10.549  63.409  1.00  0.00    -0.493 OA 
HETATM   42  H   UNL     2      -9.344  10.335  63.319  1.00  0.00     0.000 HD 
ENDBRANCH  39  40
ENDBRANCH   3  39
TORSDOF 2
ENDMDL
MODEL      105
REMARK 921   NORMALIZED FREE ENERGY PREDICTED BY IDOCK:   44.04 KCAL/MOL
REMARK 922        TOTAL FREE ENERGY PREDICTED BY IDOCK:   48.90 KCAL/MOL
REMARK 923 INTER-LIGAND FREE ENERGY PREDICTED BY IDOCK:   46.73 KCAL/MOL
REMARK 924 INTRA-LIGAND FREE ENERGY PREDICTED BY IDOCK:    2.16 KCAL/MOL
REMARK 927      BINDING AFFINITY PREDICTED BY RF-SCORE:    0.00 PKD
ROOT
HETATM    1 MG   UNL     1     -12.528   9.535  70.652  1.00  0.00    -0.284 Mg 
HETATM    2  C   UNL     2      -9.487  10.674  73.437  1.00  0.00    14.810 C  
HETATM    3  N   UNL     2      -9.388   9.193  73.352  1.00  0.00     1.776 N  
HETATM    4  O   UNL     3      -9.245   7.697  68.859  1.00  0.00    -0.140 OA 
HETATM    5  C   UNL     2      -9.975   8.432  74.510  1.00  0.00     4.209 C  
HETATM    6  C   UNL     5      -8.189   6.392  71.743  1.00  0.00    -0.113 C  
HETATM    7  C   UNL     3      -8.569   6.500  68.658  1.00  0.00    -0.124 A  
HETATM    8  C   UNL     2     -10.075   8.934  72.028  1.00  0.00    -0.281 C  
HETATM    9  O   UNL     4     -12.795   9.738  68.917  1.00  0.00     1.213 OA 
HETATM   10  H   UNL     3      -8.766   8.483  68.623  1.00  0.00     0.000 HD 
HETATM   11  C   UNL     3      -9.277   5.338  69.007  1.00  0.00    -0.152 A  
HETATM   12  H   UNL     4     -12.353  10.480  68.522  1.00  0.00     0.000 HD 
HETATM   13  O   UNL     5     -11.458   6.776  72.655  1.00  0.00    -0.361 OA 
HETATM   14  O   UNL     5      -8.435   7.471  71.175  1.00  0.00    -0.115 OA 
HETATM   15  C   UNL     4     -12.517   8.463  68.442  1.00  0.00     5.904 A  
HETATM   16  C   UNL     5     -10.693   5.605  72.549  1.00  0.00    -0.239 A  
HETATM   17  H   UNL     5     -10.925   7.518  72.394  1.00  0.00     0.000 HD 
HETATM   18  O   UNL     5      -7.024   6.079  72.192  1.00  0.00    -0.074 OA 
HETATM   19  C   UNL     4     -13.167   7.373  69.023  1.00  0.00     7.405 A  
HETATM   20  C   UNL     3      -8.633   4.109  69.013  1.00  0.00    -0.111 A  
HETATM   21  C   UNL     3      -7.283   4.054  68.695  1.00  0.00    -0.055 A  
HETATM   22  O   UNL     4     -10.065   9.558  66.019  1.00  0.00    -0.295 OA 
HETATM   23  C   UNL     5     -11.483   4.505  72.936  1.00  0.00    -0.111 A  
HETATM   24  C   UNL     4     -12.859   6.099  68.561  1.00  0.00     8.583 A  
HETATM   25  C   UNL     5     -10.913   3.249  73.032  1.00  0.00    -0.140 A  
HETATM   26  C   UNL     4     -11.963   5.940  67.501  1.00  0.00     3.048 A  
HETATM   27  C   UNL     3      -6.583   5.230  68.366  1.00  0.00    -0.049 A  
HETATM   28  C   UNL     4     -11.298   7.043  66.953  1.00  0.00     0.337 A  
HETATM   29  C   UNL     5      -9.579   3.056  72.743  1.00  0.00    -0.167 A  
HETATM   30  C   UNL     3      -7.202   6.483  68.367  1.00  0.00    -0.085 A  
HETATM   31  C   UNL     4     -11.529   8.321  67.463  1.00  0.00     1.478 A  
HETATM   32  C   UNL     3      -6.431   7.744  68.238  1.00  0.00    -0.057 C  
HETATM   33  C   UNL     5      -8.827   4.130  72.330  1.00  0.00    -0.124 A  
HETATM   34  C   UNL     5      -9.334   5.442  72.209  1.00  0.00    -0.158 A  
HETATM   35  O   UNL     3      -7.020   8.843  68.568  1.00  0.00    -0.063 OA 
HETATM   36  C   UNL     4     -10.660   9.514  67.121  1.00  0.00    -0.225 C  
HETATM   37  O   UNL     3      -5.205   7.688  67.790  1.00  0.00    -0.028 OA 
HETATM   38  O   UNL     4     -10.814  10.459  67.997  1.00  0.00    -0.228 OA 
ENDROOT
BRANCH   3  39
HETATM   39  C   UNL     2      -7.849   8.768  73.315  1.00  0.00     0.283 C  
BRANCH  39  40
HETATM   40  C   UNL     2      -7.048   9.125  72.058  1.00  0.00     0.278 C  
HETATM   41  O   UNL     2      -7.093  10.511  71.779  1.00  0.00     1.190 OA 
HETATM   42  H   UNL     2      -6.596  10.733  71.001  1.00  0.00     0.000 HD 
ENDBRANCH  39  40
ENDBRANCH   3  39
TORSDOF 2
ENDMDL
MODEL      106
REMARK 921   NORMALIZED FREE ENERGY PREDICTED BY IDOCK:   48.08 KCAL/MOL
REMARK 922        TOTAL FREE ENERGY PREDICTED BY IDOCK:   53.41 KCAL/MOL
REMARK 923 INTER-LIGAND FREE ENERGY PREDICTED BY IDOCK:   53.70 KCAL/MOL
REMARK 924 INTRA-LIGAND FREE ENERGY PREDICTED BY IDOCK:   -0.28 KCAL/MOL
REMARK 927      BINDING AFFINITY PREDICTED BY RF-SCORE:    0.00 PKD
ROOT
HETATM    1 MG   UNL     1     -13.026  14.951  70.678  1.00  0.00    -0.296 Mg 
HETATM    2  C   UNL     2     -12.617  11.976  67.632  1.00  0.00     1.803 C  
HETATM    3  N   UNL     2     -11.971  13.189  67.066  1.00  0.00    -0.376 N  
HETATM    4  O   UNL     3      -8.900  15.125  70.112  1.00  0.00    -0.320 OA 
HETATM    5  C   UNL     2     -12.774  13.938  66.038  1.00  0.00    -0.362 C  
HETATM    6  C   UNL     5      -9.192  15.208  66.789  1.00  0.00    -0.254 C  
HETATM    7  C   UNL     3      -7.852  15.824  69.527  1.00  0.00    -0.151 A  
HETATM    8  C   UNL     2     -11.686  13.978  68.327  1.00  0.00    -0.357 C  
HETATM    9  O   UNL     4     -12.363  15.204  72.297  1.00  0.00    -0.325 OA 
HETATM   10  H   UNL     3      -8.686  14.257  70.433  1.00  0.00     0.000 HD 
HETATM   11  C   UNL     3      -8.168  17.107  69.053  1.00  0.00    -0.107 A  
HETATM   12  H   UNL     4     -12.075  14.418  72.746  1.00  0.00     0.000 HD 
HETATM   13  O   UNL     5     -12.315  16.401  67.491  1.00  0.00     0.910 OA 
HETATM   14  O   UNL     5      -9.455  14.517  67.789  1.00  0.00    -0.203 OA 
HETATM   15  C   UNL     4     -11.442  16.217  72.065  1.00  0.00    -0.175 A  
HETATM   16  C   UNL     5     -11.259  17.016  66.802  1.00  0.00     0.506 A  
HETATM   17  H   UNL     5     -12.030  15.546  67.792  1.00  0.00     0.000 HD 
HETATM   18  O   UNL     5      -8.435  14.803  65.829  1.00  0.00     0.843 OA 
HETATM   19  C   UNL     4     -11.865  17.372  71.405  1.00  0.00     2.870 A  
HETATM   20  C   UNL     3      -7.244  17.815  68.297  1.00  0.00    -0.237 A  
HETATM   21  C   UNL     3      -6.024  17.225  68.000  1.00  0.00    -0.137 A  
HETATM   22  O   UNL     4      -8.650  14.445  73.529  1.00  0.00     6.363 OA 
HETATM   23  C   UNL     5     -11.681  18.283  66.355  1.00  0.00     2.433 A  
HETATM   24  C   UNL     4     -10.929  18.367  71.151  1.00  0.00     3.224 A  
HETATM   25  C   UNL     5     -10.852  19.036  65.543  1.00  0.00    -0.025 A  
HETATM   26  C   UNL     4      -9.616  18.220  71.604  1.00  0.00     7.241 A  
HETATM   27  C   UNL     3      -5.729  15.931  68.468  1.00  0.00    -0.100 A  
HETATM   28  C   UNL     4      -9.204  17.041  72.236  1.00  0.00    12.240 A  
HETATM   29  C   UNL     5      -9.610  18.566  65.173  1.00  0.00     2.137 A  
HETATM   30  C   UNL     3      -6.646  15.189  69.217  1.00  0.00    -0.139 A  
HETATM   31  C   UNL     4     -10.109  15.996  72.423  1.00  0.00     4.744 A  
HETATM   32  C   UNL     3      -6.435  13.752  69.524  1.00  0.00    -0.105 C  
HETATM   33  C   UNL     5      -9.193  17.345  65.647  1.00  0.00     0.402 A  
HETATM   34  C   UNL     5      -9.981  16.517  66.477  1.00  0.00    -0.297 A  
HETATM   35  O   UNL     3      -7.452  13.071  69.929  1.00  0.00     0.766 OA 
HETATM   36  C   UNL     4      -9.684  14.603  72.839  1.00  0.00     6.839 C  
HETATM   37  O   UNL     3      -5.238  13.249  69.384  1.00  0.00    -0.074 OA 
HETATM   38  O   UNL     4     -10.611  13.738  72.558  1.00  0.00     5.072 OA 
ENDROOT
BRANCH   3  39
HETATM   39  C   UNL     2     -10.626  12.769  66.314  1.00  0.00    -0.257 C  
BRANCH  39  40
HETATM   40  C   UNL     2     -10.025  11.400  66.653  1.00  0.00    -0.208 C  
HETATM   41  O   UNL     2      -9.033  11.013  65.722  1.00  0.00    -0.189 OA 
HETATM   42  H   UNL     2      -8.661  10.165  65.931  1.00  0.00     0.000 HD 
ENDBRANCH  39  40
ENDBRANCH   3  39
TORSDOF 2
ENDMDL
MODEL      107
REMARK 921   NORMALIZED FREE ENERGY PREDICTED BY IDOCK:   48.47 KCAL/MOL
REMARK 922        TOTAL FREE ENERGY PREDICTED BY IDOCK:   53.85 KCAL/MOL
REMARK 923 INTER-LIGAND FREE ENERGY PREDICTED BY IDOCK:   54.61 KCAL/MOL
REMARK 924 INTRA-LIGAND FREE ENERGY PREDICTED BY IDOCK:   -0.76 KCAL/MOL
REMARK 927      BINDING AFFINITY PREDICTED BY RF-SCORE:    0.00 PKD
ROOT
HETATM    1 MG   UNL     1      -9.050  16.426  66.762  1.00  0.00    -0.184 Mg 
HETATM    2  C   UNL     2      -6.613  14.046  64.174  1.00  0.00    23.459 C  
HETATM    3  N   UNL     2      -6.549  13.361  65.492  1.00  0.00     7.728 N  
HETATM    4  O   UNL     3     -10.859  12.717  67.351  1.00  0.00    -0.233 OA 
HETATM    5  C   UNL     2      -5.280  13.568  66.274  1.00  0.00     3.899 C  
HETATM    6  C   UNL     5      -7.932  11.168  67.762  1.00  0.00    -0.116 C  
HETATM    7  C   UNL     3     -10.978  11.622  68.196  1.00  0.00    -0.226 A  
HETATM    8  C   UNL     2      -7.789  13.912  66.164  1.00  0.00     2.286 C  
HETATM    9  O   UNL     4     -10.775  16.787  66.898  1.00  0.00    -0.257 OA 
HETATM   10  H   UNL     3     -11.209  12.601  66.475  1.00  0.00     0.000 HD 
HETATM   11  C   UNL     3     -10.462  11.794  69.491  1.00  0.00     0.244 A  
HETATM   12  H   UNL     4     -11.275  16.689  66.096  1.00  0.00     0.000 HD 
HETATM   13  O   UNL     5      -6.846  14.296  68.599  1.00  0.00    -0.087 OA 
HETATM   14  O   UNL     5      -8.592  11.839  66.948  1.00  0.00    -0.167 OA 
HETATM   15  C   UNL     4     -11.131  16.029  68.006  1.00  0.00    -0.334 A  
HETATM   16  C   UNL     5      -6.879  13.127  69.372  1.00  0.00     0.032 A  
HETATM   17  H   UNL     5      -7.219  14.112  67.744  1.00  0.00     0.000 HD 
HETATM   18  O   UNL     5      -7.533   9.967  67.528  1.00  0.00    -0.090 OA 
HETATM   19  C   UNL     4     -10.396  16.173  69.183  1.00  0.00    -0.259 A  
HETATM   20  C   UNL     3     -10.371  10.710  70.351  1.00  0.00     0.433 A  
HETATM   21  C   UNL     3     -10.772   9.459  69.905  1.00  0.00    -0.258 A  
HETATM   22  O   UNL     4     -13.816  14.274  66.336  1.00  0.00     2.112 OA 
HETATM   23  C   UNL     5      -6.327  13.400  70.639  1.00  0.00     0.246 A  
HETATM   24  C   UNL     4     -10.741  15.388  70.276  1.00  0.00    -0.320 A  
HETATM   25  C   UNL     5      -6.138  12.370  71.542  1.00  0.00     1.466 A  
HETATM   26  C   UNL     4     -11.836  14.525  70.197  1.00  0.00    -0.371 A  
HETATM   27  C   UNL     3     -11.270   9.299  68.598  1.00  0.00     0.185 A  
HETATM   28  C   UNL     4     -12.542  14.372  68.997  1.00  0.00     0.235 A  
HETATM   29  C   UNL     5      -6.495  11.078  71.224  1.00  0.00     1.323 A  
HETATM   30  C   UNL     3     -11.359  10.369  67.704  1.00  0.00    -0.162 A  
HETATM   31  C   UNL     4     -12.155  15.087  67.863  1.00  0.00    -0.011 A  
HETATM   32  C   UNL     3     -11.671  10.173  66.267  1.00  0.00     2.538 C  
HETATM   33  C   UNL     5      -7.069  10.829  70.000  1.00  0.00    -0.035 A  
HETATM   34  C   UNL     5      -7.292  11.825  69.023  1.00  0.00    -0.055 A  
HETATM   35  O   UNL     3     -11.419  11.148  65.461  1.00  0.00     0.070 OA 
HETATM   36  C   UNL     4     -12.678  14.779  66.476  1.00  0.00     0.693 C  
HETATM   37  O   UNL     3     -12.193   9.038  65.886  1.00  0.00     7.491 OA 
HETATM   38  O   UNL     4     -11.898  15.283  65.569  1.00  0.00    -0.084 OA 
ENDROOT
BRANCH   3  39
HETATM   39  C   UNL     2      -6.645  11.782  65.273  1.00  0.00     2.343 C  
BRANCH  39  40
HETATM   40  C   UNL     2      -7.201  11.288  63.932  1.00  0.00     1.450 C  
HETATM   41  O   UNL     2      -8.613  11.210  63.941  1.00  0.00    -0.378 OA 
HETATM   42  H   UNL     2      -8.958  10.904  63.111  1.00  0.00     0.000 HD 
ENDBRANCH  39  40
ENDBRANCH   3  39
TORSDOF 2
ENDMDL
MODEL      108
REMARK 921   NORMALIZED FREE ENERGY PREDICTED BY IDOCK:   49.00 KCAL/MOL
REMARK 922        TOTAL FREE ENERGY PREDICTED BY IDOCK:   54.44 KCAL/MOL
REMARK 923 INTER-LIGAND FREE ENERGY PREDICTED BY IDOCK:   51.10 KCAL/MOL
REMARK 924 INTRA-LIGAND FREE ENERGY PREDICTED BY IDOCK:    3.33 KCAL/MOL
REMARK 927      BINDING AFFINITY PREDICTED BY RF-SCORE:    0.00 PKD
ROOT
HETATM    1 MG   UNL     1      -9.534  12.036  64.728  1.00  0.00    -0.226 Mg 
HETATM    2  C   UNL     2     -12.852  10.340  66.829  1.00  0.00     9.716 C  
HETATM    3  N   UNL     2     -11.672  10.049  67.685  1.00  0.00     0.785 N  
HETATM    4  O   UNL     3      -9.034  13.917  68.415  1.00  0.00    -0.186 OA 
HETATM    5  C   UNL     2     -11.158   8.636  67.630  1.00  0.00     0.389 C  
HETATM    6  C   UNL     5      -9.448  11.072  70.110  1.00  0.00     1.510 C  
HETATM    7  C   UNL     3      -8.324  13.928  69.608  1.00  0.00     1.007 A  
HETATM    8  C   UNL     2     -10.690  11.086  67.185  1.00  0.00    -0.265 C  
HETATM    9  O   UNL     4      -8.992  13.670  64.327  1.00  0.00     1.618 OA 
HETATM   10  H   UNL     3      -9.823  14.445  68.401  1.00  0.00     0.000 HD 
HETATM   11  C   UNL     3      -7.158  13.146  69.628  1.00  0.00     0.361 A  
HETATM   12  H   UNL     4      -9.675  14.329  64.299  1.00  0.00     0.000 HD 
HETATM   13  O   UNL     5      -8.482   9.640  67.162  1.00  0.00    -0.129 OA 
HETATM   14  O   UNL     5     -10.014  11.841  69.313  1.00  0.00     0.078 OA 
HETATM   15  C   UNL     4      -7.935  13.837  65.212  1.00  0.00     6.010 A  
HETATM   16  C   UNL     5      -7.869   9.588  68.422  1.00  0.00    -0.086 A  
HETATM   17  H   UNL     5      -9.255  10.192  67.217  1.00  0.00     0.000 HD 
HETATM   18  O   UNL     5      -9.907  10.806  71.283  1.00  0.00     2.578 OA 
HETATM   19  C   UNL     4      -6.932  12.868  65.253  1.00  0.00     7.320 A  
HETATM   20  C   UNL     3      -6.476  12.949  70.821  1.00  0.00     0.969 A  
HETATM   21  C   UNL     3      -6.977  13.512  71.985  1.00  0.00     4.410 A  
HETATM   22  O   UNL     4      -9.200  16.915  66.631  1.00  0.00    -0.232 OA 
HETATM   23  C   UNL     5      -6.725   8.770  68.341  1.00  0.00    -0.064 A  
HETATM   24  C   UNL     4      -5.895  13.030  66.164  1.00  0.00     3.777 A  
HETATM   25  C   UNL     5      -6.016   8.465  69.488  1.00  0.00    -0.033 A  
HETATM   26  C   UNL     4      -5.846  14.170  66.968  1.00  0.00     1.240 A  
HETATM   27  C   UNL     3      -8.158  14.277  71.952  1.00  0.00     6.290 A  
HETATM   28  C   UNL     4      -6.879  15.116  66.935  1.00  0.00     0.586 A  
HETATM   29  C   UNL     5      -6.407   8.961  70.713  1.00  0.00    -0.049 A  
HETATM   30  C   UNL     3      -8.874  14.480  70.769  1.00  0.00     2.860 A  
HETATM   31  C   UNL     4      -7.971  14.926  66.089  1.00  0.00     1.440 A  
HETATM   32  C   UNL     3     -10.225  15.093  70.760  1.00  0.00     0.444 C  
HETATM   33  C   UNL     5      -7.503   9.789  70.775  1.00  0.00     0.045 A  
HETATM   34  C   UNL     5      -8.280  10.145  69.651  1.00  0.00    -0.176 A  
HETATM   35  O   UNL     3     -10.940  14.952  69.696  1.00  0.00    -0.262 OA 
HETATM   36  C   UNL     4      -9.243  15.742  66.191  1.00  0.00    -0.350 C  
HETATM   37  O   UNL     3     -10.623  15.754  71.815  1.00  0.00     0.436 OA 
HETATM   38  O   UNL     4     -10.227  15.135  65.599  1.00  0.00    -0.307 OA 
ENDROOT
BRANCH   3  39
HETATM   39  C   UNL     2     -12.059  10.288  69.216  1.00  0.00     0.158 C  
BRANCH  39  40
HETATM   40  C   UNL     2     -12.093  11.737  69.718  1.00  0.00    -0.269 C  
HETATM   41  O   UNL     2     -12.068  11.808  71.129  1.00  0.00    -0.288 OA 
HETATM   42  H   UNL     2     -12.089  12.705  71.441  1.00  0.00     0.000 HD 
ENDBRANCH  39  40
ENDBRANCH   3  39
TORSDOF 2
ENDMDL
MODEL      109
REMARK 921   NORMALIZED FREE ENERGY PREDICTED BY IDOCK:   49.90 KCAL/MOL
REMARK 922        TOTAL FREE ENERGY PREDICTED BY IDOCK:   55.44 KCAL/MOL
REMARK 923 INTER-LIGAND FREE ENERGY PREDICTED BY IDOCK:   54.59 KCAL/MOL
REMARK 924 INTRA-LIGAND FREE ENERGY PREDICTED BY IDOCK:    0.86 KCAL/MOL
REMARK 927      BINDING AFFINITY PREDICTED BY RF-SCORE:    0.00 PKD
ROOT
HETATM    1 MG   UNL     1     -11.273  13.117  65.108  1.00  0.00    -0.288 Mg 
HETATM    2  C   UNL     2      -7.826  11.834  62.924  1.00  0.00     1.515 C  
HETATM    3  N   UNL     2      -7.316  12.159  64.283  1.00  0.00     4.436 N  
HETATM    4  O   UNL     3      -9.924  10.119  67.672  1.00  0.00    -0.169 OA 
HETATM    5  C   UNL     2      -6.582  13.466  64.410  1.00  0.00    17.555 C  
HETATM    6  C   UNL     5      -6.770  11.202  67.548  1.00  0.00    -0.075 C  
HETATM    7  C   UNL     3      -9.244   9.839  68.850  1.00  0.00    -0.155 A  
HETATM    8  C   UNL     2      -8.590  12.081  65.096  1.00  0.00     0.969 C  
HETATM    9  O   UNL     4     -12.746  12.349  65.712  1.00  0.00    -0.392 OA 
HETATM   10  H   UNL     3     -10.073   9.378  67.097  1.00  0.00     0.000 HD 
HETATM   11  C   UNL     3      -9.024  10.936  69.699  1.00  0.00     0.395 A  
HETATM   12  H   UNL     4     -13.016  11.565  65.249  1.00  0.00     0.000 HD 
HETATM   13  O   UNL     5      -8.239  14.161  66.681  1.00  0.00    -0.384 OA 
HETATM   14  O   UNL     5      -7.698  10.771  66.840  1.00  0.00    -0.118 OA 
HETATM   15  C   UNL     4     -12.477  12.262  67.072  1.00  0.00     1.062 A  
HETATM   16  C   UNL     5      -7.445  13.852  67.795  1.00  0.00    -0.167 A  
HETATM   17  H   UNL     5      -8.357  13.376  66.158  1.00  0.00     0.000 HD 
HETATM   18  O   UNL     5      -5.632  10.610  67.659  1.00  0.00    -0.043 OA 
HETATM   19  C   UNL     4     -12.080  13.414  67.754  1.00  0.00    -0.299 A  
HETATM   20  C   UNL     3      -8.204  10.799  70.810  1.00  0.00     2.894 A  
HETATM   21  C   UNL     3      -7.591   9.577  71.049  1.00  0.00     0.057 A  
HETATM   22  O   UNL     4     -13.095   8.705  67.289  1.00  0.00    11.430 OA 
HETATM   23  C   UNL     5      -7.270  15.015  68.569  1.00  0.00    -0.115 A  
HETATM   24  C   UNL     4     -11.784  13.310  69.107  1.00  0.00    -0.379 A  
HETATM   25  C   UNL     5      -6.421  14.993  69.660  1.00  0.00    -0.154 A  
HETATM   26  C   UNL     4     -11.942  12.088  69.764  1.00  0.00    -0.370 A  
HETATM   27  C   UNL     3      -7.807   8.493  70.179  1.00  0.00    -0.099 A  
HETATM   28  C   UNL     4     -12.310  10.937  69.055  1.00  0.00     0.057 A  
HETATM   29  C   UNL     5      -5.750  13.841  70.009  1.00  0.00    -0.125 A  
HETATM   30  C   UNL     3      -8.615   8.606  69.044  1.00  0.00    -0.129 A  
HETATM   31  C   UNL     4     -12.527  11.004  67.679  1.00  0.00     2.263 A  
HETATM   32  C   UNL     3      -8.672   7.545  68.008  1.00  0.00    -0.121 C  
HETATM   33  C   UNL     5      -5.958  12.701  69.269  1.00  0.00    -0.093 A  
HETATM   34  C   UNL     5      -6.806  12.644  68.141  1.00  0.00    -0.090 A  
HETATM   35  O   UNL     3      -9.174   7.855  66.861  1.00  0.00    -0.140 OA 
HETATM   36  C   UNL     4     -12.654   9.774  66.805  1.00  0.00     9.553 C  
HETATM   37  O   UNL     3      -8.228   6.353  68.303  1.00  0.00    -0.115 OA 
HETATM   38  O   UNL     4     -12.447  10.074  65.558  1.00  0.00     6.075 OA 
ENDROOT
BRANCH   3  39
HETATM   39  C   UNL     2      -6.259  11.047  64.729  1.00  0.00     0.532 C  
BRANCH  39  40
HETATM   40  C   UNL     2      -6.643   9.579  64.510  1.00  0.00    -0.095 C  
HETATM   41  O   UNL     2      -6.787   9.270  63.137  1.00  0.00    -0.090 OA 
HETATM   42  H   UNL     2      -7.025   8.361  63.001  1.00  0.00     0.000 HD 
ENDBRANCH  39  40
ENDBRANCH   3  39
TORSDOF 2
ENDMDL
MODEL      110
REMARK 921   NORMALIZED FREE ENERGY PREDICTED BY IDOCK:   51.29 KCAL/MOL
REMARK 922        TOTAL FREE ENERGY PREDICTED BY IDOCK:   56.99 KCAL/MOL
REMARK 923 INTER-LIGAND FREE ENERGY PREDICTED BY IDOCK:   57.23 KCAL/MOL
REMARK 924 INTRA-LIGAND FREE ENERGY PREDICTED BY IDOCK:   -0.23 KCAL/MOL
REMARK 927      BINDING AFFINITY PREDICTED BY RF-SCORE:    0.00 PKD
ROOT
HETATM    1 MG   UNL     1      -8.576  12.634  68.423  1.00  0.00    -0.140 Mg 
HETATM    2  C   UNL     2      -5.333  14.676  70.323  1.00  0.00    -0.106 C  
HETATM    3  N   UNL     2      -6.102  15.745  69.633  1.00  0.00    -0.150 N  
HETATM    4  O   UNL     3     -10.736  15.469  70.586  1.00  0.00    -0.333 OA 
HETATM    5  C   UNL     2      -5.501  16.261  68.354  1.00  0.00    -0.104 C  
HETATM    6  C   UNL     5      -8.738  17.965  69.628  1.00  0.00     1.005 C  
HETATM    7  C   UNL     3     -11.421  16.675  70.529  1.00  0.00     0.201 A  
HETATM    8  C   UNL     2      -7.445  15.067  69.458  1.00  0.00    -0.194 C  
HETATM    9  O   UNL     4     -10.023  11.775  68.966  1.00  0.00    -0.403 OA 
HETATM   10  H   UNL     3     -10.528  15.156  71.458  1.00  0.00     0.000 HD 
HETATM   11  C   UNL     3     -11.729  17.138  69.239  1.00  0.00     1.390 A  
HETATM   12  H   UNL     4      -9.978  11.419  69.846  1.00  0.00     0.000 HD 
HETATM   13  O   UNL     5      -8.041  15.876  67.018  1.00  0.00    -0.185 OA 
HETATM   14  O   UNL     5      -8.744  16.876  70.230  1.00  0.00     1.856 OA 
HETATM   15  C   UNL     4     -11.020  12.694  68.666  1.00  0.00    -0.256 A  
HETATM   16  C   UNL     5      -8.623  17.151  67.008  1.00  0.00    -0.218 A  
HETATM   17  H   UNL     5      -7.870  15.620  67.917  1.00  0.00     0.000 HD 
HETATM   18  O   UNL     5      -8.393  19.075  70.180  1.00  0.00     1.085 OA 
HETATM   19  C   UNL     4     -11.086  13.217  67.373  1.00  0.00    -0.301 A  
HETATM   20  C   UNL     3     -12.252  18.411  69.066  1.00  0.00     6.950 A  
HETATM   21  C   UNL     3     -12.439  19.221  70.177  1.00  0.00    15.887 A  
HETATM   22  O   UNL     4     -12.410  12.752  72.005  1.00  0.00     0.220 OA 
HETATM   23  C   UNL     5      -8.875  17.529  65.675  1.00  0.00     0.538 A  
HETATM   24  C   UNL     4     -12.068  14.157  67.092  1.00  0.00    -0.432 A  
HETATM   25  C   UNL     5      -9.338  18.803  65.398  1.00  0.00     1.343 A  
HETATM   26  C   UNL     4     -12.995  14.513  68.075  1.00  0.00     1.943 A  
HETATM   27  C   UNL     3     -12.109  18.749  71.461  1.00  0.00    11.391 A  
HETATM   28  C   UNL     4     -12.893  14.001  69.374  1.00  0.00     0.598 A  
HETATM   29  C   UNL     5      -9.568  19.707  66.413  1.00  0.00    -0.490 A  
HETATM   30  C   UNL     3     -11.566  17.477  71.665  1.00  0.00     2.392 A  
HETATM   31  C   UNL     4     -11.860  13.122  69.699  1.00  0.00    -0.390 A  
HETATM   32  C   UNL     3     -11.013  17.056  72.976  1.00  0.00     2.670 C  
HETATM   33  C   UNL     5      -9.354  19.314  67.713  1.00  0.00    -0.376 A  
HETATM   34  C   UNL     5      -8.880  18.034  68.077  1.00  0.00    -0.278 A  
HETATM   35  O   UNL     3     -10.253  16.014  72.998  1.00  0.00     4.263 OA 
HETATM   36  C   UNL     4     -11.517  12.745  71.125  1.00  0.00     1.921 C  
HETATM   37  O   UNL     3     -11.326  17.744  74.040  1.00  0.00     0.377 OA 
HETATM   38  O   UNL     4     -10.314  12.262  71.195  1.00  0.00     5.231 OA 
ENDROOT
BRANCH   3  39
HETATM   39  C   UNL     2      -6.204  17.023  70.587  1.00  0.00     0.794 C  
BRANCH  39  40
HETATM   40  C   UNL     2      -5.360  18.248  70.217  1.00  0.00    -0.249 C  
HETATM   41  O   UNL     2      -5.773  19.405  70.917  1.00  0.00    -0.224 OA 
HETATM   42  H   UNL     2      -5.251  20.165  70.688  1.00  0.00     0.000 HD 
ENDBRANCH  39  40
ENDBRANCH   3  39
TORSDOF 2
ENDMDL
MODEL      111
REMARK 921   NORMALIZED FREE ENERGY PREDICTED BY IDOCK:   52.19 KCAL/MOL
REMARK 922        TOTAL FREE ENERGY PREDICTED BY IDOCK:   58.00 KCAL/MOL
REMARK 923 INTER-LIGAND FREE ENERGY PREDICTED BY IDOCK:   54.56 KCAL/MOL
REMARK 924 INTRA-LIGAND FREE ENERGY PREDICTED BY IDOCK:    3.44 KCAL/MOL
REMARK 927      BINDING AFFINITY PREDICTED BY RF-SCORE:    0.00 PKD
ROOT
HETATM    1 MG   UNL     1     -10.325   8.373  66.769  1.00  0.00    -0.180 Mg 
HETATM    2  C   UNL     2     -13.557   7.664  69.481  1.00  0.00     5.975 C  
HETATM    3  N   UNL     2     -12.455   8.188  70.332  1.00  0.00     0.418 N  
HETATM    4  O   UNL     3     -10.572  12.144  68.528  1.00  0.00    -0.221 OA 
HETATM    5  C   UNL     2     -11.720   7.164  71.152  1.00  0.00    -0.313 C  
HETATM    6  C   UNL     5     -10.725  10.879  71.612  1.00  0.00     3.973 C  
HETATM    7  C   UNL     3     -10.020  13.012  69.461  1.00  0.00     1.048 A  
HETATM    8  C   UNL     2     -11.598   8.885  69.297  1.00  0.00     0.696 C  
HETATM    9  O   UNL     4     -10.006   9.504  65.449  1.00  0.00    -0.409 OA 
HETATM   10  H   UNL     3     -11.428  12.389  68.196  1.00  0.00     0.000 HD 
HETATM   11  C   UNL     3      -8.754  12.650  69.951  1.00  0.00     2.956 A  
HETATM   12  H   UNL     4     -10.777   9.862  65.025  1.00  0.00     0.000 HD 
HETATM   13  O   UNL     5      -9.202   8.191  70.157  1.00  0.00    -0.153 OA 
HETATM   14  O   UNL     5     -11.308  10.883  70.513  1.00  0.00    -0.290 OA 
HETATM   15  C   UNL     4      -9.102  10.375  66.042  1.00  0.00    -0.162 A  
HETATM   16  C   UNL     5      -8.742   9.030  71.182  1.00  0.00    -0.203 A  
HETATM   17  H   UNL     5     -10.053   8.497  69.865  1.00  0.00     0.000 HD 
HETATM   18  O   UNL     5     -11.272  11.288  72.704  1.00  0.00     5.988 OA 
HETATM   19  C   UNL     4      -7.970   9.849  66.664  1.00  0.00    -0.113 A  
HETATM   20  C   UNL     3      -8.196  13.350  71.012  1.00  0.00     7.196 A  
HETATM   21  C   UNL     3      -8.915  14.386  71.589  1.00  0.00     6.080 A  
HETATM   22  O   UNL     4     -11.000  13.359  65.281  1.00  0.00    -0.285 OA 
HETATM   23  C   UNL     5      -7.481   8.575  71.614  1.00  0.00    -0.128 A  
HETATM   24  C   UNL     4      -7.088  10.728  67.280  1.00  0.00    -0.091 A  
HETATM   25  C   UNL     5      -6.873   9.169  72.705  1.00  0.00     0.390 A  
HETATM   26  C   UNL     4      -7.316  12.104  67.217  1.00  0.00    -0.149 A  
HETATM   27  C   UNL     3     -10.190  14.724  71.098  1.00  0.00     1.400 A  
HETATM   28  C   UNL     4      -8.475  12.610  66.615  1.00  0.00     0.021 A  
HETATM   29  C   UNL     5      -7.481  10.212  73.371  1.00  0.00     4.765 A  
HETATM   30  C   UNL     3     -10.784  14.028  70.042  1.00  0.00     0.376 A  
HETATM   31  C   UNL     4      -9.415  11.738  66.067  1.00  0.00    -0.245 A  
HETATM   32  C   UNL     3     -12.205  14.229  69.664  1.00  0.00    -0.323 C  
HETATM   33  C   UNL     5      -8.694  10.673  72.916  1.00  0.00    12.453 A  
HETATM   34  C   UNL     5      -9.379  10.118  71.813  1.00  0.00     3.868 A  
HETATM   35  O   UNL     3     -12.757  13.338  68.913  1.00  0.00     0.369 OA 
HETATM   36  C   UNL     4     -10.804  12.178  65.652  1.00  0.00    -0.284 C  
HETATM   37  O   UNL     3     -12.825  15.295  70.095  1.00  0.00    -0.287 OA 
HETATM   38  O   UNL     4     -11.600  11.157  65.561  1.00  0.00     0.083 OA 
ENDROOT
BRANCH   3  39
HETATM   39  C   UNL     2     -13.054   9.218  71.397  1.00  0.00    -0.322 C  
BRANCH  39  40
HETATM   40  C   UNL     2     -12.401   9.259  72.783  1.00  0.00     0.354 C  
HETATM   41  O   UNL     2     -12.644   8.074  73.517  1.00  0.00     0.313 OA 
HETATM   42  H   UNL     2     -12.239   8.099  74.376  1.00  0.00     0.000 HD 
ENDBRANCH  39  40
ENDBRANCH   3  39
TORSDOF 2
ENDMDL
MODEL      112
REMARK 921   NORMALIZED FREE ENERGY PREDICTED BY IDOCK:   55.62 KCAL/MOL
REMARK 922        TOTAL FREE ENERGY PREDICTED BY IDOCK:   61.83 KCAL/MOL
REMARK 923 INTER-LIGAND FREE ENERGY PREDICTED BY IDOCK:   62.09 KCAL/MOL
REMARK 924 INTRA-LIGAND FREE ENERGY PREDICTED BY IDOCK:   -0.26 KCAL/MOL
REMARK 927      BINDING AFFINITY PREDICTED BY RF-SCORE:    0.00 PKD
ROOT
HETATM    1 MG   UNL     1     -13.049  10.050  66.528  1.00  0.00     4.561 Mg 
HETATM    2  C   UNL     2     -10.832  13.396  65.047  1.00  0.00    -0.328 C  
HETATM    3  N   UNL     2     -10.765  13.521  66.527  1.00  0.00    -0.285 N  
HETATM    4  O   UNL     3      -9.469   9.451  68.578  1.00  0.00    -0.144 OA 
HETATM    5  C   UNL     2     -11.667  14.560  67.137  1.00  0.00    -0.399 C  
HETATM    6  C   UNL     5      -9.274  12.650  69.509  1.00  0.00     1.626 C  
HETATM    7  C   UNL     3      -8.806   9.588  69.791  1.00  0.00    -0.199 A  
HETATM    8  C   UNL     2     -11.078  12.102  66.951  1.00  0.00    -0.297 C  
HETATM    9  O   UNL     4     -12.831   8.296  66.545  1.00  0.00     9.739 OA 
HETATM   10  H   UNL     3      -8.918   9.260  67.828  1.00  0.00     0.000 HD 
HETATM   11  C   UNL     3      -9.621   9.870  70.899  1.00  0.00     0.326 A  
HETATM   12  H   UNL     4     -12.274   7.949  65.859  1.00  0.00     0.000 HD 
HETATM   13  O   UNL     5     -12.653  12.587  69.013  1.00  0.00     0.291 OA 
HETATM   14  O   UNL     5      -9.321  11.910  68.510  1.00  0.00    -0.196 OA 
HETATM   15  C   UNL     4     -12.480   8.073  67.870  1.00  0.00     7.038 A  
HETATM   16  C   UNL     5     -11.928  12.836  70.188  1.00  0.00    -0.296 A  
HETATM   17  H   UNL     5     -12.044  12.393  68.310  1.00  0.00     0.000 HD 
HETATM   18  O   UNL     5      -8.284  13.433  69.763  1.00  0.00     1.167 OA 
HETATM   19  C   UNL     4     -13.299   8.583  68.878  1.00  0.00     9.333 A  
HETATM   20  C   UNL     3      -9.044  10.199  72.118  1.00  0.00     5.462 A  
HETATM   21  C   UNL     3      -7.662  10.269  72.213  1.00  0.00     4.831 A  
HETATM   22  O   UNL     4      -9.430   6.292  67.090  1.00  0.00    -0.119 OA 
HETATM   23  C   UNL     5     -12.830  13.124  71.230  1.00  0.00    -0.384 A  
HETATM   24  C   UNL     4     -12.922   8.380  70.200  1.00  0.00     1.644 A  
HETATM   25  C   UNL     5     -12.350  13.523  72.464  1.00  0.00     0.417 A  
HETATM   26  C   UNL     4     -11.781   7.631  70.492  1.00  0.00    -0.148 A  
HETATM   27  C   UNL     3      -6.859  10.001  71.088  1.00  0.00     0.347 A  
HETATM   28  C   UNL     4     -10.955   7.154  69.466  1.00  0.00    -0.214 A  
HETATM   29  C   UNL     5     -10.995  13.632  72.692  1.00  0.00     5.624 A  
HETATM   30  C   UNL     3      -7.412   9.683  69.844  1.00  0.00    -0.127 A  
HETATM   31  C   UNL     4     -11.271   7.423  68.134  1.00  0.00     0.268 A  
HETATM   32  C   UNL     3      -6.592   9.616  68.610  1.00  0.00    -0.051 C  
HETATM   33  C   UNL     5     -10.123  13.311  71.680  1.00  0.00     9.716 A  
HETATM   34  C   UNL     5     -10.534  12.900  70.393  1.00  0.00     2.774 A  
HETATM   35  O   UNL     3      -7.210   9.638  67.478  1.00  0.00    -0.088 OA 
HETATM   36  C   UNL     4     -10.301   7.188  66.995  1.00  0.00    -0.298 C  
HETATM   37  O   UNL     3      -5.294   9.527  68.722  1.00  0.00    -0.037 OA 
HETATM   38  O   UNL     4     -10.653   7.868  65.946  1.00  0.00     1.061 OA 
ENDROOT
BRANCH   3  39
HETATM   39  C   UNL     2      -9.288  13.955  66.955  1.00  0.00    -0.258 C  
BRANCH  39  40
HETATM   40  C   UNL     2      -8.681  15.178  66.256  1.00  0.00    -0.090 C  
HETATM   41  O   UNL     2      -8.734  16.332  67.070  1.00  0.00    -0.175 OA 
HETATM   42  H   UNL     2      -8.358  17.090  66.638  1.00  0.00     0.000 HD 
ENDBRANCH  39  40
ENDBRANCH   3  39
TORSDOF 2
ENDMDL
MODEL      113
REMARK 921   NORMALIZED FREE ENERGY PREDICTED BY IDOCK:   57.51 KCAL/MOL
REMARK 922        TOTAL FREE ENERGY PREDICTED BY IDOCK:   63.94 KCAL/MOL
REMARK 923 INTER-LIGAND FREE ENERGY PREDICTED BY IDOCK:   64.42 KCAL/MOL
REMARK 924 INTRA-LIGAND FREE ENERGY PREDICTED BY IDOCK:   -0.48 KCAL/MOL
REMARK 927      BINDING AFFINITY PREDICTED BY RF-SCORE:    0.00 PKD
ROOT
HETATM    1 MG   UNL     1      -5.638  18.812  67.349  1.00  0.00    -0.144 Mg 
HETATM    2  C   UNL     2      -6.054  19.993  71.440  1.00  0.00    -0.208 C  
HETATM    3  N   UNL     2      -7.438  20.012  70.896  1.00  0.00     0.825 N  
HETATM    4  O   UNL     3      -8.470  16.011  68.578  1.00  0.00    -0.172 OA 
HETATM    5  C   UNL     2      -8.000  21.373  70.587  1.00  0.00     6.224 C  
HETATM    6  C   UNL     5     -10.334  18.319  70.107  1.00  0.00     1.355 C  
HETATM    7  C   UNL     3      -9.815  15.663  68.573  1.00  0.00    -0.205 A  
HETATM    8  C   UNL     2      -7.286  19.114  69.687  1.00  0.00     0.017 C  
HETATM    9  O   UNL     4      -5.195  17.327  66.500  1.00  0.00    -0.162 OA 
HETATM   10  H   UNL     3      -7.923  15.529  69.186  1.00  0.00     0.000 HD 
HETATM   11  C   UNL     3     -10.623  16.376  67.673  1.00  0.00    -0.313 A  
HETATM   12  H   UNL     4      -4.660  16.719  66.996  1.00  0.00     0.000 HD 
HETATM   13  O   UNL     5      -8.758  20.448  67.950  1.00  0.00    -0.211 OA 
HETATM   14  O   UNL     5      -9.201  17.805  70.101  1.00  0.00     1.594 OA 
HETATM   15  C   UNL     4      -6.429  16.900  66.026  1.00  0.00     0.486 A  
HETATM   16  C   UNL     5     -10.123  20.147  68.069  1.00  0.00    -0.379 A  
HETATM   17  H   UNL     5      -8.271  19.925  68.576  1.00  0.00     0.000 HD 
HETATM   18  O   UNL     5     -11.123  18.279  71.123  1.00  0.00     2.108 OA 
HETATM   19  C   UNL     4      -7.215  17.793  65.297  1.00  0.00     0.979 A  
HETATM   20  C   UNL     3     -12.003  16.231  67.715  1.00  0.00     0.692 A  
HETATM   21  C   UNL     3     -12.564  15.397  68.671  1.00  0.00     0.588 A  
HETATM   22  O   UNL     4      -6.197  13.596  67.481  1.00  0.00    -0.273 OA 
HETATM   23  C   UNL     5     -10.845  20.922  67.140  1.00  0.00     1.633 A  
HETATM   24  C   UNL     4      -8.460  17.365  64.853  1.00  0.00     4.247 A  
HETATM   25  C   UNL     5     -12.227  20.892  67.148  1.00  0.00     5.885 A  
HETATM   26  C   UNL     4      -8.871  16.051  65.091  1.00  0.00     2.098 A  
HETATM   27  C   UNL     3     -11.741  14.703  69.578  1.00  0.00    -0.366 A  
HETATM   28  C   UNL     4      -8.081  15.180  65.851  1.00  0.00     1.804 A  
HETATM   29  C   UNL     5     -12.911  20.102  68.048  1.00  0.00     5.514 A  
HETATM   30  C   UNL     3     -10.350  14.841  69.569  1.00  0.00    -0.127 A  
HETATM   31  C   UNL     4      -6.867  15.619  66.379  1.00  0.00     1.478 A  
HETATM   32  C   UNL     3      -9.496  14.293  70.652  1.00  0.00     2.848 C  
HETATM   33  C   UNL     5     -12.195  19.321  68.923  1.00  0.00     6.877 A  
HETATM   34  C   UNL     5     -10.784  19.298  68.980  1.00  0.00     0.620 A  
HETATM   35  O   UNL     3      -8.287  14.732  70.741  1.00  0.00     1.421 OA 
HETATM   36  C   UNL     4      -6.096  14.845  67.427  1.00  0.00     0.176 C  
HETATM   37  O   UNL     3      -9.997  13.390  71.452  1.00  0.00     6.629 OA 
HETATM   38  O   UNL     4      -5.247  15.616  68.036  1.00  0.00    -0.110 OA 
ENDROOT
BRANCH   3  39
HETATM   39  C   UNL     2      -8.438  19.389  71.975  1.00  0.00     5.334 C  
BRANCH  39  40
HETATM   40  C   UNL     2      -9.135  20.360  72.936  1.00  0.00     3.673 C  
HETATM   41  O   UNL     2     -10.164  19.728  73.671  1.00  0.00     1.988 OA 
HETATM   42  H   UNL     2     -10.597  20.329  74.266  1.00  0.00     0.000 HD 
ENDBRANCH  39  40
ENDBRANCH   3  39
TORSDOF 2
ENDMDL
MODEL      114
REMARK 921   NORMALIZED FREE ENERGY PREDICTED BY IDOCK:   60.10 KCAL/MOL
REMARK 922        TOTAL FREE ENERGY PREDICTED BY IDOCK:   66.84 KCAL/MOL
REMARK 923 INTER-LIGAND FREE ENERGY PREDICTED BY IDOCK:   65.54 KCAL/MOL
REMARK 924 INTRA-LIGAND FREE ENERGY PREDICTED BY IDOCK:    1.30 KCAL/MOL
REMARK 927      BINDING AFFINITY PREDICTED BY RF-SCORE:    0.00 PKD
ROOT
HETATM    1 MG   UNL     1      -7.143  13.421  68.788  1.00  0.00    -0.074 Mg 
HETATM    2  C   UNL     2     -10.836  15.100  70.147  1.00  0.00    -0.241 C  
HETATM    3  N   UNL     2     -11.060  14.805  68.707  1.00  0.00    -0.253 N  
HETATM    4  O   UNL     3      -9.744  10.391  67.594  1.00  0.00    -0.164 OA 
HETATM    5  C   UNL     2     -11.017  15.990  67.782  1.00  0.00    -0.307 C  
HETATM    6  C   UNL     5     -11.903  12.548  66.243  1.00  0.00    -0.390 C  
HETATM    7  C   UNL     3     -10.430   9.823  66.528  1.00  0.00    -0.142 A  
HETATM    8  C   UNL     2      -9.977  13.778  68.451  1.00  0.00    -0.229 C  
HETATM    9  O   UNL     4      -6.250  11.924  69.081  1.00  0.00    -0.070 OA 
HETATM   10  H   UNL     3     -10.016  10.103  68.457  1.00  0.00     0.000 HD 
HETATM   11  C   UNL     3     -10.029  10.249  65.252  1.00  0.00    -0.387 A  
HETATM   12  H   UNL     4      -6.436  11.495  69.908  1.00  0.00     0.000 HD 
HETATM   13  O   UNL     5      -9.159  14.574  66.072  1.00  0.00    -0.497 OA 
HETATM   14  O   UNL     5     -11.352  12.238  67.315  1.00  0.00    -0.286 OA 
HETATM   15  C   UNL     4      -6.478  11.229  67.900  1.00  0.00    -0.058 A  
HETATM   16  C   UNL     5      -9.959  14.067  65.038  1.00  0.00    -0.182 A  
HETATM   17  H   UNL     5      -9.477  14.239  66.902  1.00  0.00     0.000 HD 
HETATM   18  O   UNL     5     -13.179  12.524  66.072  1.00  0.00     0.947 OA 
HETATM   19  C   UNL     4      -6.205  11.860  66.685  1.00  0.00     0.056 A  
HETATM   20  C   UNL     3     -10.763   9.880  64.134  1.00  0.00     2.387 A  
HETATM   21  C   UNL     3     -11.906   9.112  64.302  1.00  0.00    13.207 A  
HETATM   22  O   UNL     4      -7.759   8.262  69.524  1.00  0.00    -0.096 OA 
HETATM   23  C   UNL     5      -9.487  14.565  63.808  1.00  0.00     6.344 A  
HETATM   24  C   UNL     4      -6.465  11.167  65.510  1.00  0.00     0.303 A  
HETATM   25  C   UNL     5     -10.189  14.302  62.646  1.00  0.00    10.209 A  
HETATM   26  C   UNL     4      -6.932   9.852  65.564  1.00  0.00    -0.110 A  
HETATM   27  C   UNL     3     -12.306   8.708  65.590  1.00  0.00    13.665 A  
HETATM   28  C   UNL     4      -7.229   9.248  66.792  1.00  0.00    -0.083 A  
HETATM   29  C   UNL     5     -11.343  13.548  62.673  1.00  0.00     3.093 A  
HETATM   30  C   UNL     3     -11.595   9.077  66.735  1.00  0.00     2.942 A  
HETATM   31  C   UNL     4      -7.057   9.959  67.980  1.00  0.00    -0.082 A  
HETATM   32  C   UNL     3     -12.124   8.846  68.101  1.00  0.00     3.888 C  
HETATM   33  C   UNL     5     -11.773  13.036  63.874  1.00  0.00    -0.531 A  
HETATM   34  C   UNL     5     -11.114  13.261  65.103  1.00  0.00    -0.315 A  
HETATM   35  O   UNL     3     -11.575   9.492  69.073  1.00  0.00     0.178 OA 
HETATM   36  C   UNL     4      -7.608   9.488  69.309  1.00  0.00    -0.084 C  
HETATM   37  O   UNL     3     -13.105   7.998  68.260  1.00  0.00     8.634 OA 
HETATM   38  O   UNL     4      -7.676  10.473  70.153  1.00  0.00    -0.090 OA 
ENDROOT
BRANCH   3  39
HETATM   39  C   UNL     2     -12.520  14.185  68.517  1.00  0.00     0.235 C  
BRANCH  39  40
HETATM   40  C   UNL     2     -12.812  12.843  69.197  1.00  0.00     1.222 C  
HETATM   41  O   UNL     2     -13.974  12.899  70.001  1.00  0.00     2.897 OA 
HETATM   42  H   UNL     2     -14.155  12.068  70.423  1.00  0.00     0.000 HD 
ENDBRANCH  39  40
ENDBRANCH   3  39
TORSDOF 2
ENDMDL
MODEL      115
REMARK 921   NORMALIZED FREE ENERGY PREDICTED BY IDOCK:   61.75 KCAL/MOL
REMARK 922        TOTAL FREE ENERGY PREDICTED BY IDOCK:   68.68 KCAL/MOL
REMARK 923 INTER-LIGAND FREE ENERGY PREDICTED BY IDOCK:   62.99 KCAL/MOL
REMARK 924 INTRA-LIGAND FREE ENERGY PREDICTED BY IDOCK:    5.70 KCAL/MOL
REMARK 927      BINDING AFFINITY PREDICTED BY RF-SCORE:    0.00 PKD
ROOT
HETATM    1 MG   UNL     1     -11.802  19.752  71.649  1.00  0.00     2.206 Mg 
HETATM    2  C   UNL     2     -12.288  20.436  67.455  1.00  0.00     4.311 C  
HETATM    3  N   UNL     2     -11.058  19.608  67.564  1.00  0.00    -0.237 N  
HETATM    4  O   UNL     3     -11.740  15.806  70.308  1.00  0.00    -0.315 OA 
HETATM    5  C   UNL     2      -9.757  20.345  67.397  1.00  0.00    -0.457 C  
HETATM    6  C   UNL     5      -9.596  16.501  67.847  1.00  0.00    -0.233 C  
HETATM    7  C   UNL     3     -10.941  14.711  70.005  1.00  0.00    -0.112 A  
HETATM    8  C   UNL     2     -11.249  18.988  68.933  1.00  0.00     1.969 C  
HETATM    9  O   UNL     4     -12.671  18.843  72.892  1.00  0.00     9.374 OA 
HETATM   10  H   UNL     3     -12.637  15.757  70.000  1.00  0.00     0.000 HD 
HETATM   11  C   UNL     3      -9.614  14.783  70.460  1.00  0.00     1.218 A  
HETATM   12  H   UNL     4     -13.591  18.687  72.714  1.00  0.00     0.000 HD 
HETATM   13  O   UNL     5      -8.778  19.148  69.845  1.00  0.00     0.593 OA 
HETATM   14  O   UNL     5     -10.725  16.783  68.286  1.00  0.00    -0.335 OA 
HETATM   15  C   UNL     4     -11.831  17.753  73.077  1.00  0.00     2.001 A  
HETATM   16  C   UNL     5      -7.981  18.078  69.412  1.00  0.00     0.354 A  
HETATM   17  H   UNL     5      -9.660  19.030  69.513  1.00  0.00     0.000 HD 
HETATM   18  O   UNL     5      -9.398  15.989  66.683  1.00  0.00    -0.213 OA 
HETATM   19  C   UNL     4     -10.480  17.982  73.339  1.00  0.00     4.534 A  
HETATM   20  C   UNL     3      -8.691  13.827  70.061  1.00  0.00     2.301 A  
HETATM   21  C   UNL     3      -9.093  12.824  69.191  1.00  0.00     0.713 A  
HETATM   22  O   UNL     4     -14.403  15.275  72.504  1.00  0.00    -0.464 OA 
HETATM   23  C   UNL     5      -6.673  18.252  69.904  1.00  0.00     0.203 A  
HETATM   24  C   UNL     4      -9.643  16.884  73.493  1.00  0.00    13.296 A  
HETATM   25  C   UNL     5      -5.670  17.386  69.510  1.00  0.00    -0.217 A  
HETATM   26  C   UNL     4     -10.171  15.592  73.441  1.00  0.00     5.536 A  
HETATM   27  C   UNL     3     -10.421  12.776  68.729  1.00  0.00    -0.179 A  
HETATM   28  C   UNL     4     -11.524  15.382  73.145  1.00  0.00    -0.102 A  
HETATM   29  C   UNL     5      -5.935  16.344  68.648  1.00  0.00    -0.121 A  
HETATM   30  C   UNL     3     -11.369  13.733  69.102  1.00  0.00    -0.329 A  
HETATM   31  C   UNL     4     -12.361  16.471  72.902  1.00  0.00    -0.319 A  
HETATM   32  C   UNL     3     -12.701  13.819  68.454  1.00  0.00     0.993 C  
HETATM   33  C   UNL     5      -7.223  16.161  68.204  1.00  0.00    -0.140 A  
HETATM   34  C   UNL     5      -8.301  17.002  68.558  1.00  0.00    -0.260 A  
HETATM   35  O   UNL     3     -13.378  14.904  68.620  1.00  0.00     2.048 OA 
HETATM   36  C   UNL     4     -13.749  16.327  72.312  1.00  0.00     0.640 C  
HETATM   37  O   UNL     3     -13.130  12.798  67.762  1.00  0.00     1.732 OA 
HETATM   38  O   UNL     4     -14.156  17.455  71.816  1.00  0.00     7.925 OA 
ENDROOT
BRANCH   3  39
HETATM   39  C   UNL     2     -11.059  18.505  66.409  1.00  0.00     0.437 C  
BRANCH  39  40
HETATM   40  C   UNL     2     -11.820  17.201  66.678  1.00  0.00     2.246 C  
HETATM   41  O   UNL     2     -12.637  17.294  67.828  1.00  0.00     2.390 OA 
HETATM   42  H   UNL     2     -13.108  16.486  67.996  1.00  0.00     0.000 HD 
ENDBRANCH  39  40
ENDBRANCH   3  39
TORSDOF 2
ENDMDL
MODEL      116
REMARK 921   NORMALIZED FREE ENERGY PREDICTED BY IDOCK:   62.06 KCAL/MOL
REMARK 922        TOTAL FREE ENERGY PREDICTED BY IDOCK:   69.03 KCAL/MOL
REMARK 923 INTER-LIGAND FREE ENERGY PREDICTED BY IDOCK:   48.79 KCAL/MOL
REMARK 924 INTRA-LIGAND FREE ENERGY PREDICTED BY IDOCK:   20.24 KCAL/MOL
REMARK 927      BINDING AFFINITY PREDICTED BY RF-SCORE:    0.00 PKD
ROOT
HETATM    1 MG   UNL     1     -12.158  14.647  69.842  1.00  0.00    -0.242 Mg 
HETATM    2  C   UNL     2     -14.054  15.120  66.037  1.00  0.00     5.165 C  
HETATM    3  N   UNL     2     -12.601  15.264  65.758  1.00  0.00     0.689 N  
HETATM    4  O   UNL     3     -10.084  11.744  67.687  1.00  0.00    -0.189 OA 
HETATM    5  C   UNL     2     -12.113  16.671  65.539  1.00  0.00     2.369 C  
HETATM    6  C   UNL     5      -9.549  13.799  65.112  1.00  0.00     0.232 C  
HETATM    7  C   UNL     3      -8.903  11.434  67.025  1.00  0.00    -0.168 A  
HETATM    8  C   UNL     2     -12.005  14.583  66.971  1.00  0.00    -0.345 C  
HETATM    9  O   UNL     4     -11.930  13.319  70.986  1.00  0.00    -0.454 OA 
HETATM   10  H   UNL     3     -10.810  11.152  67.530  1.00  0.00     0.000 HD 
HETATM   11  C   UNL     3      -7.829  12.309  67.257  1.00  0.00    -0.171 A  
HETATM   12  H   UNL     4     -12.574  12.623  70.934  1.00  0.00     0.000 HD 
HETATM   13  O   UNL     5     -10.002  16.228  67.471  1.00  0.00    -0.240 OA 
HETATM   14  O   UNL     5     -10.451  13.267  65.785  1.00  0.00    -0.275 OA 
HETATM   15  C   UNL     4     -10.591  13.008  70.788  1.00  0.00     3.802 A  
HETATM   16  C   UNL     5      -8.873  15.943  66.689  1.00  0.00    -0.281 A  
HETATM   17  H   UNL     5     -10.683  15.594  67.273  1.00  0.00     0.000 HD 
HETATM   18  O   UNL     5      -9.402  13.605  63.849  1.00  0.00     1.574 OA 
HETATM   19  C   UNL     4      -9.645  14.031  70.864  1.00  0.00     4.353 A  
HETATM   20  C   UNL     3      -6.665  12.191  66.511  1.00  0.00     0.472 A  
HETATM   21  C   UNL     3      -6.592  11.218  65.524  1.00  0.00     0.509 A  
HETATM   22  O   UNL     4     -11.178   9.500  70.129  1.00  0.00    -0.240 OA 
HETATM   23  C   UNL     5      -7.865  16.883  66.982  1.00  0.00    -0.232 A  
HETATM   24  C   UNL     4      -8.312  13.714  70.633  1.00  0.00     4.614 A  
HETATM   25  C   UNL     5      -6.694  16.884  66.248  1.00  0.00    -0.034 A  
HETATM   26  C   UNL     4      -7.941  12.389  70.392  1.00  0.00     4.308 A  
HETATM   27  C   UNL     3      -7.683  10.361  65.292  1.00  0.00    -0.124 A  
HETATM   28  C   UNL     4      -8.909  11.383  70.288  1.00  0.00     3.061 A  
HETATM   29  C   UNL     5      -6.493  15.968  65.237  1.00  0.00     6.952 A  
HETATM   30  C   UNL     3      -8.874  10.466  66.016  1.00  0.00    -0.175 A  
HETATM   31  C   UNL     4     -10.261  11.697  70.430  1.00  0.00     2.570 A  
HETATM   32  C   UNL     3     -10.099   9.721  65.634  1.00  0.00    -0.212 C  
HETATM   33  C   UNL     5      -7.467  15.032  64.986  1.00  0.00    10.338 A  
HETATM   34  C   UNL     5      -8.691  14.967  65.689  1.00  0.00     1.216 A  
HETATM   35  O   UNL     3     -11.219  10.110  66.141  1.00  0.00     0.356 OA 
HETATM   36  C   UNL     4     -11.373  10.736  70.063  1.00  0.00    -0.319 C  
HETATM   37  O   UNL     3      -9.989   8.707  64.818  1.00  0.00     1.242 OA 
HETATM   38  O   UNL     4     -12.493  11.372  69.899  1.00  0.00    -0.221 OA 
ENDROOT
BRANCH   3  39
HETATM   39  C   UNL     2     -12.243  14.489  64.408  1.00  0.00    -0.458 C  
BRANCH  39  40
HETATM   40  C   UNL     2     -11.020  13.564  64.427  1.00  0.00    -0.384 C  
HETATM   41  O   UNL     2     -10.995  12.746  65.579  1.00  0.00    -0.273 OA 
HETATM   42  H   UNL     2     -10.238  12.173  65.592  1.00  0.00     0.000 HD 
ENDBRANCH  39  40
ENDBRANCH   3  39
TORSDOF 2
ENDMDL
MODEL      117
REMARK 921   NORMALIZED FREE ENERGY PREDICTED BY IDOCK:   65.83 KCAL/MOL
REMARK 922        TOTAL FREE ENERGY PREDICTED BY IDOCK:   73.23 KCAL/MOL
REMARK 923 INTER-LIGAND FREE ENERGY PREDICTED BY IDOCK:   70.55 KCAL/MOL
REMARK 924 INTRA-LIGAND FREE ENERGY PREDICTED BY IDOCK:    2.69 KCAL/MOL
REMARK 927      BINDING AFFINITY PREDICTED BY RF-SCORE:    0.00 PKD
ROOT
HETATM    1 MG   UNL     1      -6.223   6.286  68.733  1.00  0.00    -0.023 Mg 
HETATM    2  C   UNL     2      -6.234   5.699  72.970  1.00  0.00    -0.059 C  
HETATM    3  N   UNL     2      -7.452   6.507  72.696  1.00  0.00    -0.093 N  
HETATM    4  O   UNL     3     -10.033   4.654  69.180  1.00  0.00    -0.189 OA 
HETATM    5  C   UNL     2      -7.356   7.970  73.034  1.00  0.00    -0.110 C  
HETATM    6  C   UNL     5     -10.765   6.646  71.757  1.00  0.00    -0.227 C  
HETATM    7  C   UNL     3     -11.394   4.923  69.245  1.00  0.00     2.978 A  
HETATM    8  C   UNL     2      -7.660   6.223  71.223  1.00  0.00    -0.094 C  
HETATM    9  O   UNL     4      -6.439   5.256  67.312  1.00  0.00    -0.048 OA 
HETATM   10  H   UNL     3      -9.773   3.785  69.460  1.00  0.00     0.000 HD 
HETATM   11  C   UNL     3     -11.780   6.209  68.831  1.00  0.00     0.615 A  
HETATM   12  H   UNL     4      -6.239   4.337  67.442  1.00  0.00     0.000 HD 
HETATM   13  O   UNL     5      -8.344   8.634  70.395  1.00  0.00    -0.112 OA 
HETATM   14  O   UNL     5      -9.968   5.769  71.378  1.00  0.00    -0.176 OA 
HETATM   15  C   UNL     4      -7.717   5.612  66.903  1.00  0.00    -0.100 A  
HETATM   16  C   UNL     5      -9.707   8.897  70.593  1.00  0.00    -0.212 A  
HETATM   17  H   UNL     5      -8.155   7.748  70.683  1.00  0.00     0.000 HD 
HETATM   18  O   UNL     5     -11.530   6.510  72.783  1.00  0.00    -0.226 OA 
HETATM   19  C   UNL     4      -8.011   6.963  66.712  1.00  0.00    -0.108 A  
HETATM   20  C   UNL     3     -13.086   6.636  69.023  1.00  0.00     7.007 A  
HETATM   21  C   UNL     3     -13.988   5.788  69.648  1.00  0.00    12.215 A  
HETATM   22  O   UNL     4      -8.996   2.229  66.892  1.00  0.00    -0.129 OA 
HETATM   23  C   UNL     5      -9.987  10.209  70.165  1.00  0.00    -0.154 A  
HETATM   24  C   UNL     4      -9.301   7.310  66.331  1.00  0.00    -0.199 A  
HETATM   25  C   UNL     5     -11.245  10.745  70.371  1.00  0.00    -0.270 A  
HETATM   26  C   UNL     4     -10.250   6.313  66.094  1.00  0.00     0.146 A  
HETATM   27  C   UNL     3     -13.582   4.509  70.073  1.00  0.00    20.487 A  
HETATM   28  C   UNL     4      -9.945   4.965  66.322  1.00  0.00    -0.256 A  
HETATM   29  C   UNL     5     -12.236  10.007  70.981  1.00  0.00    -0.462 A  
HETATM   30  C   UNL     3     -12.270   4.058  69.908  1.00  0.00    14.004 A  
HETATM   31  C   UNL     4      -8.680   4.605  66.788  1.00  0.00    -0.111 A  
HETATM   32  C   UNL     3     -11.778   2.811  70.545  1.00  0.00     9.382 C  
HETATM   33  C   UNL     5     -11.962   8.714  71.360  1.00  0.00    -0.355 A  
HETATM   34  C   UNL     5     -10.704   8.096  71.187  1.00  0.00    -0.258 A  
HETATM   35  O   UNL     3     -10.502   2.636  70.613  1.00  0.00     0.901 OA 
HETATM   36  C   UNL     4      -8.361   3.222  67.317  1.00  0.00    -0.088 C  
HETATM   37  O   UNL     3     -12.650   1.948  70.993  1.00  0.00     7.255 OA 
HETATM   38  O   UNL     4      -7.284   3.246  68.043  1.00  0.00    -0.050 OA 
ENDROOT
BRANCH   3  39
HETATM   39  C   UNL     2      -8.662   5.957  73.582  1.00  0.00    -0.125 C  
BRANCH  39  40
HETATM   40  C   UNL     2      -9.284   4.616  73.174  1.00  0.00    -0.118 C  
HETATM   41  O   UNL     2      -8.351   3.777  72.523  1.00  0.00    -0.087 OA 
HETATM   42  H   UNL     2      -8.736   2.947  72.270  1.00  0.00     0.000 HD 
ENDBRANCH  39  40
ENDBRANCH   3  39
TORSDOF 2
ENDMDL
MODEL      118
REMARK 921   NORMALIZED FREE ENERGY PREDICTED BY IDOCK:   72.80 KCAL/MOL
REMARK 922        TOTAL FREE ENERGY PREDICTED BY IDOCK:   81.02 KCAL/MOL
REMARK 923 INTER-LIGAND FREE ENERGY PREDICTED BY IDOCK:   80.52 KCAL/MOL
REMARK 924 INTRA-LIGAND FREE ENERGY PREDICTED BY IDOCK:    0.50 KCAL/MOL
REMARK 927      BINDING AFFINITY PREDICTED BY RF-SCORE:    0.00 PKD
ROOT
HETATM    1 MG   UNL     1     -12.688  12.539  69.380  1.00  0.00    -0.174 Mg 
HETATM    2  C   UNL     2     -13.380  16.042  67.024  1.00  0.00     5.556 C  
HETATM    3  N   UNL     2     -12.143  16.340  67.794  1.00  0.00     0.681 N  
HETATM    4  O   UNL     3      -8.988  12.819  67.481  1.00  0.00    -0.174 OA 
HETATM    5  C   UNL     2     -12.312  17.262  68.971  1.00  0.00     3.627 C  
HETATM    6  C   UNL     5      -8.722  16.084  68.117  1.00  0.00    -0.173 C  
HETATM    7  C   UNL     3      -7.660  13.205  67.610  1.00  0.00    -0.171 A  
HETATM    8  C   UNL     2     -11.688  14.943  68.160  1.00  0.00    -0.318 C  
HETATM    9  O   UNL     4     -12.226  10.864  69.052  1.00  0.00    -0.651 OA 
HETATM   10  H   UNL     3      -9.281  12.648  66.594  1.00  0.00     0.000 HD 
HETATM   11  C   UNL     3      -7.226  13.458  68.922  1.00  0.00    -0.062 A  
HETATM   12  H   UNL     4     -12.434  10.548  68.181  1.00  0.00     0.000 HD 
HETATM   13  O   UNL     5     -10.904  15.365  70.645  1.00  0.00    -0.355 OA 
HETATM   14  O   UNL     5      -9.433  15.242  67.541  1.00  0.00    -0.200 OA 
HETATM   15  C   UNL     4     -10.901  10.855  69.469  1.00  0.00    -0.238 A  
HETATM   16  C   UNL     5      -9.596  15.867  70.711  1.00  0.00     1.699 A  
HETATM   17  H   UNL     5     -11.128  15.206  69.735  1.00  0.00     0.000 HD 
HETATM   18  O   UNL     5      -8.138  17.054  67.505  1.00  0.00    -0.172 OA 
HETATM   19  C   UNL     4     -10.596  11.320  70.749  1.00  0.00     2.178 A  
HETATM   20  C   UNL     3      -5.975  14.018  69.142  1.00  0.00    -0.091 A  
HETATM   21  C   UNL     3      -5.181  14.343  68.053  1.00  0.00    -0.103 A  
HETATM   22  O   UNL     4      -9.599   9.572  66.348  1.00  0.00    -0.180 OA 
HETATM   23  C   UNL     5      -9.264  16.103  72.059  1.00  0.00     7.919 A  
HETATM   24  C   UNL     4      -9.265  11.335  71.145  1.00  0.00     7.488 A  
HETATM   25  C   UNL     5      -8.065  16.715  72.375  1.00  0.00    14.644 A  
HETATM   26  C   UNL     4      -8.278  10.838  70.291  1.00  0.00     1.276 A  
HETATM   27  C   UNL     3      -5.637  14.100  66.744  1.00  0.00     2.210 A  
HETATM   28  C   UNL     4      -8.600  10.406  68.999  1.00  0.00    -0.158 A  
HETATM   29  C   UNL     5      -7.182  17.089  71.385  1.00  0.00     5.827 A  
HETATM   30  C   UNL     3      -6.898  13.553  66.491  1.00  0.00     2.368 A  
HETATM   31  C   UNL     4      -9.920  10.465  68.552  1.00  0.00    -0.179 A  
HETATM   32  C   UNL     3      -7.474  13.497  65.124  1.00  0.00     9.045 C  
HETATM   33  C   UNL     5      -7.499  16.819  70.075  1.00  0.00     1.145 A  
HETATM   34  C   UNL     5      -8.703  16.201  69.672  1.00  0.00     0.201 A  
HETATM   35  O   UNL     3      -8.742  13.283  65.017  1.00  0.00     1.802 OA 
HETATM   36  C   UNL     4     -10.308  10.282  67.099  1.00  0.00    -0.238 C  
HETATM   37  O   UNL     3      -6.679  13.655  64.100  1.00  0.00    16.830 OA 
HETATM   38  O   UNL     4     -11.491  10.769  66.875  1.00  0.00    -0.304 OA 
ENDROOT
BRANCH   3  39
HETATM   39  C   UNL     2     -11.092  17.075  66.841  1.00  0.00     0.273 C  
BRANCH  39  40
HETATM   40  C   UNL     2     -10.790  16.422  65.487  1.00  0.00    -0.215 C  
HETATM   41  O   UNL     2     -10.719  17.375  64.445  1.00  0.00    -0.094 OA 
HETATM   42  H   UNL     2     -10.532  16.971  63.606  1.00  0.00     0.000 HD 
ENDBRANCH  39  40
ENDBRANCH   3  39
TORSDOF 2
ENDMDL
MODEL      119
REMARK 921   NORMALIZED FREE ENERGY PREDICTED BY IDOCK:   76.40 KCAL/MOL
REMARK 922        TOTAL FREE ENERGY PREDICTED BY IDOCK:   85.05 KCAL/MOL
REMARK 923 INTER-LIGAND FREE ENERGY PREDICTED BY IDOCK:   84.97 KCAL/MOL
REMARK 924 INTRA-LIGAND FREE ENERGY PREDICTED BY IDOCK:    0.07 KCAL/MOL
REMARK 927      BINDING AFFINITY PREDICTED BY RF-SCORE:    0.00 PKD
ROOT
HETATM    1 MG   UNL     1     -11.731   6.698  68.038  1.00  0.00    -0.456 Mg 
HETATM    2  C   UNL     2      -8.871   7.133  71.190  1.00  0.00    -0.144 C  
HETATM    3  N   UNL     2      -8.059   7.066  69.946  1.00  0.00    -0.123 N  
HETATM    4  O   UNL     3      -9.676  10.040  66.630  1.00  0.00    -0.177 OA 
HETATM    5  C   UNL     2      -7.371   5.754  69.685  1.00  0.00    -0.071 C  
HETATM    6  C   UNL     5      -6.694   8.657  67.211  1.00  0.00    -0.063 C  
HETATM    7  C   UNL     3      -8.717  10.504  65.739  1.00  0.00    -0.177 A  
HETATM    8  C   UNL     2      -9.092   7.443  68.906  1.00  0.00    -0.136 C  
HETATM    9  O   UNL     4     -12.979   7.718  67.313  1.00  0.00     8.357 OA 
HETATM   10  H   UNL     3      -9.929  10.648  67.314  1.00  0.00     0.000 HD 
HETATM   11  C   UNL     3      -8.342   9.604  64.728  1.00  0.00    -0.156 A  
HETATM   12  H   UNL     4     -13.322   8.403  67.874  1.00  0.00     0.000 HD 
HETATM   13  O   UNL     5      -8.451   5.736  66.998  1.00  0.00    -0.108 OA 
HETATM   14  O   UNL     5      -7.748   9.010  67.770  1.00  0.00    -0.095 OA 
HETATM   15  C   UNL     4     -12.383   8.073  66.110  1.00  0.00    10.681 A  
HETATM   16  C   UNL     5      -7.397   6.203  66.199  1.00  0.00    -0.080 A  
HETATM   17  H   UNL     5      -8.660   6.395  67.650  1.00  0.00     0.000 HD 
HETATM   18  O   UNL     5      -5.540   9.147  67.505  1.00  0.00    -0.041 OA 
HETATM   19  C   UNL     4     -11.880   7.066  65.285  1.00  0.00     9.247 A  
HETATM   20  C   UNL     3      -7.271   9.901  63.897  1.00  0.00    -0.126 A  
HETATM   21  C   UNL     3      -6.568  11.081  64.099  1.00  0.00     0.819 A  
HETATM   22  O   UNL     4     -12.783  11.634  66.602  1.00  0.00     1.526 OA 
HETATM   23  C   UNL     5      -7.086   5.226  65.234  1.00  0.00    -0.066 A  
HETATM   24  C   UNL     4     -11.259   7.435  64.098  1.00  0.00    15.948 A  
HETATM   25  C   UNL     5      -5.997   5.405  64.402  1.00  0.00    -0.022 A  
HETATM   26  C   UNL     4     -11.201   8.781  63.730  1.00  0.00    12.676 A  
HETATM   27  C   UNL     3      -6.946  11.964  65.128  1.00  0.00     2.899 A  
HETATM   28  C   UNL     4     -11.683   9.778  64.586  1.00  0.00     6.915 A  
HETATM   29  C   UNL     5      -5.214   6.536  64.497  1.00  0.00    -0.025 A  
HETATM   30  C   UNL     3      -8.010  11.683  65.989  1.00  0.00     0.270 A  
HETATM   31  C   UNL     4     -12.232   9.433  65.821  1.00  0.00     9.750 A  
HETATM   32  C   UNL     3      -8.275  12.492  67.205  1.00  0.00    -0.168 C  
HETATM   33  C   UNL     5      -5.549   7.500  65.417  1.00  0.00    -0.033 A  
HETATM   34  C   UNL     5      -6.643   7.390  66.303  1.00  0.00    -0.049 A  
HETATM   35  O   UNL     3      -9.054  11.988  68.101  1.00  0.00    -0.181 OA 
HETATM   36  C   UNL     4     -12.518  10.448  66.909  1.00  0.00     5.725 C  
HETATM   37  O   UNL     3      -7.723  13.672  67.308  1.00  0.00    -0.154 OA 
HETATM   38  O   UNL     4     -12.634   9.864  68.062  1.00  0.00     2.907 OA 
ENDROOT
BRANCH   3  39
HETATM   39  C   UNL     2      -6.880   8.141  70.027  1.00  0.00    -0.040 C  
BRANCH  39  40
HETATM   40  C   UNL     2      -5.497   7.642  70.460  1.00  0.00    -0.023 C  
HETATM   41  O   UNL     2      -5.522   7.071  71.754  1.00  0.00    -0.035 OA 
HETATM   42  H   UNL     2      -4.666   6.762  72.023  1.00  0.00     0.000 HD 
ENDBRANCH  39  40
ENDBRANCH   3  39
TORSDOF 2
ENDMDL
MODEL      120
REMARK 921   NORMALIZED FREE ENERGY PREDICTED BY IDOCK:   78.19 KCAL/MOL
REMARK 922        TOTAL FREE ENERGY PREDICTED BY IDOCK:   87.05 KCAL/MOL
REMARK 923 INTER-LIGAND FREE ENERGY PREDICTED BY IDOCK:   87.36 KCAL/MOL
REMARK 924 INTRA-LIGAND FREE ENERGY PREDICTED BY IDOCK:   -0.31 KCAL/MOL
REMARK 927      BINDING AFFINITY PREDICTED BY RF-SCORE:    0.00 PKD
ROOT
HETATM    1 MG   UNL     1      -8.860  10.457  64.462  1.00  0.00    -0.151 Mg 
HETATM    2  C   UNL     2      -5.135   8.860  65.831  1.00  0.00    -0.029 C  
HETATM    3  N   UNL     2      -5.768   9.440  67.045  1.00  0.00    -0.047 N  
HETATM    4  O   UNL     3     -10.260   8.015  67.537  1.00  0.00    -0.204 OA 
HETATM    5  C   UNL     2      -5.214  10.763  67.501  1.00  0.00    -0.036 C  
HETATM    6  C   UNL     5      -7.957   9.118  69.686  1.00  0.00    -0.103 C  
HETATM    7  C   UNL     3     -10.723   7.972  68.846  1.00  0.00    -0.065 A  
HETATM    8  C   UNL     2      -7.219   9.490  66.617  1.00  0.00    -0.086 C  
HETATM    9  O   UNL     4     -10.375   9.785  63.846  1.00  0.00    -0.123 OA 
HETATM   10  H   UNL     3     -10.025   7.177  67.157  1.00  0.00     0.000 HD 
HETATM   11  C   UNL     3     -11.070   9.211  69.408  1.00  0.00    -0.027 A  
HETATM   12  H   UNL     4     -10.307   8.924  63.452  1.00  0.00     0.000 HD 
HETATM   13  O   UNL     5      -7.902  11.835  67.617  1.00  0.00    -0.123 OA 
HETATM   14  O   UNL     5      -8.096   8.545  68.591  1.00  0.00    -0.117 OA 
HETATM   15  C   UNL     4     -11.219   9.958  64.935  1.00  0.00     3.257 A  
HETATM   16  C   UNL     5      -8.247  11.754  68.974  1.00  0.00     0.157 A  
HETATM   17  H   UNL     5      -7.691  10.964  67.299  1.00  0.00     0.000 HD 
HETATM   18  O   UNL     5      -7.367   8.580  70.696  1.00  0.00    -0.051 OA 
HETATM   19  C   UNL     4     -11.318  11.224  65.515  1.00  0.00     0.026 A  
HETATM   20  C   UNL     3     -11.375   9.299  70.759  1.00  0.00    -0.349 A  
HETATM   21  C   UNL     3     -11.305   8.156  71.541  1.00  0.00    -0.308 A  
HETATM   22  O   UNL     4     -12.239   6.492  65.096  1.00  0.00     6.519 OA 
HETATM   23  C   UNL     5      -8.559  13.044  69.444  1.00  0.00     1.176 A  
HETATM   24  C   UNL     4     -12.142  11.380  66.622  1.00  0.00     1.051 A  
HETATM   25  C   UNL     5      -8.815  13.242  70.789  1.00  0.00     7.474 A  
HETATM   26  C   UNL     4     -12.889  10.297  67.093  1.00  0.00     8.659 A  
HETATM   27  C   UNL     3     -10.938   6.925  70.967  1.00  0.00    -0.287 A  
HETATM   28  C   UNL     4     -12.751   9.028  66.518  1.00  0.00    13.730 A  
HETATM   29  C   UNL     5      -8.779  12.188  71.677  1.00  0.00    16.388 A  
HETATM   30  C   UNL     3     -10.611   6.809  69.613  1.00  0.00    -0.267 A  
HETATM   31  C   UNL     4     -11.863   8.834  65.460  1.00  0.00     9.505 A  
HETATM   32  C   UNL     3     -10.014   5.573  69.049  1.00  0.00    -0.181 C  
HETATM   33  C   UNL     5      -8.511  10.927  71.200  1.00  0.00     5.379 A  
HETATM   34  C   UNL     5      -8.237  10.644  69.843  1.00  0.00     0.316 A  
HETATM   35  O   UNL     3      -9.452   5.655  67.891  1.00  0.00    -0.110 OA 
HETATM   36  C   UNL     4     -11.453   7.460  64.970  1.00  0.00    10.778 C  
HETATM   37  O   UNL     3     -10.093   4.466  69.737  1.00  0.00    -0.214 OA 
HETATM   38  O   UNL     4     -10.353   7.528  64.283  1.00  0.00     5.909 OA 
ENDROOT
BRANCH   3  39
HETATM   39  C   UNL     2      -5.547   8.452  68.280  1.00  0.00    -0.034 C  
BRANCH  39  40
HETATM   40  C   UNL     2      -5.740   6.952  68.028  1.00  0.00    -0.020 C  
HETATM   41  O   UNL     2      -6.247   6.286  69.167  1.00  0.00    -0.030 OA 
HETATM   42  H   UNL     2      -6.367   5.357  69.012  1.00  0.00     0.000 HD 
ENDBRANCH  39  40
ENDBRANCH   3  39
TORSDOF 2
ENDMDL
MODEL      121
REMARK 921   NORMALIZED FREE ENERGY PREDICTED BY IDOCK:   90.26 KCAL/MOL
REMARK 922        TOTAL FREE ENERGY PREDICTED BY IDOCK:  100.52 KCAL/MOL
REMARK 923 INTER-LIGAND FREE ENERGY PREDICTED BY IDOCK:   99.44 KCAL/MOL
REMARK 924 INTRA-LIGAND FREE ENERGY PREDICTED BY IDOCK:    1.08 KCAL/MOL
REMARK 927      BINDING AFFINITY PREDICTED BY RF-SCORE:    0.00 PKD
ROOT
HETATM    1 MG   UNL     1     -12.462   5.115  69.941  1.00  0.00     1.744 Mg 
HETATM    2  C   UNL     2      -9.016   4.676  72.437  1.00  0.00    -0.125 C  
HETATM    3  N   UNL     2      -8.495   5.247  71.166  1.00  0.00    -0.121 N  
HETATM    4  O   UNL     3     -11.004   9.017  69.774  1.00  0.00    -0.290 OA 
HETATM    5  C   UNL     2      -7.791   4.278  70.255  1.00  0.00    -0.052 C  
HETATM    6  C   UNL     5      -7.880   8.001  69.189  1.00  0.00    -0.108 C  
HETATM    7  C   UNL     3     -10.301   9.946  69.018  1.00  0.00    -0.209 A  
HETATM    8  C   UNL     2      -9.756   5.846  70.581  1.00  0.00    -0.176 C  
HETATM    9  O   UNL     4     -13.908   6.134  69.947  1.00  0.00     4.426 OA 
HETATM   10  H   UNL     3     -11.143   9.249  70.684  1.00  0.00     0.000 HD 
HETATM   11  C   UNL     3     -10.096   9.603  67.672  1.00  0.00    -0.241 A  
HETATM   12  H   UNL     4     -14.164   6.470  70.797  1.00  0.00     0.000 HD 
HETATM   13  O   UNL     5      -9.433   5.181  68.047  1.00  0.00    -0.117 OA 
HETATM   14  O   UNL     5      -8.807   7.928  70.016  1.00  0.00    -0.139 OA 
HETATM   15  C   UNL     4     -13.617   7.034  68.931  1.00  0.00    10.923 A  
HETATM   16  C   UNL     5      -8.616   6.091  67.359  1.00  0.00    -0.102 A  
HETATM   17  H   UNL     5      -9.539   5.478  68.944  1.00  0.00     0.000 HD 
HETATM   18  O   UNL     5      -6.726   8.503  69.463  1.00  0.00    -0.040 OA 
HETATM   19  C   UNL     4     -13.239   6.539  67.681  1.00  0.00    13.332 A  
HETATM   20  C   UNL     3      -9.257  10.374  66.880  1.00  0.00    -0.170 A  
HETATM   21  C   UNL     3      -8.611  11.465  67.444  1.00  0.00    -0.142 A  
HETATM   22  O   UNL     4     -14.144   9.980  70.961  1.00  0.00     0.134 OA 
HETATM   23  C   UNL     5      -8.459   5.650  66.031  1.00  0.00    -0.132 A  
HETATM   24  C   UNL     4     -12.922   7.449  66.681  1.00  0.00    13.019 A  
HETATM   25  C   UNL     5      -7.594   6.318  65.183  1.00  0.00    -0.092 A  
HETATM   26  C   UNL     4     -13.040   8.820  66.921  1.00  0.00    17.025 A  
HETATM   27  C   UNL     3      -8.812  11.784  68.800  1.00  0.00     0.018 A  
HETATM   28  C   UNL     4     -13.390   9.297  68.190  1.00  0.00    12.317 A  
HETATM   29  C   UNL     5      -6.890   7.420  65.619  1.00  0.00    -0.056 A  
HETATM   30  C   UNL     3      -9.639  11.017  69.626  1.00  0.00     0.389 A  
HETATM   31  C   UNL     4     -13.628   8.400  69.232  1.00  0.00     7.500 A  
HETATM   32  C   UNL     3      -9.685  11.212  71.096  1.00  0.00     5.943 C  
HETATM   33  C   UNL     5      -7.080   7.864  66.906  1.00  0.00    -0.078 A  
HETATM   34  C   UNL     5      -7.942   7.235  67.832  1.00  0.00    -0.119 A  
HETATM   35  O   UNL     3     -10.210  10.273  71.808  1.00  0.00     1.578 OA 
HETATM   36  C   UNL     4     -13.736   8.829  70.680  1.00  0.00     0.693 C  
HETATM   37  O   UNL     3      -9.207  12.319  71.599  1.00  0.00    13.689 OA 
HETATM   38  O   UNL     4     -13.555   7.817  71.473  1.00  0.00    -0.354 OA 
ENDROOT
BRANCH   3  39
HETATM   39  C   UNL     2      -7.405   6.366  71.498  1.00  0.00    -0.088 C  
BRANCH  39  40
HETATM   40  C   UNL     2      -7.829   7.512  72.425  1.00  0.00    -0.098 C  
HETATM   41  O   UNL     2      -7.445   8.774  71.915  1.00  0.00    -0.242 OA 
HETATM   42  H   UNL     2      -7.707   9.484  72.489  1.00  0.00     0.000 HD 
ENDBRANCH  39  40
ENDBRANCH   3  39
TORSDOF 2
ENDMDL
MODEL      122
REMARK 921   NORMALIZED FREE ENERGY PREDICTED BY IDOCK:  127.05 KCAL/MOL
REMARK 922        TOTAL FREE ENERGY PREDICTED BY IDOCK:  141.62 KCAL/MOL
REMARK 923 INTER-LIGAND FREE ENERGY PREDICTED BY IDOCK:  141.72 KCAL/MOL
REMARK 924 INTRA-LIGAND FREE ENERGY PREDICTED BY IDOCK:   -0.10 KCAL/MOL
REMARK 927      BINDING AFFINITY PREDICTED BY RF-SCORE:    0.00 PKD
ROOT
HETATM    1 MG   UNL     1     -12.383  11.248  65.012  1.00  0.00    -0.020 Mg 
HETATM    2  C   UNL     2      -8.822  11.365  62.644  1.00  0.00    -0.107 C  
HETATM    3  N   UNL     2      -8.352  11.062  64.021  1.00  0.00     0.183 N  
HETATM    4  O   UNL     3     -10.807   7.511  65.975  1.00  0.00     0.639 OA 
HETATM    5  C   UNL     2      -7.732  12.212  64.768  1.00  0.00     3.527 C  
HETATM    6  C   UNL     5      -7.754   8.751  66.506  1.00  0.00    -0.099 C  
HETATM    7  C   UNL     3     -10.115   6.769  66.923  1.00  0.00    -0.202 A  
HETATM    8  C   UNL     2      -9.622  10.528  64.649  1.00  0.00    -0.292 C  
HETATM    9  O   UNL     4     -13.791  10.185  65.128  1.00  0.00    11.568 OA 
HETATM   10  H   UNL     3     -10.888   7.109  65.119  1.00  0.00     0.000 HD 
HETATM   11  C   UNL     3      -9.995   7.364  68.190  1.00  0.00    -0.190 A  
HETATM   12  H   UNL     4     -13.990   9.687  64.345  1.00  0.00     0.000 HD 
HETATM   13  O   UNL     5      -9.460  11.664  67.026  1.00  0.00    -0.178 OA 
HETATM   14  O   UNL     5      -8.637   8.629  65.638  1.00  0.00    -0.149 OA 
HETATM   15  C   UNL     4     -13.526   9.502  66.308  1.00  0.00    21.069 A  
HETATM   16  C   UNL     5      -8.653  10.934  67.909  1.00  0.00    -0.130 A  
HETATM   17  H   UNL     5      -9.508  11.202  66.196  1.00  0.00     0.000 HD 
HETATM   18  O   UNL     5      -6.572   8.257  66.386  1.00  0.00    -0.053 OA 
HETATM   19  C   UNL     4     -13.234  10.236  67.459  1.00  0.00    10.767 A  
HETATM   20  C   UNL     3      -9.175   6.789  69.151  1.00  0.00    -0.137 A  
HETATM   21  C   UNL     3      -8.464   5.642  68.832  1.00  0.00    -0.102 A  
HETATM   22  O   UNL     4     -13.844   6.211  64.842  1.00  0.00     5.891 OA 
HETATM   23  C   UNL     5      -8.582  11.619  69.138  1.00  0.00     0.305 A  
HETATM   24  C   UNL     4     -12.941   9.541  68.626  1.00  0.00     5.834 A  
HETATM   25  C   UNL     5      -7.743  11.157  70.135  1.00  0.00     1.174 A  
HETATM   26  C   UNL     4     -13.000   8.146  68.641  1.00  0.00     8.613 A  
HETATM   27  C   UNL     3      -8.580   5.068  67.552  1.00  0.00    -0.104 A  
HETATM   28  C   UNL     4     -13.264   7.428  67.469  1.00  0.00    14.777 A  
HETATM   29  C   UNL     5      -6.980  10.025  69.947  1.00  0.00    -0.118 A  
HETATM   30  C   UNL     3      -9.385   5.633  66.559  1.00  0.00    -0.159 A  
HETATM   31  C   UNL     4     -13.475   8.105  66.268  1.00  0.00    21.089 A  
HETATM   32  C   UNL     3      -9.345   5.168  65.151  1.00  0.00     0.002 C  
HETATM   33  C   UNL     5      -7.085   9.343  68.758  1.00  0.00    -0.069 A  
HETATM   34  C   UNL     5      -7.916   9.751  67.692  1.00  0.00    -0.105 A  
HETATM   35  O   UNL     3      -9.862   5.935  64.252  1.00  0.00     1.532 OA 
HETATM   36  C   UNL     4     -13.491   7.411  64.922  1.00  0.00    18.972 C  
HETATM   37  O   UNL     3      -8.804   4.009  64.887  1.00  0.00    -0.121 OA 
HETATM   38  O   UNL     4     -13.300   8.265  63.963  1.00  0.00    18.685 OA 
ENDROOT
BRANCH   3  39
HETATM   39  C   UNL     2      -7.209   9.948  63.957  1.00  0.00    -0.133 C  
BRANCH  39  40
HETATM   40  C   UNL     2      -5.756  10.431  63.879  1.00  0.00    -0.137 C  
HETATM   41  O   UNL     2      -5.495  11.128  62.677  1.00  0.00    -0.301 OA 
HETATM   42  H   UNL     2      -4.595  11.427  62.628  1.00  0.00     0.000 HD 
ENDBRANCH  39  40
ENDBRANCH   3  39
TORSDOF 2
ENDMDL
