MODEL        1
REMARK 921   NORMALIZED FREE ENERGY PREDICTED BY IDOCK:   -3.52 KCAL/MOL
REMARK 922        TOTAL FREE ENERGY PREDICTED BY IDOCK:   -3.98 KCAL/MOL
REMARK 923 INTER-LIGAND FREE ENERGY PREDICTED BY IDOCK:   -3.93 KCAL/MOL
REMARK 924 INTRA-LIGAND FREE ENERGY PREDICTED BY IDOCK:   -0.04 KCAL/MOL
REMARK 927      BINDING AFFINITY PREDICTED BY RF-SCORE:    0.00 PKD
ROOT
HETATM    1  C   UNL     1     -11.046  12.232  65.739  1.00  0.00    -0.323 C  
HETATM    2  N   UNL     1     -11.637  13.340  64.868  1.00  0.00    -0.314 N  
HETATM    3  C   UNL     1     -12.869  13.905  65.557  1.00  0.00    -0.431 C  
HETATM    4  C   UNL     1     -12.052  12.725  63.531  1.00  0.00    -0.559 C  
ENDROOT
BRANCH   2   5
HETATM    5  C   UNL     1     -10.546  14.425  64.681  1.00  0.00    -0.306 C  
BRANCH   5   6
HETATM    6  C   UNL     1     -11.016  15.867  64.926  1.00  0.00    -0.411 C  
HETATM    7  O   UNL     1     -11.493  16.455  63.721  1.00  0.00    -1.590 OA 
HETATM    8  H   UNL     1     -11.783  17.346  63.873  1.00  0.00     0.000 HD 
ENDBRANCH   5   6
ENDBRANCH   2   5
TORSDOF 2
ENDMDL
MODEL        2
REMARK 921   NORMALIZED FREE ENERGY PREDICTED BY IDOCK:   -3.51 KCAL/MOL
REMARK 922        TOTAL FREE ENERGY PREDICTED BY IDOCK:   -3.96 KCAL/MOL
REMARK 923 INTER-LIGAND FREE ENERGY PREDICTED BY IDOCK:   -3.92 KCAL/MOL
REMARK 924 INTRA-LIGAND FREE ENERGY PREDICTED BY IDOCK:   -0.04 KCAL/MOL
REMARK 927      BINDING AFFINITY PREDICTED BY RF-SCORE:    0.00 PKD
ROOT
HETATM    1  C   UNL     1     -10.258  13.038  64.238  1.00  0.00    -0.292 C  
HETATM    2  N   UNL     1     -11.703  12.923  64.723  1.00  0.00    -0.329 N  
HETATM    3  C   UNL     1     -11.726  12.125  66.018  1.00  0.00    -0.321 C  
HETATM    4  C   UNL     1     -12.505  12.171  63.660  1.00  0.00    -0.549 C  
ENDROOT
BRANCH   2   5
HETATM    5  C   UNL     1     -12.245  14.360  64.934  1.00  0.00    -0.433 C  
BRANCH   5   6
HETATM    6  C   UNL     1     -11.202  15.477  64.783  1.00  0.00    -0.390 C  
HETATM    7  O   UNL     1     -11.624  16.436  63.820  1.00  0.00    -1.605 OA 
HETATM    8  H   UNL     1     -10.979  17.126  63.727  1.00  0.00     0.000 HD 
ENDBRANCH   5   6
ENDBRANCH   2   5
TORSDOF 2
ENDMDL
MODEL        3
REMARK 921   NORMALIZED FREE ENERGY PREDICTED BY IDOCK:   -3.50 KCAL/MOL
REMARK 922        TOTAL FREE ENERGY PREDICTED BY IDOCK:   -3.95 KCAL/MOL
REMARK 923 INTER-LIGAND FREE ENERGY PREDICTED BY IDOCK:   -3.88 KCAL/MOL
REMARK 924 INTRA-LIGAND FREE ENERGY PREDICTED BY IDOCK:   -0.07 KCAL/MOL
REMARK 927      BINDING AFFINITY PREDICTED BY RF-SCORE:    0.00 PKD
ROOT
HETATM    1  C   UNL     1     -12.182  12.755  63.627  1.00  0.00    -0.512 C  
HETATM    2  N   UNL     1     -11.593  13.238  64.951  1.00  0.00    -0.314 N  
HETATM    3  C   UNL     1     -10.920  12.066  65.649  1.00  0.00    -0.297 C  
HETATM    4  C   UNL     1     -12.739  13.747  65.826  1.00  0.00    -0.446 C  
ENDROOT
BRANCH   2   5
HETATM    5  C   UNL     1     -10.577  14.365  64.633  1.00  0.00    -0.306 C  
BRANCH   5   6
HETATM    6  C   UNL     1     -11.072  15.789  64.927  1.00  0.00    -0.399 C  
HETATM    7  O   UNL     1     -11.540  16.417  63.739  1.00  0.00    -1.605 OA 
HETATM    8  H   UNL     1     -11.846  17.297  63.920  1.00  0.00     0.000 HD 
ENDBRANCH   5   6
ENDBRANCH   2   5
TORSDOF 2
ENDMDL
MODEL        4
REMARK 921   NORMALIZED FREE ENERGY PREDICTED BY IDOCK:   -3.36 KCAL/MOL
REMARK 922        TOTAL FREE ENERGY PREDICTED BY IDOCK:   -3.79 KCAL/MOL
REMARK 923 INTER-LIGAND FREE ENERGY PREDICTED BY IDOCK:   -3.76 KCAL/MOL
REMARK 924 INTRA-LIGAND FREE ENERGY PREDICTED BY IDOCK:   -0.03 KCAL/MOL
REMARK 927      BINDING AFFINITY PREDICTED BY RF-SCORE:    0.00 PKD
ROOT
HETATM    1  C   UNL     1     -12.476  12.245  63.699  1.00  0.00    -0.541 C  
HETATM    2  N   UNL     1     -11.086  12.448  64.299  1.00  0.00    -0.323 N  
HETATM    3  C   UNL     1     -10.047  11.899  63.333  1.00  0.00    -0.438 C  
HETATM    4  C   UNL     1     -11.011  11.664  65.610  1.00  0.00    -0.266 C  
ENDROOT
BRANCH   2   5
HETATM    5  C   UNL     1     -10.891  13.968  64.533  1.00  0.00    -0.347 C  
BRANCH   5   6
HETATM    6  C   UNL     1     -12.156  14.821  64.356  1.00  0.00    -0.440 C  
HETATM    7  O   UNL     1     -11.833  16.102  63.827  1.00  0.00    -1.408 OA 
HETATM    8  H   UNL     1     -12.616  16.629  63.718  1.00  0.00     0.000 HD 
ENDBRANCH   5   6
ENDBRANCH   2   5
TORSDOF 2
ENDMDL
MODEL        5
REMARK 921   NORMALIZED FREE ENERGY PREDICTED BY IDOCK:   -3.18 KCAL/MOL
REMARK 922        TOTAL FREE ENERGY PREDICTED BY IDOCK:   -3.60 KCAL/MOL
REMARK 923 INTER-LIGAND FREE ENERGY PREDICTED BY IDOCK:   -3.56 KCAL/MOL
REMARK 924 INTRA-LIGAND FREE ENERGY PREDICTED BY IDOCK:   -0.03 KCAL/MOL
REMARK 927      BINDING AFFINITY PREDICTED BY RF-SCORE:    0.00 PKD
ROOT
HETATM    1  C   UNL     1     -11.883  13.956  67.035  1.00  0.00    -0.415 C  
HETATM    2  N   UNL     1     -10.590  14.764  66.941  1.00  0.00    -0.289 N  
HETATM    3  C   UNL     1      -9.442  13.922  67.475  1.00  0.00    -0.216 C  
HETATM    4  C   UNL     1     -10.741  16.011  67.815  1.00  0.00    -0.323 C  
ENDROOT
BRANCH   2   5
HETATM    5  C   UNL     1     -10.373  15.136  65.452  1.00  0.00    -0.388 C  
BRANCH   5   6
HETATM    6  C   UNL     1     -11.660  15.289  64.626  1.00  0.00    -0.333 C  
HETATM    7  O   UNL     1     -11.627  16.484  63.855  1.00  0.00    -1.598 OA 
HETATM    8  H   UNL     1     -12.422  16.578  63.344  1.00  0.00     0.000 HD 
ENDBRANCH   5   6
ENDBRANCH   2   5
TORSDOF 2
ENDMDL
MODEL        6
REMARK 921   NORMALIZED FREE ENERGY PREDICTED BY IDOCK:   -3.08 KCAL/MOL
REMARK 922        TOTAL FREE ENERGY PREDICTED BY IDOCK:   -3.49 KCAL/MOL
REMARK 923 INTER-LIGAND FREE ENERGY PREDICTED BY IDOCK:   -3.45 KCAL/MOL
REMARK 924 INTRA-LIGAND FREE ENERGY PREDICTED BY IDOCK:   -0.04 KCAL/MOL
REMARK 927      BINDING AFFINITY PREDICTED BY RF-SCORE:    0.00 PKD
ROOT
HETATM    1  C   UNL     1     -10.249  13.866  65.805  1.00  0.00    -0.318 C  
HETATM    2  N   UNL     1     -11.439  13.081  66.356  1.00  0.00    -0.324 N  
HETATM    3  C   UNL     1     -11.988  13.810  67.573  1.00  0.00    -0.376 C  
HETATM    4  C   UNL     1     -10.944  11.699  66.783  1.00  0.00    -0.290 C  
ENDROOT
BRANCH   2   5
HETATM    5  C   UNL     1     -12.501  12.983  65.231  1.00  0.00    -0.499 C  
BRANCH   5   6
HETATM    6  C   UNL     1     -11.945  13.082  63.802  1.00  0.00    -0.518 C  
HETATM    7  O   UNL     1     -12.503  14.197  63.118  1.00  0.00    -1.126 OA 
HETATM    8  H   UNL     1     -12.160  14.258  62.235  1.00  0.00     0.000 HD 
ENDBRANCH   5   6
ENDBRANCH   2   5
TORSDOF 2
ENDMDL
MODEL        7
REMARK 921   NORMALIZED FREE ENERGY PREDICTED BY IDOCK:   -3.07 KCAL/MOL
REMARK 922        TOTAL FREE ENERGY PREDICTED BY IDOCK:   -3.48 KCAL/MOL
REMARK 923 INTER-LIGAND FREE ENERGY PREDICTED BY IDOCK:   -3.46 KCAL/MOL
REMARK 924 INTRA-LIGAND FREE ENERGY PREDICTED BY IDOCK:   -0.02 KCAL/MOL
REMARK 927      BINDING AFFINITY PREDICTED BY RF-SCORE:    0.00 PKD
ROOT
HETATM    1  C   UNL     1     -11.642  14.638  67.400  1.00  0.00    -0.389 C  
HETATM    2  N   UNL     1     -11.127  13.657  66.349  1.00  0.00    -0.301 N  
HETATM    3  C   UNL     1     -11.901  12.352  66.470  1.00  0.00    -0.339 C  
HETATM    4  C   UNL     1      -9.649  13.386  66.631  1.00  0.00    -0.270 C  
ENDROOT
BRANCH   2   5
HETATM    5  C   UNL     1     -11.331  14.306  64.957  1.00  0.00    -0.365 C  
BRANCH   5   6
HETATM    6  C   UNL     1     -11.261  15.841  64.939  1.00  0.00    -0.350 C  
HETATM    7  O   UNL     1     -11.475  16.342  63.625  1.00  0.00    -1.446 OA 
HETATM    8  H   UNL     1     -11.431  17.291  63.614  1.00  0.00     0.000 HD 
ENDBRANCH   5   6
ENDBRANCH   2   5
TORSDOF 2
ENDMDL
MODEL        8
REMARK 921   NORMALIZED FREE ENERGY PREDICTED BY IDOCK:   -3.05 KCAL/MOL
REMARK 922        TOTAL FREE ENERGY PREDICTED BY IDOCK:   -3.45 KCAL/MOL
REMARK 923 INTER-LIGAND FREE ENERGY PREDICTED BY IDOCK:   -3.43 KCAL/MOL
REMARK 924 INTRA-LIGAND FREE ENERGY PREDICTED BY IDOCK:   -0.02 KCAL/MOL
REMARK 927      BINDING AFFINITY PREDICTED BY RF-SCORE:    0.00 PKD
ROOT
HETATM    1  C   UNL     1     -10.665  12.214  66.499  1.00  0.00    -0.255 C  
HETATM    2  N   UNL     1     -11.431  13.359  65.839  1.00  0.00    -0.314 N  
HETATM    3  C   UNL     1     -10.449  14.231  65.071  1.00  0.00    -0.435 C  
HETATM    4  C   UNL     1     -12.083  14.195  66.941  1.00  0.00    -0.432 C  
ENDROOT
BRANCH   2   5
HETATM    5  C   UNL     1     -12.491  12.737  64.895  1.00  0.00    -0.497 C  
BRANCH   5   6
HETATM    6  C   UNL     1     -12.059  12.607  63.427  1.00  0.00    -0.525 C  
HETATM    7  O   UNL     1     -12.600  11.429  62.842  1.00  0.00    -0.970 OA 
HETATM    8  H   UNL     1     -12.333  11.349  61.935  1.00  0.00     0.000 HD 
ENDBRANCH   5   6
ENDBRANCH   2   5
TORSDOF 2
ENDMDL
MODEL        9
REMARK 921   NORMALIZED FREE ENERGY PREDICTED BY IDOCK:   -3.05 KCAL/MOL
REMARK 922        TOTAL FREE ENERGY PREDICTED BY IDOCK:   -3.45 KCAL/MOL
REMARK 923 INTER-LIGAND FREE ENERGY PREDICTED BY IDOCK:   -3.42 KCAL/MOL
REMARK 924 INTRA-LIGAND FREE ENERGY PREDICTED BY IDOCK:   -0.03 KCAL/MOL
REMARK 927      BINDING AFFINITY PREDICTED BY RF-SCORE:    0.00 PKD
ROOT
HETATM    1  C   UNL     1     -12.398  13.964  65.902  1.00  0.00    -0.483 C  
HETATM    2  N   UNL     1     -10.984  14.096  65.337  1.00  0.00    -0.313 N  
HETATM    3  C   UNL     1      -9.982  13.827  66.450  1.00  0.00    -0.297 C  
HETATM    4  C   UNL     1     -10.801  15.529  64.838  1.00  0.00    -0.427 C  
ENDROOT
BRANCH   2   5
HETATM    5  C   UNL     1     -10.839  13.068  64.186  1.00  0.00    -0.405 C  
BRANCH   5   6
HETATM    6  C   UNL     1     -12.145  12.721  63.455  1.00  0.00    -0.559 C  
HETATM    7  O   UNL     1     -12.132  11.369  63.012  1.00  0.00    -0.934 OA 
HETATM    8  H   UNL     1     -12.940  11.155  62.561  1.00  0.00     0.000 HD 
ENDBRANCH   5   6
ENDBRANCH   2   5
TORSDOF 2
ENDMDL
MODEL       10
REMARK 921   NORMALIZED FREE ENERGY PREDICTED BY IDOCK:   -3.01 KCAL/MOL
REMARK 922        TOTAL FREE ENERGY PREDICTED BY IDOCK:   -3.40 KCAL/MOL
REMARK 923 INTER-LIGAND FREE ENERGY PREDICTED BY IDOCK:   -3.35 KCAL/MOL
REMARK 924 INTRA-LIGAND FREE ENERGY PREDICTED BY IDOCK:   -0.05 KCAL/MOL
REMARK 927      BINDING AFFINITY PREDICTED BY RF-SCORE:    0.00 PKD
ROOT
HETATM    1  C   UNL     1      -9.456  14.226  66.517  1.00  0.00    -0.287 C  
HETATM    2  N   UNL     1     -10.727  14.397  65.687  1.00  0.00    -0.305 N  
HETATM    3  C   UNL     1     -10.783  15.822  65.158  1.00  0.00    -0.435 C  
HETATM    4  C   UNL     1     -11.930  14.157  66.600  1.00  0.00    -0.444 C  
ENDROOT
BRANCH   2   5
HETATM    5  C   UNL     1     -10.678  13.367  64.529  1.00  0.00    -0.419 C  
BRANCH   5   6
HETATM    6  C   UNL     1     -12.047  12.941  63.978  1.00  0.00    -0.455 C  
HETATM    7  O   UNL     1     -12.453  13.797  62.916  1.00  0.00    -1.009 OA 
HETATM    8  H   UNL     1     -13.300  13.534  62.576  1.00  0.00     0.000 HD 
ENDBRANCH   5   6
ENDBRANCH   2   5
TORSDOF 2
ENDMDL
MODEL       11
REMARK 921   NORMALIZED FREE ENERGY PREDICTED BY IDOCK:   -3.01 KCAL/MOL
REMARK 922        TOTAL FREE ENERGY PREDICTED BY IDOCK:   -3.40 KCAL/MOL
REMARK 923 INTER-LIGAND FREE ENERGY PREDICTED BY IDOCK:   -3.41 KCAL/MOL
REMARK 924 INTRA-LIGAND FREE ENERGY PREDICTED BY IDOCK:    0.01 KCAL/MOL
REMARK 927      BINDING AFFINITY PREDICTED BY RF-SCORE:    0.00 PKD
ROOT
HETATM    1  C   UNL     1     -12.091  14.192  66.847  1.00  0.00    -0.432 C  
HETATM    2  N   UNL     1     -11.305  13.196  65.997  1.00  0.00    -0.300 N  
HETATM    3  C   UNL     1     -10.714  12.130  66.908  1.00  0.00    -0.236 C  
HETATM    4  C   UNL     1     -10.166  13.949  65.308  1.00  0.00    -0.344 C  
ENDROOT
BRANCH   2   5
HETATM    5  C   UNL     1     -12.284  12.578  64.967  1.00  0.00    -0.456 C  
BRANCH   5   6
HETATM    6  C   UNL     1     -11.903  12.797  63.495  1.00  0.00    -0.546 C  
HETATM    7  O   UNL     1     -12.524  13.968  62.980  1.00  0.00    -1.101 OA 
HETATM    8  H   UNL     1     -12.288  14.103  62.070  1.00  0.00     0.000 HD 
ENDBRANCH   5   6
ENDBRANCH   2   5
TORSDOF 2
ENDMDL
MODEL       12
REMARK 921   NORMALIZED FREE ENERGY PREDICTED BY IDOCK:   -2.94 KCAL/MOL
REMARK 922        TOTAL FREE ENERGY PREDICTED BY IDOCK:   -3.33 KCAL/MOL
REMARK 923 INTER-LIGAND FREE ENERGY PREDICTED BY IDOCK:   -3.26 KCAL/MOL
REMARK 924 INTRA-LIGAND FREE ENERGY PREDICTED BY IDOCK:   -0.07 KCAL/MOL
REMARK 927      BINDING AFFINITY PREDICTED BY RF-SCORE:    0.00 PKD
ROOT
HETATM    1  C   UNL     1     -11.166   7.371  72.649  1.00  0.00    -0.332 C  
HETATM    2  N   UNL     1     -11.946   7.553  71.348  1.00  0.00    -0.297 N  
HETATM    3  C   UNL     1     -11.400   6.586  70.307  1.00  0.00    -0.395 C  
HETATM    4  C   UNL     1     -11.731   8.986  70.858  1.00  0.00    -0.276 C  
ENDROOT
BRANCH   2   5
HETATM    5  C   UNL     1     -13.440   7.273  71.650  1.00  0.00    -0.354 C  
BRANCH   5   6
HETATM    6  C   UNL     1     -14.285   8.518  71.960  1.00  0.00    -0.453 C  
HETATM    7  O   UNL     1     -14.315   8.772  73.360  1.00  0.00    -1.155 OA 
HETATM    8  H   UNL     1     -14.838   9.542  73.552  1.00  0.00     0.000 HD 
ENDBRANCH   5   6
ENDBRANCH   2   5
TORSDOF 2
ENDMDL
MODEL       13
REMARK 921   NORMALIZED FREE ENERGY PREDICTED BY IDOCK:   -2.93 KCAL/MOL
REMARK 922        TOTAL FREE ENERGY PREDICTED BY IDOCK:   -3.31 KCAL/MOL
REMARK 923 INTER-LIGAND FREE ENERGY PREDICTED BY IDOCK:   -3.27 KCAL/MOL
REMARK 924 INTRA-LIGAND FREE ENERGY PREDICTED BY IDOCK:   -0.05 KCAL/MOL
REMARK 927      BINDING AFFINITY PREDICTED BY RF-SCORE:    0.00 PKD
ROOT
HETATM    1  C   UNL     1     -14.333  15.439  71.975  1.00  0.00    -0.550 C  
HETATM    2  N   UNL     1     -13.139  14.568  72.363  1.00  0.00    -0.371 N  
HETATM    3  C   UNL     1     -13.593  13.118  72.443  1.00  0.00    -0.567 C  
HETATM    4  C   UNL     1     -12.649  15.014  73.741  1.00  0.00    -0.521 C  
ENDROOT
BRANCH   2   5
HETATM    5  C   UNL     1     -12.045  14.758  71.281  1.00  0.00    -0.341 C  
BRANCH   5   6
HETATM    6  C   UNL     1     -12.370  14.139  69.913  1.00  0.00    -0.327 C  
HETATM    7  O   UNL     1     -12.482  15.148  68.916  1.00  0.00    -0.588 OA 
HETATM    8  H   UNL     1     -12.683  14.765  68.070  1.00  0.00     0.000 HD 
ENDBRANCH   5   6
ENDBRANCH   2   5
TORSDOF 2
ENDMDL
MODEL       14
REMARK 921   NORMALIZED FREE ENERGY PREDICTED BY IDOCK:   -2.84 KCAL/MOL
REMARK 922        TOTAL FREE ENERGY PREDICTED BY IDOCK:   -3.22 KCAL/MOL
REMARK 923 INTER-LIGAND FREE ENERGY PREDICTED BY IDOCK:   -3.21 KCAL/MOL
REMARK 924 INTRA-LIGAND FREE ENERGY PREDICTED BY IDOCK:   -0.01 KCAL/MOL
REMARK 927      BINDING AFFINITY PREDICTED BY RF-SCORE:    0.00 PKD
ROOT
HETATM    1  C   UNL     1      -8.742  17.236  67.835  1.00  0.00    -0.231 C  
HETATM    2  N   UNL     1      -9.657  16.229  67.140  1.00  0.00    -0.230 N  
HETATM    3  C   UNL     1     -10.807  15.882  68.074  1.00  0.00    -0.317 C  
HETATM    4  C   UNL     1      -8.846  14.964  66.856  1.00  0.00    -0.258 C  
ENDROOT
BRANCH   2   5
HETATM    5  C   UNL     1     -10.170  16.882  65.831  1.00  0.00    -0.314 C  
BRANCH   5   6
HETATM    6  C   UNL     1     -10.881  15.925  64.862  1.00  0.00    -0.400 C  
HETATM    7  O   UNL     1     -11.359  16.625  63.720  1.00  0.00    -1.457 OA 
HETATM    8  H   UNL     1     -11.798  16.033  63.121  1.00  0.00     0.000 HD 
ENDBRANCH   5   6
ENDBRANCH   2   5
TORSDOF 2
ENDMDL
MODEL       15
REMARK 921   NORMALIZED FREE ENERGY PREDICTED BY IDOCK:   -2.84 KCAL/MOL
REMARK 922        TOTAL FREE ENERGY PREDICTED BY IDOCK:   -3.22 KCAL/MOL
REMARK 923 INTER-LIGAND FREE ENERGY PREDICTED BY IDOCK:   -3.19 KCAL/MOL
REMARK 924 INTRA-LIGAND FREE ENERGY PREDICTED BY IDOCK:   -0.02 KCAL/MOL
REMARK 927      BINDING AFFINITY PREDICTED BY RF-SCORE:    0.00 PKD
ROOT
HETATM    1  C   UNL     1     -11.747  12.313  66.989  1.00  0.00    -0.329 C  
HETATM    2  N   UNL     1     -11.603  13.775  66.569  1.00  0.00    -0.348 N  
HETATM    3  C   UNL     1     -10.165  14.025  66.139  1.00  0.00    -0.302 C  
HETATM    4  C   UNL     1     -11.921  14.653  67.779  1.00  0.00    -0.268 C  
ENDROOT
BRANCH   2   5
HETATM    5  C   UNL     1     -12.593  14.031  65.404  1.00  0.00    -0.505 C  
BRANCH   5   6
HETATM    6  C   UNL     1     -11.952  14.551  64.108  1.00  0.00    -0.321 C  
HETATM    7  O   UNL     1     -12.023  15.970  64.043  1.00  0.00    -1.121 OA 
HETATM    8  H   UNL     1     -11.627  16.292  63.242  1.00  0.00     0.000 HD 
ENDBRANCH   5   6
ENDBRANCH   2   5
TORSDOF 2
ENDMDL
MODEL       16
REMARK 921   NORMALIZED FREE ENERGY PREDICTED BY IDOCK:   -2.77 KCAL/MOL
REMARK 922        TOTAL FREE ENERGY PREDICTED BY IDOCK:   -3.13 KCAL/MOL
REMARK 923 INTER-LIGAND FREE ENERGY PREDICTED BY IDOCK:   -3.10 KCAL/MOL
REMARK 924 INTRA-LIGAND FREE ENERGY PREDICTED BY IDOCK:   -0.03 KCAL/MOL
REMARK 927      BINDING AFFINITY PREDICTED BY RF-SCORE:    0.00 PKD
ROOT
HETATM    1  C   UNL     1     -10.522  14.217  64.881  1.00  0.00    -0.438 C  
HETATM    2  N   UNL     1     -11.709  13.263  65.000  1.00  0.00    -0.321 N  
HETATM    3  C   UNL     1     -12.082  12.765  63.611  1.00  0.00    -0.543 C  
HETATM    4  C   UNL     1     -12.890  14.040  65.583  1.00  0.00    -0.406 C  
ENDROOT
BRANCH   2   5
HETATM    5  C   UNL     1     -11.285  12.093  65.924  1.00  0.00    -0.339 C  
BRANCH   5   6
HETATM    6  C   UNL     1     -11.712  12.237  67.393  1.00  0.00    -0.335 C  
HETATM    7  O   UNL     1     -12.151  10.989  67.916  1.00  0.00    -0.721 OA 
HETATM    8  H   UNL     1     -12.416  11.079  68.824  1.00  0.00     0.000 HD 
ENDBRANCH   5   6
ENDBRANCH   2   5
TORSDOF 2
ENDMDL
MODEL       17
REMARK 921   NORMALIZED FREE ENERGY PREDICTED BY IDOCK:   -2.74 KCAL/MOL
REMARK 922        TOTAL FREE ENERGY PREDICTED BY IDOCK:   -3.11 KCAL/MOL
REMARK 923 INTER-LIGAND FREE ENERGY PREDICTED BY IDOCK:   -3.04 KCAL/MOL
REMARK 924 INTRA-LIGAND FREE ENERGY PREDICTED BY IDOCK:   -0.07 KCAL/MOL
REMARK 927      BINDING AFFINITY PREDICTED BY RF-SCORE:    0.00 PKD
ROOT
HETATM    1  C   UNL     1      -9.993   7.853  71.040  1.00  0.00    -0.181 C  
HETATM    2  N   UNL     1     -11.206   7.728  71.960  1.00  0.00    -0.263 N  
HETATM    3  C   UNL     1     -10.731   7.341  73.352  1.00  0.00    -0.369 C  
HETATM    4  C   UNL     1     -12.106   6.618  71.415  1.00  0.00    -0.347 C  
ENDROOT
BRANCH   2   5
HETATM    5  C   UNL     1     -11.933   9.097  71.971  1.00  0.00    -0.350 C  
BRANCH   5   6
HETATM    6  C   UNL     1     -13.464   9.020  71.879  1.00  0.00    -0.425 C  
HETATM    7  O   UNL     1     -14.057   9.171  73.163  1.00  0.00    -1.104 OA 
HETATM    8  H   UNL     1     -15.003   9.124  73.106  1.00  0.00     0.000 HD 
ENDBRANCH   5   6
ENDBRANCH   2   5
TORSDOF 2
ENDMDL
MODEL       18
REMARK 921   NORMALIZED FREE ENERGY PREDICTED BY IDOCK:   -2.74 KCAL/MOL
REMARK 922        TOTAL FREE ENERGY PREDICTED BY IDOCK:   -3.10 KCAL/MOL
REMARK 923 INTER-LIGAND FREE ENERGY PREDICTED BY IDOCK:   -3.08 KCAL/MOL
REMARK 924 INTRA-LIGAND FREE ENERGY PREDICTED BY IDOCK:   -0.02 KCAL/MOL
REMARK 927      BINDING AFFINITY PREDICTED BY RF-SCORE:    0.00 PKD
ROOT
HETATM    1  C   UNL     1     -11.236  12.175  66.291  1.00  0.00    -0.334 C  
HETATM    2  N   UNL     1     -11.398  13.223  65.191  1.00  0.00    -0.293 N  
HETATM    3  C   UNL     1     -10.294  14.261  65.333  1.00  0.00    -0.370 C  
HETATM    4  C   UNL     1     -12.752  13.908  65.378  1.00  0.00    -0.490 C  
ENDROOT
BRANCH   2   5
HETATM    5  C   UNL     1     -11.313  12.492  63.826  1.00  0.00    -0.466 C  
BRANCH   5   6
HETATM    6  C   UNL     1     -10.487  11.197  63.833  1.00  0.00    -0.381 C  
HETATM    7  O   UNL     1     -10.393  10.650  62.523  1.00  0.00    -0.751 OA 
HETATM    8  H   UNL     1      -9.883   9.849  62.527  1.00  0.00     0.000 HD 
ENDBRANCH   5   6
ENDBRANCH   2   5
TORSDOF 2
ENDMDL
MODEL       19
REMARK 921   NORMALIZED FREE ENERGY PREDICTED BY IDOCK:   -2.68 KCAL/MOL
REMARK 922        TOTAL FREE ENERGY PREDICTED BY IDOCK:   -3.03 KCAL/MOL
REMARK 923 INTER-LIGAND FREE ENERGY PREDICTED BY IDOCK:   -3.01 KCAL/MOL
REMARK 924 INTRA-LIGAND FREE ENERGY PREDICTED BY IDOCK:   -0.02 KCAL/MOL
REMARK 927      BINDING AFFINITY PREDICTED BY RF-SCORE:    0.00 PKD
ROOT
HETATM    1  C   UNL     1     -11.241  15.545  67.342  1.00  0.00    -0.248 C  
HETATM    2  N   UNL     1     -11.182  14.908  65.955  1.00  0.00    -0.336 N  
HETATM    3  C   UNL     1      -9.933  14.043  65.862  1.00  0.00    -0.307 C  
HETATM    4  C   UNL     1     -11.090  16.028  64.918  1.00  0.00    -0.370 C  
ENDROOT
BRANCH   2   5
HETATM    5  C   UNL     1     -12.468  14.063  65.768  1.00  0.00    -0.494 C  
BRANCH   5   6
HETATM    6  C   UNL     1     -12.245  12.659  65.185  1.00  0.00    -0.481 C  
HETATM    7  O   UNL     1     -13.302  12.305  64.302  1.00  0.00    -0.777 OA 
HETATM    8  H   UNL     1     -13.164  11.437  63.942  1.00  0.00     0.000 HD 
ENDBRANCH   5   6
ENDBRANCH   2   5
TORSDOF 2
ENDMDL
MODEL       20
REMARK 921   NORMALIZED FREE ENERGY PREDICTED BY IDOCK:   -2.66 KCAL/MOL
REMARK 922        TOTAL FREE ENERGY PREDICTED BY IDOCK:   -3.01 KCAL/MOL
REMARK 923 INTER-LIGAND FREE ENERGY PREDICTED BY IDOCK:   -2.95 KCAL/MOL
REMARK 924 INTRA-LIGAND FREE ENERGY PREDICTED BY IDOCK:   -0.06 KCAL/MOL
REMARK 927      BINDING AFFINITY PREDICTED BY RF-SCORE:    0.00 PKD
ROOT
HETATM    1  C   UNL     1     -12.425  14.768  73.479  1.00  0.00    -0.391 C  
HETATM    2  N   UNL     1     -13.154  14.308  72.217  1.00  0.00    -0.375 N  
HETATM    3  C   UNL     1     -14.398  15.164  72.027  1.00  0.00    -0.586 C  
HETATM    4  C   UNL     1     -13.576  12.852  72.412  1.00  0.00    -0.478 C  
ENDROOT
BRANCH   2   5
HETATM    5  C   UNL     1     -12.175  14.462  71.024  1.00  0.00    -0.351 C  
BRANCH   5   6
HETATM    6  C   UNL     1     -11.046  15.481  71.238  1.00  0.00    -0.284 C  
HETATM    7  O   UNL     1     -11.438  16.773  70.789  1.00  0.00    -0.483 OA 
HETATM    8  H   UNL     1     -10.740  17.403  70.921  1.00  0.00     0.000 HD 
ENDBRANCH   5   6
ENDBRANCH   2   5
TORSDOF 2
ENDMDL
MODEL       21
REMARK 921   NORMALIZED FREE ENERGY PREDICTED BY IDOCK:   -2.66 KCAL/MOL
REMARK 922        TOTAL FREE ENERGY PREDICTED BY IDOCK:   -3.01 KCAL/MOL
REMARK 923 INTER-LIGAND FREE ENERGY PREDICTED BY IDOCK:   -2.97 KCAL/MOL
REMARK 924 INTRA-LIGAND FREE ENERGY PREDICTED BY IDOCK:   -0.04 KCAL/MOL
REMARK 927      BINDING AFFINITY PREDICTED BY RF-SCORE:    0.00 PKD
ROOT
HETATM    1  C   UNL     1      -9.873  19.485  68.254  1.00  0.00    -0.416 C  
HETATM    2  N   UNL     1      -9.836  18.965  66.818  1.00  0.00    -0.329 N  
HETATM    3  C   UNL     1      -8.385  18.798  66.392  1.00  0.00    -0.280 C  
HETATM    4  C   UNL     1     -10.502  20.005  65.916  1.00  0.00    -0.406 C  
ENDROOT
BRANCH   2   5
HETATM    5  C   UNL     1     -10.594  17.614  66.785  1.00  0.00    -0.224 C  
BRANCH   5   6
HETATM    6  C   UNL     1     -10.243  16.700  65.600  1.00  0.00    -0.262 C  
HETATM    7  O   UNL     1     -11.097  16.958  64.492  1.00  0.00    -1.054 OA 
HETATM    8  H   UNL     1     -10.879  16.393  63.760  1.00  0.00     0.000 HD 
ENDBRANCH   5   6
ENDBRANCH   2   5
TORSDOF 2
ENDMDL
MODEL       22
REMARK 921   NORMALIZED FREE ENERGY PREDICTED BY IDOCK:   -2.65 KCAL/MOL
REMARK 922        TOTAL FREE ENERGY PREDICTED BY IDOCK:   -3.00 KCAL/MOL
REMARK 923 INTER-LIGAND FREE ENERGY PREDICTED BY IDOCK:   -2.99 KCAL/MOL
REMARK 924 INTRA-LIGAND FREE ENERGY PREDICTED BY IDOCK:   -0.01 KCAL/MOL
REMARK 927      BINDING AFFINITY PREDICTED BY RF-SCORE:    0.00 PKD
ROOT
HETATM    1  C   UNL     1     -10.536  12.126  66.918  1.00  0.00    -0.225 C  
HETATM    2  N   UNL     1     -10.643  13.512  66.284  1.00  0.00    -0.285 N  
HETATM    3  C   UNL     1      -9.319  14.239  66.464  1.00  0.00    -0.271 C  
HETATM    4  C   UNL     1     -11.740  14.288  67.014  1.00  0.00    -0.403 C  
ENDROOT
BRANCH   2   5
HETATM    5  C   UNL     1     -10.983  13.320  64.784  1.00  0.00    -0.350 C  
BRANCH   5   6
HETATM    6  C   UNL     1     -12.085  14.245  64.244  1.00  0.00    -0.441 C  
HETATM    7  O   UNL     1     -12.330  13.987  62.867  1.00  0.00    -1.011 OA 
HETATM    8  H   UNL     1     -13.011  14.559  62.533  1.00  0.00     0.000 HD 
ENDBRANCH   5   6
ENDBRANCH   2   5
TORSDOF 2
ENDMDL
MODEL       23
REMARK 921   NORMALIZED FREE ENERGY PREDICTED BY IDOCK:   -2.61 KCAL/MOL
REMARK 922        TOTAL FREE ENERGY PREDICTED BY IDOCK:   -2.96 KCAL/MOL
REMARK 923 INTER-LIGAND FREE ENERGY PREDICTED BY IDOCK:   -2.90 KCAL/MOL
REMARK 924 INTRA-LIGAND FREE ENERGY PREDICTED BY IDOCK:   -0.06 KCAL/MOL
REMARK 927      BINDING AFFINITY PREDICTED BY RF-SCORE:    0.00 PKD
ROOT
HETATM    1  C   UNL     1      -8.073  17.642  67.596  1.00  0.00    -0.216 C  
HETATM    2  N   UNL     1      -9.433  17.559  66.904  1.00  0.00    -0.265 N  
HETATM    3  C   UNL     1      -9.677  18.851  66.140  1.00  0.00    -0.277 C  
HETATM    4  C   UNL     1     -10.508  17.406  67.981  1.00  0.00    -0.383 C  
ENDROOT
BRANCH   2   5
HETATM    5  C   UNL     1      -9.404  16.336  65.951  1.00  0.00    -0.264 C  
BRANCH   5   6
HETATM    6  C   UNL     1     -10.784  15.815  65.521  1.00  0.00    -0.383 C  
HETATM    7  O   UNL     1     -11.053  16.155  64.166  1.00  0.00    -1.113 OA 
HETATM    8  H   UNL     1     -11.906  15.833  63.901  1.00  0.00     0.000 HD 
ENDBRANCH   5   6
ENDBRANCH   2   5
TORSDOF 2
ENDMDL
MODEL       24
REMARK 921   NORMALIZED FREE ENERGY PREDICTED BY IDOCK:   -2.61 KCAL/MOL
REMARK 922        TOTAL FREE ENERGY PREDICTED BY IDOCK:   -2.95 KCAL/MOL
REMARK 923 INTER-LIGAND FREE ENERGY PREDICTED BY IDOCK:   -2.91 KCAL/MOL
REMARK 924 INTRA-LIGAND FREE ENERGY PREDICTED BY IDOCK:   -0.04 KCAL/MOL
REMARK 927      BINDING AFFINITY PREDICTED BY RF-SCORE:    0.00 PKD
ROOT
HETATM    1  C   UNL     1     -12.579  13.307  65.352  1.00  0.00    -0.468 C  
HETATM    2  N   UNL     1     -11.077  13.109  65.158  1.00  0.00    -0.282 N  
HETATM    3  C   UNL     1     -10.390  14.465  65.215  1.00  0.00    -0.403 C  
HETATM    4  C   UNL     1     -10.850  12.494  63.777  1.00  0.00    -0.446 C  
ENDROOT
BRANCH   2   5
HETATM    5  C   UNL     1     -10.574  12.174  66.287  1.00  0.00    -0.250 C  
BRANCH   5   6
HETATM    6  C   UNL     1     -11.445  12.156  67.553  1.00  0.00    -0.340 C  
HETATM    7  O   UNL     1     -11.870  10.833  67.856  1.00  0.00    -0.724 OA 
HETATM    8  H   UNL     1     -12.408  10.822  68.638  1.00  0.00     0.000 HD 
ENDBRANCH   5   6
ENDBRANCH   2   5
TORSDOF 2
ENDMDL
MODEL       25
REMARK 921   NORMALIZED FREE ENERGY PREDICTED BY IDOCK:   -2.59 KCAL/MOL
REMARK 922        TOTAL FREE ENERGY PREDICTED BY IDOCK:   -2.94 KCAL/MOL
REMARK 923 INTER-LIGAND FREE ENERGY PREDICTED BY IDOCK:   -2.88 KCAL/MOL
REMARK 924 INTRA-LIGAND FREE ENERGY PREDICTED BY IDOCK:   -0.06 KCAL/MOL
REMARK 927      BINDING AFFINITY PREDICTED BY RF-SCORE:    0.00 PKD
ROOT
HETATM    1  C   UNL     1     -13.346   8.913  72.562  1.00  0.00    -0.399 C  
HETATM    2  N   UNL     1     -12.109   8.358  71.859  1.00  0.00    -0.319 N  
HETATM    3  C   UNL     1     -12.527   7.198  70.969  1.00  0.00    -0.316 C  
HETATM    4  C   UNL     1     -11.143   7.843  72.928  1.00  0.00    -0.379 C  
ENDROOT
BRANCH   2   5
HETATM    5  C   UNL     1     -11.480   9.508  71.031  1.00  0.00    -0.349 C  
BRANCH   5   6
HETATM    6  C   UNL     1     -12.480  10.542  70.492  1.00  0.00    -0.347 C  
HETATM    7  O   UNL     1     -12.532  10.502  69.071  1.00  0.00    -0.770 OA 
HETATM    8  H   UNL     1     -13.150  11.141  68.738  1.00  0.00     0.000 HD 
ENDBRANCH   5   6
ENDBRANCH   2   5
TORSDOF 2
ENDMDL
MODEL       26
REMARK 921   NORMALIZED FREE ENERGY PREDICTED BY IDOCK:   -2.59 KCAL/MOL
REMARK 922        TOTAL FREE ENERGY PREDICTED BY IDOCK:   -2.94 KCAL/MOL
REMARK 923 INTER-LIGAND FREE ENERGY PREDICTED BY IDOCK:   -2.86 KCAL/MOL
REMARK 924 INTRA-LIGAND FREE ENERGY PREDICTED BY IDOCK:   -0.07 KCAL/MOL
REMARK 927      BINDING AFFINITY PREDICTED BY RF-SCORE:    0.00 PKD
ROOT
HETATM    1  C   UNL     1     -10.229  19.439  68.292  1.00  0.00    -0.433 C  
HETATM    2  N   UNL     1      -9.799  18.927  66.919  1.00  0.00    -0.313 N  
HETATM    3  C   UNL     1     -10.493  19.752  65.845  1.00  0.00    -0.486 C  
HETATM    4  C   UNL     1     -10.243  17.469  66.791  1.00  0.00    -0.327 C  
ENDROOT
BRANCH   2   5
HETATM    5  C   UNL     1      -8.257  19.062  66.826  1.00  0.00    -0.279 C  
BRANCH   5   6
HETATM    6  C   UNL     1      -7.654  20.201  67.663  1.00  0.00    -0.304 C  
HETATM    7  O   UNL     1      -7.379  21.335  66.850  1.00  0.00    -0.723 OA 
HETATM    8  H   UNL     1      -7.006  22.039  67.367  1.00  0.00     0.000 HD 
ENDBRANCH   5   6
ENDBRANCH   2   5
TORSDOF 2
ENDMDL
MODEL       27
REMARK 921   NORMALIZED FREE ENERGY PREDICTED BY IDOCK:   -2.58 KCAL/MOL
REMARK 922        TOTAL FREE ENERGY PREDICTED BY IDOCK:   -2.92 KCAL/MOL
REMARK 923 INTER-LIGAND FREE ENERGY PREDICTED BY IDOCK:   -2.90 KCAL/MOL
REMARK 924 INTRA-LIGAND FREE ENERGY PREDICTED BY IDOCK:   -0.02 KCAL/MOL
REMARK 927      BINDING AFFINITY PREDICTED BY RF-SCORE:    0.00 PKD
ROOT
HETATM    1  C   UNL     1     -10.422  13.586  64.461  1.00  0.00    -0.407 C  
HETATM    2  N   UNL     1     -11.344  12.412  64.788  1.00  0.00    -0.305 N  
HETATM    3  C   UNL     1     -10.509  11.146  64.899  1.00  0.00    -0.308 C  
HETATM    4  C   UNL     1     -12.340  12.253  63.638  1.00  0.00    -0.562 C  
ENDROOT
BRANCH   2   5
HETATM    5  C   UNL     1     -12.063  12.734  66.123  1.00  0.00    -0.364 C  
BRANCH   5   6
HETATM    6  C   UNL     1     -12.001  14.207  66.556  1.00  0.00    -0.442 C  
HETATM    7  O   UNL     1     -12.638  14.391  67.815  1.00  0.00    -0.516 OA 
HETATM    8  H   UNL     1     -12.600  15.301  68.082  1.00  0.00     0.000 HD 
ENDBRANCH   5   6
ENDBRANCH   2   5
TORSDOF 2
ENDMDL
MODEL       28
REMARK 921   NORMALIZED FREE ENERGY PREDICTED BY IDOCK:   -2.55 KCAL/MOL
REMARK 922        TOTAL FREE ENERGY PREDICTED BY IDOCK:   -2.89 KCAL/MOL
REMARK 923 INTER-LIGAND FREE ENERGY PREDICTED BY IDOCK:   -2.84 KCAL/MOL
REMARK 924 INTRA-LIGAND FREE ENERGY PREDICTED BY IDOCK:   -0.05 KCAL/MOL
REMARK 927      BINDING AFFINITY PREDICTED BY RF-SCORE:    0.00 PKD
ROOT
HETATM    1  C   UNL     1     -11.807  12.549  63.360  1.00  0.00    -0.503 C  
HETATM    2  N   UNL     1     -11.677  13.469  64.573  1.00  0.00    -0.380 N  
HETATM    3  C   UNL     1     -12.348  14.797  64.258  1.00  0.00    -0.320 C  
HETATM    4  C   UNL     1     -10.189  13.711  64.832  1.00  0.00    -0.339 C  
ENDROOT
BRANCH   2   5
HETATM    5  C   UNL     1     -12.356  12.764  65.774  1.00  0.00    -0.323 C  
BRANCH   5   6
HETATM    6  C   UNL     1     -11.771  13.116  67.150  1.00  0.00    -0.377 C  
HETATM    7  O   UNL     1     -12.379  14.291  67.673  1.00  0.00    -0.598 OA 
HETATM    8  H   UNL     1     -12.017  14.509  68.523  1.00  0.00     0.000 HD 
ENDBRANCH   5   6
ENDBRANCH   2   5
TORSDOF 2
ENDMDL
MODEL       29
REMARK 921   NORMALIZED FREE ENERGY PREDICTED BY IDOCK:   -2.53 KCAL/MOL
REMARK 922        TOTAL FREE ENERGY PREDICTED BY IDOCK:   -2.87 KCAL/MOL
REMARK 923 INTER-LIGAND FREE ENERGY PREDICTED BY IDOCK:   -2.81 KCAL/MOL
REMARK 924 INTRA-LIGAND FREE ENERGY PREDICTED BY IDOCK:   -0.06 KCAL/MOL
REMARK 927      BINDING AFFINITY PREDICTED BY RF-SCORE:    0.00 PKD
ROOT
HETATM    1  C   UNL     1     -12.757  13.771  65.437  1.00  0.00    -0.472 C  
HETATM    2  N   UNL     1     -11.297  14.220  65.444  1.00  0.00    -0.319 N  
HETATM    3  C   UNL     1     -11.211  15.625  64.866  1.00  0.00    -0.369 C  
HETATM    4  C   UNL     1     -10.499  13.266  64.553  1.00  0.00    -0.415 C  
ENDROOT
BRANCH   2   5
HETATM    5  C   UNL     1     -10.798  14.181  66.910  1.00  0.00    -0.296 C  
BRANCH   5   6
HETATM    6  C   UNL     1     -11.901  14.034  67.969  1.00  0.00    -0.368 C  
HETATM    7  O   UNL     1     -12.205  15.291  68.561  1.00  0.00    -0.572 OA 
HETATM    8  H   UNL     1     -12.887  15.200  69.216  1.00  0.00     0.000 HD 
ENDBRANCH   5   6
ENDBRANCH   2   5
TORSDOF 2
ENDMDL
MODEL       30
REMARK 921   NORMALIZED FREE ENERGY PREDICTED BY IDOCK:   -2.52 KCAL/MOL
REMARK 922        TOTAL FREE ENERGY PREDICTED BY IDOCK:   -2.86 KCAL/MOL
REMARK 923 INTER-LIGAND FREE ENERGY PREDICTED BY IDOCK:   -2.83 KCAL/MOL
REMARK 924 INTRA-LIGAND FREE ENERGY PREDICTED BY IDOCK:   -0.03 KCAL/MOL
REMARK 927      BINDING AFFINITY PREDICTED BY RF-SCORE:    0.00 PKD
ROOT
HETATM    1  C   UNL     1     -11.869  12.980  69.215  1.00  0.00    -0.316 C  
HETATM    2  N   UNL     1     -11.400  14.164  68.371  1.00  0.00    -0.271 N  
HETATM    3  C   UNL     1     -11.988  14.037  66.973  1.00  0.00    -0.438 C  
HETATM    4  C   UNL     1      -9.875  14.109  68.276  1.00  0.00    -0.235 C  
ENDROOT
BRANCH   2   5
HETATM    5  C   UNL     1     -11.880  15.462  69.069  1.00  0.00    -0.335 C  
BRANCH   5   6
HETATM    6  C   UNL     1     -12.329  15.287  70.528  1.00  0.00    -0.387 C  
HETATM    7  O   UNL     1     -13.723  15.537  70.662  1.00  0.00    -0.851 OA 
HETATM    8  H   UNL     1     -14.000  15.429  71.564  1.00  0.00     0.000 HD 
ENDBRANCH   5   6
ENDBRANCH   2   5
TORSDOF 2
ENDMDL
MODEL       31
REMARK 921   NORMALIZED FREE ENERGY PREDICTED BY IDOCK:   -2.50 KCAL/MOL
REMARK 922        TOTAL FREE ENERGY PREDICTED BY IDOCK:   -2.83 KCAL/MOL
REMARK 923 INTER-LIGAND FREE ENERGY PREDICTED BY IDOCK:   -2.80 KCAL/MOL
REMARK 924 INTRA-LIGAND FREE ENERGY PREDICTED BY IDOCK:   -0.04 KCAL/MOL
REMARK 927      BINDING AFFINITY PREDICTED BY RF-SCORE:    0.00 PKD
ROOT
HETATM    1  C   UNL     1      -9.962  13.600  66.278  1.00  0.00    -0.300 C  
HETATM    2  N   UNL     1     -11.030  14.692  66.275  1.00  0.00    -0.321 N  
HETATM    3  C   UNL     1     -12.377  14.063  65.954  1.00  0.00    -0.486 C  
HETATM    4  C   UNL     1     -10.678  15.701  65.182  1.00  0.00    -0.443 C  
ENDROOT
BRANCH   2   5
HETATM    5  C   UNL     1     -11.035  15.351  67.678  1.00  0.00    -0.315 C  
BRANCH   5   6
HETATM    6  C   UNL     1     -11.768  14.555  68.768  1.00  0.00    -0.327 C  
HETATM    7  O   UNL     1     -12.667  15.391  69.488  1.00  0.00    -0.604 OA 
HETATM    8  H   UNL     1     -13.120  14.899  70.161  1.00  0.00     0.000 HD 
ENDBRANCH   5   6
ENDBRANCH   2   5
TORSDOF 2
ENDMDL
MODEL       32
REMARK 921   NORMALIZED FREE ENERGY PREDICTED BY IDOCK:   -2.47 KCAL/MOL
REMARK 922        TOTAL FREE ENERGY PREDICTED BY IDOCK:   -2.80 KCAL/MOL
REMARK 923 INTER-LIGAND FREE ENERGY PREDICTED BY IDOCK:   -2.76 KCAL/MOL
REMARK 924 INTRA-LIGAND FREE ENERGY PREDICTED BY IDOCK:   -0.04 KCAL/MOL
REMARK 927      BINDING AFFINITY PREDICTED BY RF-SCORE:    0.00 PKD
ROOT
HETATM    1  C   UNL     1      -8.489  17.350  67.100  1.00  0.00    -0.211 C  
HETATM    2  N   UNL     1      -9.986  17.232  66.821  1.00  0.00    -0.288 N  
HETATM    3  C   UNL     1     -10.683  16.727  68.075  1.00  0.00    -0.355 C  
HETATM    4  C   UNL     1     -10.183  16.213  65.697  1.00  0.00    -0.364 C  
ENDROOT
BRANCH   2   5
HETATM    5  C   UNL     1     -10.503  18.635  66.414  1.00  0.00    -0.418 C  
BRANCH   5   6
HETATM    6  C   UNL     1     -10.254  19.744  67.447  1.00  0.00    -0.440 C  
HETATM    7  O   UNL     1      -9.632  20.871  66.841  1.00  0.00    -0.681 OA 
HETATM    8  H   UNL     1      -9.478  21.556  67.480  1.00  0.00     0.000 HD 
ENDBRANCH   5   6
ENDBRANCH   2   5
TORSDOF 2
ENDMDL
MODEL       33
REMARK 921   NORMALIZED FREE ENERGY PREDICTED BY IDOCK:   -2.47 KCAL/MOL
REMARK 922        TOTAL FREE ENERGY PREDICTED BY IDOCK:   -2.80 KCAL/MOL
REMARK 923 INTER-LIGAND FREE ENERGY PREDICTED BY IDOCK:   -2.74 KCAL/MOL
REMARK 924 INTRA-LIGAND FREE ENERGY PREDICTED BY IDOCK:   -0.05 KCAL/MOL
REMARK 927      BINDING AFFINITY PREDICTED BY RF-SCORE:    0.00 PKD
ROOT
HETATM    1  C   UNL     1     -11.193   7.872  72.718  1.00  0.00    -0.405 C  
HETATM    2  N   UNL     1     -11.953   8.159  71.424  1.00  0.00    -0.293 N  
HETATM    3  C   UNL     1     -13.292   7.438  71.469  1.00  0.00    -0.372 C  
HETATM    4  C   UNL     1     -11.132   7.613  70.256  1.00  0.00    -0.244 C  
ENDROOT
BRANCH   2   5
HETATM    5  C   UNL     1     -12.143   9.694  71.319  1.00  0.00    -0.371 C  
BRANCH   5   6
HETATM    6  C   UNL     1     -11.508  10.344  70.080  1.00  0.00    -0.308 C  
HETATM    7  O   UNL     1     -12.505  10.713  69.135  1.00  0.00    -0.752 OA 
HETATM    8  H   UNL     1     -12.112  11.114  68.369  1.00  0.00     0.000 HD 
ENDBRANCH   5   6
ENDBRANCH   2   5
TORSDOF 2
ENDMDL
MODEL       34
REMARK 921   NORMALIZED FREE ENERGY PREDICTED BY IDOCK:   -2.43 KCAL/MOL
REMARK 922        TOTAL FREE ENERGY PREDICTED BY IDOCK:   -2.76 KCAL/MOL
REMARK 923 INTER-LIGAND FREE ENERGY PREDICTED BY IDOCK:   -2.71 KCAL/MOL
REMARK 924 INTRA-LIGAND FREE ENERGY PREDICTED BY IDOCK:   -0.05 KCAL/MOL
REMARK 927      BINDING AFFINITY PREDICTED BY RF-SCORE:    0.00 PKD
ROOT
HETATM    1  C   UNL     1     -10.273  19.840  68.478  1.00  0.00    -0.433 C  
HETATM    2  N   UNL     1      -9.858  19.022  67.256  1.00  0.00    -0.315 N  
HETATM    3  C   UNL     1     -10.416  19.686  66.006  1.00  0.00    -0.523 C  
HETATM    4  C   UNL     1     -10.462  17.624  67.389  1.00  0.00    -0.356 C  
ENDROOT
BRANCH   2   5
HETATM    5  C   UNL     1      -8.309  18.972  67.225  1.00  0.00    -0.276 C  
BRANCH   5   6
HETATM    6  C   UNL     1      -7.712  17.855  66.355  1.00  0.00    -0.276 C  
HETATM    7  O   UNL     1      -7.066  18.397  65.210  1.00  0.00    -0.530 OA 
HETATM    8  H   UNL     1      -6.697  17.706  64.672  1.00  0.00     0.000 HD 
ENDBRANCH   5   6
ENDBRANCH   2   5
TORSDOF 2
ENDMDL
MODEL       35
REMARK 921   NORMALIZED FREE ENERGY PREDICTED BY IDOCK:   -2.42 KCAL/MOL
REMARK 922        TOTAL FREE ENERGY PREDICTED BY IDOCK:   -2.75 KCAL/MOL
REMARK 923 INTER-LIGAND FREE ENERGY PREDICTED BY IDOCK:   -2.71 KCAL/MOL
REMARK 924 INTRA-LIGAND FREE ENERGY PREDICTED BY IDOCK:   -0.04 KCAL/MOL
REMARK 927      BINDING AFFINITY PREDICTED BY RF-SCORE:    0.00 PKD
ROOT
HETATM    1  C   UNL     1     -10.977   7.733  70.381  1.00  0.00    -0.249 C  
HETATM    2  N   UNL     1     -11.785   8.264  71.564  1.00  0.00    -0.280 N  
HETATM    3  C   UNL     1     -11.083   7.871  72.856  1.00  0.00    -0.379 C  
HETATM    4  C   UNL     1     -13.167   7.611  71.530  1.00  0.00    -0.334 C  
ENDROOT
BRANCH   2   5
HETATM    5  C   UNL     1     -11.879   9.804  71.419  1.00  0.00    -0.408 C  
BRANCH   5   6
HETATM    6  C   UNL     1     -11.421  10.358  70.060  1.00  0.00    -0.308 C  
HETATM    7  O   UNL     1     -12.533  10.555  69.195  1.00  0.00    -0.750 OA 
HETATM    8  H   UNL     1     -12.250  10.897  68.355  1.00  0.00     0.000 HD 
ENDBRANCH   5   6
ENDBRANCH   2   5
TORSDOF 2
ENDMDL
MODEL       36
REMARK 921   NORMALIZED FREE ENERGY PREDICTED BY IDOCK:   -2.41 KCAL/MOL
REMARK 922        TOTAL FREE ENERGY PREDICTED BY IDOCK:   -2.73 KCAL/MOL
REMARK 923 INTER-LIGAND FREE ENERGY PREDICTED BY IDOCK:   -2.69 KCAL/MOL
REMARK 924 INTRA-LIGAND FREE ENERGY PREDICTED BY IDOCK:   -0.04 KCAL/MOL
REMARK 927      BINDING AFFINITY PREDICTED BY RF-SCORE:    0.00 PKD
ROOT
HETATM    1  C   UNL     1      -8.882  16.556  68.134  1.00  0.00    -0.203 C  
HETATM    2  N   UNL     1     -10.298  16.820  67.624  1.00  0.00    -0.300 N  
HETATM    3  C   UNL     1     -11.288  16.087  68.517  1.00  0.00    -0.382 C  
HETATM    4  C   UNL     1     -10.405  16.268  66.202  1.00  0.00    -0.341 C  
ENDROOT
BRANCH   2   5
HETATM    5  C   UNL     1     -10.533  18.352  67.659  1.00  0.00    -0.419 C  
BRANCH   5   6
HETATM    6  C   UNL     1      -9.628  19.127  68.629  1.00  0.00    -0.413 C  
HETATM    7  O   UNL     1     -10.405  19.879  69.554  1.00  0.00    -0.631 OA 
HETATM    8  H   UNL     1      -9.845  20.358  70.153  1.00  0.00     0.000 HD 
ENDBRANCH   5   6
ENDBRANCH   2   5
TORSDOF 2
ENDMDL
MODEL       37
REMARK 921   NORMALIZED FREE ENERGY PREDICTED BY IDOCK:   -2.39 KCAL/MOL
REMARK 922        TOTAL FREE ENERGY PREDICTED BY IDOCK:   -2.71 KCAL/MOL
REMARK 923 INTER-LIGAND FREE ENERGY PREDICTED BY IDOCK:   -2.71 KCAL/MOL
REMARK 924 INTRA-LIGAND FREE ENERGY PREDICTED BY IDOCK:    0.00 KCAL/MOL
REMARK 927      BINDING AFFINITY PREDICTED BY RF-SCORE:    0.00 PKD
ROOT
HETATM    1  C   UNL     1     -11.571   9.331  70.758  1.00  0.00    -0.285 C  
HETATM    2  N   UNL     1     -12.108   8.301  71.750  1.00  0.00    -0.301 N  
HETATM    3  C   UNL     1     -13.350   8.866  72.424  1.00  0.00    -0.440 C  
HETATM    4  C   UNL     1     -11.034   8.056  72.811  1.00  0.00    -0.382 C  
ENDROOT
BRANCH   2   5
HETATM    5  C   UNL     1     -12.432   7.008  70.960  1.00  0.00    -0.326 C  
BRANCH   5   6
HETATM    6  C   UNL     1     -11.298   6.495  70.060  1.00  0.00    -0.410 C  
HETATM    7  O   UNL     1     -11.634   6.649  68.686  1.00  0.00    -0.567 OA 
HETATM    8  H   UNL     1     -10.933   6.331  68.130  1.00  0.00     0.000 HD 
ENDBRANCH   5   6
ENDBRANCH   2   5
TORSDOF 2
ENDMDL
MODEL       38
REMARK 921   NORMALIZED FREE ENERGY PREDICTED BY IDOCK:   -2.37 KCAL/MOL
REMARK 922        TOTAL FREE ENERGY PREDICTED BY IDOCK:   -2.69 KCAL/MOL
REMARK 923 INTER-LIGAND FREE ENERGY PREDICTED BY IDOCK:   -2.67 KCAL/MOL
REMARK 924 INTRA-LIGAND FREE ENERGY PREDICTED BY IDOCK:   -0.02 KCAL/MOL
REMARK 927      BINDING AFFINITY PREDICTED BY RF-SCORE:    0.00 PKD
ROOT
HETATM    1  C   UNL     1     -11.902  12.345  66.110  1.00  0.00    -0.376 C  
HETATM    2  N   UNL     1     -11.257  12.391  64.726  1.00  0.00    -0.301 N  
HETATM    3  C   UNL     1     -10.422  13.658  64.613  1.00  0.00    -0.423 C  
HETATM    4  C   UNL     1     -12.372  12.435  63.680  1.00  0.00    -0.548 C  
ENDROOT
BRANCH   2   5
HETATM    5  C   UNL     1     -10.381  11.122  64.571  1.00  0.00    -0.337 C  
BRANCH   5   6
HETATM    6  C   UNL     1     -10.253  10.261  65.838  1.00  0.00    -0.223 C  
HETATM    7  O   UNL     1      -9.761   8.965  65.521  1.00  0.00    -0.458 OA 
HETATM    8  H   UNL     1      -9.682   8.433  66.304  1.00  0.00     0.000 HD 
ENDBRANCH   5   6
ENDBRANCH   2   5
TORSDOF 2
ENDMDL
MODEL       39
REMARK 921   NORMALIZED FREE ENERGY PREDICTED BY IDOCK:   -2.35 KCAL/MOL
REMARK 922        TOTAL FREE ENERGY PREDICTED BY IDOCK:   -2.66 KCAL/MOL
REMARK 923 INTER-LIGAND FREE ENERGY PREDICTED BY IDOCK:   -2.60 KCAL/MOL
REMARK 924 INTRA-LIGAND FREE ENERGY PREDICTED BY IDOCK:   -0.07 KCAL/MOL
REMARK 927      BINDING AFFINITY PREDICTED BY RF-SCORE:    0.00 PKD
ROOT
HETATM    1  C   UNL     1     -10.620  15.033  69.075  1.00  0.00    -0.245 C  
HETATM    2  N   UNL     1     -11.077  13.732  68.417  1.00  0.00    -0.251 N  
HETATM    3  C   UNL     1      -9.852  12.946  67.975  1.00  0.00    -0.223 C  
HETATM    4  C   UNL     1     -11.911  14.088  67.186  1.00  0.00    -0.430 C  
ENDROOT
BRANCH   2   5
HETATM    5  C   UNL     1     -11.909  12.942  69.459  1.00  0.00    -0.320 C  
BRANCH   5   6
HETATM    6  C   UNL     1     -11.560  11.450  69.574  1.00  0.00    -0.331 C  
HETATM    7  O   UNL     1     -12.466  10.660  68.814  1.00  0.00    -0.795 OA 
HETATM    8  H   UNL     1     -12.251   9.737  68.885  1.00  0.00     0.000 HD 
ENDBRANCH   5   6
ENDBRANCH   2   5
TORSDOF 2
ENDMDL
MODEL       40
REMARK 921   NORMALIZED FREE ENERGY PREDICTED BY IDOCK:   -2.33 KCAL/MOL
REMARK 922        TOTAL FREE ENERGY PREDICTED BY IDOCK:   -2.65 KCAL/MOL
REMARK 923 INTER-LIGAND FREE ENERGY PREDICTED BY IDOCK:   -2.61 KCAL/MOL
REMARK 924 INTRA-LIGAND FREE ENERGY PREDICTED BY IDOCK:   -0.04 KCAL/MOL
REMARK 927      BINDING AFFINITY PREDICTED BY RF-SCORE:    0.00 PKD
ROOT
HETATM    1  C   UNL     1     -10.254  19.405  66.004  1.00  0.00    -0.457 C  
HETATM    2  N   UNL     1      -9.334  19.186  67.203  1.00  0.00    -0.304 N  
HETATM    3  C   UNL     1      -8.977  17.709  67.287  1.00  0.00    -0.240 C  
HETATM    4  C   UNL     1     -10.094  19.587  68.468  1.00  0.00    -0.445 C  
ENDROOT
BRANCH   2   5
HETATM    5  C   UNL     1      -8.072  20.061  66.996  1.00  0.00    -0.318 C  
BRANCH   5   6
HETATM    6  C   UNL     1      -7.256  19.738  65.736  1.00  0.00    -0.318 C  
HETATM    7  O   UNL     1      -6.993  20.918  64.986  1.00  0.00    -0.527 OA 
HETATM    8  H   UNL     1      -6.489  20.718  64.207  1.00  0.00     0.000 HD 
ENDBRANCH   5   6
ENDBRANCH   2   5
TORSDOF 2
ENDMDL
MODEL       41
REMARK 921   NORMALIZED FREE ENERGY PREDICTED BY IDOCK:   -2.33 KCAL/MOL
REMARK 922        TOTAL FREE ENERGY PREDICTED BY IDOCK:   -2.64 KCAL/MOL
REMARK 923 INTER-LIGAND FREE ENERGY PREDICTED BY IDOCK:   -2.62 KCAL/MOL
REMARK 924 INTRA-LIGAND FREE ENERGY PREDICTED BY IDOCK:   -0.02 KCAL/MOL
REMARK 927      BINDING AFFINITY PREDICTED BY RF-SCORE:    0.00 PKD
ROOT
HETATM    1  C   UNL     1      -9.148  15.091  68.744  1.00  0.00    -0.197 C  
HETATM    2  N   UNL     1     -10.460  15.147  67.963  1.00  0.00    -0.243 N  
HETATM    3  C   UNL     1     -11.271  16.338  68.448  1.00  0.00    -0.349 C  
HETATM    4  C   UNL     1     -11.240  13.863  68.248  1.00  0.00    -0.272 C  
ENDROOT
BRANCH   2   5
HETATM    5  C   UNL     1     -10.108  15.277  66.459  1.00  0.00    -0.270 C  
BRANCH   5   6
HETATM    6  C   UNL     1     -10.629  16.552  65.778  1.00  0.00    -0.296 C  
HETATM    7  O   UNL     1     -11.014  16.287  64.435  1.00  0.00    -0.990 OA 
HETATM    8  H   UNL     1     -11.336  17.075  64.014  1.00  0.00     0.000 HD 
ENDBRANCH   5   6
ENDBRANCH   2   5
TORSDOF 2
ENDMDL
MODEL       42
REMARK 921   NORMALIZED FREE ENERGY PREDICTED BY IDOCK:   -2.30 KCAL/MOL
REMARK 922        TOTAL FREE ENERGY PREDICTED BY IDOCK:   -2.61 KCAL/MOL
REMARK 923 INTER-LIGAND FREE ENERGY PREDICTED BY IDOCK:   -2.57 KCAL/MOL
REMARK 924 INTRA-LIGAND FREE ENERGY PREDICTED BY IDOCK:   -0.04 KCAL/MOL
REMARK 927      BINDING AFFINITY PREDICTED BY RF-SCORE:    0.00 PKD
ROOT
HETATM    1  C   UNL     1     -12.829   9.111  72.261  1.00  0.00    -0.401 C  
HETATM    2  N   UNL     1     -11.619   8.394  71.665  1.00  0.00    -0.272 N  
HETATM    3  C   UNL     1     -10.675   8.000  72.792  1.00  0.00    -0.362 C  
HETATM    4  C   UNL     1     -10.899   9.366  70.730  1.00  0.00    -0.305 C  
ENDROOT
BRANCH   2   5
HETATM    5  C   UNL     1     -12.137   7.148  70.902  1.00  0.00    -0.326 C  
BRANCH   5   6
HETATM    6  C   UNL     1     -11.069   6.382  70.107  1.00  0.00    -0.365 C  
HETATM    7  O   UNL     1     -11.391   6.357  68.721  1.00  0.00    -0.535 OA 
HETATM    8  H   UNL     1     -10.731   5.883  68.230  1.00  0.00     0.000 HD 
ENDBRANCH   5   6
ENDBRANCH   2   5
TORSDOF 2
ENDMDL
MODEL       43
REMARK 921   NORMALIZED FREE ENERGY PREDICTED BY IDOCK:   -2.29 KCAL/MOL
REMARK 922        TOTAL FREE ENERGY PREDICTED BY IDOCK:   -2.60 KCAL/MOL
REMARK 923 INTER-LIGAND FREE ENERGY PREDICTED BY IDOCK:   -2.53 KCAL/MOL
REMARK 924 INTRA-LIGAND FREE ENERGY PREDICTED BY IDOCK:   -0.07 KCAL/MOL
REMARK 927      BINDING AFFINITY PREDICTED BY RF-SCORE:    0.00 PKD
ROOT
HETATM    1  C   UNL     1     -10.428  12.885  64.081  1.00  0.00    -0.406 C  
HETATM    2  N   UNL     1     -11.134  13.758  65.117  1.00  0.00    -0.315 N  
HETATM    3  C   UNL     1     -11.560  12.886  66.289  1.00  0.00    -0.372 C  
HETATM    4  C   UNL     1     -12.380  14.360  64.466  1.00  0.00    -0.418 C  
ENDROOT
BRANCH   2   5
HETATM    5  C   UNL     1     -10.138  14.858  65.565  1.00  0.00    -0.370 C  
BRANCH   5   6
HETATM    6  C   UNL     1      -9.503  14.637  66.947  1.00  0.00    -0.246 C  
HETATM    7  O   UNL     1      -8.179  14.133  66.820  1.00  0.00    -0.399 OA 
HETATM    8  H   UNL     1      -7.787  13.997  67.673  1.00  0.00     0.000 HD 
ENDBRANCH   5   6
ENDBRANCH   2   5
TORSDOF 2
ENDMDL
MODEL       44
REMARK 921   NORMALIZED FREE ENERGY PREDICTED BY IDOCK:   -2.27 KCAL/MOL
REMARK 922        TOTAL FREE ENERGY PREDICTED BY IDOCK:   -2.58 KCAL/MOL
REMARK 923 INTER-LIGAND FREE ENERGY PREDICTED BY IDOCK:   -2.54 KCAL/MOL
REMARK 924 INTRA-LIGAND FREE ENERGY PREDICTED BY IDOCK:   -0.04 KCAL/MOL
REMARK 927      BINDING AFFINITY PREDICTED BY RF-SCORE:    0.00 PKD
ROOT
HETATM    1  C   UNL     1      -9.096  12.186  66.338  1.00  0.00    -0.177 C  
HETATM    2  N   UNL     1     -10.550  12.281  65.879  1.00  0.00    -0.249 N  
HETATM    3  C   UNL     1     -11.451  11.740  66.979  1.00  0.00    -0.298 C  
HETATM    4  C   UNL     1     -10.715  11.415  64.629  1.00  0.00    -0.314 C  
ENDROOT
BRANCH   2   5
HETATM    5  C   UNL     1     -10.855  13.772  65.582  1.00  0.00    -0.287 C  
BRANCH   5   6
HETATM    6  C   UNL     1     -11.964  14.015  64.547  1.00  0.00    -0.448 C  
HETATM    7  O   UNL     1     -13.243  14.024  65.170  1.00  0.00    -0.768 OA 
HETATM    8  H   UNL     1     -13.929  14.174  64.530  1.00  0.00     0.000 HD 
ENDBRANCH   5   6
ENDBRANCH   2   5
TORSDOF 2
ENDMDL
MODEL       45
REMARK 921   NORMALIZED FREE ENERGY PREDICTED BY IDOCK:   -2.27 KCAL/MOL
REMARK 922        TOTAL FREE ENERGY PREDICTED BY IDOCK:   -2.58 KCAL/MOL
REMARK 923 INTER-LIGAND FREE ENERGY PREDICTED BY IDOCK:   -2.51 KCAL/MOL
REMARK 924 INTRA-LIGAND FREE ENERGY PREDICTED BY IDOCK:   -0.07 KCAL/MOL
REMARK 927      BINDING AFFINITY PREDICTED BY RF-SCORE:    0.00 PKD
ROOT
HETATM    1  C   UNL     1     -10.216  15.405  69.054  1.00  0.00    -0.233 C  
HETATM    2  N   UNL     1     -11.047  14.224  68.554  1.00  0.00    -0.247 N  
HETATM    3  C   UNL     1     -10.108  13.108  68.124  1.00  0.00    -0.237 C  
HETATM    4  C   UNL     1     -11.857  14.688  67.343  1.00  0.00    -0.348 C  
ENDROOT
BRANCH   2   5
HETATM    5  C   UNL     1     -11.968  13.771  69.715  1.00  0.00    -0.344 C  
BRANCH   5   6
HETATM    6  C   UNL     1     -12.365  14.880  70.702  1.00  0.00    -0.344 C  
HETATM    7  O   UNL     1     -13.639  15.420  70.371  1.00  0.00    -0.751 OA 
HETATM    8  H   UNL     1     -13.883  16.105  70.981  1.00  0.00     0.000 HD 
ENDBRANCH   5   6
ENDBRANCH   2   5
TORSDOF 2
ENDMDL
MODEL       46
REMARK 921   NORMALIZED FREE ENERGY PREDICTED BY IDOCK:   -2.26 KCAL/MOL
REMARK 922        TOTAL FREE ENERGY PREDICTED BY IDOCK:   -2.57 KCAL/MOL
REMARK 923 INTER-LIGAND FREE ENERGY PREDICTED BY IDOCK:   -2.57 KCAL/MOL
REMARK 924 INTRA-LIGAND FREE ENERGY PREDICTED BY IDOCK:    0.00 KCAL/MOL
REMARK 927      BINDING AFFINITY PREDICTED BY RF-SCORE:    0.00 PKD
ROOT
HETATM    1  C   UNL     1     -12.110  15.426  64.232  1.00  0.00    -0.166 C  
HETATM    2  N   UNL     1     -11.837  13.979  64.639  1.00  0.00    -0.396 N  
HETATM    3  C   UNL     1     -12.152  13.068  63.462  1.00  0.00    -0.542 C  
HETATM    4  C   UNL     1     -12.764  13.627  65.803  1.00  0.00    -0.416 C  
ENDROOT
BRANCH   2   5
HETATM    5  C   UNL     1     -10.345  13.877  65.049  1.00  0.00    -0.396 C  
BRANCH   5   6
HETATM    6  C   UNL     1      -9.932  12.534  65.670  1.00  0.00    -0.245 C  
HETATM    7  O   UNL     1      -9.346  11.683  64.692  1.00  0.00    -0.406 OA 
HETATM    8  H   UNL     1      -9.091  10.854  65.077  1.00  0.00     0.000 HD 
ENDBRANCH   5   6
ENDBRANCH   2   5
TORSDOF 2
ENDMDL
MODEL       47
REMARK 921   NORMALIZED FREE ENERGY PREDICTED BY IDOCK:   -2.26 KCAL/MOL
REMARK 922        TOTAL FREE ENERGY PREDICTED BY IDOCK:   -2.56 KCAL/MOL
REMARK 923 INTER-LIGAND FREE ENERGY PREDICTED BY IDOCK:   -2.53 KCAL/MOL
REMARK 924 INTRA-LIGAND FREE ENERGY PREDICTED BY IDOCK:   -0.03 KCAL/MOL
REMARK 927      BINDING AFFINITY PREDICTED BY RF-SCORE:    0.00 PKD
ROOT
HETATM    1  C   UNL     1     -12.894  13.755  65.936  1.00  0.00    -0.315 C  
HETATM    2  N   UNL     1     -11.660  13.247  66.681  1.00  0.00    -0.347 N  
HETATM    3  C   UNL     1     -11.410  11.798  66.287  1.00  0.00    -0.287 C  
HETATM    4  C   UNL     1     -11.946  13.313  68.181  1.00  0.00    -0.304 C  
ENDROOT
BRANCH   2   5
HETATM    5  C   UNL     1     -10.465  14.153  66.288  1.00  0.00    -0.286 C  
BRANCH   5   6
HETATM    6  C   UNL     1     -10.473  14.645  64.833  1.00  0.00    -0.387 C  
HETATM    7  O   UNL     1      -9.826  13.709  63.979  1.00  0.00    -0.608 OA 
HETATM    8  H   UNL     1      -9.830  14.013  63.080  1.00  0.00     0.000 HD 
ENDBRANCH   5   6
ENDBRANCH   2   5
TORSDOF 2
ENDMDL
MODEL       48
REMARK 921   NORMALIZED FREE ENERGY PREDICTED BY IDOCK:   -2.24 KCAL/MOL
REMARK 922        TOTAL FREE ENERGY PREDICTED BY IDOCK:   -2.55 KCAL/MOL
REMARK 923 INTER-LIGAND FREE ENERGY PREDICTED BY IDOCK:   -2.50 KCAL/MOL
REMARK 924 INTRA-LIGAND FREE ENERGY PREDICTED BY IDOCK:   -0.05 KCAL/MOL
REMARK 927      BINDING AFFINITY PREDICTED BY RF-SCORE:    0.00 PKD
ROOT
HETATM    1  C   UNL     1      -9.909  13.465  66.492  1.00  0.00    -0.286 C  
HETATM    2  N   UNL     1     -11.109  14.393  66.676  1.00  0.00    -0.318 N  
HETATM    3  C   UNL     1     -12.012  13.821  67.759  1.00  0.00    -0.356 C  
HETATM    4  C   UNL     1     -11.882  14.443  65.358  1.00  0.00    -0.366 C  
ENDROOT
BRANCH   2   5
HETATM    5  C   UNL     1     -10.568  15.790  67.072  1.00  0.00    -0.316 C  
BRANCH   5   6
HETATM    6  C   UNL     1     -10.234  16.716  65.893  1.00  0.00    -0.340 C  
HETATM    7  O   UNL     1      -8.859  17.080  65.909  1.00  0.00    -0.518 OA 
HETATM    8  H   UNL     1      -8.652  17.653  65.180  1.00  0.00     0.000 HD 
ENDBRANCH   5   6
ENDBRANCH   2   5
TORSDOF 2
ENDMDL
MODEL       49
REMARK 921   NORMALIZED FREE ENERGY PREDICTED BY IDOCK:   -2.24 KCAL/MOL
REMARK 922        TOTAL FREE ENERGY PREDICTED BY IDOCK:   -2.55 KCAL/MOL
REMARK 923 INTER-LIGAND FREE ENERGY PREDICTED BY IDOCK:   -2.49 KCAL/MOL
REMARK 924 INTRA-LIGAND FREE ENERGY PREDICTED BY IDOCK:   -0.05 KCAL/MOL
REMARK 927      BINDING AFFINITY PREDICTED BY RF-SCORE:    0.00 PKD
ROOT
HETATM    1  C   UNL     1      -8.266  16.474  66.547  1.00  0.00    -0.300 C  
HETATM    2  N   UNL     1      -8.222  17.946  66.954  1.00  0.00    -0.229 N  
HETATM    3  C   UNL     1      -7.329  18.700  65.980  1.00  0.00    -0.241 C  
HETATM    4  C   UNL     1      -7.618  18.036  68.356  1.00  0.00    -0.284 C  
ENDROOT
BRANCH   2   5
HETATM    5  C   UNL     1      -9.674  18.487  66.924  1.00  0.00    -0.322 C  
BRANCH   5   6
HETATM    6  C   UNL     1      -9.849  19.842  66.222  1.00  0.00    -0.461 C  
HETATM    7  O   UNL     1      -9.731  20.913  67.151  1.00  0.00    -0.654 OA 
HETATM    8  H   UNL     1      -9.839  21.750  66.717  1.00  0.00     0.000 HD 
ENDBRANCH   5   6
ENDBRANCH   2   5
TORSDOF 2
ENDMDL
MODEL       50
REMARK 921   NORMALIZED FREE ENERGY PREDICTED BY IDOCK:   -2.20 KCAL/MOL
REMARK 922        TOTAL FREE ENERGY PREDICTED BY IDOCK:   -2.50 KCAL/MOL
REMARK 923 INTER-LIGAND FREE ENERGY PREDICTED BY IDOCK:   -2.44 KCAL/MOL
REMARK 924 INTRA-LIGAND FREE ENERGY PREDICTED BY IDOCK:   -0.06 KCAL/MOL
REMARK 927      BINDING AFFINITY PREDICTED BY RF-SCORE:    0.00 PKD
ROOT
HETATM    1  C   UNL     1      -9.980  19.326  66.122  1.00  0.00    -0.397 C  
HETATM    2  N   UNL     1      -8.588  19.044  66.684  1.00  0.00    -0.301 N  
HETATM    3  C   UNL     1      -7.582  19.944  65.982  1.00  0.00    -0.325 C  
HETATM    4  C   UNL     1      -8.240  17.584  66.391  1.00  0.00    -0.270 C  
ENDROOT
BRANCH   2   5
HETATM    5  C   UNL     1      -8.629  19.325  68.208  1.00  0.00    -0.338 C  
BRANCH   5   6
HETATM    6  C   UNL     1     -10.037  19.457  68.807  1.00  0.00    -0.422 C  
HETATM    7  O   UNL     1     -10.439  18.243  69.430  1.00  0.00    -0.389 OA 
HETATM    8  H   UNL     1     -11.309  18.325  69.800  1.00  0.00     0.000 HD 
ENDBRANCH   5   6
ENDBRANCH   2   5
TORSDOF 2
ENDMDL
MODEL       51
REMARK 921   NORMALIZED FREE ENERGY PREDICTED BY IDOCK:   -2.19 KCAL/MOL
REMARK 922        TOTAL FREE ENERGY PREDICTED BY IDOCK:   -2.48 KCAL/MOL
REMARK 923 INTER-LIGAND FREE ENERGY PREDICTED BY IDOCK:   -2.42 KCAL/MOL
REMARK 924 INTRA-LIGAND FREE ENERGY PREDICTED BY IDOCK:   -0.06 KCAL/MOL
REMARK 927      BINDING AFFINITY PREDICTED BY RF-SCORE:    0.00 PKD
ROOT
HETATM    1  C   UNL     1     -10.795  15.339  64.988  1.00  0.00    -0.439 C  
HETATM    2  N   UNL     1     -10.898  14.752  66.394  1.00  0.00    -0.316 N  
HETATM    3  C   UNL     1     -12.181  13.942  66.498  1.00  0.00    -0.442 C  
HETATM    4  C   UNL     1     -10.958  15.909  67.392  1.00  0.00    -0.257 C  
ENDROOT
BRANCH   2   5
HETATM    5  C   UNL     1      -9.649  13.864  66.627  1.00  0.00    -0.289 C  
BRANCH   5   6
HETATM    6  C   UNL     1      -9.811  12.393  66.215  1.00  0.00    -0.247 C  
HETATM    7  O   UNL     1      -9.300  12.176  64.905  1.00  0.00    -0.432 OA 
HETATM    8  H   UNL     1      -9.400  11.267  64.650  1.00  0.00     0.000 HD 
ENDBRANCH   5   6
ENDBRANCH   2   5
TORSDOF 2
ENDMDL
MODEL       52
REMARK 921   NORMALIZED FREE ENERGY PREDICTED BY IDOCK:   -2.18 KCAL/MOL
REMARK 922        TOTAL FREE ENERGY PREDICTED BY IDOCK:   -2.48 KCAL/MOL
REMARK 923 INTER-LIGAND FREE ENERGY PREDICTED BY IDOCK:   -2.46 KCAL/MOL
REMARK 924 INTRA-LIGAND FREE ENERGY PREDICTED BY IDOCK:   -0.02 KCAL/MOL
REMARK 927      BINDING AFFINITY PREDICTED BY RF-SCORE:    0.00 PKD
ROOT
HETATM    1  C   UNL     1     -10.654   8.049  69.354  1.00  0.00    -0.205 C  
HETATM    2  N   UNL     1     -10.939   9.053  70.470  1.00  0.00    -0.242 N  
HETATM    3  C   UNL     1     -10.851  10.461  69.900  1.00  0.00    -0.298 C  
HETATM    4  C   UNL     1      -9.868   8.885  71.549  1.00  0.00    -0.314 C  
ENDROOT
BRANCH   2   5
HETATM    5  C   UNL     1     -12.356   8.755  71.023  1.00  0.00    -0.151 C  
BRANCH   5   6
HETATM    6  C   UNL     1     -12.411   8.418  72.521  1.00  0.00    -0.277 C  
HETATM    7  O   UNL     1     -13.652   8.825  73.086  1.00  0.00    -0.970 OA 
HETATM    8  H   UNL     1     -13.686   8.617  74.012  1.00  0.00     0.000 HD 
ENDBRANCH   5   6
ENDBRANCH   2   5
TORSDOF 2
ENDMDL
MODEL       53
REMARK 921   NORMALIZED FREE ENERGY PREDICTED BY IDOCK:   -2.17 KCAL/MOL
REMARK 922        TOTAL FREE ENERGY PREDICTED BY IDOCK:   -2.46 KCAL/MOL
REMARK 923 INTER-LIGAND FREE ENERGY PREDICTED BY IDOCK:   -2.43 KCAL/MOL
REMARK 924 INTRA-LIGAND FREE ENERGY PREDICTED BY IDOCK:   -0.03 KCAL/MOL
REMARK 927      BINDING AFFINITY PREDICTED BY RF-SCORE:    0.00 PKD
ROOT
HETATM    1  C   UNL     1      -7.998  19.513  66.081  1.00  0.00    -0.330 C  
HETATM    2  N   UNL     1      -9.173  19.242  67.020  1.00  0.00    -0.298 N  
HETATM    3  C   UNL     1     -10.129  18.270  66.345  1.00  0.00    -0.396 C  
HETATM    4  C   UNL     1      -9.900  20.564  67.269  1.00  0.00    -0.441 C  
ENDROOT
BRANCH   2   5
HETATM    5  C   UNL     1      -8.600  18.651  68.333  1.00  0.00    -0.337 C  
BRANCH   5   6
HETATM    6  C   UNL     1      -7.415  19.425  68.932  1.00  0.00    -0.364 C  
HETATM    7  O   UNL     1      -6.427  18.531  69.430  1.00  0.00    -0.263 OA 
HETATM    8  H   UNL     1      -5.695  19.010  69.801  1.00  0.00     0.000 HD 
ENDBRANCH   5   6
ENDBRANCH   2   5
TORSDOF 2
ENDMDL
MODEL       54
REMARK 921   NORMALIZED FREE ENERGY PREDICTED BY IDOCK:   -2.16 KCAL/MOL
REMARK 922        TOTAL FREE ENERGY PREDICTED BY IDOCK:   -2.45 KCAL/MOL
REMARK 923 INTER-LIGAND FREE ENERGY PREDICTED BY IDOCK:   -2.38 KCAL/MOL
REMARK 924 INTRA-LIGAND FREE ENERGY PREDICTED BY IDOCK:   -0.07 KCAL/MOL
REMARK 927      BINDING AFFINITY PREDICTED BY RF-SCORE:    0.00 PKD
ROOT
HETATM    1  C   UNL     1      -8.291  18.675  67.147  1.00  0.00    -0.264 C  
HETATM    2  N   UNL     1      -9.792  18.879  67.342  1.00  0.00    -0.314 N  
HETATM    3  C   UNL     1     -10.344  19.647  66.151  1.00  0.00    -0.530 C  
HETATM    4  C   UNL     1     -10.001  19.708  68.610  1.00  0.00    -0.458 C  
ENDROOT
BRANCH   2   5
HETATM    5  C   UNL     1     -10.447  17.479  67.464  1.00  0.00    -0.355 C  
BRANCH   5   6
HETATM    6  C   UNL     1      -9.488  16.345  67.860  1.00  0.00    -0.223 C  
HETATM    7  O   UNL     1      -9.535  16.111  69.263  1.00  0.00    -0.238 OA 
HETATM    8  H   UNL     1      -8.942  15.411  69.507  1.00  0.00     0.000 HD 
ENDBRANCH   5   6
ENDBRANCH   2   5
TORSDOF 2
ENDMDL
MODEL       55
REMARK 921   NORMALIZED FREE ENERGY PREDICTED BY IDOCK:   -2.15 KCAL/MOL
REMARK 922        TOTAL FREE ENERGY PREDICTED BY IDOCK:   -2.45 KCAL/MOL
REMARK 923 INTER-LIGAND FREE ENERGY PREDICTED BY IDOCK:   -2.41 KCAL/MOL
REMARK 924 INTRA-LIGAND FREE ENERGY PREDICTED BY IDOCK:   -0.03 KCAL/MOL
REMARK 927      BINDING AFFINITY PREDICTED BY RF-SCORE:    0.00 PKD
ROOT
HETATM    1  C   UNL     1     -12.134  12.249  64.046  1.00  0.00    -0.471 C  
HETATM    2  N   UNL     1     -11.740  13.086  65.262  1.00  0.00    -0.336 N  
HETATM    3  C   UNL     1     -12.904  13.991  65.636  1.00  0.00    -0.406 C  
HETATM    4  C   UNL     1     -10.539  13.952  64.878  1.00  0.00    -0.419 C  
ENDROOT
BRANCH   2   5
HETATM    5  C   UNL     1     -11.391  12.109  66.414  1.00  0.00    -0.356 C  
BRANCH   5   6
HETATM    6  C   UNL     1     -10.341  11.043  66.067  1.00  0.00    -0.254 C  
HETATM    7  O   UNL     1      -9.338  10.975  67.074  1.00  0.00    -0.169 OA 
HETATM    8  H   UNL     1      -8.689  10.316  66.859  1.00  0.00     0.000 HD 
ENDBRANCH   5   6
ENDBRANCH   2   5
TORSDOF 2
ENDMDL
MODEL       56
REMARK 921   NORMALIZED FREE ENERGY PREDICTED BY IDOCK:   -2.15 KCAL/MOL
REMARK 922        TOTAL FREE ENERGY PREDICTED BY IDOCK:   -2.44 KCAL/MOL
REMARK 923 INTER-LIGAND FREE ENERGY PREDICTED BY IDOCK:   -2.41 KCAL/MOL
REMARK 924 INTRA-LIGAND FREE ENERGY PREDICTED BY IDOCK:   -0.03 KCAL/MOL
REMARK 927      BINDING AFFINITY PREDICTED BY RF-SCORE:    0.00 PKD
ROOT
HETATM    1  C   UNL     1      -7.708  19.096  68.339  1.00  0.00    -0.324 C  
HETATM    2  N   UNL     1      -8.501  17.993  67.641  1.00  0.00    -0.237 N  
HETATM    3  C   UNL     1      -8.438  16.730  68.487  1.00  0.00    -0.244 C  
HETATM    4  C   UNL     1      -7.845  17.718  66.287  1.00  0.00    -0.264 C  
ENDROOT
BRANCH   2   5
HETATM    5  C   UNL     1      -9.959  18.491  67.477  1.00  0.00    -0.332 C  
BRANCH   5   6
HETATM    6  C   UNL     1     -10.209  19.376  66.246  1.00  0.00    -0.478 C  
HETATM    7  O   UNL     1     -11.027  18.702  65.296  1.00  0.00    -0.536 OA 
HETATM    8  H   UNL     1     -11.181  19.249  64.536  1.00  0.00     0.000 HD 
ENDBRANCH   5   6
ENDBRANCH   2   5
TORSDOF 2
ENDMDL
MODEL       57
REMARK 921   NORMALIZED FREE ENERGY PREDICTED BY IDOCK:   -2.14 KCAL/MOL
REMARK 922        TOTAL FREE ENERGY PREDICTED BY IDOCK:   -2.44 KCAL/MOL
REMARK 923 INTER-LIGAND FREE ENERGY PREDICTED BY IDOCK:   -2.42 KCAL/MOL
REMARK 924 INTRA-LIGAND FREE ENERGY PREDICTED BY IDOCK:   -0.02 KCAL/MOL
REMARK 927      BINDING AFFINITY PREDICTED BY RF-SCORE:    0.00 PKD
ROOT
HETATM    1  C   UNL     1     -11.242  15.978  67.967  1.00  0.00    -0.303 C  
HETATM    2  N   UNL     1     -10.953  14.865  68.973  1.00  0.00    -0.235 N  
HETATM    3  C   UNL     1      -9.694  14.127  68.544  1.00  0.00    -0.219 C  
HETATM    4  C   UNL     1     -12.132  13.891  68.959  1.00  0.00    -0.329 C  
ENDROOT
BRANCH   2   5
HETATM    5  C   UNL     1     -10.775  15.523  70.365  1.00  0.00    -0.320 C  
BRANCH   5   6
HETATM    6  C   UNL     1     -12.049  15.586  71.222  1.00  0.00    -0.386 C  
HETATM    7  O   UNL     1     -11.961  16.632  72.182  1.00  0.00    -0.629 OA 
HETATM    8  H   UNL     1     -12.748  16.671  72.712  1.00  0.00     0.000 HD 
ENDBRANCH   5   6
ENDBRANCH   2   5
TORSDOF 2
ENDMDL
MODEL       58
REMARK 921   NORMALIZED FREE ENERGY PREDICTED BY IDOCK:   -2.14 KCAL/MOL
REMARK 922        TOTAL FREE ENERGY PREDICTED BY IDOCK:   -2.44 KCAL/MOL
REMARK 923 INTER-LIGAND FREE ENERGY PREDICTED BY IDOCK:   -2.37 KCAL/MOL
REMARK 924 INTRA-LIGAND FREE ENERGY PREDICTED BY IDOCK:   -0.06 KCAL/MOL
REMARK 927      BINDING AFFINITY PREDICTED BY RF-SCORE:    0.00 PKD
ROOT
HETATM    1  C   UNL     1     -10.720   8.724  69.617  1.00  0.00    -0.208 C  
HETATM    2  N   UNL     1     -10.933   7.588  70.616  1.00  0.00    -0.245 N  
HETATM    3  C   UNL     1      -9.607   7.273  71.293  1.00  0.00    -0.162 C  
HETATM    4  C   UNL     1     -11.404   6.355  69.844  1.00  0.00    -0.434 C  
ENDROOT
BRANCH   2   5
HETATM    5  C   UNL     1     -11.995   8.056  71.644  1.00  0.00    -0.298 C  
BRANCH   5   6
HETATM    6  C   UNL     1     -13.340   7.318  71.570  1.00  0.00    -0.369 C  
HETATM    7  O   UNL     1     -14.320   8.117  70.919  1.00  0.00    -0.654 OA 
HETATM    8  H   UNL     1     -15.152   7.660  70.874  1.00  0.00     0.000 HD 
ENDBRANCH   5   6
ENDBRANCH   2   5
TORSDOF 2
ENDMDL
MODEL       59
REMARK 921   NORMALIZED FREE ENERGY PREDICTED BY IDOCK:   -2.14 KCAL/MOL
REMARK 922        TOTAL FREE ENERGY PREDICTED BY IDOCK:   -2.43 KCAL/MOL
REMARK 923 INTER-LIGAND FREE ENERGY PREDICTED BY IDOCK:   -2.39 KCAL/MOL
REMARK 924 INTRA-LIGAND FREE ENERGY PREDICTED BY IDOCK:   -0.04 KCAL/MOL
REMARK 927      BINDING AFFINITY PREDICTED BY RF-SCORE:    0.00 PKD
ROOT
HETATM    1  C   UNL     1     -12.203   7.322  70.751  1.00  0.00    -0.217 C  
HETATM    2  N   UNL     1     -11.964   8.574  71.593  1.00  0.00    -0.297 N  
HETATM    3  C   UNL     1     -13.239   8.908  72.353  1.00  0.00    -0.430 C  
HETATM    4  C   UNL     1     -11.631   9.729  70.648  1.00  0.00    -0.313 C  
ENDROOT
BRANCH   2   5
HETATM    5  C   UNL     1     -10.791   8.275  72.561  1.00  0.00    -0.351 C  
BRANCH   5   6
HETATM    6  C   UNL     1     -10.757   6.843  73.119  1.00  0.00    -0.308 C  
HETATM    7  O   UNL     1     -10.652   6.856  74.538  1.00  0.00    -0.474 OA 
HETATM    8  H   UNL     1     -10.631   5.971  74.882  1.00  0.00     0.000 HD 
ENDBRANCH   5   6
ENDBRANCH   2   5
TORSDOF 2
ENDMDL
MODEL       60
REMARK 921   NORMALIZED FREE ENERGY PREDICTED BY IDOCK:   -2.14 KCAL/MOL
REMARK 922        TOTAL FREE ENERGY PREDICTED BY IDOCK:   -2.43 KCAL/MOL
REMARK 923 INTER-LIGAND FREE ENERGY PREDICTED BY IDOCK:   -2.39 KCAL/MOL
REMARK 924 INTRA-LIGAND FREE ENERGY PREDICTED BY IDOCK:   -0.04 KCAL/MOL
REMARK 927      BINDING AFFINITY PREDICTED BY RF-SCORE:    0.00 PKD
ROOT
HETATM    1  C   UNL     1      -8.242  18.224  68.576  1.00  0.00    -0.312 C  
HETATM    2  N   UNL     1      -7.069  19.150  68.255  1.00  0.00    -0.263 N  
HETATM    3  C   UNL     1      -5.980  18.344  67.564  1.00  0.00    -0.170 C  
HETATM    4  C   UNL     1      -6.522  19.701  69.572  1.00  0.00    -0.339 C  
ENDROOT
BRANCH   2   5
HETATM    5  C   UNL     1      -7.600  20.283  67.340  1.00  0.00    -0.314 C  
BRANCH   5   6
HETATM    6  C   UNL     1      -8.480  19.817  66.171  1.00  0.00    -0.341 C  
HETATM    7  O   UNL     1      -9.726  20.503  66.171  1.00  0.00    -0.648 OA 
HETATM    8  H   UNL     1     -10.270  20.214  65.448  1.00  0.00     0.000 HD 
ENDBRANCH   5   6
ENDBRANCH   2   5
TORSDOF 2
ENDMDL
MODEL       61
REMARK 921   NORMALIZED FREE ENERGY PREDICTED BY IDOCK:   -2.13 KCAL/MOL
REMARK 922        TOTAL FREE ENERGY PREDICTED BY IDOCK:   -2.42 KCAL/MOL
REMARK 923 INTER-LIGAND FREE ENERGY PREDICTED BY IDOCK:   -2.36 KCAL/MOL
REMARK 924 INTRA-LIGAND FREE ENERGY PREDICTED BY IDOCK:   -0.06 KCAL/MOL
REMARK 927      BINDING AFFINITY PREDICTED BY RF-SCORE:    0.00 PKD
ROOT
HETATM    1  C   UNL     1      -8.829  16.437  66.182  1.00  0.00    -0.314 C  
HETATM    2  N   UNL     1      -9.840  15.320  66.439  1.00  0.00    -0.259 N  
HETATM    3  C   UNL     1      -9.110  14.119  67.020  1.00  0.00    -0.243 C  
HETATM    4  C   UNL     1     -10.464  14.924  65.100  1.00  0.00    -0.417 C  
ENDROOT
BRANCH   2   5
HETATM    5  C   UNL     1     -10.905  15.865  67.425  1.00  0.00    -0.291 C  
BRANCH   5   6
HETATM    6  C   UNL     1     -11.182  14.969  68.642  1.00  0.00    -0.278 C  
HETATM    7  O   UNL     1     -12.349  14.183  68.435  1.00  0.00    -0.559 OA 
HETATM    8  H   UNL     1     -12.521  13.629  69.188  1.00  0.00     0.000 HD 
ENDBRANCH   5   6
ENDBRANCH   2   5
TORSDOF 2
ENDMDL
MODEL       62
REMARK 921   NORMALIZED FREE ENERGY PREDICTED BY IDOCK:   -2.12 KCAL/MOL
REMARK 922        TOTAL FREE ENERGY PREDICTED BY IDOCK:   -2.40 KCAL/MOL
REMARK 923 INTER-LIGAND FREE ENERGY PREDICTED BY IDOCK:   -2.37 KCAL/MOL
REMARK 924 INTRA-LIGAND FREE ENERGY PREDICTED BY IDOCK:   -0.03 KCAL/MOL
REMARK 927      BINDING AFFINITY PREDICTED BY RF-SCORE:    0.00 PKD
ROOT
HETATM    1  C   UNL     1     -10.254   8.009  72.830  1.00  0.00    -0.314 C  
HETATM    2  N   UNL     1     -11.236   7.288  71.908  1.00  0.00    -0.242 N  
HETATM    3  C   UNL     1     -12.543   8.066  71.875  1.00  0.00    -0.328 C  
HETATM    4  C   UNL     1     -11.499   5.896  72.485  1.00  0.00    -0.298 C  
ENDROOT
BRANCH   2   5
HETATM    5  C   UNL     1     -10.591   7.209  70.501  1.00  0.00    -0.225 C  
BRANCH   5   6
HETATM    6  C   UNL     1     -11.200   6.154  69.565  1.00  0.00    -0.411 C  
HETATM    7  O   UNL     1     -11.536   6.728  68.307  1.00  0.00    -0.554 OA 
HETATM    8  H   UNL     1     -11.913   6.077  67.729  1.00  0.00     0.000 HD 
ENDBRANCH   5   6
ENDBRANCH   2   5
TORSDOF 2
ENDMDL
MODEL       63
REMARK 921   NORMALIZED FREE ENERGY PREDICTED BY IDOCK:   -2.11 KCAL/MOL
REMARK 922        TOTAL FREE ENERGY PREDICTED BY IDOCK:   -2.40 KCAL/MOL
REMARK 923 INTER-LIGAND FREE ENERGY PREDICTED BY IDOCK:   -2.34 KCAL/MOL
REMARK 924 INTRA-LIGAND FREE ENERGY PREDICTED BY IDOCK:   -0.05 KCAL/MOL
REMARK 927      BINDING AFFINITY PREDICTED BY RF-SCORE:    0.00 PKD
ROOT
HETATM    1  C   UNL     1     -10.665   5.516  70.011  1.00  0.00    -0.286 C  
HETATM    2  N   UNL     1     -10.733   6.378  71.271  1.00  0.00    -0.233 N  
HETATM    3  C   UNL     1      -9.423   7.137  71.420  1.00  0.00    -0.161 C  
HETATM    4  C   UNL     1     -10.912   5.452  72.474  1.00  0.00    -0.256 C  
ENDROOT
BRANCH   2   5
HETATM    5  C   UNL     1     -11.933   7.347  71.115  1.00  0.00    -0.320 C  
BRANCH   5   6
HETATM    6  C   UNL     1     -11.947   8.527  72.098  1.00  0.00    -0.383 C  
HETATM    7  O   UNL     1     -12.978   8.367  73.066  1.00  0.00    -0.704 OA 
HETATM    8  H   UNL     1     -12.987   9.097  73.673  1.00  0.00     0.000 HD 
ENDBRANCH   5   6
ENDBRANCH   2   5
TORSDOF 2
ENDMDL
MODEL       64
REMARK 921   NORMALIZED FREE ENERGY PREDICTED BY IDOCK:   -2.10 KCAL/MOL
REMARK 922        TOTAL FREE ENERGY PREDICTED BY IDOCK:   -2.39 KCAL/MOL
REMARK 923 INTER-LIGAND FREE ENERGY PREDICTED BY IDOCK:   -2.34 KCAL/MOL
REMARK 924 INTRA-LIGAND FREE ENERGY PREDICTED BY IDOCK:   -0.04 KCAL/MOL
REMARK 927      BINDING AFFINITY PREDICTED BY RF-SCORE:    0.00 PKD
ROOT
HETATM    1  C   UNL     1     -11.021   9.295  71.261  1.00  0.00    -0.351 C  
HETATM    2  N   UNL     1     -11.903   8.206  71.869  1.00  0.00    -0.297 N  
HETATM    3  C   UNL     1     -12.085   7.092  70.849  1.00  0.00    -0.357 C  
HETATM    4  C   UNL     1     -13.268   8.818  72.186  1.00  0.00    -0.414 C  
ENDROOT
BRANCH   2   5
HETATM    5  C   UNL     1     -11.200   7.689  73.150  1.00  0.00    -0.256 C  
BRANCH   5   6
HETATM    6  C   UNL     1     -10.543   6.306  73.019  1.00  0.00    -0.239 C  
HETATM    7  O   UNL     1     -11.228   5.344  73.811  1.00  0.00    -0.430 OA 
HETATM    8  H   UNL     1     -10.822   4.489  73.730  1.00  0.00     0.000 HD 
ENDBRANCH   5   6
ENDBRANCH   2   5
TORSDOF 2
ENDMDL
MODEL       65
REMARK 921   NORMALIZED FREE ENERGY PREDICTED BY IDOCK:   -2.09 KCAL/MOL
REMARK 922        TOTAL FREE ENERGY PREDICTED BY IDOCK:   -2.38 KCAL/MOL
REMARK 923 INTER-LIGAND FREE ENERGY PREDICTED BY IDOCK:   -2.32 KCAL/MOL
REMARK 924 INTRA-LIGAND FREE ENERGY PREDICTED BY IDOCK:   -0.06 KCAL/MOL
REMARK 927      BINDING AFFINITY PREDICTED BY RF-SCORE:    0.00 PKD
ROOT
HETATM    1  C   UNL     1     -13.756  15.302  70.883  1.00  0.00    -0.293 C  
HETATM    2  N   UNL     1     -12.450  14.512  70.826  1.00  0.00    -0.328 N  
HETATM    3  C   UNL     1     -12.735  13.061  71.185  1.00  0.00    -0.283 C  
HETATM    4  C   UNL     1     -11.490  15.101  71.860  1.00  0.00    -0.378 C  
ENDROOT
BRANCH   2   5
HETATM    5  C   UNL     1     -11.885  14.637  69.388  1.00  0.00    -0.329 C  
BRANCH   5   6
HETATM    6  C   UNL     1     -11.401  13.320  68.763  1.00  0.00    -0.290 C  
HETATM    7  O   UNL     1     -10.015  13.120  69.014  1.00  0.00    -0.418 OA 
HETATM    8  H   UNL     1      -9.716  12.306  68.627  1.00  0.00     0.000 HD 
ENDBRANCH   5   6
ENDBRANCH   2   5
TORSDOF 2
ENDMDL
MODEL       66
REMARK 921   NORMALIZED FREE ENERGY PREDICTED BY IDOCK:   -2.07 KCAL/MOL
REMARK 922        TOTAL FREE ENERGY PREDICTED BY IDOCK:   -2.35 KCAL/MOL
REMARK 923 INTER-LIGAND FREE ENERGY PREDICTED BY IDOCK:   -2.33 KCAL/MOL
REMARK 924 INTRA-LIGAND FREE ENERGY PREDICTED BY IDOCK:   -0.02 KCAL/MOL
REMARK 927      BINDING AFFINITY PREDICTED BY RF-SCORE:    0.00 PKD
ROOT
HETATM    1  C   UNL     1      -9.524  14.353  67.648  1.00  0.00    -0.214 C  
HETATM    2  N   UNL     1     -10.683  15.307  67.365  1.00  0.00    -0.287 N  
HETATM    3  C   UNL     1     -11.541  15.425  68.616  1.00  0.00    -0.359 C  
HETATM    4  C   UNL     1     -11.527  14.711  66.238  1.00  0.00    -0.351 C  
ENDROOT
BRANCH   2   5
HETATM    5  C   UNL     1     -10.081  16.677  66.962  1.00  0.00    -0.281 C  
BRANCH   5   6
HETATM    6  C   UNL     1     -10.517  17.862  67.837  1.00  0.00    -0.396 C  
HETATM    7  O   UNL     1     -10.724  19.025  67.045  1.00  0.00    -0.441 OA 
HETATM    8  H   UNL     1     -10.994  19.758  67.586  1.00  0.00     0.000 HD 
ENDBRANCH   5   6
ENDBRANCH   2   5
TORSDOF 2
ENDMDL
MODEL       67
REMARK 921   NORMALIZED FREE ENERGY PREDICTED BY IDOCK:   -2.07 KCAL/MOL
REMARK 922        TOTAL FREE ENERGY PREDICTED BY IDOCK:   -2.35 KCAL/MOL
REMARK 923 INTER-LIGAND FREE ENERGY PREDICTED BY IDOCK:   -2.28 KCAL/MOL
REMARK 924 INTRA-LIGAND FREE ENERGY PREDICTED BY IDOCK:   -0.07 KCAL/MOL
REMARK 927      BINDING AFFINITY PREDICTED BY RF-SCORE:    0.00 PKD
ROOT
HETATM    1  C   UNL     1      -9.013  18.979  68.477  1.00  0.00    -0.355 C  
HETATM    2  N   UNL     1      -8.339  19.447  67.189  1.00  0.00    -0.280 N  
HETATM    3  C   UNL     1      -7.335  20.539  67.527  1.00  0.00    -0.323 C  
HETATM    4  C   UNL     1      -9.414  20.028  66.270  1.00  0.00    -0.382 C  
ENDROOT
BRANCH   2   5
HETATM    5  C   UNL     1      -7.643  18.220  66.547  1.00  0.00    -0.242 C  
BRANCH   5   6
HETATM    6  C   UNL     1      -6.248  18.494  65.965  1.00  0.00    -0.206 C  
HETATM    7  O   UNL     1      -6.330  18.808  64.580  1.00  0.00    -0.493 OA 
HETATM    8  H   UNL     1      -5.467  18.976  64.221  1.00  0.00     0.000 HD 
ENDBRANCH   5   6
ENDBRANCH   2   5
TORSDOF 2
ENDMDL
MODEL       68
REMARK 921   NORMALIZED FREE ENERGY PREDICTED BY IDOCK:   -2.06 KCAL/MOL
REMARK 922        TOTAL FREE ENERGY PREDICTED BY IDOCK:   -2.34 KCAL/MOL
REMARK 923 INTER-LIGAND FREE ENERGY PREDICTED BY IDOCK:   -2.27 KCAL/MOL
REMARK 924 INTRA-LIGAND FREE ENERGY PREDICTED BY IDOCK:   -0.07 KCAL/MOL
REMARK 927      BINDING AFFINITY PREDICTED BY RF-SCORE:    0.00 PKD
ROOT
HETATM    1  C   UNL     1      -9.189   9.811  69.815  1.00  0.00    -0.226 C  
HETATM    2  N   UNL     1     -10.434   9.227  70.481  1.00  0.00    -0.233 N  
HETATM    3  C   UNL     1     -10.910   8.030  69.671  1.00  0.00    -0.169 C  
HETATM    4  C   UNL     1     -11.526  10.297  70.475  1.00  0.00    -0.343 C  
ENDROOT
BRANCH   2   5
HETATM    5  C   UNL     1     -10.049   8.815  71.924  1.00  0.00    -0.339 C  
BRANCH   5   6
HETATM    6  C   UNL     1     -10.816   7.607  72.483  1.00  0.00    -0.314 C  
HETATM    7  O   UNL     1     -12.005   8.024  73.143  1.00  0.00    -0.646 OA 
HETATM    8  H   UNL     1     -12.479   7.277  73.488  1.00  0.00     0.000 HD 
ENDBRANCH   5   6
ENDBRANCH   2   5
TORSDOF 2
ENDMDL
MODEL       69
REMARK 921   NORMALIZED FREE ENERGY PREDICTED BY IDOCK:   -2.04 KCAL/MOL
REMARK 922        TOTAL FREE ENERGY PREDICTED BY IDOCK:   -2.33 KCAL/MOL
REMARK 923 INTER-LIGAND FREE ENERGY PREDICTED BY IDOCK:   -2.26 KCAL/MOL
REMARK 924 INTRA-LIGAND FREE ENERGY PREDICTED BY IDOCK:   -0.07 KCAL/MOL
REMARK 927      BINDING AFFINITY PREDICTED BY RF-SCORE:    0.00 PKD
ROOT
HETATM    1  C   UNL     1      -8.707   9.096  70.760  1.00  0.00    -0.236 C  
HETATM    2  N   UNL     1     -10.089   9.287  70.137  1.00  0.00    -0.198 N  
HETATM    3  C   UNL     1     -10.473   8.019  69.390  1.00  0.00    -0.220 C  
HETATM    4  C   UNL     1     -10.007  10.445  69.141  1.00  0.00    -0.223 C  
ENDROOT
BRANCH   2   5
HETATM    5  C   UNL     1     -11.086   9.592  71.283  1.00  0.00    -0.379 C  
BRANCH   5   6
HETATM    6  C   UNL     1     -12.208  10.578  70.924  1.00  0.00    -0.388 C  
HETATM    7  O   UNL     1     -13.418   9.885  70.640  1.00  0.00    -0.613 OA 
HETATM    8  H   UNL     1     -14.112  10.495  70.418  1.00  0.00     0.000 HD 
ENDBRANCH   5   6
ENDBRANCH   2   5
TORSDOF 2
ENDMDL
MODEL       70
REMARK 921   NORMALIZED FREE ENERGY PREDICTED BY IDOCK:   -2.04 KCAL/MOL
REMARK 922        TOTAL FREE ENERGY PREDICTED BY IDOCK:   -2.32 KCAL/MOL
REMARK 923 INTER-LIGAND FREE ENERGY PREDICTED BY IDOCK:   -2.27 KCAL/MOL
REMARK 924 INTRA-LIGAND FREE ENERGY PREDICTED BY IDOCK:   -0.04 KCAL/MOL
REMARK 927      BINDING AFFINITY PREDICTED BY RF-SCORE:    0.00 PKD
ROOT
HETATM    1  C   UNL     1     -11.328   6.448  69.341  1.00  0.00    -0.377 C  
HETATM    2  N   UNL     1     -10.307   7.287  68.575  1.00  0.00    -0.185 N  
HETATM    3  C   UNL     1     -10.585   7.163  67.084  1.00  0.00    -0.347 C  
HETATM    4  C   UNL     1      -8.913   6.729  68.869  1.00  0.00    -0.131 C  
ENDROOT
BRANCH   2   5
HETATM    5  C   UNL     1     -10.445   8.754  69.056  1.00  0.00    -0.203 C  
BRANCH   5   6
HETATM    6  C   UNL     1     -10.768   9.772  67.951  1.00  0.00    -0.258 C  
HETATM    7  O   UNL     1     -11.984  10.455  68.234  1.00  0.00    -0.772 OA 
HETATM    8  H   UNL     1     -12.183  11.084  67.551  1.00  0.00     0.000 HD 
ENDBRANCH   5   6
ENDBRANCH   2   5
TORSDOF 2
ENDMDL
MODEL       71
REMARK 921   NORMALIZED FREE ENERGY PREDICTED BY IDOCK:   -2.03 KCAL/MOL
REMARK 922        TOTAL FREE ENERGY PREDICTED BY IDOCK:   -2.31 KCAL/MOL
REMARK 923 INTER-LIGAND FREE ENERGY PREDICTED BY IDOCK:   -2.25 KCAL/MOL
REMARK 924 INTRA-LIGAND FREE ENERGY PREDICTED BY IDOCK:   -0.05 KCAL/MOL
REMARK 927      BINDING AFFINITY PREDICTED BY RF-SCORE:    0.00 PKD
ROOT
HETATM    1  C   UNL     1     -12.142  14.000  66.699  1.00  0.00    -0.456 C  
HETATM    2  N   UNL     1     -11.425  13.473  67.941  1.00  0.00    -0.298 N  
HETATM    3  C   UNL     1     -11.638  11.969  68.033  1.00  0.00    -0.342 C  
HETATM    4  C   UNL     1     -12.045  14.139  69.170  1.00  0.00    -0.325 C  
ENDROOT
BRANCH   2   5
HETATM    5  C   UNL     1      -9.921  13.823  67.802  1.00  0.00    -0.242 C  
BRANCH   5   6
HETATM    6  C   UNL     1      -8.980  12.614  67.689  1.00  0.00    -0.186 C  
HETATM    7  O   UNL     1      -8.322  12.601  66.427  1.00  0.00    -0.406 OA 
HETATM    8  H   UNL     1      -7.741  11.854  66.358  1.00  0.00     0.000 HD 
ENDBRANCH   5   6
ENDBRANCH   2   5
TORSDOF 2
ENDMDL
MODEL       72
REMARK 921   NORMALIZED FREE ENERGY PREDICTED BY IDOCK:   -2.02 KCAL/MOL
REMARK 922        TOTAL FREE ENERGY PREDICTED BY IDOCK:   -2.30 KCAL/MOL
REMARK 923 INTER-LIGAND FREE ENERGY PREDICTED BY IDOCK:   -2.24 KCAL/MOL
REMARK 924 INTRA-LIGAND FREE ENERGY PREDICTED BY IDOCK:   -0.06 KCAL/MOL
REMARK 927      BINDING AFFINITY PREDICTED BY RF-SCORE:    0.00 PKD
ROOT
HETATM    1  C   UNL     1     -10.517   7.800  69.039  1.00  0.00    -0.205 C  
HETATM    2  N   UNL     1     -10.635   8.446  70.418  1.00  0.00    -0.218 N  
HETATM    3  C   UNL     1      -9.399   8.097  71.234  1.00  0.00    -0.156 C  
HETATM    4  C   UNL     1     -11.869   7.868  71.113  1.00  0.00    -0.287 C  
ENDROOT
BRANCH   2   5
HETATM    5  C   UNL     1     -10.762   9.977  70.213  1.00  0.00    -0.309 C  
BRANCH   5   6
HETATM    6  C   UNL     1     -11.016  10.420  68.764  1.00  0.00    -0.245 C  
HETATM    7  O   UNL     1     -12.390  10.734  68.564  1.00  0.00    -0.825 OA 
HETATM    8  H   UNL     1     -12.546  11.007  67.668  1.00  0.00     0.000 HD 
ENDBRANCH   5   6
ENDBRANCH   2   5
TORSDOF 2
ENDMDL
MODEL       73
REMARK 921   NORMALIZED FREE ENERGY PREDICTED BY IDOCK:   -2.02 KCAL/MOL
REMARK 922        TOTAL FREE ENERGY PREDICTED BY IDOCK:   -2.30 KCAL/MOL
REMARK 923 INTER-LIGAND FREE ENERGY PREDICTED BY IDOCK:   -2.28 KCAL/MOL
REMARK 924 INTRA-LIGAND FREE ENERGY PREDICTED BY IDOCK:   -0.02 KCAL/MOL
REMARK 927      BINDING AFFINITY PREDICTED BY RF-SCORE:    0.00 PKD
ROOT
HETATM    1  C   UNL     1     -10.427  17.251  65.804  1.00  0.00    -0.229 C  
HETATM    2  N   UNL     1      -9.896  17.096  67.228  1.00  0.00    -0.258 N  
HETATM    3  C   UNL     1     -10.419  18.245  68.077  1.00  0.00    -0.367 C  
HETATM    4  C   UNL     1      -8.369  17.168  67.180  1.00  0.00    -0.196 C  
ENDROOT
BRANCH   2   5
HETATM    5  C   UNL     1     -10.384  15.727  67.767  1.00  0.00    -0.275 C  
BRANCH   5   6
HETATM    6  C   UNL     1     -11.456  15.805  68.865  1.00  0.00    -0.378 C  
HETATM    7  O   UNL     1     -12.367  14.717  68.760  1.00  0.00    -0.574 OA 
HETATM    8  H   UNL     1     -13.029  14.766  69.439  1.00  0.00     0.000 HD 
ENDBRANCH   5   6
ENDBRANCH   2   5
TORSDOF 2
ENDMDL
MODEL       74
REMARK 921   NORMALIZED FREE ENERGY PREDICTED BY IDOCK:   -2.02 KCAL/MOL
REMARK 922        TOTAL FREE ENERGY PREDICTED BY IDOCK:   -2.29 KCAL/MOL
REMARK 923 INTER-LIGAND FREE ENERGY PREDICTED BY IDOCK:   -2.25 KCAL/MOL
REMARK 924 INTRA-LIGAND FREE ENERGY PREDICTED BY IDOCK:   -0.04 KCAL/MOL
REMARK 927      BINDING AFFINITY PREDICTED BY RF-SCORE:    0.00 PKD
ROOT
HETATM    1  C   UNL     1     -11.377   6.885  70.255  1.00  0.00    -0.324 C  
HETATM    2  N   UNL     1     -11.945   7.078  71.660  1.00  0.00    -0.309 N  
HETATM    3  C   UNL     1     -11.633   5.842  72.491  1.00  0.00    -0.277 C  
HETATM    4  C   UNL     1     -13.462   7.230  71.545  1.00  0.00    -0.363 C  
ENDROOT
BRANCH   2   5
HETATM    5  C   UNL     1     -11.289   8.345  72.265  1.00  0.00    -0.378 C  
BRANCH   5   6
HETATM    6  C   UNL     1      -9.756   8.388  72.179  1.00  0.00    -0.300 C  
HETATM    7  O   UNL     1      -9.322   9.533  71.454  1.00  0.00    -0.302 OA 
HETATM    8  H   UNL     1      -8.374   9.560  71.401  1.00  0.00     0.000 HD 
ENDBRANCH   5   6
ENDBRANCH   2   5
TORSDOF 2
ENDMDL
MODEL       75
REMARK 921   NORMALIZED FREE ENERGY PREDICTED BY IDOCK:   -2.01 KCAL/MOL
REMARK 922        TOTAL FREE ENERGY PREDICTED BY IDOCK:   -2.29 KCAL/MOL
REMARK 923 INTER-LIGAND FREE ENERGY PREDICTED BY IDOCK:   -2.25 KCAL/MOL
REMARK 924 INTRA-LIGAND FREE ENERGY PREDICTED BY IDOCK:   -0.05 KCAL/MOL
REMARK 927      BINDING AFFINITY PREDICTED BY RF-SCORE:    0.00 PKD
ROOT
HETATM    1  C   UNL     1     -10.481   8.209  70.704  1.00  0.00    -0.210 C  
HETATM    2  N   UNL     1     -11.189   6.891  71.014  1.00  0.00    -0.267 N  
HETATM    3  C   UNL     1     -12.643   7.181  71.352  1.00  0.00    -0.394 C  
HETATM    4  C   UNL     1     -10.511   6.258  72.229  1.00  0.00    -0.199 C  
ENDROOT
BRANCH   2   5
HETATM    5  C   UNL     1     -11.070   5.986  69.761  1.00  0.00    -0.406 C  
BRANCH   5   6
HETATM    6  C   UNL     1     -10.390   6.640  68.548  1.00  0.00    -0.192 C  
HETATM    7  O   UNL     1     -11.348   6.979  67.553  1.00  0.00    -0.579 OA 
HETATM    8  H   UNL     1     -10.927   7.383  66.803  1.00  0.00     0.000 HD 
ENDBRANCH   5   6
ENDBRANCH   2   5
TORSDOF 2
ENDMDL
MODEL       76
REMARK 921   NORMALIZED FREE ENERGY PREDICTED BY IDOCK:   -2.01 KCAL/MOL
REMARK 922        TOTAL FREE ENERGY PREDICTED BY IDOCK:   -2.29 KCAL/MOL
REMARK 923 INTER-LIGAND FREE ENERGY PREDICTED BY IDOCK:   -2.23 KCAL/MOL
REMARK 924 INTRA-LIGAND FREE ENERGY PREDICTED BY IDOCK:   -0.06 KCAL/MOL
REMARK 927      BINDING AFFINITY PREDICTED BY RF-SCORE:    0.00 PKD
ROOT
HETATM    1  C   UNL     1     -11.484  14.621  66.381  1.00  0.00    -0.347 C  
HETATM    2  N   UNL     1     -10.665  15.000  67.613  1.00  0.00    -0.268 N  
HETATM    3  C   UNL     1      -9.750  13.839  67.973  1.00  0.00    -0.232 C  
HETATM    4  C   UNL     1     -11.631  15.251  68.772  1.00  0.00    -0.362 C  
ENDROOT
BRANCH   2   5
HETATM    5  C   UNL     1      -9.851  16.273  67.266  1.00  0.00    -0.243 C  
BRANCH   5   6
HETATM    6  C   UNL     1     -10.174  17.506  68.124  1.00  0.00    -0.359 C  
HETATM    7  O   UNL     1     -10.869  18.485  67.362  1.00  0.00    -0.421 OA 
HETATM    8  H   UNL     1     -11.069  19.246  67.892  1.00  0.00     0.000 HD 
ENDBRANCH   5   6
ENDBRANCH   2   5
TORSDOF 2
ENDMDL
MODEL       77
REMARK 921   NORMALIZED FREE ENERGY PREDICTED BY IDOCK:   -2.01 KCAL/MOL
REMARK 922        TOTAL FREE ENERGY PREDICTED BY IDOCK:   -2.28 KCAL/MOL
REMARK 923 INTER-LIGAND FREE ENERGY PREDICTED BY IDOCK:   -2.27 KCAL/MOL
REMARK 924 INTRA-LIGAND FREE ENERGY PREDICTED BY IDOCK:   -0.02 KCAL/MOL
REMARK 927      BINDING AFFINITY PREDICTED BY RF-SCORE:    0.00 PKD
ROOT
HETATM    1  C   UNL     1      -8.510  11.995  67.005  1.00  0.00    -0.183 C  
HETATM    2  N   UNL     1     -10.011  12.097  66.741  1.00  0.00    -0.201 N  
HETATM    3  C   UNL     1     -10.397  13.565  66.648  1.00  0.00    -0.271 C  
HETATM    4  C   UNL     1     -10.748  11.462  67.921  1.00  0.00    -0.200 C  
ENDROOT
BRANCH   2   5
HETATM    5  C   UNL     1     -10.309  11.350  65.415  1.00  0.00    -0.279 C  
BRANCH   5   6
HETATM    6  C   UNL     1     -10.745  12.247  64.247  1.00  0.00    -0.351 C  
HETATM    7  O   UNL     1     -11.126  11.464  63.122  1.00  0.00    -0.783 OA 
HETATM    8  H   UNL     1     -11.395  12.019  62.400  1.00  0.00     0.000 HD 
ENDBRANCH   5   6
ENDBRANCH   2   5
TORSDOF 2
ENDMDL
MODEL       78
REMARK 921   NORMALIZED FREE ENERGY PREDICTED BY IDOCK:   -1.99 KCAL/MOL
REMARK 922        TOTAL FREE ENERGY PREDICTED BY IDOCK:   -2.27 KCAL/MOL
REMARK 923 INTER-LIGAND FREE ENERGY PREDICTED BY IDOCK:   -2.76 KCAL/MOL
REMARK 924 INTRA-LIGAND FREE ENERGY PREDICTED BY IDOCK:    0.49 KCAL/MOL
REMARK 927      BINDING AFFINITY PREDICTED BY RF-SCORE:    0.00 PKD
ROOT
HETATM    1  C   UNL     1     -12.649  14.819  73.255  1.00  0.00    -0.441 C  
HETATM    2  N   UNL     1     -13.191  14.156  71.990  1.00  0.00    -0.371 N  
HETATM    3  C   UNL     1     -14.387  14.954  71.490  1.00  0.00    -0.539 C  
HETATM    4  C   UNL     1     -13.651  12.743  72.350  1.00  0.00    -0.407 C  
ENDROOT
BRANCH   2   5
HETATM    5  C   UNL     1     -12.049  14.134  70.942  1.00  0.00    -0.344 C  
BRANCH   5   6
HETATM    6  C   UNL     1     -12.022  12.893  70.037  1.00  0.00    -0.309 C  
HETATM    7  O   UNL     1     -11.551  11.756  70.752  1.00  0.00    -0.351 OA 
HETATM    8  H   UNL     1     -11.534  10.989  70.192  1.00  0.00     0.000 HD 
ENDBRANCH   5   6
ENDBRANCH   2   5
TORSDOF 2
ENDMDL
MODEL       79
REMARK 921   NORMALIZED FREE ENERGY PREDICTED BY IDOCK:   -1.99 KCAL/MOL
REMARK 922        TOTAL FREE ENERGY PREDICTED BY IDOCK:   -2.27 KCAL/MOL
REMARK 923 INTER-LIGAND FREE ENERGY PREDICTED BY IDOCK:   -2.23 KCAL/MOL
REMARK 924 INTRA-LIGAND FREE ENERGY PREDICTED BY IDOCK:   -0.04 KCAL/MOL
REMARK 927      BINDING AFFINITY PREDICTED BY RF-SCORE:    0.00 PKD
ROOT
HETATM    1  C   UNL     1      -9.513  10.097  64.576  1.00  0.00    -0.303 C  
HETATM    2  N   UNL     1      -9.574  10.910  65.868  1.00  0.00    -0.206 N  
HETATM    3  C   UNL     1     -10.249  12.242  65.580  1.00  0.00    -0.261 C  
HETATM    4  C   UNL     1      -8.142  11.168  66.338  1.00  0.00    -0.159 C  
ENDROOT
BRANCH   2   5
HETATM    5  C   UNL     1     -10.374  10.084  66.908  1.00  0.00    -0.234 C  
BRANCH   5   6
HETATM    6  C   UNL     1     -10.832  10.869  68.147  1.00  0.00    -0.234 C  
HETATM    7  O   UNL     1     -12.234  10.733  68.342  1.00  0.00    -0.832 OA 
HETATM    8  H   UNL     1     -12.517  11.218  69.108  1.00  0.00     0.000 HD 
ENDBRANCH   5   6
ENDBRANCH   2   5
TORSDOF 2
ENDMDL
MODEL       80
REMARK 921   NORMALIZED FREE ENERGY PREDICTED BY IDOCK:   -1.98 KCAL/MOL
REMARK 922        TOTAL FREE ENERGY PREDICTED BY IDOCK:   -2.26 KCAL/MOL
REMARK 923 INTER-LIGAND FREE ENERGY PREDICTED BY IDOCK:   -2.21 KCAL/MOL
REMARK 924 INTRA-LIGAND FREE ENERGY PREDICTED BY IDOCK:   -0.04 KCAL/MOL
REMARK 927      BINDING AFFINITY PREDICTED BY RF-SCORE:    0.00 PKD
ROOT
HETATM    1  C   UNL     1     -11.981  14.466  66.845  1.00  0.00    -0.399 C  
HETATM    2  N   UNL     1     -10.625  14.483  66.142  1.00  0.00    -0.298 N  
HETATM    3  C   UNL     1     -10.826  14.137  64.675  1.00  0.00    -0.386 C  
HETATM    4  C   UNL     1      -9.738  13.417  66.789  1.00  0.00    -0.262 C  
ENDROOT
BRANCH   2   5
HETATM    5  C   UNL     1     -10.024  15.902  66.311  1.00  0.00    -0.298 C  
BRANCH   5   6
HETATM    6  C   UNL     1     -10.570  16.702  67.503  1.00  0.00    -0.311 C  
HETATM    7  O   UNL     1      -9.511  17.142  68.345  1.00  0.00    -0.258 OA 
HETATM    8  H   UNL     1      -9.850  17.637  69.082  1.00  0.00     0.000 HD 
ENDBRANCH   5   6
ENDBRANCH   2   5
TORSDOF 2
ENDMDL
MODEL       81
REMARK 921   NORMALIZED FREE ENERGY PREDICTED BY IDOCK:   -1.98 KCAL/MOL
REMARK 922        TOTAL FREE ENERGY PREDICTED BY IDOCK:   -2.25 KCAL/MOL
REMARK 923 INTER-LIGAND FREE ENERGY PREDICTED BY IDOCK:   -2.21 KCAL/MOL
REMARK 924 INTRA-LIGAND FREE ENERGY PREDICTED BY IDOCK:   -0.04 KCAL/MOL
REMARK 927      BINDING AFFINITY PREDICTED BY RF-SCORE:    0.00 PKD
ROOT
HETATM    1  C   UNL     1     -11.791  11.279  68.890  1.00  0.00    -0.345 C  
HETATM    2  N   UNL     1     -10.620  11.879  68.113  1.00  0.00    -0.201 N  
HETATM    3  C   UNL     1     -10.807  11.582  66.633  1.00  0.00    -0.287 C  
HETATM    4  C   UNL     1      -9.333  11.209  68.597  1.00  0.00    -0.184 C  
ENDROOT
BRANCH   2   5
HETATM    5  C   UNL     1     -10.605  13.405  68.386  1.00  0.00    -0.248 C  
BRANCH   5   6
HETATM    6  C   UNL     1     -11.871  14.156  67.947  1.00  0.00    -0.370 C  
HETATM    7  O   UNL     1     -12.530  14.734  69.068  1.00  0.00    -0.573 OA 
HETATM    8  H   UNL     1     -13.313  15.198  68.796  1.00  0.00     0.000 HD 
ENDBRANCH   5   6
ENDBRANCH   2   5
TORSDOF 2
ENDMDL
MODEL       82
REMARK 921   NORMALIZED FREE ENERGY PREDICTED BY IDOCK:   -1.97 KCAL/MOL
REMARK 922        TOTAL FREE ENERGY PREDICTED BY IDOCK:   -2.25 KCAL/MOL
REMARK 923 INTER-LIGAND FREE ENERGY PREDICTED BY IDOCK:   -2.20 KCAL/MOL
REMARK 924 INTRA-LIGAND FREE ENERGY PREDICTED BY IDOCK:   -0.05 KCAL/MOL
REMARK 927      BINDING AFFINITY PREDICTED BY RF-SCORE:    0.00 PKD
ROOT
HETATM    1  C   UNL     1      -8.865   6.516  70.643  1.00  0.00    -0.144 C  
HETATM    2  N   UNL     1     -10.249   6.335  71.264  1.00  0.00    -0.196 N  
HETATM    3  C   UNL     1     -10.344   4.938  71.858  1.00  0.00    -0.190 C  
HETATM    4  C   UNL     1     -11.292   6.477  70.155  1.00  0.00    -0.402 C  
ENDROOT
BRANCH   2   5
HETATM    5  C   UNL     1     -10.424   7.425  72.353  1.00  0.00    -0.233 C  
BRANCH   5   6
HETATM    6  C   UNL     1     -11.585   8.402  72.114  1.00  0.00    -0.374 C  
HETATM    7  O   UNL     1     -12.622   8.197  73.065  1.00  0.00    -0.656 OA 
HETATM    8  H   UNL     1     -13.340   8.801  72.917  1.00  0.00     0.000 HD 
ENDBRANCH   5   6
ENDBRANCH   2   5
TORSDOF 2
ENDMDL
MODEL       83
REMARK 921   NORMALIZED FREE ENERGY PREDICTED BY IDOCK:   -1.97 KCAL/MOL
REMARK 922        TOTAL FREE ENERGY PREDICTED BY IDOCK:   -2.24 KCAL/MOL
REMARK 923 INTER-LIGAND FREE ENERGY PREDICTED BY IDOCK:   -2.19 KCAL/MOL
REMARK 924 INTRA-LIGAND FREE ENERGY PREDICTED BY IDOCK:   -0.06 KCAL/MOL
REMARK 927      BINDING AFFINITY PREDICTED BY RF-SCORE:    0.00 PKD
ROOT
HETATM    1  C   UNL     1     -11.388   6.357  69.715  1.00  0.00    -0.427 C  
HETATM    2  N   UNL     1     -11.542   7.047  71.069  1.00  0.00    -0.303 N  
HETATM    3  C   UNL     1     -13.023   7.254  71.351  1.00  0.00    -0.373 C  
HETATM    4  C   UNL     1     -10.854   8.410  70.992  1.00  0.00    -0.238 C  
ENDROOT
BRANCH   2   5
HETATM    5  C   UNL     1     -10.885   6.138  72.139  1.00  0.00    -0.247 C  
BRANCH   5   6
HETATM    6  C   UNL     1      -9.787   6.810  72.978  1.00  0.00    -0.171 C  
HETATM    7  O   UNL     1     -10.246   7.065  74.300  1.00  0.00    -0.432 OA 
HETATM    8  H   UNL     1      -9.567   7.481  74.818  1.00  0.00     0.000 HD 
ENDBRANCH   5   6
ENDBRANCH   2   5
TORSDOF 2
ENDMDL
MODEL       84
REMARK 921   NORMALIZED FREE ENERGY PREDICTED BY IDOCK:   -1.97 KCAL/MOL
REMARK 922        TOTAL FREE ENERGY PREDICTED BY IDOCK:   -2.24 KCAL/MOL
REMARK 923 INTER-LIGAND FREE ENERGY PREDICTED BY IDOCK:   -2.17 KCAL/MOL
REMARK 924 INTRA-LIGAND FREE ENERGY PREDICTED BY IDOCK:   -0.07 KCAL/MOL
REMARK 927      BINDING AFFINITY PREDICTED BY RF-SCORE:    0.00 PKD
ROOT
HETATM    1  C   UNL     1      -9.852  16.569  66.088  1.00  0.00    -0.332 C  
HETATM    2  N   UNL     1      -9.797  17.906  66.825  1.00  0.00    -0.316 N  
HETATM    3  C   UNL     1     -10.552  17.776  68.139  1.00  0.00    -0.344 C  
HETATM    4  C   UNL     1     -10.486  18.959  65.956  1.00  0.00    -0.446 C  
ENDROOT
BRANCH   2   5
HETATM    5  C   UNL     1      -8.305  18.253  67.063  1.00  0.00    -0.248 C  
BRANCH   5   6
HETATM    6  C   UNL     1      -7.808  18.033  68.500  1.00  0.00    -0.303 C  
HETATM    7  O   UNL     1      -7.216  16.747  68.639  1.00  0.00    -0.183 OA 
HETATM    8  H   UNL     1      -6.909  16.612  69.528  1.00  0.00     0.000 HD 
ENDBRANCH   5   6
ENDBRANCH   2   5
TORSDOF 2
ENDMDL
MODEL       85
REMARK 921   NORMALIZED FREE ENERGY PREDICTED BY IDOCK:   -1.96 KCAL/MOL
REMARK 922        TOTAL FREE ENERGY PREDICTED BY IDOCK:   -2.23 KCAL/MOL
REMARK 923 INTER-LIGAND FREE ENERGY PREDICTED BY IDOCK:   -2.18 KCAL/MOL
REMARK 924 INTRA-LIGAND FREE ENERGY PREDICTED BY IDOCK:   -0.04 KCAL/MOL
REMARK 927      BINDING AFFINITY PREDICTED BY RF-SCORE:    0.00 PKD
ROOT
HETATM    1  C   UNL     1      -9.451  13.296  67.040  1.00  0.00    -0.243 C  
HETATM    2  N   UNL     1     -10.872  12.892  66.649  1.00  0.00    -0.265 N  
HETATM    3  C   UNL     1     -11.292  11.695  67.489  1.00  0.00    -0.298 C  
HETATM    4  C   UNL     1     -10.865  12.488  65.174  1.00  0.00    -0.288 C  
ENDROOT
BRANCH   2   5
HETATM    5  C   UNL     1     -11.796  14.111  66.901  1.00  0.00    -0.431 C  
BRANCH   5   6
HETATM    6  C   UNL     1     -11.066  15.441  67.140  1.00  0.00    -0.291 C  
HETATM    7  O   UNL     1     -11.466  16.022  68.376  1.00  0.00    -0.369 OA 
HETATM    8  H   UNL     1     -11.015  16.845  68.523  1.00  0.00     0.000 HD 
ENDBRANCH   5   6
ENDBRANCH   2   5
TORSDOF 2
ENDMDL
MODEL       86
REMARK 921   NORMALIZED FREE ENERGY PREDICTED BY IDOCK:   -1.94 KCAL/MOL
REMARK 922        TOTAL FREE ENERGY PREDICTED BY IDOCK:   -2.21 KCAL/MOL
REMARK 923 INTER-LIGAND FREE ENERGY PREDICTED BY IDOCK:   -2.17 KCAL/MOL
REMARK 924 INTRA-LIGAND FREE ENERGY PREDICTED BY IDOCK:   -0.05 KCAL/MOL
REMARK 927      BINDING AFFINITY PREDICTED BY RF-SCORE:    0.00 PKD
ROOT
HETATM    1  C   UNL     1     -11.672  12.480  66.869  1.00  0.00    -0.377 C  
HETATM    2  N   UNL     1     -11.037  12.643  68.249  1.00  0.00    -0.244 N  
HETATM    3  C   UNL     1      -9.715  11.890  68.275  1.00  0.00    -0.200 C  
HETATM    4  C   UNL     1     -11.979  12.030  69.285  1.00  0.00    -0.270 C  
ENDROOT
BRANCH   2   5
HETATM    5  C   UNL     1     -10.828  14.159  68.496  1.00  0.00    -0.252 C  
BRANCH   5   6
HETATM    6  C   UNL     1     -11.665  14.752  69.640  1.00  0.00    -0.314 C  
HETATM    7  O   UNL     1     -10.843  15.070  70.756  1.00  0.00    -0.507 OA 
HETATM    8  H   UNL     1     -11.360  15.437  71.463  1.00  0.00     0.000 HD 
ENDBRANCH   5   6
ENDBRANCH   2   5
TORSDOF 2
ENDMDL
MODEL       87
REMARK 921   NORMALIZED FREE ENERGY PREDICTED BY IDOCK:   -1.93 KCAL/MOL
REMARK 922        TOTAL FREE ENERGY PREDICTED BY IDOCK:   -2.20 KCAL/MOL
REMARK 923 INTER-LIGAND FREE ENERGY PREDICTED BY IDOCK:   -2.18 KCAL/MOL
REMARK 924 INTRA-LIGAND FREE ENERGY PREDICTED BY IDOCK:   -0.02 KCAL/MOL
REMARK 927      BINDING AFFINITY PREDICTED BY RF-SCORE:    0.00 PKD
ROOT
HETATM    1  C   UNL     1     -10.032  10.745  65.237  1.00  0.00    -0.282 C  
HETATM    2  N   UNL     1      -9.968  11.655  66.462  1.00  0.00    -0.199 N  
HETATM    3  C   UNL     1      -8.607  11.495  67.124  1.00  0.00    -0.155 C  
HETATM    4  C   UNL     1     -11.053  11.212  67.444  1.00  0.00    -0.307 C  
ENDROOT
BRANCH   2   5
HETATM    5  C   UNL     1     -10.195  13.111  65.982  1.00  0.00    -0.286 C  
BRANCH   5   6
HETATM    6  C   UNL     1     -11.158  13.261  64.795  1.00  0.00    -0.342 C  
HETATM    7  O   UNL     1     -11.052  14.557  64.218  1.00  0.00    -0.611 OA 
HETATM    8  H   UNL     1     -11.648  14.650  63.484  1.00  0.00     0.000 HD 
ENDBRANCH   5   6
ENDBRANCH   2   5
TORSDOF 2
ENDMDL
MODEL       88
REMARK 921   NORMALIZED FREE ENERGY PREDICTED BY IDOCK:   -1.93 KCAL/MOL
REMARK 922        TOTAL FREE ENERGY PREDICTED BY IDOCK:   -2.19 KCAL/MOL
REMARK 923 INTER-LIGAND FREE ENERGY PREDICTED BY IDOCK:   -2.18 KCAL/MOL
REMARK 924 INTRA-LIGAND FREE ENERGY PREDICTED BY IDOCK:   -0.02 KCAL/MOL
REMARK 927      BINDING AFFINITY PREDICTED BY RF-SCORE:    0.00 PKD
ROOT
HETATM    1  C   UNL     1      -8.880   7.198  70.124  1.00  0.00    -0.145 C  
HETATM    2  N   UNL     1     -10.281   7.261  69.519  1.00  0.00    -0.192 N  
HETATM    3  C   UNL     1     -10.507   8.651  68.942  1.00  0.00    -0.192 C  
HETATM    4  C   UNL     1     -11.296   7.015  70.635  1.00  0.00    -0.307 C  
ENDROOT
BRANCH   2   5
HETATM    5  C   UNL     1     -10.370   6.173  68.418  1.00  0.00    -0.200 C  
BRANCH   5   6
HETATM    6  C   UNL     1     -10.842   6.674  67.045  1.00  0.00    -0.397 C  
HETATM    7  O   UNL     1     -11.270   5.589  66.231  1.00  0.00    -0.746 OA 
HETATM    8  H   UNL     1     -11.562   5.899  65.382  1.00  0.00     0.000 HD 
ENDBRANCH   5   6
ENDBRANCH   2   5
TORSDOF 2
ENDMDL
MODEL       89
REMARK 921   NORMALIZED FREE ENERGY PREDICTED BY IDOCK:   -1.92 KCAL/MOL
REMARK 922        TOTAL FREE ENERGY PREDICTED BY IDOCK:   -2.19 KCAL/MOL
REMARK 923 INTER-LIGAND FREE ENERGY PREDICTED BY IDOCK:   -2.13 KCAL/MOL
REMARK 924 INTRA-LIGAND FREE ENERGY PREDICTED BY IDOCK:   -0.06 KCAL/MOL
REMARK 927      BINDING AFFINITY PREDICTED BY RF-SCORE:    0.00 PKD
ROOT
HETATM    1  C   UNL     1     -10.420   7.974  69.500  1.00  0.00    -0.226 C  
HETATM    2  N   UNL     1     -10.036   9.027  70.539  1.00  0.00    -0.200 N  
HETATM    3  C   UNL     1     -11.136  10.075  70.609  1.00  0.00    -0.335 C  
HETATM    4  C   UNL     1      -8.739   9.696  70.085  1.00  0.00    -0.231 C  
ENDROOT
BRANCH   2   5
HETATM    5  C   UNL     1      -9.857   8.304  71.899  1.00  0.00    -0.232 C  
BRANCH   5   6
HETATM    6  C   UNL     1     -10.939   7.265  72.230  1.00  0.00    -0.249 C  
HETATM    7  O   UNL     1     -11.774   7.723  73.286  1.00  0.00    -0.659 OA 
HETATM    8  H   UNL     1     -12.443   7.080  73.491  1.00  0.00     0.000 HD 
ENDBRANCH   5   6
ENDBRANCH   2   5
TORSDOF 2
ENDMDL
MODEL       90
REMARK 921   NORMALIZED FREE ENERGY PREDICTED BY IDOCK:   -1.92 KCAL/MOL
REMARK 922        TOTAL FREE ENERGY PREDICTED BY IDOCK:   -2.18 KCAL/MOL
REMARK 923 INTER-LIGAND FREE ENERGY PREDICTED BY IDOCK:   -2.14 KCAL/MOL
REMARK 924 INTRA-LIGAND FREE ENERGY PREDICTED BY IDOCK:   -0.04 KCAL/MOL
REMARK 927      BINDING AFFINITY PREDICTED BY RF-SCORE:    0.00 PKD
ROOT
HETATM    1  C   UNL     1      -8.148  13.636  68.138  1.00  0.00    -0.156 C  
HETATM    2  N   UNL     1      -9.319  13.023  67.373  1.00  0.00    -0.201 N  
HETATM    3  C   UNL     1      -8.822  11.810  66.600  1.00  0.00    -0.189 C  
HETATM    4  C   UNL     1      -9.840  14.065  66.382  1.00  0.00    -0.296 C  
ENDROOT
BRANCH   2   5
HETATM    5  C   UNL     1     -10.404  12.627  68.406  1.00  0.00    -0.235 C  
BRANCH   5   6
HETATM    6  C   UNL     1     -11.708  12.082  67.804  1.00  0.00    -0.309 C  
HETATM    7  O   UNL     1     -11.842  10.690  68.064  1.00  0.00    -0.755 OA 
HETATM    8  H   UNL     1     -12.648  10.353  67.692  1.00  0.00     0.000 HD 
ENDBRANCH   5   6
ENDBRANCH   2   5
TORSDOF 2
ENDMDL
MODEL       91
REMARK 921   NORMALIZED FREE ENERGY PREDICTED BY IDOCK:   -1.90 KCAL/MOL
REMARK 922        TOTAL FREE ENERGY PREDICTED BY IDOCK:   -2.16 KCAL/MOL
REMARK 923 INTER-LIGAND FREE ENERGY PREDICTED BY IDOCK:   -2.09 KCAL/MOL
REMARK 924 INTRA-LIGAND FREE ENERGY PREDICTED BY IDOCK:   -0.07 KCAL/MOL
REMARK 927      BINDING AFFINITY PREDICTED BY RF-SCORE:    0.00 PKD
ROOT
HETATM    1  C   UNL     1     -12.638   8.949  72.125  1.00  0.00    -0.399 C  
HETATM    2  N   UNL     1     -11.386   8.151  71.764  1.00  0.00    -0.263 N  
HETATM    3  C   UNL     1     -11.791   6.954  70.917  1.00  0.00    -0.376 C  
HETATM    4  C   UNL     1     -10.748   7.651  73.061  1.00  0.00    -0.391 C  
ENDROOT
BRANCH   2   5
HETATM    5  C   UNL     1     -10.432   9.095  70.988  1.00  0.00    -0.298 C  
BRANCH   5   6
HETATM    6  C   UNL     1      -8.938   8.894  71.283  1.00  0.00    -0.243 C  
HETATM    7  O   UNL     1      -8.370   7.941  70.392  1.00  0.00    -0.118 OA 
HETATM    8  H   UNL     1      -7.446   7.817  70.575  1.00  0.00     0.000 HD 
ENDBRANCH   5   6
ENDBRANCH   2   5
TORSDOF 2
ENDMDL
MODEL       92
REMARK 921   NORMALIZED FREE ENERGY PREDICTED BY IDOCK:   -1.89 KCAL/MOL
REMARK 922        TOTAL FREE ENERGY PREDICTED BY IDOCK:   -2.16 KCAL/MOL
REMARK 923 INTER-LIGAND FREE ENERGY PREDICTED BY IDOCK:   -2.12 KCAL/MOL
REMARK 924 INTRA-LIGAND FREE ENERGY PREDICTED BY IDOCK:   -0.04 KCAL/MOL
REMARK 927      BINDING AFFINITY PREDICTED BY RF-SCORE:    0.00 PKD
ROOT
HETATM    1  C   UNL     1     -10.238  17.732  68.637  1.00  0.00    -0.377 C  
HETATM    2  N   UNL     1      -8.850  18.068  68.093  1.00  0.00    -0.266 N  
HETATM    3  C   UNL     1      -8.425  19.425  68.633  1.00  0.00    -0.359 C  
HETATM    4  C   UNL     1      -8.941  18.144  66.568  1.00  0.00    -0.275 C  
ENDROOT
BRANCH   2   5
HETATM    5  C   UNL     1      -7.880  16.948  68.549  1.00  0.00    -0.240 C  
BRANCH   5   6
HETATM    6  C   UNL     1      -8.495  15.542  68.614  1.00  0.00    -0.174 C  
HETATM    7  O   UNL     1      -8.167  14.903  69.842  1.00  0.00    -0.427 OA 
HETATM    8  H   UNL     1      -8.547  14.033  69.882  1.00  0.00     0.000 HD 
ENDBRANCH   5   6
ENDBRANCH   2   5
TORSDOF 2
ENDMDL
MODEL       93
REMARK 921   NORMALIZED FREE ENERGY PREDICTED BY IDOCK:   -1.89 KCAL/MOL
REMARK 922        TOTAL FREE ENERGY PREDICTED BY IDOCK:   -2.15 KCAL/MOL
REMARK 923 INTER-LIGAND FREE ENERGY PREDICTED BY IDOCK:   -2.11 KCAL/MOL
REMARK 924 INTRA-LIGAND FREE ENERGY PREDICTED BY IDOCK:   -0.04 KCAL/MOL
REMARK 927      BINDING AFFINITY PREDICTED BY RF-SCORE:    0.00 PKD
ROOT
HETATM    1  C   UNL     1      -6.471  18.249  66.866  1.00  0.00    -0.179 C  
HETATM    2  N   UNL     1      -7.089  18.492  68.242  1.00  0.00    -0.249 N  
HETATM    3  C   UNL     1      -7.772  17.214  68.707  1.00  0.00    -0.259 C  
HETATM    4  C   UNL     1      -8.138  19.596  68.106  1.00  0.00    -0.318 C  
ENDROOT
BRANCH   2   5
HETATM    5  C   UNL     1      -5.948  18.905  69.206  1.00  0.00    -0.238 C  
BRANCH   5   6
HETATM    6  C   UNL     1      -6.319  19.997  70.222  1.00  0.00    -0.319 C  
HETATM    7  O   UNL     1      -5.424  21.098  70.130  1.00  0.00    -0.553 OA 
HETATM    8  H   UNL     1      -5.653  21.773  70.758  1.00  0.00     0.000 HD 
ENDBRANCH   5   6
ENDBRANCH   2   5
TORSDOF 2
ENDMDL
MODEL       94
REMARK 921   NORMALIZED FREE ENERGY PREDICTED BY IDOCK:   -1.84 KCAL/MOL
REMARK 922        TOTAL FREE ENERGY PREDICTED BY IDOCK:   -2.10 KCAL/MOL
REMARK 923 INTER-LIGAND FREE ENERGY PREDICTED BY IDOCK:   -2.06 KCAL/MOL
REMARK 924 INTRA-LIGAND FREE ENERGY PREDICTED BY IDOCK:   -0.04 KCAL/MOL
REMARK 927      BINDING AFFINITY PREDICTED BY RF-SCORE:    0.00 PKD
ROOT
HETATM    1  C   UNL     1      -8.214  19.840  66.270  1.00  0.00    -0.350 C  
HETATM    2  N   UNL     1      -8.710  18.792  67.265  1.00  0.00    -0.271 N  
HETATM    3  C   UNL     1      -9.717  17.889  66.568  1.00  0.00    -0.329 C  
HETATM    4  C   UNL     1      -9.407  19.519  68.416  1.00  0.00    -0.367 C  
ENDROOT
BRANCH   2   5
HETATM    5  C   UNL     1      -7.479  17.991  67.760  1.00  0.00    -0.211 C  
BRANCH   5   6
HETATM    6  C   UNL     1      -6.599  17.400  66.648  1.00  0.00    -0.229 C  
HETATM    7  O   UNL     1      -6.398  16.006  66.849  1.00  0.00    -0.306 OA 
HETATM    8  H   UNL     1      -5.854  15.641  66.162  1.00  0.00     0.000 HD 
ENDBRANCH   5   6
ENDBRANCH   2   5
TORSDOF 2
ENDMDL
MODEL       95
REMARK 921   NORMALIZED FREE ENERGY PREDICTED BY IDOCK:   -1.83 KCAL/MOL
REMARK 922        TOTAL FREE ENERGY PREDICTED BY IDOCK:   -2.09 KCAL/MOL
REMARK 923 INTER-LIGAND FREE ENERGY PREDICTED BY IDOCK:   -2.05 KCAL/MOL
REMARK 924 INTRA-LIGAND FREE ENERGY PREDICTED BY IDOCK:   -0.03 KCAL/MOL
REMARK 927      BINDING AFFINITY PREDICTED BY RF-SCORE:    0.00 PKD
ROOT
HETATM    1  C   UNL     1      -9.353   5.534  72.326  1.00  0.00    -0.145 C  
HETATM    2  N   UNL     1     -10.217   6.770  72.087  1.00  0.00    -0.193 N  
HETATM    3  C   UNL     1      -9.348   7.873  71.502  1.00  0.00    -0.143 C  
HETATM    4  C   UNL     1     -10.771   7.235  73.435  1.00  0.00    -0.369 C  
ENDROOT
BRANCH   2   5
HETATM    5  C   UNL     1     -11.354   6.370  71.113  1.00  0.00    -0.319 C  
BRANCH   5   6
HETATM    6  C   UNL     1     -10.893   5.982  69.700  1.00  0.00    -0.369 C  
HETATM    7  O   UNL     1     -11.304   6.957  68.748  1.00  0.00    -0.514 OA 
HETATM    8  H   UNL     1     -11.019   6.717  67.875  1.00  0.00     0.000 HD 
ENDBRANCH   5   6
ENDBRANCH   2   5
TORSDOF 2
ENDMDL
MODEL       96
REMARK 921   NORMALIZED FREE ENERGY PREDICTED BY IDOCK:   -1.82 KCAL/MOL
REMARK 922        TOTAL FREE ENERGY PREDICTED BY IDOCK:   -2.07 KCAL/MOL
REMARK 923 INTER-LIGAND FREE ENERGY PREDICTED BY IDOCK:   -2.03 KCAL/MOL
REMARK 924 INTRA-LIGAND FREE ENERGY PREDICTED BY IDOCK:   -0.04 KCAL/MOL
REMARK 927      BINDING AFFINITY PREDICTED BY RF-SCORE:    0.00 PKD
ROOT
HETATM    1  C   UNL     1     -10.863  15.967  64.988  1.00  0.00    -0.426 C  
HETATM    2  N   UNL     1     -10.165  16.534  66.222  1.00  0.00    -0.319 N  
HETATM    3  C   UNL     1     -10.760  15.889  67.465  1.00  0.00    -0.318 C  
HETATM    4  C   UNL     1     -10.427  18.040  66.269  1.00  0.00    -0.335 C  
ENDROOT
BRANCH   2   5
HETATM    5  C   UNL     1      -8.652  16.224  66.094  1.00  0.00    -0.307 C  
BRANCH   5   6
HETATM    6  C   UNL     1      -8.138  15.104  67.012  1.00  0.00    -0.205 C  
HETATM    7  O   UNL     1      -7.184  15.608  67.939  1.00  0.00    -0.118 OA 
HETATM    8  H   UNL     1      -6.866  14.915  68.506  1.00  0.00     0.000 HD 
ENDBRANCH   5   6
ENDBRANCH   2   5
TORSDOF 2
ENDMDL
MODEL       97
REMARK 921   NORMALIZED FREE ENERGY PREDICTED BY IDOCK:   -1.80 KCAL/MOL
REMARK 922        TOTAL FREE ENERGY PREDICTED BY IDOCK:   -2.05 KCAL/MOL
REMARK 923 INTER-LIGAND FREE ENERGY PREDICTED BY IDOCK:   -2.12 KCAL/MOL
REMARK 924 INTRA-LIGAND FREE ENERGY PREDICTED BY IDOCK:    0.06 KCAL/MOL
REMARK 927      BINDING AFFINITY PREDICTED BY RF-SCORE:    0.00 PKD
ROOT
HETATM    1  C   UNL     1      -9.257  11.839  68.262  1.00  0.00    -0.188 C  
HETATM    2  N   UNL     1     -10.597  11.918  67.532  1.00  0.00    -0.213 N  
HETATM    3  C   UNL     1     -11.708  11.538  68.499  1.00  0.00    -0.313 C  
HETATM    4  C   UNL     1     -10.573  10.911  66.381  1.00  0.00    -0.229 C  
ENDROOT
BRANCH   2   5
HETATM    5  C   UNL     1     -10.769  13.369  67.016  1.00  0.00    -0.268 C  
BRANCH   5   6
HETATM    6  C   UNL     1     -11.034  13.495  65.508  1.00  0.00    -0.288 C  
HETATM    7  O   UNL     1      -9.814  13.626  64.788  1.00  0.00    -0.616 OA 
HETATM    8  H   UNL     1      -9.978  13.704  63.856  1.00  0.00     0.000 HD 
ENDBRANCH   5   6
ENDBRANCH   2   5
TORSDOF 2
ENDMDL
MODEL       98
REMARK 921   NORMALIZED FREE ENERGY PREDICTED BY IDOCK:   -1.80 KCAL/MOL
REMARK 922        TOTAL FREE ENERGY PREDICTED BY IDOCK:   -2.05 KCAL/MOL
REMARK 923 INTER-LIGAND FREE ENERGY PREDICTED BY IDOCK:   -2.01 KCAL/MOL
REMARK 924 INTRA-LIGAND FREE ENERGY PREDICTED BY IDOCK:   -0.04 KCAL/MOL
REMARK 927      BINDING AFFINITY PREDICTED BY RF-SCORE:    0.00 PKD
ROOT
HETATM    1  C   UNL     1      -7.416  17.020  67.361  1.00  0.00    -0.161 C  
HETATM    2  N   UNL     1      -8.002  18.430  67.410  1.00  0.00    -0.237 N  
HETATM    3  C   UNL     1      -7.487  19.220  66.216  1.00  0.00    -0.271 C  
HETATM    4  C   UNL     1      -7.521  19.103  68.697  1.00  0.00    -0.334 C  
ENDROOT
BRANCH   2   5
HETATM    5  C   UNL     1      -9.546  18.301  67.379  1.00  0.00    -0.283 C  
BRANCH   5   6
HETATM    6  C   UNL     1     -10.164  17.593  68.594  1.00  0.00    -0.377 C  
HETATM    7  O   UNL     1     -10.946  16.477  68.185  1.00  0.00    -0.346 OA 
HETATM    8  H   UNL     1     -11.328  16.039  68.936  1.00  0.00     0.000 HD 
ENDBRANCH   5   6
ENDBRANCH   2   5
TORSDOF 2
ENDMDL
MODEL       99
REMARK 921   NORMALIZED FREE ENERGY PREDICTED BY IDOCK:   -1.80 KCAL/MOL
REMARK 922        TOTAL FREE ENERGY PREDICTED BY IDOCK:   -2.05 KCAL/MOL
REMARK 923 INTER-LIGAND FREE ENERGY PREDICTED BY IDOCK:   -1.99 KCAL/MOL
REMARK 924 INTRA-LIGAND FREE ENERGY PREDICTED BY IDOCK:   -0.06 KCAL/MOL
REMARK 927      BINDING AFFINITY PREDICTED BY RF-SCORE:    0.00 PKD
ROOT
HETATM    1  C   UNL     1     -10.115  15.732  66.129  1.00  0.00    -0.318 C  
HETATM    2  N   UNL     1      -9.679  16.756  67.176  1.00  0.00    -0.246 N  
HETATM    3  C   UNL     1     -10.533  18.006  67.027  1.00  0.00    -0.351 C  
HETATM    4  C   UNL     1      -8.216  17.117  66.911  1.00  0.00    -0.221 C  
ENDROOT
BRANCH   2   5
HETATM    5  C   UNL     1      -9.861  16.110  68.573  1.00  0.00    -0.226 C  
BRANCH   5   6
HETATM    6  C   UNL     1      -8.561  15.662  69.257  1.00  0.00    -0.262 C  
HETATM    7  O   UNL     1      -8.461  14.243  69.275  1.00  0.00    -0.361 OA 
HETATM    8  H   UNL     1      -7.657  13.966  69.698  1.00  0.00     0.000 HD 
ENDBRANCH   5   6
ENDBRANCH   2   5
TORSDOF 2
ENDMDL
MODEL      100
REMARK 921   NORMALIZED FREE ENERGY PREDICTED BY IDOCK:   -1.79 KCAL/MOL
REMARK 922        TOTAL FREE ENERGY PREDICTED BY IDOCK:   -2.04 KCAL/MOL
REMARK 923 INTER-LIGAND FREE ENERGY PREDICTED BY IDOCK:   -2.02 KCAL/MOL
REMARK 924 INTRA-LIGAND FREE ENERGY PREDICTED BY IDOCK:   -0.02 KCAL/MOL
REMARK 927      BINDING AFFINITY PREDICTED BY RF-SCORE:    0.00 PKD
ROOT
HETATM    1  C   UNL     1     -10.285   6.442  71.458  1.00  0.00    -0.194 C  
HETATM    2  N   UNL     1     -10.399   7.469  72.583  1.00  0.00    -0.235 N  
HETATM    3  C   UNL     1     -10.372   6.742  73.919  1.00  0.00    -0.368 C  
HETATM    4  C   UNL     1     -11.739   8.192  72.436  1.00  0.00    -0.399 C  
ENDROOT
BRANCH   2   5
HETATM    5  C   UNL     1      -9.206   8.450  72.449  1.00  0.00    -0.275 C  
BRANCH   5   6
HETATM    6  C   UNL     1      -8.621   8.573  71.034  1.00  0.00    -0.158 C  
HETATM    7  O   UNL     1      -8.189   9.905  70.780  1.00  0.00    -0.393 OA 
HETATM    8  H   UNL     1      -7.828   9.981  69.905  1.00  0.00     0.000 HD 
ENDBRANCH   5   6
ENDBRANCH   2   5
TORSDOF 2
ENDMDL
MODEL      101
REMARK 921   NORMALIZED FREE ENERGY PREDICTED BY IDOCK:   -1.79 KCAL/MOL
REMARK 922        TOTAL FREE ENERGY PREDICTED BY IDOCK:   -2.04 KCAL/MOL
REMARK 923 INTER-LIGAND FREE ENERGY PREDICTED BY IDOCK:   -1.99 KCAL/MOL
REMARK 924 INTRA-LIGAND FREE ENERGY PREDICTED BY IDOCK:   -0.05 KCAL/MOL
REMARK 927      BINDING AFFINITY PREDICTED BY RF-SCORE:    0.00 PKD
ROOT
HETATM    1  C   UNL     1     -10.664   7.463  67.438  1.00  0.00    -0.278 C  
HETATM    2  N   UNL     1     -10.255   7.292  68.900  1.00  0.00    -0.188 N  
HETATM    3  C   UNL     1      -8.825   6.776  68.954  1.00  0.00    -0.128 C  
HETATM    4  C   UNL     1     -11.182   6.257  69.538  1.00  0.00    -0.430 C  
ENDROOT
BRANCH   2   5
HETATM    5  C   UNL     1     -10.383   8.673  69.591  1.00  0.00    -0.213 C  
BRANCH   5   6
HETATM    6  C   UNL     1     -11.424   8.742  70.719  1.00  0.00    -0.270 C  
HETATM    7  O   UNL     1     -12.463   9.658  70.395  1.00  0.00    -0.483 OA 
HETATM    8  H   UNL     1     -13.105   9.700  71.093  1.00  0.00     0.000 HD 
ENDBRANCH   5   6
ENDBRANCH   2   5
TORSDOF 2
ENDMDL
MODEL      102
REMARK 921   NORMALIZED FREE ENERGY PREDICTED BY IDOCK:   -1.78 KCAL/MOL
REMARK 922        TOTAL FREE ENERGY PREDICTED BY IDOCK:   -2.03 KCAL/MOL
REMARK 923 INTER-LIGAND FREE ENERGY PREDICTED BY IDOCK:   -2.01 KCAL/MOL
REMARK 924 INTRA-LIGAND FREE ENERGY PREDICTED BY IDOCK:   -0.03 KCAL/MOL
REMARK 927      BINDING AFFINITY PREDICTED BY RF-SCORE:    0.00 PKD
ROOT
HETATM    1  C   UNL     1      -9.002   9.755  66.093  1.00  0.00    -0.152 C  
HETATM    2  N   UNL     1      -9.855  10.169  67.292  1.00  0.00    -0.176 N  
HETATM    3  C   UNL     1     -10.883  11.193  66.835  1.00  0.00    -0.279 C  
HETATM    4  C   UNL     1      -8.938  10.813  68.332  1.00  0.00    -0.153 C  
ENDROOT
BRANCH   2   5
HETATM    5  C   UNL     1     -10.538   8.893  67.848  1.00  0.00    -0.183 C  
BRANCH   5   6
HETATM    6  C   UNL     1     -10.375   7.637  66.979  1.00  0.00    -0.330 C  
HETATM    7  O   UNL     1     -11.534   6.815  67.054  1.00  0.00    -0.735 OA 
HETATM    8  H   UNL     1     -11.432   6.039  66.517  1.00  0.00     0.000 HD 
ENDBRANCH   5   6
ENDBRANCH   2   5
TORSDOF 2
ENDMDL
MODEL      103
REMARK 921   NORMALIZED FREE ENERGY PREDICTED BY IDOCK:   -1.76 KCAL/MOL
REMARK 922        TOTAL FREE ENERGY PREDICTED BY IDOCK:   -2.01 KCAL/MOL
REMARK 923 INTER-LIGAND FREE ENERGY PREDICTED BY IDOCK:   -1.94 KCAL/MOL
REMARK 924 INTRA-LIGAND FREE ENERGY PREDICTED BY IDOCK:   -0.07 KCAL/MOL
REMARK 927      BINDING AFFINITY PREDICTED BY RF-SCORE:    0.00 PKD
ROOT
HETATM    1  C   UNL     1      -8.662   7.873  69.005  1.00  0.00    -0.138 C  
HETATM    2  N   UNL     1     -10.115   8.325  68.866  1.00  0.00    -0.194 N  
HETATM    3  C   UNL     1     -10.875   7.933  70.123  1.00  0.00    -0.243 C  
HETATM    4  C   UNL     1     -10.728   7.600  67.667  1.00  0.00    -0.175 C  
ENDROOT
BRANCH   2   5
HETATM    5  C   UNL     1     -10.114   9.861  68.662  1.00  0.00    -0.175 C  
BRANCH   5   6
HETATM    6  C   UNL     1     -11.201  10.392  67.715  1.00  0.00    -0.237 C  
HETATM    7  O   UNL     1     -12.394  10.689  68.431  1.00  0.00    -0.776 OA 
HETATM    8  H   UNL     1     -13.066  11.017  67.845  1.00  0.00     0.000 HD 
ENDBRANCH   5   6
ENDBRANCH   2   5
TORSDOF 2
ENDMDL
MODEL      104
REMARK 921   NORMALIZED FREE ENERGY PREDICTED BY IDOCK:   -1.74 KCAL/MOL
REMARK 922        TOTAL FREE ENERGY PREDICTED BY IDOCK:   -1.99 KCAL/MOL
REMARK 923 INTER-LIGAND FREE ENERGY PREDICTED BY IDOCK:   -1.94 KCAL/MOL
REMARK 924 INTRA-LIGAND FREE ENERGY PREDICTED BY IDOCK:   -0.05 KCAL/MOL
REMARK 927      BINDING AFFINITY PREDICTED BY RF-SCORE:    0.00 PKD
ROOT
HETATM    1  C   UNL     1     -11.002  10.009  70.121  1.00  0.00    -0.310 C  
HETATM    2  N   UNL     1      -9.996   9.073  69.452  1.00  0.00    -0.186 N  
HETATM    3  C   UNL     1      -8.588   9.555  69.769  1.00  0.00    -0.192 C  
HETATM    4  C   UNL     1     -10.215   9.139  67.940  1.00  0.00    -0.216 C  
ENDROOT
BRANCH   2   5
HETATM    5  C   UNL     1     -10.242   7.645  70.001  1.00  0.00    -0.213 C  
BRANCH   5   6
HETATM    6  C   UNL     1     -11.356   7.536  71.053  1.00  0.00    -0.273 C  
HETATM    7  O   UNL     1     -12.469   6.814  70.538  1.00  0.00    -0.553 OA 
HETATM    8  H   UNL     1     -13.158   6.747  71.188  1.00  0.00     0.000 HD 
ENDBRANCH   5   6
ENDBRANCH   2   5
TORSDOF 2
ENDMDL
MODEL      105
REMARK 921   NORMALIZED FREE ENERGY PREDICTED BY IDOCK:   -1.73 KCAL/MOL
REMARK 922        TOTAL FREE ENERGY PREDICTED BY IDOCK:   -1.98 KCAL/MOL
REMARK 923 INTER-LIGAND FREE ENERGY PREDICTED BY IDOCK:   -1.93 KCAL/MOL
REMARK 924 INTRA-LIGAND FREE ENERGY PREDICTED BY IDOCK:   -0.05 KCAL/MOL
REMARK 927      BINDING AFFINITY PREDICTED BY RF-SCORE:    0.00 PKD
ROOT
HETATM    1  C   UNL     1     -10.827   8.724  69.740  1.00  0.00    -0.193 C  
HETATM    2  N   UNL     1     -11.068   7.396  70.456  1.00  0.00    -0.257 N  
HETATM    3  C   UNL     1     -11.273   6.306  69.415  1.00  0.00    -0.420 C  
HETATM    4  C   UNL     1     -12.339   7.530  71.295  1.00  0.00    -0.327 C  
ENDROOT
BRANCH   2   5
HETATM    5  C   UNL     1      -9.829   7.106  71.341  1.00  0.00    -0.176 C  
BRANCH   5   6
HETATM    6  C   UNL     1      -8.802   8.246  71.416  1.00  0.00    -0.162 C  
HETATM    7  O   UNL     1      -8.653   8.705  72.754  1.00  0.00    -0.394 OA 
HETATM    8  H   UNL     1      -8.018   9.410  72.800  1.00  0.00     0.000 HD 
ENDBRANCH   5   6
ENDBRANCH   2   5
TORSDOF 2
ENDMDL
MODEL      106
REMARK 921   NORMALIZED FREE ENERGY PREDICTED BY IDOCK:   -1.71 KCAL/MOL
REMARK 922        TOTAL FREE ENERGY PREDICTED BY IDOCK:   -1.95 KCAL/MOL
REMARK 923 INTER-LIGAND FREE ENERGY PREDICTED BY IDOCK:   -1.92 KCAL/MOL
REMARK 924 INTRA-LIGAND FREE ENERGY PREDICTED BY IDOCK:   -0.03 KCAL/MOL
REMARK 927      BINDING AFFINITY PREDICTED BY RF-SCORE:    0.00 PKD
ROOT
HETATM    1  C   UNL     1      -8.133  14.836  67.429  1.00  0.00    -0.198 C  
HETATM    2  N   UNL     1      -9.277  13.940  66.957  1.00  0.00    -0.241 N  
HETATM    3  C   UNL     1     -10.289  13.796  68.084  1.00  0.00    -0.252 C  
HETATM    4  C   UNL     1      -8.701  12.562  66.627  1.00  0.00    -0.100 C  
ENDROOT
BRANCH   2   5
HETATM    5  C   UNL     1      -9.913  14.604  65.709  1.00  0.00    -0.338 C  
BRANCH   5   6
HETATM    6  C   UNL     1     -10.985  13.763  64.999  1.00  0.00    -0.357 C  
HETATM    7  O   UNL     1     -12.124  14.555  64.686  1.00  0.00    -0.438 OA 
HETATM    8  H   UNL     1     -12.786  14.035  64.247  1.00  0.00     0.000 HD 
ENDBRANCH   5   6
ENDBRANCH   2   5
TORSDOF 2
ENDMDL
MODEL      107
REMARK 921   NORMALIZED FREE ENERGY PREDICTED BY IDOCK:   -1.71 KCAL/MOL
REMARK 922        TOTAL FREE ENERGY PREDICTED BY IDOCK:   -1.95 KCAL/MOL
REMARK 923 INTER-LIGAND FREE ENERGY PREDICTED BY IDOCK:   -1.93 KCAL/MOL
REMARK 924 INTRA-LIGAND FREE ENERGY PREDICTED BY IDOCK:   -0.02 KCAL/MOL
REMARK 927      BINDING AFFINITY PREDICTED BY RF-SCORE:    0.00 PKD
ROOT
HETATM    1  C   UNL     1      -9.640  12.139  68.639  1.00  0.00    -0.060 C  
HETATM    2  N   UNL     1     -10.822  11.263  69.049  1.00  0.00    -0.212 N  
HETATM    3  C   UNL     1     -10.324  10.167  69.978  1.00  0.00    -0.250 C  
HETATM    4  C   UNL     1     -11.402  10.622  67.788  1.00  0.00    -0.244 C  
ENDROOT
BRANCH   2   5
HETATM    5  C   UNL     1     -11.861  12.172  69.754  1.00  0.00    -0.327 C  
BRANCH   5   6
HETATM    6  C   UNL     1     -11.693  13.677  69.491  1.00  0.00    -0.322 C  
HETATM    7  O   UNL     1     -12.910  14.372  69.738  1.00  0.00    -0.517 OA 
HETATM    8  H   UNL     1     -12.806  15.301  69.575  1.00  0.00     0.000 HD 
ENDBRANCH   5   6
ENDBRANCH   2   5
TORSDOF 2
ENDMDL
MODEL      108
REMARK 921   NORMALIZED FREE ENERGY PREDICTED BY IDOCK:   -1.70 KCAL/MOL
REMARK 922        TOTAL FREE ENERGY PREDICTED BY IDOCK:   -1.94 KCAL/MOL
REMARK 923 INTER-LIGAND FREE ENERGY PREDICTED BY IDOCK:   -1.93 KCAL/MOL
REMARK 924 INTRA-LIGAND FREE ENERGY PREDICTED BY IDOCK:   -0.01 KCAL/MOL
REMARK 927      BINDING AFFINITY PREDICTED BY RF-SCORE:    0.00 PKD
ROOT
HETATM    1  C   UNL     1     -10.667   7.801  69.706  1.00  0.00    -0.236 C  
HETATM    2  N   UNL     1     -10.319   9.185  70.252  1.00  0.00    -0.200 N  
HETATM    3  C   UNL     1     -11.534   9.749  70.974  1.00  0.00    -0.383 C  
HETATM    4  C   UNL     1      -9.976  10.093  69.071  1.00  0.00    -0.208 C  
ENDROOT
BRANCH   2   5
HETATM    5  C   UNL     1      -9.115   9.024  71.215  1.00  0.00    -0.232 C  
BRANCH   5   6
HETATM    6  C   UNL     1      -9.432   8.314  72.540  1.00  0.00    -0.286 C  
HETATM    7  O   UNL     1      -8.373   8.488  73.474  1.00  0.00    -0.381 OA 
HETATM    8  H   UNL     1      -8.570   8.049  74.292  1.00  0.00     0.000 HD 
ENDBRANCH   5   6
ENDBRANCH   2   5
TORSDOF 2
ENDMDL
MODEL      109
REMARK 921   NORMALIZED FREE ENERGY PREDICTED BY IDOCK:   -1.70 KCAL/MOL
REMARK 922        TOTAL FREE ENERGY PREDICTED BY IDOCK:   -1.94 KCAL/MOL
REMARK 923 INTER-LIGAND FREE ENERGY PREDICTED BY IDOCK:   -1.90 KCAL/MOL
REMARK 924 INTRA-LIGAND FREE ENERGY PREDICTED BY IDOCK:   -0.04 KCAL/MOL
REMARK 927      BINDING AFFINITY PREDICTED BY RF-SCORE:    0.00 PKD
ROOT
HETATM    1  C   UNL     1      -9.873   4.698  66.942  1.00  0.00    -0.213 C  
HETATM    2  N   UNL     1      -9.760   6.031  67.678  1.00  0.00    -0.112 N  
HETATM    3  C   UNL     1     -10.620   7.063  66.964  1.00  0.00    -0.341 C  
HETATM    4  C   UNL     1      -8.299   6.482  67.631  1.00  0.00    -0.121 C  
ENDROOT
BRANCH   2   5
HETATM    5  C   UNL     1     -10.240   5.808  69.135  1.00  0.00    -0.223 C  
BRANCH   5   6
HETATM    6  C   UNL     1     -10.916   7.022  69.791  1.00  0.00    -0.250 C  
HETATM    7  O   UNL     1     -12.284   6.749  70.069  1.00  0.00    -0.641 OA 
HETATM    8  H   UNL     1     -12.702   7.500  70.474  1.00  0.00     0.000 HD 
ENDBRANCH   5   6
ENDBRANCH   2   5
TORSDOF 2
ENDMDL
MODEL      110
REMARK 921   NORMALIZED FREE ENERGY PREDICTED BY IDOCK:   -1.67 KCAL/MOL
REMARK 922        TOTAL FREE ENERGY PREDICTED BY IDOCK:   -1.91 KCAL/MOL
REMARK 923 INTER-LIGAND FREE ENERGY PREDICTED BY IDOCK:   -1.87 KCAL/MOL
REMARK 924 INTRA-LIGAND FREE ENERGY PREDICTED BY IDOCK:   -0.04 KCAL/MOL
REMARK 927      BINDING AFFINITY PREDICTED BY RF-SCORE:    0.00 PKD
ROOT
HETATM    1  C   UNL     1      -8.077  11.185  66.900  1.00  0.00    -0.150 C  
HETATM    2  N   UNL     1      -9.219  10.337  67.457  1.00  0.00    -0.141 N  
HETATM    3  C   UNL     1      -8.656   9.361  68.479  1.00  0.00    -0.123 C  
HETATM    4  C   UNL     1      -9.835   9.547  66.301  1.00  0.00    -0.266 C  
ENDROOT
BRANCH   2   5
HETATM    5  C   UNL     1     -10.250  11.298  68.102  1.00  0.00    -0.180 C  
BRANCH   5   6
HETATM    6  C   UNL     1     -11.046  10.705  69.275  1.00  0.00    -0.252 C  
HETATM    7  O   UNL     1     -12.445  10.813  69.043  1.00  0.00    -0.757 OA 
HETATM    8  H   UNL     1     -12.936  10.447  69.768  1.00  0.00     0.000 HD 
ENDBRANCH   5   6
ENDBRANCH   2   5
TORSDOF 2
ENDMDL
MODEL      111
REMARK 921   NORMALIZED FREE ENERGY PREDICTED BY IDOCK:   -1.66 KCAL/MOL
REMARK 922        TOTAL FREE ENERGY PREDICTED BY IDOCK:   -1.90 KCAL/MOL
REMARK 923 INTER-LIGAND FREE ENERGY PREDICTED BY IDOCK:   -1.87 KCAL/MOL
REMARK 924 INTRA-LIGAND FREE ENERGY PREDICTED BY IDOCK:   -0.03 KCAL/MOL
REMARK 927      BINDING AFFINITY PREDICTED BY RF-SCORE:    0.00 PKD
ROOT
HETATM    1  C   UNL     1     -10.547   8.240  72.330  1.00  0.00    -0.337 C  
HETATM    2  N   UNL     1     -10.220   7.515  71.026  1.00  0.00    -0.191 N  
HETATM    3  C   UNL     1     -11.485   6.859  70.495  1.00  0.00    -0.342 C  
HETATM    4  C   UNL     1      -9.185   6.430  71.328  1.00  0.00    -0.156 C  
ENDROOT
BRANCH   2   5
HETATM    5  C   UNL     1      -9.668   8.566  70.028  1.00  0.00    -0.170 C  
BRANCH   5   6
HETATM    6  C   UNL     1     -10.398   8.626  68.678  1.00  0.00    -0.193 C  
HETATM    7  O   UNL     1     -11.292   9.732  68.635  1.00  0.00    -0.481 OA 
HETATM    8  H   UNL     1     -11.743   9.769  67.800  1.00  0.00     0.000 HD 
ENDBRANCH   5   6
ENDBRANCH   2   5
TORSDOF 2
ENDMDL
MODEL      112
REMARK 921   NORMALIZED FREE ENERGY PREDICTED BY IDOCK:   -1.66 KCAL/MOL
REMARK 922        TOTAL FREE ENERGY PREDICTED BY IDOCK:   -1.89 KCAL/MOL
REMARK 923 INTER-LIGAND FREE ENERGY PREDICTED BY IDOCK:   -1.88 KCAL/MOL
REMARK 924 INTRA-LIGAND FREE ENERGY PREDICTED BY IDOCK:   -0.01 KCAL/MOL
REMARK 927      BINDING AFFINITY PREDICTED BY RF-SCORE:    0.00 PKD
ROOT
HETATM    1  C   UNL     1     -10.776  17.239  68.124  1.00  0.00    -0.363 C  
HETATM    2  N   UNL     1      -9.904  16.173  67.462  1.00  0.00    -0.235 N  
HETATM    3  C   UNL     1     -10.446  15.890  66.069  1.00  0.00    -0.345 C  
HETATM    4  C   UNL     1      -9.991  14.897  68.299  1.00  0.00    -0.222 C  
ENDROOT
BRANCH   2   5
HETATM    5  C   UNL     1      -8.455  16.719  67.404  1.00  0.00    -0.189 C  
BRANCH   5   6
HETATM    6  C   UNL     1      -7.370  15.659  67.159  1.00  0.00    -0.212 C  
HETATM    7  O   UNL     1      -6.139  16.270  66.791  1.00  0.00    -0.316 OA 
HETATM    8  H   UNL     1      -5.469  15.614  66.640  1.00  0.00     0.000 HD 
ENDBRANCH   5   6
ENDBRANCH   2   5
TORSDOF 2
ENDMDL
MODEL      113
REMARK 921   NORMALIZED FREE ENERGY PREDICTED BY IDOCK:   -1.65 KCAL/MOL
REMARK 922        TOTAL FREE ENERGY PREDICTED BY IDOCK:   -1.89 KCAL/MOL
REMARK 923 INTER-LIGAND FREE ENERGY PREDICTED BY IDOCK:   -1.87 KCAL/MOL
REMARK 924 INTRA-LIGAND FREE ENERGY PREDICTED BY IDOCK:   -0.02 KCAL/MOL
REMARK 927      BINDING AFFINITY PREDICTED BY RF-SCORE:    0.00 PKD
ROOT
HETATM    1  C   UNL     1      -9.613  12.067  68.570  1.00  0.00    -0.143 C  
HETATM    2  N   UNL     1     -10.561  10.913  68.894  1.00  0.00    -0.198 N  
HETATM    3  C   UNL     1      -9.759   9.773  69.504  1.00  0.00    -0.212 C  
HETATM    4  C   UNL     1     -11.194  10.433  67.588  1.00  0.00    -0.213 C  
ENDROOT
BRANCH   2   5
HETATM    5  C   UNL     1     -11.629  11.444  69.884  1.00  0.00    -0.323 C  
BRANCH   5   6
HETATM    6  C   UNL     1     -12.486  10.361  70.558  1.00  0.00    -0.317 C  
HETATM    7  O   UNL     1     -13.047  10.843  71.773  1.00  0.00    -0.464 OA 
HETATM    8  H   UNL     1     -13.576  10.174  72.189  1.00  0.00     0.000 HD 
ENDBRANCH   5   6
ENDBRANCH   2   5
TORSDOF 2
ENDMDL
MODEL      114
REMARK 921   NORMALIZED FREE ENERGY PREDICTED BY IDOCK:   -1.64 KCAL/MOL
REMARK 922        TOTAL FREE ENERGY PREDICTED BY IDOCK:   -1.88 KCAL/MOL
REMARK 923 INTER-LIGAND FREE ENERGY PREDICTED BY IDOCK:   -1.81 KCAL/MOL
REMARK 924 INTRA-LIGAND FREE ENERGY PREDICTED BY IDOCK:   -0.06 KCAL/MOL
REMARK 927      BINDING AFFINITY PREDICTED BY RF-SCORE:    0.00 PKD
ROOT
HETATM    1  C   UNL     1      -8.303   2.391  64.220  1.00  0.00    -0.083 C  
HETATM    2  N   UNL     1      -8.228   3.410  65.357  1.00  0.00    -0.096 N  
HETATM    3  C   UNL     1      -6.783   3.854  65.526  1.00  0.00    -0.049 C  
HETATM    4  C   UNL     1      -8.692   2.726  66.643  1.00  0.00    -0.122 C  
ENDROOT
BRANCH   2   5
HETATM    5  C   UNL     1      -9.145   4.602  64.983  1.00  0.00    -0.156 C  
BRANCH   5   6
HETATM    6  C   UNL     1     -10.475   4.664  65.749  1.00  0.00    -0.255 C  
HETATM    7  O   UNL     1     -11.567   4.354  64.892  1.00  0.00    -1.053 OA 
HETATM    8  H   UNL     1     -12.389   4.392  65.365  1.00  0.00     0.000 HD 
ENDBRANCH   5   6
ENDBRANCH   2   5
TORSDOF 2
ENDMDL
MODEL      115
REMARK 921   NORMALIZED FREE ENERGY PREDICTED BY IDOCK:   -1.64 KCAL/MOL
REMARK 922        TOTAL FREE ENERGY PREDICTED BY IDOCK:   -1.87 KCAL/MOL
REMARK 923 INTER-LIGAND FREE ENERGY PREDICTED BY IDOCK:   -1.84 KCAL/MOL
REMARK 924 INTRA-LIGAND FREE ENERGY PREDICTED BY IDOCK:   -0.03 KCAL/MOL
REMARK 927      BINDING AFFINITY PREDICTED BY RF-SCORE:    0.00 PKD
ROOT
HETATM    1  C   UNL     1      -8.388   8.120  64.441  1.00  0.00    -0.042 C  
HETATM    2  N   UNL     1      -8.794   8.688  65.800  1.00  0.00    -0.183 N  
HETATM    3  C   UNL     1      -9.870   9.744  65.591  1.00  0.00    -0.301 C  
HETATM    4  C   UNL     1      -7.566   9.345  66.430  1.00  0.00    -0.097 C  
ENDROOT
BRANCH   2   5
HETATM    5  C   UNL     1      -9.317   7.512  66.665  1.00  0.00    -0.174 C  
BRANCH   5   6
HETATM    6  C   UNL     1     -10.657   7.771  67.371  1.00  0.00    -0.275 C  
HETATM    7  O   UNL     1     -11.527   6.654  67.231  1.00  0.00    -0.766 OA 
HETATM    8  H   UNL     1     -12.355   6.814  67.667  1.00  0.00     0.000 HD 
ENDBRANCH   5   6
ENDBRANCH   2   5
TORSDOF 2
ENDMDL
MODEL      116
REMARK 921   NORMALIZED FREE ENERGY PREDICTED BY IDOCK:   -1.63 KCAL/MOL
REMARK 922        TOTAL FREE ENERGY PREDICTED BY IDOCK:   -1.87 KCAL/MOL
REMARK 923 INTER-LIGAND FREE ENERGY PREDICTED BY IDOCK:   -1.81 KCAL/MOL
REMARK 924 INTRA-LIGAND FREE ENERGY PREDICTED BY IDOCK:   -0.06 KCAL/MOL
REMARK 927      BINDING AFFINITY PREDICTED BY RF-SCORE:    0.00 PKD
ROOT
HETATM    1  C   UNL     1      -8.662   4.763  62.808  1.00  0.00    -0.127 C  
HETATM    2  N   UNL     1      -8.198   3.901  63.981  1.00  0.00    -0.090 N  
HETATM    3  C   UNL     1      -7.567   4.799  65.034  1.00  0.00    -0.077 C  
HETATM    4  C   UNL     1      -7.144   2.921  63.465  1.00  0.00    -0.044 C  
ENDROOT
BRANCH   2   5
HETATM    5  C   UNL     1      -9.439   3.159  64.541  1.00  0.00    -0.147 C  
BRANCH   5   6
HETATM    6  C   UNL     1     -10.784   3.600  63.944  1.00  0.00    -0.255 C  
HETATM    7  O   UNL     1     -11.516   4.388  64.875  1.00  0.00    -1.070 OA 
HETATM    8  H   UNL     1     -12.348   4.660  64.506  1.00  0.00     0.000 HD 
ENDBRANCH   5   6
ENDBRANCH   2   5
TORSDOF 2
ENDMDL
MODEL      117
REMARK 921   NORMALIZED FREE ENERGY PREDICTED BY IDOCK:   -1.59 KCAL/MOL
REMARK 922        TOTAL FREE ENERGY PREDICTED BY IDOCK:   -1.81 KCAL/MOL
REMARK 923 INTER-LIGAND FREE ENERGY PREDICTED BY IDOCK:   -1.78 KCAL/MOL
REMARK 924 INTRA-LIGAND FREE ENERGY PREDICTED BY IDOCK:   -0.04 KCAL/MOL
REMARK 927      BINDING AFFINITY PREDICTED BY RF-SCORE:    0.00 PKD
ROOT
HETATM    1  C   UNL     1     -10.660  17.013  69.113  1.00  0.00    -0.303 C  
HETATM    2  N   UNL     1      -9.801  16.037  68.312  1.00  0.00    -0.216 N  
HETATM    3  C   UNL     1     -10.687  14.917  67.787  1.00  0.00    -0.271 C  
HETATM    4  C   UNL     1      -8.751  15.442  69.251  1.00  0.00    -0.252 C  
ENDROOT
BRANCH   2   5
HETATM    5  C   UNL     1      -9.144  16.827  67.151  1.00  0.00    -0.212 C  
BRANCH   5   6
HETATM    6  C   UNL     1      -8.246  17.995  67.587  1.00  0.00    -0.241 C  
HETATM    7  O   UNL     1      -8.768  19.235  67.123  1.00  0.00    -0.280 OA 
HETATM    8  H   UNL     1      -8.212  19.956  67.392  1.00  0.00     0.000 HD 
ENDBRANCH   5   6
ENDBRANCH   2   5
TORSDOF 2
ENDMDL
MODEL      118
REMARK 921   NORMALIZED FREE ENERGY PREDICTED BY IDOCK:   -1.58 KCAL/MOL
REMARK 922        TOTAL FREE ENERGY PREDICTED BY IDOCK:   -1.81 KCAL/MOL
REMARK 923 INTER-LIGAND FREE ENERGY PREDICTED BY IDOCK:   -1.79 KCAL/MOL
REMARK 924 INTRA-LIGAND FREE ENERGY PREDICTED BY IDOCK:   -0.01 KCAL/MOL
REMARK 927      BINDING AFFINITY PREDICTED BY RF-SCORE:    0.00 PKD
ROOT
HETATM    1  C   UNL     1      -7.017  17.484  66.105  1.00  0.00    -0.288 C  
HETATM    2  N   UNL     1      -8.125  17.317  67.144  1.00  0.00    -0.196 N  
HETATM    3  C   UNL     1      -7.915  16.003  67.882  1.00  0.00    -0.137 C  
HETATM    4  C   UNL     1      -9.466  17.268  66.410  1.00  0.00    -0.263 C  
ENDROOT
BRANCH   2   5
HETATM    5  C   UNL     1      -8.051  18.526  68.112  1.00  0.00    -0.290 C  
BRANCH   5   6
HETATM    6  C   UNL     1      -6.722  18.671  68.870  1.00  0.00    -0.272 C  
HETATM    7  O   UNL     1      -6.686  19.892  69.598  1.00  0.00    -0.346 OA 
HETATM    8  H   UNL     1      -5.865  19.982  70.066  1.00  0.00     0.000 HD 
ENDBRANCH   5   6
ENDBRANCH   2   5
TORSDOF 2
ENDMDL
MODEL      119
REMARK 921   NORMALIZED FREE ENERGY PREDICTED BY IDOCK:   -1.58 KCAL/MOL
REMARK 922        TOTAL FREE ENERGY PREDICTED BY IDOCK:   -1.80 KCAL/MOL
REMARK 923 INTER-LIGAND FREE ENERGY PREDICTED BY IDOCK:   -2.00 KCAL/MOL
REMARK 924 INTRA-LIGAND FREE ENERGY PREDICTED BY IDOCK:    0.20 KCAL/MOL
REMARK 927      BINDING AFFINITY PREDICTED BY RF-SCORE:    0.00 PKD
ROOT
HETATM    1  C   UNL     1     -13.508   9.283  70.720  1.00  0.00     0.198 C  
HETATM    2  N   UNL     1     -12.349  10.268  70.864  1.00  0.00    -0.342 N  
HETATM    3  C   UNL     1     -12.851  11.522  71.563  1.00  0.00    -0.380 C  
HETATM    4  C   UNL     1     -11.861  10.640  69.463  1.00  0.00    -0.273 C  
ENDROOT
BRANCH   2   5
HETATM    5  C   UNL     1     -11.236   9.570  71.687  1.00  0.00    -0.308 C  
BRANCH   5   6
HETATM    6  C   UNL     1     -11.465   8.075  71.954  1.00  0.00    -0.291 C  
HETATM    7  O   UNL     1     -12.223   7.884  73.143  1.00  0.00    -0.601 OA 
HETATM    8  H   UNL     1     -12.365   6.960  73.308  1.00  0.00     0.000 HD 
ENDBRANCH   5   6
ENDBRANCH   2   5
TORSDOF 2
ENDMDL
MODEL      120
REMARK 921   NORMALIZED FREE ENERGY PREDICTED BY IDOCK:   -1.57 KCAL/MOL
REMARK 922        TOTAL FREE ENERGY PREDICTED BY IDOCK:   -1.80 KCAL/MOL
REMARK 923 INTER-LIGAND FREE ENERGY PREDICTED BY IDOCK:   -1.77 KCAL/MOL
REMARK 924 INTRA-LIGAND FREE ENERGY PREDICTED BY IDOCK:   -0.03 KCAL/MOL
REMARK 927      BINDING AFFINITY PREDICTED BY RF-SCORE:    0.00 PKD
ROOT
HETATM    1  C   UNL     1      -9.416   6.604  71.544  1.00  0.00    -0.156 C  
HETATM    2  N   UNL     1      -9.684   7.969  72.177  1.00  0.00    -0.200 N  
HETATM    3  C   UNL     1     -11.167   8.083  72.494  1.00  0.00    -0.388 C  
HETATM    4  C   UNL     1      -9.307   9.049  71.162  1.00  0.00    -0.266 C  
ENDROOT
BRANCH   2   5
HETATM    5  C   UNL     1      -8.823   8.070  73.462  1.00  0.00    -0.268 C  
BRANCH   5   6
HETATM    6  C   UNL     1      -7.312   8.210  73.223  1.00  0.00    -0.129 C  
HETATM    7  O   UNL     1      -6.748   9.177  74.101  1.00  0.00    -0.361 OA 
HETATM    8  H   UNL     1      -5.814   9.264  73.953  1.00  0.00     0.000 HD 
ENDBRANCH   5   6
ENDBRANCH   2   5
TORSDOF 2
ENDMDL
MODEL      121
REMARK 921   NORMALIZED FREE ENERGY PREDICTED BY IDOCK:   -1.56 KCAL/MOL
REMARK 922        TOTAL FREE ENERGY PREDICTED BY IDOCK:   -1.78 KCAL/MOL
REMARK 923 INTER-LIGAND FREE ENERGY PREDICTED BY IDOCK:   -1.74 KCAL/MOL
REMARK 924 INTRA-LIGAND FREE ENERGY PREDICTED BY IDOCK:   -0.04 KCAL/MOL
REMARK 927      BINDING AFFINITY PREDICTED BY RF-SCORE:    0.00 PKD
ROOT
HETATM    1  C   UNL     1      -8.604   4.761  62.827  1.00  0.00    -0.118 C  
HETATM    2  N   UNL     1      -9.202   3.975  63.992  1.00  0.00    -0.141 N  
HETATM    3  C   UNL     1      -8.321   2.768  64.277  1.00  0.00    -0.083 C  
HETATM    4  C   UNL     1     -10.592   3.491  63.579  1.00  0.00    -0.261 C  
ENDROOT
BRANCH   2   5
HETATM    5  C   UNL     1      -9.271   4.925  65.215  1.00  0.00    -0.139 C  
BRANCH   5   6
HETATM    6  C   UNL     1     -10.509   4.748  66.107  1.00  0.00    -0.290 C  
HETATM    7  O   UNL     1     -11.132   6.002  66.362  1.00  0.00    -0.713 OA 
HETATM    8  H   UNL     1     -11.897   5.892  66.913  1.00  0.00     0.000 HD 
ENDBRANCH   5   6
ENDBRANCH   2   5
TORSDOF 2
ENDMDL
MODEL      122
REMARK 921   NORMALIZED FREE ENERGY PREDICTED BY IDOCK:   -1.53 KCAL/MOL
REMARK 922        TOTAL FREE ENERGY PREDICTED BY IDOCK:   -1.75 KCAL/MOL
REMARK 923 INTER-LIGAND FREE ENERGY PREDICTED BY IDOCK:   -1.74 KCAL/MOL
REMARK 924 INTRA-LIGAND FREE ENERGY PREDICTED BY IDOCK:   -0.02 KCAL/MOL
REMARK 927      BINDING AFFINITY PREDICTED BY RF-SCORE:    0.00 PKD
ROOT
HETATM    1  C   UNL     1      -8.729  10.109  69.436  1.00  0.00    -0.176 C  
HETATM    2  N   UNL     1     -10.198  10.212  69.029  1.00  0.00    -0.194 N  
HETATM    3  C   UNL     1     -11.064  10.080  70.272  1.00  0.00    -0.318 C  
HETATM    4  C   UNL     1     -10.513   9.058  68.077  1.00  0.00    -0.216 C  
ENDROOT
BRANCH   2   5
HETATM    5  C   UNL     1     -10.402  11.587  68.343  1.00  0.00    -0.202 C  
BRANCH   5   6
HETATM    6  C   UNL     1     -10.974  11.524  66.919  1.00  0.00    -0.296 C  
HETATM    7  O   UNL     1     -11.594  12.756  66.568  1.00  0.00    -0.335 OA 
HETATM    8  H   UNL     1     -11.948  12.717  65.688  1.00  0.00     0.000 HD 
ENDBRANCH   5   6
ENDBRANCH   2   5
TORSDOF 2
ENDMDL
MODEL      123
REMARK 921   NORMALIZED FREE ENERGY PREDICTED BY IDOCK:   -1.51 KCAL/MOL
REMARK 922        TOTAL FREE ENERGY PREDICTED BY IDOCK:   -1.72 KCAL/MOL
REMARK 923 INTER-LIGAND FREE ENERGY PREDICTED BY IDOCK:   -1.68 KCAL/MOL
REMARK 924 INTRA-LIGAND FREE ENERGY PREDICTED BY IDOCK:   -0.04 KCAL/MOL
REMARK 927      BINDING AFFINITY PREDICTED BY RF-SCORE:    0.00 PKD
ROOT
HETATM    1  C   UNL     1      -9.004   2.999  66.996  1.00  0.00    -0.156 C  
HETATM    2  N   UNL     1      -8.787   4.336  67.702  1.00  0.00    -0.106 N  
HETATM    3  C   UNL     1      -7.304   4.500  68.002  1.00  0.00    -0.065 C  
HETATM    4  C   UNL     1      -9.562   4.312  69.020  1.00  0.00    -0.170 C  
ENDROOT
BRANCH   2   5
HETATM    5  C   UNL     1      -9.299   5.456  66.761  1.00  0.00    -0.134 C  
BRANCH   5   6
HETATM    6  C   UNL     1     -10.826   5.624  66.720  1.00  0.00    -0.216 C  
HETATM    7  O   UNL     1     -11.363   5.078  65.521  1.00  0.00    -0.836 OA 
HETATM    8  H   UNL     1     -12.306   5.182  65.496  1.00  0.00     0.000 HD 
ENDBRANCH   5   6
ENDBRANCH   2   5
TORSDOF 2
ENDMDL
MODEL      124
REMARK 921   NORMALIZED FREE ENERGY PREDICTED BY IDOCK:   -1.50 KCAL/MOL
REMARK 922        TOTAL FREE ENERGY PREDICTED BY IDOCK:   -1.72 KCAL/MOL
REMARK 923 INTER-LIGAND FREE ENERGY PREDICTED BY IDOCK:   -1.70 KCAL/MOL
REMARK 924 INTRA-LIGAND FREE ENERGY PREDICTED BY IDOCK:   -0.03 KCAL/MOL
REMARK 927      BINDING AFFINITY PREDICTED BY RF-SCORE:    0.00 PKD
ROOT
HETATM    1  C   UNL     1     -10.844   6.168  68.608  1.00  0.00    -0.332 C  
HETATM    2  N   UNL     1     -10.129   7.508  68.443  1.00  0.00    -0.175 N  
HETATM    3  C   UNL     1     -10.522   8.114  67.104  1.00  0.00    -0.326 C  
HETATM    4  C   UNL     1      -8.622   7.250  68.449  1.00  0.00    -0.124 C  
ENDROOT
BRANCH   2   5
HETATM    5  C   UNL     1     -10.555   8.419  69.622  1.00  0.00    -0.219 C  
BRANCH   5   6
HETATM    6  C   UNL     1     -11.170   7.683  70.823  1.00  0.00    -0.268 C  
HETATM    7  O   UNL     1     -10.747   8.272  72.047  1.00  0.00    -0.252 OA 
HETATM    8  H   UNL     1     -11.126   7.817  72.789  1.00  0.00     0.000 HD 
ENDBRANCH   5   6
ENDBRANCH   2   5
TORSDOF 2
ENDMDL
MODEL      125
REMARK 921   NORMALIZED FREE ENERGY PREDICTED BY IDOCK:   -1.50 KCAL/MOL
REMARK 922        TOTAL FREE ENERGY PREDICTED BY IDOCK:   -1.71 KCAL/MOL
REMARK 923 INTER-LIGAND FREE ENERGY PREDICTED BY IDOCK:   -1.69 KCAL/MOL
REMARK 924 INTRA-LIGAND FREE ENERGY PREDICTED BY IDOCK:   -0.03 KCAL/MOL
REMARK 927      BINDING AFFINITY PREDICTED BY RF-SCORE:    0.00 PKD
ROOT
HETATM    1  C   UNL     1      -8.810  10.964  65.535  1.00  0.00    -0.188 C  
HETATM    2  N   UNL     1      -9.902  10.961  66.603  1.00  0.00    -0.192 N  
HETATM    3  C   UNL     1     -10.386   9.534  66.809  1.00  0.00    -0.228 C  
HETATM    4  C   UNL     1     -11.067  11.813  66.097  1.00  0.00    -0.307 C  
ENDROOT
BRANCH   2   5
HETATM    5  C   UNL     1      -9.293  11.545  67.903  1.00  0.00    -0.171 C  
BRANCH   5   6
HETATM    6  C   UNL     1      -9.838  12.920  68.316  1.00  0.00    -0.228 C  
HETATM    7  O   UNL     1      -8.803  13.734  68.854  1.00  0.00    -0.374 OA 
HETATM    8  H   UNL     1      -9.141  14.584  69.110  1.00  0.00     0.000 HD 
ENDBRANCH   5   6
ENDBRANCH   2   5
TORSDOF 2
ENDMDL
MODEL      126
REMARK 921   NORMALIZED FREE ENERGY PREDICTED BY IDOCK:   -1.49 KCAL/MOL
REMARK 922        TOTAL FREE ENERGY PREDICTED BY IDOCK:   -1.71 KCAL/MOL
REMARK 923 INTER-LIGAND FREE ENERGY PREDICTED BY IDOCK:   -1.67 KCAL/MOL
REMARK 924 INTRA-LIGAND FREE ENERGY PREDICTED BY IDOCK:   -0.04 KCAL/MOL
REMARK 927      BINDING AFFINITY PREDICTED BY RF-SCORE:    0.00 PKD
ROOT
HETATM    1  C   UNL     1      -9.133   9.675  69.934  1.00  0.00    -0.225 C  
HETATM    2  N   UNL     1     -10.567   9.428  69.469  1.00  0.00    -0.217 N  
HETATM    3  C   UNL     1     -10.901  10.411  68.356  1.00  0.00    -0.245 C  
HETATM    4  C   UNL     1     -11.503   9.678  70.652  1.00  0.00    -0.306 C  
ENDROOT
BRANCH   2   5
HETATM    5  C   UNL     1     -10.656   7.962  68.972  1.00  0.00    -0.162 C  
BRANCH   5   6
HETATM    6  C   UNL     1     -10.098   6.912  69.945  1.00  0.00    -0.188 C  
HETATM    7  O   UNL     1     -11.067   5.906  70.214  1.00  0.00    -0.327 OA 
HETATM    8  H   UNL     1     -10.721   5.257  70.815  1.00  0.00     0.000 HD 
ENDBRANCH   5   6
ENDBRANCH   2   5
TORSDOF 2
ENDMDL
MODEL      127
REMARK 921   NORMALIZED FREE ENERGY PREDICTED BY IDOCK:   -1.49 KCAL/MOL
REMARK 922        TOTAL FREE ENERGY PREDICTED BY IDOCK:   -1.71 KCAL/MOL
REMARK 923 INTER-LIGAND FREE ENERGY PREDICTED BY IDOCK:   -1.67 KCAL/MOL
REMARK 924 INTRA-LIGAND FREE ENERGY PREDICTED BY IDOCK:   -0.04 KCAL/MOL
REMARK 927      BINDING AFFINITY PREDICTED BY RF-SCORE:    0.00 PKD
ROOT
HETATM    1  C   UNL     1     -11.517  12.112  68.488  1.00  0.00    -0.300 C  
HETATM    2  N   UNL     1     -10.381  11.094  68.406  1.00  0.00    -0.178 N  
HETATM    3  C   UNL     1     -10.684  10.106  67.289  1.00  0.00    -0.254 C  
HETATM    4  C   UNL     1     -10.319  10.339  69.735  1.00  0.00    -0.246 C  
ENDROOT
BRANCH   2   5
HETATM    5  C   UNL     1      -9.069  11.872  68.132  1.00  0.00    -0.190 C  
BRANCH   5   6
HETATM    6  C   UNL     1      -8.010  11.098  67.331  1.00  0.00    -0.125 C  
HETATM    7  O   UNL     1      -7.727  11.756  66.101  1.00  0.00    -0.373 OA 
HETATM    8  H   UNL     1      -7.072  11.277  65.606  1.00  0.00     0.000 HD 
ENDBRANCH   5   6
ENDBRANCH   2   5
TORSDOF 2
ENDMDL
MODEL      128
REMARK 921   NORMALIZED FREE ENERGY PREDICTED BY IDOCK:   -1.48 KCAL/MOL
REMARK 922        TOTAL FREE ENERGY PREDICTED BY IDOCK:   -1.70 KCAL/MOL
REMARK 923 INTER-LIGAND FREE ENERGY PREDICTED BY IDOCK:   -1.64 KCAL/MOL
REMARK 924 INTRA-LIGAND FREE ENERGY PREDICTED BY IDOCK:   -0.06 KCAL/MOL
REMARK 927      BINDING AFFINITY PREDICTED BY RF-SCORE:    0.00 PKD
ROOT
HETATM    1  C   UNL     1      -9.987   7.756  70.646  1.00  0.00    -0.186 C  
HETATM    2  N   UNL     1     -10.990   6.606  70.568  1.00  0.00    -0.266 N  
HETATM    3  C   UNL     1     -11.197   6.230  69.109  1.00  0.00    -0.371 C  
HETATM    4  C   UNL     1     -12.318   7.091  71.151  1.00  0.00    -0.378 C  
ENDROOT
BRANCH   2   5
HETATM    5  C   UNL     1     -10.411   5.420  71.381  1.00  0.00    -0.226 C  
BRANCH   5   6
HETATM    6  C   UNL     1      -8.887   5.250  71.288  1.00  0.00    -0.136 C  
HETATM    7  O   UNL     1      -8.552   4.114  70.501  1.00  0.00    -0.074 OA 
HETATM    8  H   UNL     1      -7.610   4.009  70.444  1.00  0.00     0.000 HD 
ENDBRANCH   5   6
ENDBRANCH   2   5
TORSDOF 2
ENDMDL
MODEL      129
REMARK 921   NORMALIZED FREE ENERGY PREDICTED BY IDOCK:   -1.48 KCAL/MOL
REMARK 922        TOTAL FREE ENERGY PREDICTED BY IDOCK:   -1.70 KCAL/MOL
REMARK 923 INTER-LIGAND FREE ENERGY PREDICTED BY IDOCK:   -1.66 KCAL/MOL
REMARK 924 INTRA-LIGAND FREE ENERGY PREDICTED BY IDOCK:   -0.04 KCAL/MOL
REMARK 927      BINDING AFFINITY PREDICTED BY RF-SCORE:    0.00 PKD
ROOT
HETATM    1  C   UNL     1      -9.277  10.076  69.548  1.00  0.00    -0.221 C  
HETATM    2  N   UNL     1      -9.364  10.667  68.141  1.00  0.00    -0.147 N  
HETATM    3  C   UNL     1      -8.587  11.974  68.107  1.00  0.00    -0.173 C  
HETATM    4  C   UNL     1     -10.835  10.954  67.834  1.00  0.00    -0.247 C  
ENDROOT
BRANCH   2   5
HETATM    5  C   UNL     1      -8.769   9.629  67.156  1.00  0.00    -0.132 C  
BRANCH   5   6
HETATM    6  C   UNL     1      -9.687   9.241  65.987  1.00  0.00    -0.289 C  
HETATM    7  O   UNL     1     -10.238   7.944  66.185  1.00  0.00    -0.451 OA 
HETATM    8  H   UNL     1     -10.805   7.705  65.462  1.00  0.00     0.000 HD 
ENDBRANCH   5   6
ENDBRANCH   2   5
TORSDOF 2
ENDMDL
MODEL      130
REMARK 921   NORMALIZED FREE ENERGY PREDICTED BY IDOCK:   -1.48 KCAL/MOL
REMARK 922        TOTAL FREE ENERGY PREDICTED BY IDOCK:   -1.70 KCAL/MOL
REMARK 923 INTER-LIGAND FREE ENERGY PREDICTED BY IDOCK:   -1.67 KCAL/MOL
REMARK 924 INTRA-LIGAND FREE ENERGY PREDICTED BY IDOCK:   -0.02 KCAL/MOL
REMARK 927      BINDING AFFINITY PREDICTED BY RF-SCORE:    0.00 PKD
ROOT
HETATM    1  C   UNL     1      -8.503   5.739  70.810  1.00  0.00    -0.125 C  
HETATM    2  N   UNL     1      -9.493   4.820  70.098  1.00  0.00    -0.158 N  
HETATM    3  C   UNL     1      -9.826   3.651  71.012  1.00  0.00    -0.115 C  
HETATM    4  C   UNL     1      -8.824   4.286  68.831  1.00  0.00    -0.100 C  
ENDROOT
BRANCH   2   5
HETATM    5  C   UNL     1     -10.757   5.655  69.766  1.00  0.00    -0.331 C  
BRANCH   5   6
HETATM    6  C   UNL     1     -11.347   6.440  70.947  1.00  0.00    -0.338 C  
HETATM    7  O   UNL     1     -12.089   7.563  70.488  1.00  0.00    -0.506 OA 
HETATM    8  H   UNL     1     -12.453   8.048  71.219  1.00  0.00     0.000 HD 
ENDBRANCH   5   6
ENDBRANCH   2   5
TORSDOF 2
ENDMDL
MODEL      131
REMARK 921   NORMALIZED FREE ENERGY PREDICTED BY IDOCK:   -1.47 KCAL/MOL
REMARK 922        TOTAL FREE ENERGY PREDICTED BY IDOCK:   -1.69 KCAL/MOL
REMARK 923 INTER-LIGAND FREE ENERGY PREDICTED BY IDOCK:   -1.66 KCAL/MOL
REMARK 924 INTRA-LIGAND FREE ENERGY PREDICTED BY IDOCK:   -0.03 KCAL/MOL
REMARK 927      BINDING AFFINITY PREDICTED BY RF-SCORE:    0.00 PKD
ROOT
HETATM    1  C   UNL     1      -8.243   7.527  67.491  1.00  0.00    -0.113 C  
HETATM    2  N   UNL     1      -8.988   6.230  67.803  1.00  0.00    -0.114 N  
HETATM    3  C   UNL     1     -10.327   6.571  68.440  1.00  0.00    -0.189 C  
HETATM    4  C   UNL     1      -8.152   5.426  68.799  1.00  0.00    -0.087 C  
ENDROOT
BRANCH   2   5
HETATM    5  C   UNL     1      -9.177   5.463  66.469  1.00  0.00    -0.138 C  
BRANCH   5   6
HETATM    6  C   UNL     1     -10.258   4.371  66.495  1.00  0.00    -0.121 C  
HETATM    7  O   UNL     1     -11.365   4.736  65.679  1.00  0.00    -0.900 OA 
HETATM    8  H   UNL     1     -12.033   4.062  65.695  1.00  0.00     0.000 HD 
ENDBRANCH   5   6
ENDBRANCH   2   5
TORSDOF 2
ENDMDL
MODEL      132
REMARK 921   NORMALIZED FREE ENERGY PREDICTED BY IDOCK:   -1.46 KCAL/MOL
REMARK 922        TOTAL FREE ENERGY PREDICTED BY IDOCK:   -1.67 KCAL/MOL
REMARK 923 INTER-LIGAND FREE ENERGY PREDICTED BY IDOCK:   -1.60 KCAL/MOL
REMARK 924 INTRA-LIGAND FREE ENERGY PREDICTED BY IDOCK:   -0.07 KCAL/MOL
REMARK 927      BINDING AFFINITY PREDICTED BY RF-SCORE:    0.00 PKD
ROOT
HETATM    1  C   UNL     1     -10.600  10.849  66.588  1.00  0.00    -0.249 C  
HETATM    2  N   UNL     1     -10.715  11.503  67.964  1.00  0.00    -0.192 N  
HETATM    3  C   UNL     1     -11.807  12.562  67.917  1.00  0.00    -0.323 C  
HETATM    4  C   UNL     1      -9.381  12.179  68.285  1.00  0.00    -0.198 C  
ENDROOT
BRANCH   2   5
HETATM    5  C   UNL     1     -11.051  10.391  68.989  1.00  0.00    -0.248 C  
BRANCH   5   6
HETATM    6  C   UNL     1      -9.851   9.858  69.788  1.00  0.00    -0.236 C  
HETATM    7  O   UNL     1      -9.357   8.653  69.215  1.00  0.00    -0.152 OA 
HETATM    8  H   UNL     1      -8.616   8.324  69.709  1.00  0.00     0.000 HD 
ENDBRANCH   5   6
ENDBRANCH   2   5
TORSDOF 2
ENDMDL
MODEL      133
REMARK 921   NORMALIZED FREE ENERGY PREDICTED BY IDOCK:   -1.45 KCAL/MOL
REMARK 922        TOTAL FREE ENERGY PREDICTED BY IDOCK:   -1.66 KCAL/MOL
REMARK 923 INTER-LIGAND FREE ENERGY PREDICTED BY IDOCK:   -1.59 KCAL/MOL
REMARK 924 INTRA-LIGAND FREE ENERGY PREDICTED BY IDOCK:   -0.07 KCAL/MOL
REMARK 927      BINDING AFFINITY PREDICTED BY RF-SCORE:    0.00 PKD
ROOT
HETATM    1  C   UNL     1     -10.171  16.671  65.636  1.00  0.00    -0.262 C  
HETATM    2  N   UNL     1      -9.612  17.616  66.698  1.00  0.00    -0.284 N  
HETATM    3  C   UNL     1      -9.559  19.024  66.126  1.00  0.00    -0.259 C  
HETATM    4  C   UNL     1      -8.193  17.164  67.042  1.00  0.00    -0.207 C  
ENDROOT
BRANCH   2   5
HETATM    5  C   UNL     1     -10.547  17.543  67.933  1.00  0.00    -0.390 C  
BRANCH   5   6
HETATM    6  C   UNL     1      -9.845  17.701  69.290  1.00  0.00    -0.050 C  
HETATM    7  O   UNL     1     -10.018  19.018  69.799  1.00  0.00    -0.142 OA 
HETATM    8  H   UNL     1      -9.584  19.115  70.638  1.00  0.00     0.000 HD 
ENDBRANCH   5   6
ENDBRANCH   2   5
TORSDOF 2
ENDMDL
MODEL      134
REMARK 921   NORMALIZED FREE ENERGY PREDICTED BY IDOCK:   -1.42 KCAL/MOL
REMARK 922        TOTAL FREE ENERGY PREDICTED BY IDOCK:   -1.63 KCAL/MOL
REMARK 923 INTER-LIGAND FREE ENERGY PREDICTED BY IDOCK:   -1.60 KCAL/MOL
REMARK 924 INTRA-LIGAND FREE ENERGY PREDICTED BY IDOCK:   -0.03 KCAL/MOL
REMARK 927      BINDING AFFINITY PREDICTED BY RF-SCORE:    0.00 PKD
ROOT
HETATM    1  C   UNL     1      -7.658  10.844  66.797  1.00  0.00    -0.134 C  
HETATM    2  N   UNL     1      -9.181  10.963  66.770  1.00  0.00    -0.157 N  
HETATM    3  C   UNL     1      -9.557  12.422  66.561  1.00  0.00    -0.240 C  
HETATM    4  C   UNL     1      -9.721  10.498  68.123  1.00  0.00    -0.153 C  
ENDROOT
BRANCH   2   5
HETATM    5  C   UNL     1      -9.703  10.074  65.613  1.00  0.00    -0.272 C  
BRANCH   5   6
HETATM    6  C   UNL     1      -8.803  10.030  64.369  1.00  0.00    -0.213 C  
HETATM    7  O   UNL     1      -8.809   8.732  63.785  1.00  0.00    -0.430 OA 
HETATM    8  H   UNL     1      -8.253   8.706  63.016  1.00  0.00     0.000 HD 
ENDBRANCH   5   6
ENDBRANCH   2   5
TORSDOF 2
ENDMDL
MODEL      135
REMARK 921   NORMALIZED FREE ENERGY PREDICTED BY IDOCK:   -1.42 KCAL/MOL
REMARK 922        TOTAL FREE ENERGY PREDICTED BY IDOCK:   -1.63 KCAL/MOL
REMARK 923 INTER-LIGAND FREE ENERGY PREDICTED BY IDOCK:   -1.55 KCAL/MOL
REMARK 924 INTRA-LIGAND FREE ENERGY PREDICTED BY IDOCK:   -0.07 KCAL/MOL
REMARK 927      BINDING AFFINITY PREDICTED BY RF-SCORE:    0.00 PKD
ROOT
HETATM    1  C   UNL     1     -10.041   8.232  68.567  1.00  0.00    -0.197 C  
HETATM    2  N   UNL     1     -10.369   6.748  68.414  1.00  0.00    -0.178 N  
HETATM    3  C   UNL     1     -10.965   6.514  67.034  1.00  0.00    -0.396 C  
HETATM    4  C   UNL     1     -11.407   6.377  69.474  1.00  0.00    -0.393 C  
ENDROOT
BRANCH   2   5
HETATM    5  C   UNL     1      -9.053   5.952  68.603  1.00  0.00    -0.115 C  
BRANCH   5   6
HETATM    6  C   UNL     1      -9.199   4.623  69.361  1.00  0.00    -0.119 C  
HETATM    7  O   UNL     1      -9.371   3.540  68.454  1.00  0.00    -0.155 OA 
HETATM    8  H   UNL     1      -9.462   2.719  68.923  1.00  0.00     0.000 HD 
ENDBRANCH   5   6
ENDBRANCH   2   5
TORSDOF 2
ENDMDL
MODEL      136
REMARK 921   NORMALIZED FREE ENERGY PREDICTED BY IDOCK:   -1.41 KCAL/MOL
REMARK 922        TOTAL FREE ENERGY PREDICTED BY IDOCK:   -1.62 KCAL/MOL
REMARK 923 INTER-LIGAND FREE ENERGY PREDICTED BY IDOCK:   -1.59 KCAL/MOL
REMARK 924 INTRA-LIGAND FREE ENERGY PREDICTED BY IDOCK:   -0.03 KCAL/MOL
REMARK 927      BINDING AFFINITY PREDICTED BY RF-SCORE:    0.00 PKD
ROOT
HETATM    1  C   UNL     1      -8.866   3.593  68.263  1.00  0.00    -0.115 C  
HETATM    2  N   UNL     1      -9.314   4.746  69.160  1.00  0.00    -0.123 N  
HETATM    3  C   UNL     1      -8.131   5.671  69.401  1.00  0.00    -0.100 C  
HETATM    4  C   UNL     1      -9.769   4.161  70.498  1.00  0.00    -0.200 C  
ENDROOT
BRANCH   2   5
HETATM    5  C   UNL     1     -10.471   5.483  68.439  1.00  0.00    -0.157 C  
BRANCH   5   6
HETATM    6  C   UNL     1     -10.904   6.806  69.089  1.00  0.00    -0.258 C  
HETATM    7  O   UNL     1     -12.082   6.627  69.866  1.00  0.00    -0.641 OA 
HETATM    8  H   UNL     1     -12.349   7.445  70.268  1.00  0.00     0.000 HD 
ENDBRANCH   5   6
ENDBRANCH   2   5
TORSDOF 2
ENDMDL
MODEL      137
REMARK 921   NORMALIZED FREE ENERGY PREDICTED BY IDOCK:   -1.40 KCAL/MOL
REMARK 922        TOTAL FREE ENERGY PREDICTED BY IDOCK:   -1.60 KCAL/MOL
REMARK 923 INTER-LIGAND FREE ENERGY PREDICTED BY IDOCK:   -1.57 KCAL/MOL
REMARK 924 INTRA-LIGAND FREE ENERGY PREDICTED BY IDOCK:   -0.03 KCAL/MOL
REMARK 927      BINDING AFFINITY PREDICTED BY RF-SCORE:    0.00 PKD
ROOT
HETATM    1  C   UNL     1     -10.522   8.726  67.435  1.00  0.00    -0.279 C  
HETATM    2  N   UNL     1     -10.030   8.600  68.876  1.00  0.00    -0.184 N  
HETATM    3  C   UNL     1     -10.341   7.200  69.382  1.00  0.00    -0.198 C  
HETATM    4  C   UNL     1     -10.787   9.618  69.730  1.00  0.00    -0.250 C  
ENDROOT
BRANCH   2   5
HETATM    5  C   UNL     1      -8.505   8.877  68.880  1.00  0.00    -0.131 C  
BRANCH   5   6
HETATM    6  C   UNL     1      -8.004   9.744  70.045  1.00  0.00    -0.184 C  
HETATM    7  O   UNL     1      -7.591  11.024  69.582  1.00  0.00    -0.345 OA 
HETATM    8  H   UNL     1      -7.281  11.559  70.303  1.00  0.00     0.000 HD 
ENDBRANCH   5   6
ENDBRANCH   2   5
TORSDOF 2
ENDMDL
MODEL      138
REMARK 921   NORMALIZED FREE ENERGY PREDICTED BY IDOCK:   -1.39 KCAL/MOL
REMARK 922        TOTAL FREE ENERGY PREDICTED BY IDOCK:   -1.60 KCAL/MOL
REMARK 923 INTER-LIGAND FREE ENERGY PREDICTED BY IDOCK:   -1.56 KCAL/MOL
REMARK 924 INTRA-LIGAND FREE ENERGY PREDICTED BY IDOCK:   -0.04 KCAL/MOL
REMARK 927      BINDING AFFINITY PREDICTED BY RF-SCORE:    0.00 PKD
ROOT
HETATM    1  C   UNL     1      -7.515  16.042  66.783  1.00  0.00    -0.183 C  
HETATM    2  N   UNL     1      -8.384  15.067  67.576  1.00  0.00    -0.164 N  
HETATM    3  C   UNL     1      -8.605  15.629  68.972  1.00  0.00    -0.232 C  
HETATM    4  C   UNL     1      -7.634  13.739  67.686  1.00  0.00    -0.181 C  
ENDROOT
BRANCH   2   5
HETATM    5  C   UNL     1      -9.724  14.902  66.815  1.00  0.00    -0.251 C  
BRANCH   5   6
HETATM    6  C   UNL     1     -10.792  14.079  67.550  1.00  0.00    -0.270 C  
HETATM    7  O   UNL     1     -11.219  12.979  66.755  1.00  0.00    -0.279 OA 
HETATM    8  H   UNL     1     -11.880  12.471  67.209  1.00  0.00     0.000 HD 
ENDBRANCH   5   6
ENDBRANCH   2   5
TORSDOF 2
ENDMDL
MODEL      139
REMARK 921   NORMALIZED FREE ENERGY PREDICTED BY IDOCK:   -1.37 KCAL/MOL
REMARK 922        TOTAL FREE ENERGY PREDICTED BY IDOCK:   -1.58 KCAL/MOL
REMARK 923 INTER-LIGAND FREE ENERGY PREDICTED BY IDOCK:   -1.50 KCAL/MOL
REMARK 924 INTRA-LIGAND FREE ENERGY PREDICTED BY IDOCK:   -0.07 KCAL/MOL
REMARK 927      BINDING AFFINITY PREDICTED BY RF-SCORE:    0.00 PKD
ROOT
HETATM    1  C   UNL     1     -11.761   6.594  70.150  1.00  0.00    -0.351 C  
HETATM    2  N   UNL     1     -10.834   7.202  71.201  1.00  0.00    -0.237 N  
HETATM    3  C   UNL     1     -10.633   6.195  72.324  1.00  0.00    -0.216 C  
HETATM    4  C   UNL     1     -11.509   8.452  71.768  1.00  0.00    -0.301 C  
ENDROOT
BRANCH   2   5
HETATM    5  C   UNL     1      -9.493   7.547  70.505  1.00  0.00    -0.164 C  
BRANCH   5   6
HETATM    6  C   UNL     1      -8.362   6.531  70.732  1.00  0.00    -0.130 C  
HETATM    7  O   UNL     1      -8.287   5.609  69.651  1.00  0.00    -0.104 OA 
HETATM    8  H   UNL     1      -7.588   4.982  69.792  1.00  0.00     0.000 HD 
ENDBRANCH   5   6
ENDBRANCH   2   5
TORSDOF 2
ENDMDL
MODEL      140
REMARK 921   NORMALIZED FREE ENERGY PREDICTED BY IDOCK:   -1.36 KCAL/MOL
REMARK 922        TOTAL FREE ENERGY PREDICTED BY IDOCK:   -1.57 KCAL/MOL
REMARK 923 INTER-LIGAND FREE ENERGY PREDICTED BY IDOCK:   -1.55 KCAL/MOL
REMARK 924 INTRA-LIGAND FREE ENERGY PREDICTED BY IDOCK:   -0.02 KCAL/MOL
REMARK 927      BINDING AFFINITY PREDICTED BY RF-SCORE:    0.00 PKD
ROOT
HETATM    1  C   UNL     1      -8.354   9.638  68.339  1.00  0.00    -0.117 C  
HETATM    2  N   UNL     1      -9.803  10.120  68.362  1.00  0.00    -0.148 N  
HETATM    3  C   UNL     1     -10.617   9.280  67.389  1.00  0.00    -0.255 C  
HETATM    4  C   UNL     1      -9.829  11.579  67.904  1.00  0.00    -0.185 C  
ENDROOT
BRANCH   2   5
HETATM    5  C   UNL     1     -10.328   9.970  69.813  1.00  0.00    -0.255 C  
BRANCH   5   6
HETATM    6  C   UNL     1      -9.352   9.296  70.791  1.00  0.00    -0.258 C  
HETATM    7  O   UNL     1     -10.016   8.927  71.993  1.00  0.00    -0.329 OA 
HETATM    8  H   UNL     1      -9.413   8.511  72.597  1.00  0.00     0.000 HD 
ENDBRANCH   5   6
ENDBRANCH   2   5
TORSDOF 2
ENDMDL
MODEL      141
REMARK 921   NORMALIZED FREE ENERGY PREDICTED BY IDOCK:   -1.36 KCAL/MOL
REMARK 922        TOTAL FREE ENERGY PREDICTED BY IDOCK:   -1.56 KCAL/MOL
REMARK 923 INTER-LIGAND FREE ENERGY PREDICTED BY IDOCK:   -1.53 KCAL/MOL
REMARK 924 INTRA-LIGAND FREE ENERGY PREDICTED BY IDOCK:   -0.02 KCAL/MOL
REMARK 927      BINDING AFFINITY PREDICTED BY RF-SCORE:    0.00 PKD
ROOT
HETATM    1  C   UNL     1     -10.977   6.495  67.418  1.00  0.00    -0.378 C  
HETATM    2  N   UNL     1     -10.401   6.834  68.791  1.00  0.00    -0.185 N  
HETATM    3  C   UNL     1     -11.287   6.218  69.863  1.00  0.00    -0.434 C  
HETATM    4  C   UNL     1     -10.410   8.355  68.951  1.00  0.00    -0.215 C  
ENDROOT
BRANCH   2   5
HETATM    5  C   UNL     1      -8.960   6.265  68.853  1.00  0.00    -0.126 C  
BRANCH   5   6
HETATM    6  C   UNL     1      -7.851   7.260  68.480  1.00  0.00    -0.122 C  
HETATM    7  O   UNL     1      -6.809   6.610  67.762  1.00  0.00    -0.074 OA 
HETATM    8  H   UNL     1      -6.124   7.226  67.532  1.00  0.00     0.000 HD 
ENDBRANCH   5   6
ENDBRANCH   2   5
TORSDOF 2
ENDMDL
MODEL      142
REMARK 921   NORMALIZED FREE ENERGY PREDICTED BY IDOCK:   -1.33 KCAL/MOL
REMARK 922        TOTAL FREE ENERGY PREDICTED BY IDOCK:   -1.52 KCAL/MOL
REMARK 923 INTER-LIGAND FREE ENERGY PREDICTED BY IDOCK:   -1.46 KCAL/MOL
REMARK 924 INTRA-LIGAND FREE ENERGY PREDICTED BY IDOCK:   -0.06 KCAL/MOL
REMARK 927      BINDING AFFINITY PREDICTED BY RF-SCORE:    0.00 PKD
ROOT
HETATM    1  C   UNL     1      -6.689   3.531  66.292  1.00  0.00    -0.049 C  
HETATM    2  N   UNL     1      -8.216   3.526  66.257  1.00  0.00    -0.099 N  
HETATM    3  C   UNL     1      -8.731   2.601  67.351  1.00  0.00    -0.117 C  
HETATM    4  C   UNL     1      -8.661   2.985  64.898  1.00  0.00    -0.106 C  
ENDROOT
BRANCH   2   5
HETATM    5  C   UNL     1      -8.699   4.982  66.476  1.00  0.00    -0.109 C  
BRANCH   5   6
HETATM    6  C   UNL     1     -10.120   5.118  67.043  1.00  0.00    -0.217 C  
HETATM    7  O   UNL     1     -11.050   5.425  66.011  1.00  0.00    -0.761 OA 
HETATM    8  H   UNL     1     -11.928   5.509  66.362  1.00  0.00     0.000 HD 
ENDBRANCH   5   6
ENDBRANCH   2   5
TORSDOF 2
ENDMDL
MODEL      143
REMARK 921   NORMALIZED FREE ENERGY PREDICTED BY IDOCK:   -1.32 KCAL/MOL
REMARK 922        TOTAL FREE ENERGY PREDICTED BY IDOCK:   -1.52 KCAL/MOL
REMARK 923 INTER-LIGAND FREE ENERGY PREDICTED BY IDOCK:   -1.48 KCAL/MOL
REMARK 924 INTRA-LIGAND FREE ENERGY PREDICTED BY IDOCK:   -0.03 KCAL/MOL
REMARK 927      BINDING AFFINITY PREDICTED BY RF-SCORE:    0.00 PKD
ROOT
HETATM    1  C   UNL     1      -7.932  10.304  65.311  1.00  0.00    -0.148 C  
HETATM    2  N   UNL     1      -9.138  10.559  66.212  1.00  0.00    -0.160 N  
HETATM    3  C   UNL     1     -10.063   9.353  66.151  1.00  0.00    -0.254 C  
HETATM    4  C   UNL     1      -9.882  11.785  65.681  1.00  0.00    -0.237 C  
ENDROOT
BRANCH   2   5
HETATM    5  C   UNL     1      -8.611  10.793  67.651  1.00  0.00    -0.123 C  
BRANCH   5   6
HETATM    6  C   UNL     1      -9.168   9.832  68.712  1.00  0.00    -0.143 C  
HETATM    7  O   UNL     1      -9.595  10.545  69.867  1.00  0.00    -0.419 OA 
HETATM    8  H   UNL     1      -9.940   9.951  70.522  1.00  0.00     0.000 HD 
ENDBRANCH   5   6
ENDBRANCH   2   5
TORSDOF 2
ENDMDL
MODEL      144
REMARK 921   NORMALIZED FREE ENERGY PREDICTED BY IDOCK:   -1.31 KCAL/MOL
REMARK 922        TOTAL FREE ENERGY PREDICTED BY IDOCK:   -1.51 KCAL/MOL
REMARK 923 INTER-LIGAND FREE ENERGY PREDICTED BY IDOCK:   -1.43 KCAL/MOL
REMARK 924 INTRA-LIGAND FREE ENERGY PREDICTED BY IDOCK:   -0.07 KCAL/MOL
REMARK 927      BINDING AFFINITY PREDICTED BY RF-SCORE:    0.00 PKD
ROOT
HETATM    1  C   UNL     1      -8.272   3.451  71.592  1.00  0.00    -0.065 C  
HETATM    2  N   UNL     1      -8.987   4.785  71.801  1.00  0.00    -0.129 N  
HETATM    3  C   UNL     1     -10.128   4.894  70.801  1.00  0.00    -0.233 C  
HETATM    4  C   UNL     1      -7.986   5.911  71.539  1.00  0.00    -0.113 C  
ENDROOT
BRANCH   2   5
HETATM    5  C   UNL     1      -9.510   4.817  73.260  1.00  0.00    -0.123 C  
BRANCH   5   6
HETATM    6  C   UNL     1     -10.861   5.523  73.450  1.00  0.00    -0.288 C  
HETATM    7  O   UNL     1     -10.674   6.901  73.750  1.00  0.00    -0.481 OA 
HETATM    8  H   UNL     1     -11.510   7.337  73.868  1.00  0.00     0.000 HD 
ENDBRANCH   5   6
ENDBRANCH   2   5
TORSDOF 2
ENDMDL
MODEL      145
REMARK 921   NORMALIZED FREE ENERGY PREDICTED BY IDOCK:   -1.30 KCAL/MOL
REMARK 922        TOTAL FREE ENERGY PREDICTED BY IDOCK:   -1.49 KCAL/MOL
REMARK 923 INTER-LIGAND FREE ENERGY PREDICTED BY IDOCK:   -1.48 KCAL/MOL
REMARK 924 INTRA-LIGAND FREE ENERGY PREDICTED BY IDOCK:   -0.02 KCAL/MOL
REMARK 927      BINDING AFFINITY PREDICTED BY RF-SCORE:    0.00 PKD
ROOT
HETATM    1  C   UNL     1     -10.473   7.161  68.311  1.00  0.00    -0.198 C  
HETATM    2  N   UNL     1      -9.529   8.120  67.588  1.00  0.00    -0.142 N  
HETATM    3  C   UNL     1     -10.339   9.281  67.030  1.00  0.00    -0.255 C  
HETATM    4  C   UNL     1      -8.877   7.366  66.428  1.00  0.00    -0.156 C  
ENDROOT
BRANCH   2   5
HETATM    5  C   UNL     1      -8.475   8.608  68.614  1.00  0.00    -0.130 C  
BRANCH   5   6
HETATM    6  C   UNL     1      -8.937   9.756  69.524  1.00  0.00    -0.204 C  
HETATM    7  O   UNL     1      -8.117   9.843  70.684  1.00  0.00    -0.391 OA 
HETATM    8  H   UNL     1      -8.403  10.553  71.246  1.00  0.00     0.000 HD 
ENDBRANCH   5   6
ENDBRANCH   2   5
TORSDOF 2
ENDMDL
MODEL      146
REMARK 921   NORMALIZED FREE ENERGY PREDICTED BY IDOCK:   -1.30 KCAL/MOL
REMARK 922        TOTAL FREE ENERGY PREDICTED BY IDOCK:   -1.49 KCAL/MOL
REMARK 923 INTER-LIGAND FREE ENERGY PREDICTED BY IDOCK:   -1.42 KCAL/MOL
REMARK 924 INTRA-LIGAND FREE ENERGY PREDICTED BY IDOCK:   -0.07 KCAL/MOL
REMARK 927      BINDING AFFINITY PREDICTED BY RF-SCORE:    0.00 PKD
ROOT
HETATM    1  C   UNL     1     -10.355   5.872  71.044  1.00  0.00    -0.223 C  
HETATM    2  N   UNL     1     -10.554   6.224  72.517  1.00  0.00    -0.203 N  
HETATM    3  C   UNL     1     -11.394   5.138  73.174  1.00  0.00    -0.313 C  
HETATM    4  C   UNL     1     -11.309   7.551  72.593  1.00  0.00    -0.344 C  
ENDROOT
BRANCH   2   5
HETATM    5  C   UNL     1      -9.153   6.327  73.172  1.00  0.00    -0.129 C  
BRANCH   5   6
HETATM    6  C   UNL     1      -8.726   5.100  73.991  1.00  0.00    -0.117 C  
HETATM    7  O   UNL     1      -7.948   4.209  73.200  1.00  0.00    -0.086 OA 
HETATM    8  H   UNL     1      -7.684   3.451  73.706  1.00  0.00     0.000 HD 
ENDBRANCH   5   6
ENDBRANCH   2   5
TORSDOF 2
ENDMDL
MODEL      147
REMARK 921   NORMALIZED FREE ENERGY PREDICTED BY IDOCK:   -1.28 KCAL/MOL
REMARK 922        TOTAL FREE ENERGY PREDICTED BY IDOCK:   -1.48 KCAL/MOL
REMARK 923 INTER-LIGAND FREE ENERGY PREDICTED BY IDOCK:   -1.45 KCAL/MOL
REMARK 924 INTRA-LIGAND FREE ENERGY PREDICTED BY IDOCK:   -0.03 KCAL/MOL
REMARK 927      BINDING AFFINITY PREDICTED BY RF-SCORE:    0.00 PKD
ROOT
HETATM    1  C   UNL     1     -11.607   6.838  70.579  1.00  0.00    -0.372 C  
HETATM    2  N   UNL     1     -10.554   7.087  69.501  1.00  0.00    -0.227 N  
HETATM    3  C   UNL     1     -10.522   8.573  69.176  1.00  0.00    -0.205 C  
HETATM    4  C   UNL     1     -10.962   6.312  68.247  1.00  0.00    -0.321 C  
ENDROOT
BRANCH   2   5
HETATM    5  C   UNL     1      -9.190   6.600  70.052  1.00  0.00    -0.158 C  
BRANCH   5   6
HETATM    6  C   UNL     1      -8.154   7.708  70.295  1.00  0.00    -0.114 C  
HETATM    7  O   UNL     1      -6.873   7.317  69.817  1.00  0.00    -0.050 OA 
HETATM    8  H   UNL     1      -6.233   8.002  69.967  1.00  0.00     0.000 HD 
ENDBRANCH   5   6
ENDBRANCH   2   5
TORSDOF 2
ENDMDL
MODEL      148
REMARK 921   NORMALIZED FREE ENERGY PREDICTED BY IDOCK:   -1.28 KCAL/MOL
REMARK 922        TOTAL FREE ENERGY PREDICTED BY IDOCK:   -1.47 KCAL/MOL
REMARK 923 INTER-LIGAND FREE ENERGY PREDICTED BY IDOCK:   -1.40 KCAL/MOL
REMARK 924 INTRA-LIGAND FREE ENERGY PREDICTED BY IDOCK:   -0.07 KCAL/MOL
REMARK 927      BINDING AFFINITY PREDICTED BY RF-SCORE:    0.00 PKD
ROOT
HETATM    1  C   UNL     1      -8.408   5.507  64.660  1.00  0.00    -0.131 C  
HETATM    2  N   UNL     1      -8.903   5.225  66.077  1.00  0.00    -0.136 N  
HETATM    3  C   UNL     1      -8.021   4.155  66.704  1.00  0.00    -0.098 C  
HETATM    4  C   UNL     1     -10.336   4.698  65.987  1.00  0.00    -0.284 C  
ENDROOT
BRANCH   2   5
HETATM    5  C   UNL     1      -8.834   6.552  66.874  1.00  0.00    -0.120 C  
BRANCH   5   6
HETATM    6  C   UNL     1      -8.799   7.825  66.015  1.00  0.00    -0.157 C  
HETATM    7  O   UNL     1     -10.058   8.486  66.039  1.00  0.00    -0.473 OA 
HETATM    8  H   UNL     1     -10.037   9.273  65.508  1.00  0.00     0.000 HD 
ENDBRANCH   5   6
ENDBRANCH   2   5
TORSDOF 2
ENDMDL
MODEL      149
REMARK 921   NORMALIZED FREE ENERGY PREDICTED BY IDOCK:   -1.27 KCAL/MOL
REMARK 922        TOTAL FREE ENERGY PREDICTED BY IDOCK:   -1.46 KCAL/MOL
REMARK 923 INTER-LIGAND FREE ENERGY PREDICTED BY IDOCK:   -1.44 KCAL/MOL
REMARK 924 INTRA-LIGAND FREE ENERGY PREDICTED BY IDOCK:   -0.02 KCAL/MOL
REMARK 927      BINDING AFFINITY PREDICTED BY RF-SCORE:    0.00 PKD
ROOT
HETATM    1  C   UNL     1     -10.879   5.977  67.786  1.00  0.00    -0.290 C  
HETATM    2  N   UNL     1      -9.674   5.743  68.695  1.00  0.00    -0.126 N  
HETATM    3  C   UNL     1      -9.873   6.522  69.987  1.00  0.00    -0.165 C  
HETATM    4  C   UNL     1      -8.428   6.272  67.983  1.00  0.00    -0.117 C  
ENDROOT
BRANCH   2   5
HETATM    5  C   UNL     1      -9.573   4.220  68.963  1.00  0.00    -0.170 C  
BRANCH   5   6
HETATM    6  C   UNL     1      -9.139   3.375  67.756  1.00  0.00    -0.164 C  
HETATM    7  O   UNL     1      -9.732   2.083  67.803  1.00  0.00    -0.405 OA 
HETATM    8  H   UNL     1      -9.464   1.560  67.057  1.00  0.00     0.000 HD 
ENDBRANCH   5   6
ENDBRANCH   2   5
TORSDOF 2
ENDMDL
MODEL      150
REMARK 921   NORMALIZED FREE ENERGY PREDICTED BY IDOCK:   -1.27 KCAL/MOL
REMARK 922        TOTAL FREE ENERGY PREDICTED BY IDOCK:   -1.46 KCAL/MOL
REMARK 923 INTER-LIGAND FREE ENERGY PREDICTED BY IDOCK:   -1.41 KCAL/MOL
REMARK 924 INTRA-LIGAND FREE ENERGY PREDICTED BY IDOCK:   -0.04 KCAL/MOL
REMARK 927      BINDING AFFINITY PREDICTED BY RF-SCORE:    0.00 PKD
ROOT
HETATM    1  C   UNL     1      -9.829   9.943  65.557  1.00  0.00    -0.311 C  
HETATM    2  N   UNL     1      -8.373   9.699  65.164  1.00  0.00    -0.130 N  
HETATM    3  C   UNL     1      -7.482  10.621  65.982  1.00  0.00    -0.137 C  
HETATM    4  C   UNL     1      -8.215  10.040  63.682  1.00  0.00    -0.160 C  
ENDROOT
BRANCH   2   5
HETATM    5  C   UNL     1      -8.052   8.209  65.443  1.00  0.00    -0.130 C  
BRANCH   5   6
HETATM    6  C   UNL     1      -9.068   7.481  66.336  1.00  0.00    -0.173 C  
HETATM    7  O   UNL     1      -9.596   6.338  65.673  1.00  0.00    -0.374 OA 
HETATM    8  H   UNL     1     -10.224   5.888  66.225  1.00  0.00     0.000 HD 
ENDBRANCH   5   6
ENDBRANCH   2   5
TORSDOF 2
ENDMDL
MODEL      151
REMARK 921   NORMALIZED FREE ENERGY PREDICTED BY IDOCK:   -1.21 KCAL/MOL
REMARK 922        TOTAL FREE ENERGY PREDICTED BY IDOCK:   -1.40 KCAL/MOL
REMARK 923 INTER-LIGAND FREE ENERGY PREDICTED BY IDOCK:   -1.35 KCAL/MOL
REMARK 924 INTRA-LIGAND FREE ENERGY PREDICTED BY IDOCK:   -0.05 KCAL/MOL
REMARK 927      BINDING AFFINITY PREDICTED BY RF-SCORE:    0.00 PKD
ROOT
HETATM    1  C   UNL     1     -11.161  12.519  67.386  1.00  0.00    -0.272 C  
HETATM    2  N   UNL     1      -9.902  11.721  67.048  1.00  0.00    -0.196 N  
HETATM    3  C   UNL     1      -9.515  12.001  65.604  1.00  0.00    -0.138 C  
HETATM    4  C   UNL     1     -10.224  10.234  67.198  1.00  0.00    -0.225 C  
ENDROOT
BRANCH   2   5
HETATM    5  C   UNL     1      -8.786  12.164  68.028  1.00  0.00    -0.180 C  
BRANCH   5   6
HETATM    6  C   UNL     1      -8.130  13.514  67.699  1.00  0.00    -0.180 C  
HETATM    7  O   UNL     1      -8.301  14.434  68.771  1.00  0.00    -0.157 OA 
HETATM    8  H   UNL     1      -7.896  15.268  68.567  1.00  0.00     0.000 HD 
ENDBRANCH   5   6
ENDBRANCH   2   5
TORSDOF 2
ENDMDL
MODEL      152
REMARK 921   NORMALIZED FREE ENERGY PREDICTED BY IDOCK:   -1.21 KCAL/MOL
REMARK 922        TOTAL FREE ENERGY PREDICTED BY IDOCK:   -1.39 KCAL/MOL
REMARK 923 INTER-LIGAND FREE ENERGY PREDICTED BY IDOCK:   -1.36 KCAL/MOL
REMARK 924 INTRA-LIGAND FREE ENERGY PREDICTED BY IDOCK:   -0.04 KCAL/MOL
REMARK 927      BINDING AFFINITY PREDICTED BY RF-SCORE:    0.00 PKD
ROOT
HETATM    1  C   UNL     1     -10.783   3.036  63.422  1.00  0.00    -0.246 C  
HETATM    2  N   UNL     1      -9.698   3.619  64.325  1.00  0.00    -0.163 N  
HETATM    3  C   UNL     1      -8.913   2.477  64.953  1.00  0.00    -0.127 C  
HETATM    4  C   UNL     1     -10.379   4.422  65.433  1.00  0.00    -0.216 C  
ENDROOT
BRANCH   2   5
HETATM    5  C   UNL     1      -8.787   4.516  63.449  1.00  0.00    -0.132 C  
BRANCH   5   6
HETATM    6  C   UNL     1      -8.059   5.638  64.205  1.00  0.00    -0.127 C  
HETATM    7  O   UNL     1      -8.502   6.916  63.763  1.00  0.00    -0.345 OA 
HETATM    8  H   UNL     1      -8.052   7.609  64.230  1.00  0.00     0.000 HD 
ENDBRANCH   5   6
ENDBRANCH   2   5
TORSDOF 2
ENDMDL
MODEL      153
REMARK 921   NORMALIZED FREE ENERGY PREDICTED BY IDOCK:   -1.21 KCAL/MOL
REMARK 922        TOTAL FREE ENERGY PREDICTED BY IDOCK:   -1.39 KCAL/MOL
REMARK 923 INTER-LIGAND FREE ENERGY PREDICTED BY IDOCK:   -1.36 KCAL/MOL
REMARK 924 INTRA-LIGAND FREE ENERGY PREDICTED BY IDOCK:   -0.03 KCAL/MOL
REMARK 927      BINDING AFFINITY PREDICTED BY RF-SCORE:    0.00 PKD
ROOT
HETATM    1  C   UNL     1      -8.264   7.813  73.631  1.00  0.00    -0.192 C  
HETATM    2  N   UNL     1      -9.269   6.750  73.191  1.00  0.00    -0.127 N  
HETATM    3  C   UNL     1     -10.274   6.528  74.311  1.00  0.00    -0.350 C  
HETATM    4  C   UNL     1      -8.508   5.448  72.940  1.00  0.00    -0.119 C  
ENDROOT
BRANCH   2   5
HETATM    5  C   UNL     1      -9.963   7.261  71.903  1.00  0.00    -0.166 C  
BRANCH   5   6
HETATM    6  C   UNL     1      -9.542   6.546  70.610  1.00  0.00    -0.172 C  
HETATM    7  O   UNL     1     -10.679   6.225  69.816  1.00  0.00    -0.235 OA 
HETATM    8  H   UNL     1     -10.418   5.783  69.017  1.00  0.00     0.000 HD 
ENDBRANCH   5   6
ENDBRANCH   2   5
TORSDOF 2
ENDMDL
MODEL      154
REMARK 921   NORMALIZED FREE ENERGY PREDICTED BY IDOCK:   -1.21 KCAL/MOL
REMARK 922        TOTAL FREE ENERGY PREDICTED BY IDOCK:   -1.39 KCAL/MOL
REMARK 923 INTER-LIGAND FREE ENERGY PREDICTED BY IDOCK:   -1.32 KCAL/MOL
REMARK 924 INTRA-LIGAND FREE ENERGY PREDICTED BY IDOCK:   -0.07 KCAL/MOL
REMARK 927      BINDING AFFINITY PREDICTED BY RF-SCORE:    0.00 PKD
ROOT
HETATM    1  C   UNL     1      -8.681   6.423  66.200  1.00  0.00    -0.146 C  
HETATM    2  N   UNL     1      -9.528   6.819  67.408  1.00  0.00    -0.131 N  
HETATM    3  C   UNL     1      -9.096   5.988  68.607  1.00  0.00    -0.116 C  
HETATM    4  C   UNL     1     -10.991   6.509  67.089  1.00  0.00    -0.408 C  
ENDROOT
BRANCH   2   5
HETATM    5  C   UNL     1      -9.309   8.332  67.663  1.00  0.00    -0.137 C  
BRANCH   5   6
HETATM    6  C   UNL     1     -10.557   9.101  68.124  1.00  0.00    -0.183 C  
HETATM    7  O   UNL     1     -10.500   9.366  69.521  1.00  0.00    -0.202 OA 
HETATM    8  H   UNL     1     -11.271   9.841  69.806  1.00  0.00     0.000 HD 
ENDBRANCH   5   6
ENDBRANCH   2   5
TORSDOF 2
ENDMDL
MODEL      155
REMARK 921   NORMALIZED FREE ENERGY PREDICTED BY IDOCK:   -1.20 KCAL/MOL
REMARK 922        TOTAL FREE ENERGY PREDICTED BY IDOCK:   -1.38 KCAL/MOL
REMARK 923 INTER-LIGAND FREE ENERGY PREDICTED BY IDOCK:   -1.34 KCAL/MOL
REMARK 924 INTRA-LIGAND FREE ENERGY PREDICTED BY IDOCK:   -0.04 KCAL/MOL
REMARK 927      BINDING AFFINITY PREDICTED BY RF-SCORE:    0.00 PKD
ROOT
HETATM    1  C   UNL     1      -6.672  10.120  67.007  1.00  0.00    -0.078 C  
HETATM    2  N   UNL     1      -8.066  10.745  67.049  1.00  0.00    -0.120 N  
HETATM    3  C   UNL     1      -8.736  10.543  65.698  1.00  0.00    -0.180 C  
HETATM    4  C   UNL     1      -7.910  12.243  67.309  1.00  0.00    -0.171 C  
ENDROOT
BRANCH   2   5
HETATM    5  C   UNL     1      -8.861  10.050  68.183  1.00  0.00    -0.122 C  
BRANCH   5   6
HETATM    6  C   UNL     1     -10.151   9.345  67.735  1.00  0.00    -0.198 C  
HETATM    7  O   UNL     1     -11.280   9.874  68.420  1.00  0.00    -0.469 OA 
HETATM    8  H   UNL     1     -12.077   9.437  68.143  1.00  0.00     0.000 HD 
ENDBRANCH   5   6
ENDBRANCH   2   5
TORSDOF 2
ENDMDL
MODEL      156
REMARK 921   NORMALIZED FREE ENERGY PREDICTED BY IDOCK:   -1.19 KCAL/MOL
REMARK 922        TOTAL FREE ENERGY PREDICTED BY IDOCK:   -1.38 KCAL/MOL
REMARK 923 INTER-LIGAND FREE ENERGY PREDICTED BY IDOCK:   -1.36 KCAL/MOL
REMARK 924 INTRA-LIGAND FREE ENERGY PREDICTED BY IDOCK:   -0.02 KCAL/MOL
REMARK 927      BINDING AFFINITY PREDICTED BY RF-SCORE:    0.00 PKD
ROOT
HETATM    1  C   UNL     1     -10.979   6.218  68.326  1.00  0.00    -0.321 C  
HETATM    2  N   UNL     1     -10.373   6.306  69.725  1.00  0.00    -0.192 N  
HETATM    3  C   UNL     1     -11.297   7.127  70.612  1.00  0.00    -0.292 C  
HETATM    4  C   UNL     1      -9.024   7.019  69.618  1.00  0.00    -0.141 C  
ENDROOT
BRANCH   2   5
HETATM    5  C   UNL     1     -10.212   4.861  70.262  1.00  0.00    -0.229 C  
BRANCH   5   6
HETATM    6  C   UNL     1      -8.763   4.356  70.345  1.00  0.00    -0.085 C  
HETATM    7  O   UNL     1      -8.292   4.392  71.687  1.00  0.00    -0.097 OA 
HETATM    8  H   UNL     1      -7.397   4.080  71.739  1.00  0.00     0.000 HD 
ENDBRANCH   5   6
ENDBRANCH   2   5
TORSDOF 2
ENDMDL
MODEL      157
REMARK 921   NORMALIZED FREE ENERGY PREDICTED BY IDOCK:   -1.19 KCAL/MOL
REMARK 922        TOTAL FREE ENERGY PREDICTED BY IDOCK:   -1.37 KCAL/MOL
REMARK 923 INTER-LIGAND FREE ENERGY PREDICTED BY IDOCK:   -1.34 KCAL/MOL
REMARK 924 INTRA-LIGAND FREE ENERGY PREDICTED BY IDOCK:   -0.03 KCAL/MOL
REMARK 927      BINDING AFFINITY PREDICTED BY RF-SCORE:    0.00 PKD
ROOT
HETATM    1  C   UNL     1     -10.592   5.935  66.920  1.00  0.00    -0.315 C  
HETATM    2  N   UNL     1      -9.664   5.923  68.134  1.00  0.00    -0.123 N  
HETATM    3  C   UNL     1      -9.004   7.288  68.263  1.00  0.00    -0.125 C  
HETATM    4  C   UNL     1      -8.583   4.868  67.898  1.00  0.00    -0.103 C  
ENDROOT
BRANCH   2   5
HETATM    5  C   UNL     1     -10.522   5.590  69.381  1.00  0.00    -0.290 C  
BRANCH   5   6
HETATM    6  C   UNL     1      -9.722   5.245  70.647  1.00  0.00    -0.186 C  
HETATM    7  O   UNL     1     -10.205   5.979  71.765  1.00  0.00    -0.194 OA 
HETATM    8  H   UNL     1      -9.710   5.766  72.547  1.00  0.00     0.000 HD 
ENDBRANCH   5   6
ENDBRANCH   2   5
TORSDOF 2
ENDMDL
MODEL      158
REMARK 921   NORMALIZED FREE ENERGY PREDICTED BY IDOCK:   -1.16 KCAL/MOL
REMARK 922        TOTAL FREE ENERGY PREDICTED BY IDOCK:   -1.34 KCAL/MOL
REMARK 923 INTER-LIGAND FREE ENERGY PREDICTED BY IDOCK:   -1.27 KCAL/MOL
REMARK 924 INTRA-LIGAND FREE ENERGY PREDICTED BY IDOCK:   -0.07 KCAL/MOL
REMARK 927      BINDING AFFINITY PREDICTED BY RF-SCORE:    0.00 PKD
ROOT
HETATM    1  C   UNL     1     -10.478   8.862  67.416  1.00  0.00    -0.277 C  
HETATM    2  N   UNL     1     -10.017   8.932  68.871  1.00  0.00    -0.185 N  
HETATM    3  C   UNL     1     -10.760   7.876  69.675  1.00  0.00    -0.218 C  
HETATM    4  C   UNL     1     -10.372  10.316  69.418  1.00  0.00    -0.235 C  
ENDROOT
BRANCH   2   5
HETATM    5  C   UNL     1      -8.487   8.687  68.894  1.00  0.00    -0.129 C  
BRANCH   5   6
HETATM    6  C   UNL     1      -8.064   7.257  69.263  1.00  0.00    -0.124 C  
HETATM    7  O   UNL     1      -7.735   6.510  68.097  1.00  0.00    -0.101 OA 
HETATM    8  H   UNL     1      -7.473   5.626  68.325  1.00  0.00     0.000 HD 
ENDBRANCH   5   6
ENDBRANCH   2   5
TORSDOF 2
ENDMDL
MODEL      159
REMARK 921   NORMALIZED FREE ENERGY PREDICTED BY IDOCK:   -1.16 KCAL/MOL
REMARK 922        TOTAL FREE ENERGY PREDICTED BY IDOCK:   -1.34 KCAL/MOL
REMARK 923 INTER-LIGAND FREE ENERGY PREDICTED BY IDOCK:   -1.45 KCAL/MOL
REMARK 924 INTRA-LIGAND FREE ENERGY PREDICTED BY IDOCK:    0.12 KCAL/MOL
REMARK 927      BINDING AFFINITY PREDICTED BY RF-SCORE:    0.00 PKD
ROOT
HETATM    1  C   UNL     1     -10.255  13.324  67.217  1.00  0.00    -0.240 C  
HETATM    2  N   UNL     1      -9.800  11.887  66.969  1.00  0.00    -0.191 N  
HETATM    3  C   UNL     1      -9.083  11.822  65.629  1.00  0.00    -0.028 C  
HETATM    4  C   UNL     1     -11.041  10.995  66.913  1.00  0.00    -0.213 C  
ENDROOT
BRANCH   2   5
HETATM    5  C   UNL     1      -8.860  11.482  68.133  1.00  0.00    -0.165 C  
BRANCH   5   6
HETATM    6  C   UNL     1      -9.410  10.390  69.063  1.00  0.00    -0.194 C  
HETATM    7  O   UNL     1     -10.348  10.935  69.984  1.00  0.00    -0.423 OA 
HETATM    8  H   UNL     1     -10.687  10.260  70.559  1.00  0.00     0.000 HD 
ENDBRANCH   5   6
ENDBRANCH   2   5
TORSDOF 2
ENDMDL
MODEL      160
REMARK 921   NORMALIZED FREE ENERGY PREDICTED BY IDOCK:   -1.16 KCAL/MOL
REMARK 922        TOTAL FREE ENERGY PREDICTED BY IDOCK:   -1.33 KCAL/MOL
REMARK 923 INTER-LIGAND FREE ENERGY PREDICTED BY IDOCK:   -1.27 KCAL/MOL
REMARK 924 INTRA-LIGAND FREE ENERGY PREDICTED BY IDOCK:   -0.07 KCAL/MOL
REMARK 927      BINDING AFFINITY PREDICTED BY RF-SCORE:    0.00 PKD
ROOT
HETATM    1  C   UNL     1      -7.577   6.928  68.196  1.00  0.00    -0.108 C  
HETATM    2  N   UNL     1      -8.329   7.058  69.520  1.00  0.00    -0.131 N  
HETATM    3  C   UNL     1      -7.833   5.983  70.475  1.00  0.00    -0.102 C  
HETATM    4  C   UNL     1      -9.817   6.836  69.248  1.00  0.00    -0.155 C  
ENDROOT
BRANCH   2   5
HETATM    5  C   UNL     1      -8.058   8.478  70.079  1.00  0.00    -0.111 C  
BRANCH   5   6
HETATM    6  C   UNL     1      -9.175   9.053  70.963  1.00  0.00    -0.264 C  
HETATM    7  O   UNL     1      -8.842   8.933  72.341  1.00  0.00    -0.396 OA 
HETATM    8  H   UNL     1      -9.532   9.288  72.887  1.00  0.00     0.000 HD 
ENDBRANCH   5   6
ENDBRANCH   2   5
TORSDOF 2
ENDMDL
MODEL      161
REMARK 921   NORMALIZED FREE ENERGY PREDICTED BY IDOCK:   -1.15 KCAL/MOL
REMARK 922        TOTAL FREE ENERGY PREDICTED BY IDOCK:   -1.33 KCAL/MOL
REMARK 923 INTER-LIGAND FREE ENERGY PREDICTED BY IDOCK:   -1.31 KCAL/MOL
REMARK 924 INTRA-LIGAND FREE ENERGY PREDICTED BY IDOCK:   -0.02 KCAL/MOL
REMARK 927      BINDING AFFINITY PREDICTED BY RF-SCORE:    0.00 PKD
ROOT
HETATM    1  C   UNL     1      -8.584   6.263  69.214  1.00  0.00    -0.124 C  
HETATM    2  N   UNL     1      -9.910   5.506  69.165  1.00  0.00    -0.154 N  
HETATM    3  C   UNL     1     -10.915   6.323  68.366  1.00  0.00    -0.325 C  
HETATM    4  C   UNL     1     -10.424   5.348  70.597  1.00  0.00    -0.259 C  
ENDROOT
BRANCH   2   5
HETATM    5  C   UNL     1      -9.645   4.131  68.500  1.00  0.00    -0.125 C  
BRANCH   5   6
HETATM    6  C   UNL     1      -9.757   4.117  66.968  1.00  0.00    -0.197 C  
HETATM    7  O   UNL     1      -8.894   3.136  66.407  1.00  0.00    -0.128 OA 
HETATM    8  H   UNL     1      -8.964   3.127  65.460  1.00  0.00     0.000 HD 
ENDBRANCH   5   6
ENDBRANCH   2   5
TORSDOF 2
ENDMDL
MODEL      162
REMARK 921   NORMALIZED FREE ENERGY PREDICTED BY IDOCK:   -1.15 KCAL/MOL
REMARK 922        TOTAL FREE ENERGY PREDICTED BY IDOCK:   -1.32 KCAL/MOL
REMARK 923 INTER-LIGAND FREE ENERGY PREDICTED BY IDOCK:   -1.28 KCAL/MOL
REMARK 924 INTRA-LIGAND FREE ENERGY PREDICTED BY IDOCK:   -0.04 KCAL/MOL
REMARK 927      BINDING AFFINITY PREDICTED BY RF-SCORE:    0.00 PKD
ROOT
HETATM    1  C   UNL     1      -9.091   9.966  63.830  1.00  0.00    -0.256 C  
HETATM    2  N   UNL     1      -8.950  10.219  65.330  1.00  0.00    -0.174 N  
HETATM    3  C   UNL     1      -9.839  11.392  65.717  1.00  0.00    -0.232 C  
HETATM    4  C   UNL     1      -7.493  10.582  65.619  1.00  0.00    -0.129 C  
ENDROOT
BRANCH   2   5
HETATM    5  C   UNL     1      -9.371   8.924  66.069  1.00  0.00    -0.242 C  
BRANCH   5   6
HETATM    6  C   UNL     1      -8.892   8.821  67.525  1.00  0.00    -0.134 C  
HETATM    7  O   UNL     1      -8.012   7.715  67.692  1.00  0.00    -0.117 OA 
HETATM    8  H   UNL     1      -7.717   7.652  68.592  1.00  0.00     0.000 HD 
ENDBRANCH   5   6
ENDBRANCH   2   5
TORSDOF 2
ENDMDL
MODEL      163
REMARK 921   NORMALIZED FREE ENERGY PREDICTED BY IDOCK:   -1.13 KCAL/MOL
REMARK 922        TOTAL FREE ENERGY PREDICTED BY IDOCK:   -1.31 KCAL/MOL
REMARK 923 INTER-LIGAND FREE ENERGY PREDICTED BY IDOCK:   -1.24 KCAL/MOL
REMARK 924 INTRA-LIGAND FREE ENERGY PREDICTED BY IDOCK:   -0.07 KCAL/MOL
REMARK 927      BINDING AFFINITY PREDICTED BY RF-SCORE:    0.00 PKD
ROOT
HETATM    1  C   UNL     1     -10.997   6.238  67.820  1.00  0.00    -0.332 C  
HETATM    2  N   UNL     1      -9.839   7.205  67.579  1.00  0.00    -0.143 N  
HETATM    3  C   UNL     1     -10.404   8.562  67.187  1.00  0.00    -0.307 C  
HETATM    4  C   UNL     1      -8.997   6.663  66.423  1.00  0.00    -0.148 C  
ENDROOT
BRANCH   2   5
HETATM    5  C   UNL     1      -9.016   7.293  68.890  1.00  0.00    -0.133 C  
BRANCH   5   6
HETATM    6  C   UNL     1      -7.509   7.521  68.698  1.00  0.00    -0.101 C  
HETATM    7  O   UNL     1      -7.210   8.911  68.646  1.00  0.00    -0.070 OA 
HETATM    8  H   UNL     1      -6.279   9.051  68.527  1.00  0.00     0.000 HD 
ENDBRANCH   5   6
ENDBRANCH   2   5
TORSDOF 2
ENDMDL
MODEL      164
REMARK 921   NORMALIZED FREE ENERGY PREDICTED BY IDOCK:   -1.11 KCAL/MOL
REMARK 922        TOTAL FREE ENERGY PREDICTED BY IDOCK:   -1.29 KCAL/MOL
REMARK 923 INTER-LIGAND FREE ENERGY PREDICTED BY IDOCK:   -1.25 KCAL/MOL
REMARK 924 INTRA-LIGAND FREE ENERGY PREDICTED BY IDOCK:   -0.04 KCAL/MOL
REMARK 927      BINDING AFFINITY PREDICTED BY RF-SCORE:    0.00 PKD
ROOT
HETATM    1  C   UNL     1      -9.032   8.592  68.596  1.00  0.00    -0.142 C  
HETATM    2  N   UNL     1      -8.259   8.854  69.888  1.00  0.00    -0.111 N  
HETATM    3  C   UNL     1      -7.419  10.111  69.713  1.00  0.00    -0.163 C  
HETATM    4  C   UNL     1      -7.330   7.665  70.138  1.00  0.00    -0.076 C  
ENDROOT
BRANCH   2   5
HETATM    5  C   UNL     1      -9.292   9.019  71.031  1.00  0.00    -0.271 C  
BRANCH   5   6
HETATM    6  C   UNL     1     -10.356   7.915  71.110  1.00  0.00    -0.200 C  
HETATM    7  O   UNL     1     -11.665   8.469  71.052  1.00  0.00    -0.282 OA 
HETATM    8  H   UNL     1     -12.323   7.786  71.101  1.00  0.00     0.000 HD 
ENDBRANCH   5   6
ENDBRANCH   2   5
TORSDOF 2
ENDMDL
MODEL      165
REMARK 921   NORMALIZED FREE ENERGY PREDICTED BY IDOCK:   -1.11 KCAL/MOL
REMARK 922        TOTAL FREE ENERGY PREDICTED BY IDOCK:   -1.28 KCAL/MOL
REMARK 923 INTER-LIGAND FREE ENERGY PREDICTED BY IDOCK:   -1.27 KCAL/MOL
REMARK 924 INTRA-LIGAND FREE ENERGY PREDICTED BY IDOCK:   -0.02 KCAL/MOL
REMARK 927      BINDING AFFINITY PREDICTED BY RF-SCORE:    0.00 PKD
ROOT
HETATM    1  C   UNL     1      -7.095   5.312  72.109  1.00  0.00    -0.085 C  
HETATM    2  N   UNL     1      -7.485   6.208  73.283  1.00  0.00    -0.092 N  
HETATM    3  C   UNL     1      -6.346   7.178  73.562  1.00  0.00    -0.065 C  
HETATM    4  C   UNL     1      -7.695   5.321  74.512  1.00  0.00    -0.088 C  
ENDROOT
BRANCH   2   5
HETATM    5  C   UNL     1      -8.784   6.958  72.893  1.00  0.00    -0.122 C  
BRANCH   5   6
HETATM    6  C   UNL     1     -10.045   6.508  73.645  1.00  0.00    -0.258 C  
HETATM    7  O   UNL     1     -11.074   7.484  73.537  1.00  0.00    -0.556 OA 
HETATM    8  H   UNL     1     -11.854   7.205  74.002  1.00  0.00     0.000 HD 
ENDBRANCH   5   6
ENDBRANCH   2   5
TORSDOF 2
ENDMDL
MODEL      166
REMARK 921   NORMALIZED FREE ENERGY PREDICTED BY IDOCK:   -1.10 KCAL/MOL
REMARK 922        TOTAL FREE ENERGY PREDICTED BY IDOCK:   -1.27 KCAL/MOL
REMARK 923 INTER-LIGAND FREE ENERGY PREDICTED BY IDOCK:   -1.23 KCAL/MOL
REMARK 924 INTRA-LIGAND FREE ENERGY PREDICTED BY IDOCK:   -0.04 KCAL/MOL
REMARK 927      BINDING AFFINITY PREDICTED BY RF-SCORE:    0.00 PKD
ROOT
HETATM    1  C   UNL     1      -8.056   8.273  67.735  1.00  0.00    -0.127 C  
HETATM    2  N   UNL     1      -9.060   9.407  67.936  1.00  0.00    -0.130 N  
HETATM    3  C   UNL     1      -8.475  10.416  68.912  1.00  0.00    -0.144 C  
HETATM    4  C   UNL     1     -10.336   8.816  68.536  1.00  0.00    -0.199 C  
ENDROOT
BRANCH   2   5
HETATM    5  C   UNL     1      -9.328  10.051  66.551  1.00  0.00    -0.162 C  
BRANCH   5   6
HETATM    6  C   UNL     1      -8.244   9.794  65.494  1.00  0.00    -0.129 C  
HETATM    7  O   UNL     1      -7.779  11.018  64.938  1.00  0.00    -0.337 OA 
HETATM    8  H   UNL     1      -7.109  10.859  64.284  1.00  0.00     0.000 HD 
ENDBRANCH   5   6
ENDBRANCH   2   5
TORSDOF 2
ENDMDL
MODEL      167
REMARK 921   NORMALIZED FREE ENERGY PREDICTED BY IDOCK:   -1.09 KCAL/MOL
REMARK 922        TOTAL FREE ENERGY PREDICTED BY IDOCK:   -1.26 KCAL/MOL
REMARK 923 INTER-LIGAND FREE ENERGY PREDICTED BY IDOCK:   -1.18 KCAL/MOL
REMARK 924 INTRA-LIGAND FREE ENERGY PREDICTED BY IDOCK:   -0.07 KCAL/MOL
REMARK 927      BINDING AFFINITY PREDICTED BY RF-SCORE:    0.00 PKD
ROOT
HETATM    1  C   UNL     1      -9.502  10.126  69.513  1.00  0.00    -0.214 C  
HETATM    2  N   UNL     1      -9.676  10.677  68.099  1.00  0.00    -0.153 N  
HETATM    3  C   UNL     1      -9.241  12.135  68.082  1.00  0.00    -0.197 C  
HETATM    4  C   UNL     1     -11.158  10.595  67.732  1.00  0.00    -0.321 C  
ENDROOT
BRANCH   2   5
HETATM    5  C   UNL     1      -8.805   9.818  67.147  1.00  0.00    -0.132 C  
BRANCH   5   6
HETATM    6  C   UNL     1      -7.412  10.391  66.845  1.00  0.00    -0.107 C  
HETATM    7  O   UNL     1      -6.442   9.859  67.739  1.00  0.00    -0.062 OA 
HETATM    8  H   UNL     1      -5.581  10.214  67.552  1.00  0.00     0.000 HD 
ENDBRANCH   5   6
ENDBRANCH   2   5
TORSDOF 2
ENDMDL
MODEL      168
REMARK 921   NORMALIZED FREE ENERGY PREDICTED BY IDOCK:   -1.08 KCAL/MOL
REMARK 922        TOTAL FREE ENERGY PREDICTED BY IDOCK:   -1.25 KCAL/MOL
REMARK 923 INTER-LIGAND FREE ENERGY PREDICTED BY IDOCK:   -1.19 KCAL/MOL
REMARK 924 INTRA-LIGAND FREE ENERGY PREDICTED BY IDOCK:   -0.06 KCAL/MOL
REMARK 927      BINDING AFFINITY PREDICTED BY RF-SCORE:    0.00 PKD
ROOT
HETATM    1  C   UNL     1      -8.138   4.654  63.703  1.00  0.00    -0.101 C  
HETATM    2  N   UNL     1      -8.814   3.544  64.507  1.00  0.00    -0.111 N  
HETATM    3  C   UNL     1      -8.348   2.197  63.975  1.00  0.00    -0.082 C  
HETATM    4  C   UNL     1     -10.325   3.663  64.308  1.00  0.00    -0.227 C  
ENDROOT
BRANCH   2   5
HETATM    5  C   UNL     1      -8.419   3.732  65.994  1.00  0.00    -0.110 C  
BRANCH   5   6
HETATM    6  C   UNL     1      -9.596   3.757  66.981  1.00  0.00    -0.180 C  
HETATM    7  O   UNL     1      -9.719   2.509  67.653  1.00  0.00    -0.379 OA 
HETATM    8  H   UNL     1     -10.447   2.525  68.263  1.00  0.00     0.000 HD 
ENDBRANCH   5   6
ENDBRANCH   2   5
TORSDOF 2
ENDMDL
MODEL      169
REMARK 921   NORMALIZED FREE ENERGY PREDICTED BY IDOCK:   -1.07 KCAL/MOL
REMARK 922        TOTAL FREE ENERGY PREDICTED BY IDOCK:   -1.24 KCAL/MOL
REMARK 923 INTER-LIGAND FREE ENERGY PREDICTED BY IDOCK:   -1.18 KCAL/MOL
REMARK 924 INTRA-LIGAND FREE ENERGY PREDICTED BY IDOCK:   -0.06 KCAL/MOL
REMARK 927      BINDING AFFINITY PREDICTED BY RF-SCORE:    0.00 PKD
ROOT
HETATM    1  C   UNL     1      -6.307  10.197  65.151  1.00  0.00    -0.121 C  
HETATM    2  N   UNL     1      -7.472  10.311  66.133  1.00  0.00    -0.115 N  
HETATM    3  C   UNL     1      -7.268  11.546  66.997  1.00  0.00    -0.146 C  
HETATM    4  C   UNL     1      -7.466   9.071  67.028  1.00  0.00    -0.087 C  
ENDROOT
BRANCH   2   5
HETATM    5  C   UNL     1      -8.779  10.409  65.306  1.00  0.00    -0.179 C  
BRANCH   5   6
HETATM    6  C   UNL     1      -9.976   9.643  65.888  1.00  0.00    -0.281 C  
HETATM    7  O   UNL     1     -10.662  10.434  66.852  1.00  0.00    -0.252 OA 
HETATM    8  H   UNL     1     -11.402   9.960  67.212  1.00  0.00     0.000 HD 
ENDBRANCH   5   6
ENDBRANCH   2   5
TORSDOF 2
ENDMDL
MODEL      170
REMARK 921   NORMALIZED FREE ENERGY PREDICTED BY IDOCK:   -1.06 KCAL/MOL
REMARK 922        TOTAL FREE ENERGY PREDICTED BY IDOCK:   -1.23 KCAL/MOL
REMARK 923 INTER-LIGAND FREE ENERGY PREDICTED BY IDOCK:   -1.20 KCAL/MOL
REMARK 924 INTRA-LIGAND FREE ENERGY PREDICTED BY IDOCK:   -0.03 KCAL/MOL
REMARK 927      BINDING AFFINITY PREDICTED BY RF-SCORE:    0.00 PKD
ROOT
HETATM    1  C   UNL     1      -9.140   7.186  66.099  1.00  0.00    -0.119 C  
HETATM    2  N   UNL     1      -8.398   5.918  65.681  1.00  0.00    -0.137 N  
HETATM    3  C   UNL     1      -7.217   5.707  66.616  1.00  0.00    -0.074 C  
HETATM    4  C   UNL     1      -7.877   6.117  64.257  1.00  0.00    -0.114 C  
ENDROOT
BRANCH   2   5
HETATM    5  C   UNL     1      -9.400   4.737  65.761  1.00  0.00    -0.161 C  
BRANCH   5   6
HETATM    6  C   UNL     1      -9.551   4.106  67.153  1.00  0.00    -0.197 C  
HETATM    7  O   UNL     1      -9.759   2.702  67.052  1.00  0.00    -0.402 OA 
HETATM    8  H   UNL     1      -9.853   2.312  67.912  1.00  0.00     0.000 HD 
ENDBRANCH   5   6
ENDBRANCH   2   5
TORSDOF 2
ENDMDL
MODEL      171
REMARK 921   NORMALIZED FREE ENERGY PREDICTED BY IDOCK:   -1.06 KCAL/MOL
REMARK 922        TOTAL FREE ENERGY PREDICTED BY IDOCK:   -1.22 KCAL/MOL
REMARK 923 INTER-LIGAND FREE ENERGY PREDICTED BY IDOCK:   -1.32 KCAL/MOL
REMARK 924 INTRA-LIGAND FREE ENERGY PREDICTED BY IDOCK:    0.10 KCAL/MOL
REMARK 927      BINDING AFFINITY PREDICTED BY RF-SCORE:    0.00 PKD
ROOT
HETATM    1  C   UNL     1     -10.905   9.062  70.726  1.00  0.00    -0.251 C  
HETATM    2  N   UNL     1     -10.287   8.537  69.431  1.00  0.00    -0.213 N  
HETATM    3  C   UNL     1     -10.924   7.199  69.088  1.00  0.00    -0.113 C  
HETATM    4  C   UNL     1      -8.790   8.331  69.666  1.00  0.00    -0.139 C  
ENDROOT
BRANCH   2   5
HETATM    5  C   UNL     1     -10.550   9.588  68.323  1.00  0.00    -0.216 C  
BRANCH   5   6
HETATM    6  C   UNL     1      -9.560   9.556  67.148  1.00  0.00    -0.160 C  
HETATM    7  O   UNL     1      -9.751   8.387  66.359  1.00  0.00    -0.233 OA 
HETATM    8  H   UNL     1      -9.139   8.367  65.633  1.00  0.00     0.000 HD 
ENDBRANCH   5   6
ENDBRANCH   2   5
TORSDOF 2
ENDMDL
MODEL      172
REMARK 921   NORMALIZED FREE ENERGY PREDICTED BY IDOCK:   -1.05 KCAL/MOL
REMARK 922        TOTAL FREE ENERGY PREDICTED BY IDOCK:   -1.21 KCAL/MOL
REMARK 923 INTER-LIGAND FREE ENERGY PREDICTED BY IDOCK:   -1.20 KCAL/MOL
REMARK 924 INTRA-LIGAND FREE ENERGY PREDICTED BY IDOCK:   -0.02 KCAL/MOL
REMARK 927      BINDING AFFINITY PREDICTED BY RF-SCORE:    0.00 PKD
ROOT
HETATM    1  C   UNL     1      -9.047   8.473  66.070  1.00  0.00    -0.194 C  
HETATM    2  N   UNL     1      -8.528   9.437  67.135  1.00  0.00    -0.127 N  
HETATM    3  C   UNL     1      -7.113   9.861  66.768  1.00  0.00    -0.090 C  
HETATM    4  C   UNL     1      -8.495   8.699  68.474  1.00  0.00    -0.131 C  
ENDROOT
BRANCH   2   5
HETATM    5  C   UNL     1      -9.488  10.653  67.179  1.00  0.00    -0.156 C  
BRANCH   5   6
HETATM    6  C   UNL     1     -10.051  11.087  65.817  1.00  0.00    -0.252 C  
HETATM    7  O   UNL     1     -10.553  12.417  65.877  1.00  0.00    -0.248 OA 
HETATM    8  H   UNL     1     -10.901  12.684  65.035  1.00  0.00     0.000 HD 
ENDBRANCH   5   6
ENDBRANCH   2   5
TORSDOF 2
ENDMDL
MODEL      173
REMARK 921   NORMALIZED FREE ENERGY PREDICTED BY IDOCK:   -1.03 KCAL/MOL
REMARK 922        TOTAL FREE ENERGY PREDICTED BY IDOCK:   -1.19 KCAL/MOL
REMARK 923 INTER-LIGAND FREE ENERGY PREDICTED BY IDOCK:   -1.17 KCAL/MOL
REMARK 924 INTRA-LIGAND FREE ENERGY PREDICTED BY IDOCK:   -0.02 KCAL/MOL
REMARK 927      BINDING AFFINITY PREDICTED BY RF-SCORE:    0.00 PKD
ROOT
HETATM    1  C   UNL     1      -9.372   3.092  70.179  1.00  0.00    -0.168 C  
HETATM    2  N   UNL     1      -9.439   4.012  71.397  1.00  0.00    -0.148 N  
HETATM    3  C   UNL     1      -8.033   4.483  71.737  1.00  0.00    -0.097 C  
HETATM    4  C   UNL     1      -9.994   3.208  72.573  1.00  0.00    -0.158 C  
ENDROOT
BRANCH   2   5
HETATM    5  C   UNL     1     -10.362   5.205  71.037  1.00  0.00    -0.208 C  
BRANCH   5   6
HETATM    6  C   UNL     1      -9.634   6.525  70.744  1.00  0.00    -0.179 C  
HETATM    7  O   UNL     1     -10.561   7.596  70.611  1.00  0.00    -0.215 OA 
HETATM    8  H   UNL     1     -10.111   8.412  70.430  1.00  0.00     0.000 HD 
ENDBRANCH   5   6
ENDBRANCH   2   5
TORSDOF 2
ENDMDL
MODEL      174
REMARK 921   NORMALIZED FREE ENERGY PREDICTED BY IDOCK:   -1.02 KCAL/MOL
REMARK 922        TOTAL FREE ENERGY PREDICTED BY IDOCK:   -1.18 KCAL/MOL
REMARK 923 INTER-LIGAND FREE ENERGY PREDICTED BY IDOCK:   -1.12 KCAL/MOL
REMARK 924 INTRA-LIGAND FREE ENERGY PREDICTED BY IDOCK:   -0.07 KCAL/MOL
REMARK 927      BINDING AFFINITY PREDICTED BY RF-SCORE:    0.00 PKD
ROOT
HETATM    1  C   UNL     1      -6.372   5.153  64.897  1.00  0.00    -0.034 C  
HETATM    2  N   UNL     1      -7.744   5.815  64.788  1.00  0.00    -0.090 N  
HETATM    3  C   UNL     1      -8.818   4.767  65.036  1.00  0.00    -0.152 C  
HETATM    4  C   UNL     1      -7.899   6.360  63.367  1.00  0.00    -0.107 C  
ENDROOT
BRANCH   2   5
HETATM    5  C   UNL     1      -7.807   6.949  65.843  1.00  0.00    -0.106 C  
BRANCH   5   6
HETATM    6  C   UNL     1      -9.195   7.193  66.453  1.00  0.00    -0.157 C  
HETATM    7  O   UNL     1      -9.804   8.345  65.881  1.00  0.00    -0.471 OA 
HETATM    8  H   UNL     1     -10.662   8.496  66.258  1.00  0.00     0.000 HD 
ENDBRANCH   5   6
ENDBRANCH   2   5
TORSDOF 2
ENDMDL
MODEL      175
REMARK 921   NORMALIZED FREE ENERGY PREDICTED BY IDOCK:   -1.01 KCAL/MOL
REMARK 922        TOTAL FREE ENERGY PREDICTED BY IDOCK:   -1.17 KCAL/MOL
REMARK 923 INTER-LIGAND FREE ENERGY PREDICTED BY IDOCK:   -1.14 KCAL/MOL
REMARK 924 INTRA-LIGAND FREE ENERGY PREDICTED BY IDOCK:   -0.03 KCAL/MOL
REMARK 927      BINDING AFFINITY PREDICTED BY RF-SCORE:    0.00 PKD
ROOT
HETATM    1  C   UNL     1      -6.571   8.193  64.259  1.00  0.00    -0.066 C  
HETATM    2  N   UNL     1      -7.614   9.234  64.663  1.00  0.00    -0.103 N  
HETATM    3  C   UNL     1      -8.202   9.855  63.405  1.00  0.00    -0.161 C  
HETATM    4  C   UNL     1      -6.911  10.323  65.474  1.00  0.00    -0.138 C  
ENDROOT
BRANCH   2   5
HETATM    5  C   UNL     1      -8.702   8.513  65.499  1.00  0.00    -0.174 C  
BRANCH   5   6
HETATM    6  C   UNL     1      -9.926   9.372  65.852  1.00  0.00    -0.256 C  
HETATM    7  O   UNL     1     -10.327   9.152  67.199  1.00  0.00    -0.241 OA 
HETATM    8  H   UNL     1     -11.084   9.683  67.416  1.00  0.00     0.000 HD 
ENDBRANCH   5   6
ENDBRANCH   2   5
TORSDOF 2
ENDMDL
MODEL      176
REMARK 921   NORMALIZED FREE ENERGY PREDICTED BY IDOCK:   -0.97 KCAL/MOL
REMARK 922        TOTAL FREE ENERGY PREDICTED BY IDOCK:   -1.13 KCAL/MOL
REMARK 923 INTER-LIGAND FREE ENERGY PREDICTED BY IDOCK:   -1.11 KCAL/MOL
REMARK 924 INTRA-LIGAND FREE ENERGY PREDICTED BY IDOCK:   -0.02 KCAL/MOL
REMARK 927      BINDING AFFINITY PREDICTED BY RF-SCORE:    0.00 PKD
ROOT
HETATM    1  C   UNL     1      -8.050   2.195  62.490  1.00  0.00    -0.064 C  
HETATM    2  N   UNL     1      -8.306   2.578  63.947  1.00  0.00    -0.082 N  
HETATM    3  C   UNL     1      -7.692   3.944  64.213  1.00  0.00    -0.084 C  
HETATM    4  C   UNL     1      -7.622   1.542  64.840  1.00  0.00    -0.059 C  
ENDROOT
BRANCH   2   5
HETATM    5  C   UNL     1      -9.840   2.595  64.168  1.00  0.00    -0.132 C  
BRANCH   5   6
HETATM    6  C   UNL     1     -10.667   1.964  63.037  1.00  0.00    -0.177 C  
HETATM    7  O   UNL     1     -11.939   1.543  63.515  1.00  0.00    -0.509 OA 
HETATM    8  H   UNL     1     -12.449   1.153  62.816  1.00  0.00     0.000 HD 
ENDBRANCH   5   6
ENDBRANCH   2   5
TORSDOF 2
ENDMDL
MODEL      177
REMARK 921   NORMALIZED FREE ENERGY PREDICTED BY IDOCK:   -0.95 KCAL/MOL
REMARK 922        TOTAL FREE ENERGY PREDICTED BY IDOCK:   -1.10 KCAL/MOL
REMARK 923 INTER-LIGAND FREE ENERGY PREDICTED BY IDOCK:   -1.05 KCAL/MOL
REMARK 924 INTRA-LIGAND FREE ENERGY PREDICTED BY IDOCK:   -0.05 KCAL/MOL
REMARK 927      BINDING AFFINITY PREDICTED BY RF-SCORE:    0.00 PKD
ROOT
HETATM    1  C   UNL     1      -9.191   8.443  70.908  1.00  0.00    -0.160 C  
HETATM    2  N   UNL     1      -9.607   7.012  70.574  1.00  0.00    -0.169 N  
HETATM    3  C   UNL     1     -11.088   6.997  70.229  1.00  0.00    -0.285 C  
HETATM    4  C   UNL     1      -9.375   6.145  71.812  1.00  0.00    -0.151 C  
ENDROOT
BRANCH   2   5
HETATM    5  C   UNL     1      -8.744   6.537  69.377  1.00  0.00    -0.134 C  
BRANCH   5   6
HETATM    6  C   UNL     1      -7.898   5.282  69.643  1.00  0.00    -0.073 C  
HETATM    7  O   UNL     1      -8.391   4.173  68.902  1.00  0.00    -0.077 OA 
HETATM    8  H   UNL     1      -7.868   3.397  69.067  1.00  0.00     0.000 HD 
ENDBRANCH   5   6
ENDBRANCH   2   5
TORSDOF 2
ENDMDL
MODEL      178
REMARK 921   NORMALIZED FREE ENERGY PREDICTED BY IDOCK:   -0.92 KCAL/MOL
REMARK 922        TOTAL FREE ENERGY PREDICTED BY IDOCK:   -1.07 KCAL/MOL
REMARK 923 INTER-LIGAND FREE ENERGY PREDICTED BY IDOCK:   -1.06 KCAL/MOL
REMARK 924 INTRA-LIGAND FREE ENERGY PREDICTED BY IDOCK:   -0.02 KCAL/MOL
REMARK 927      BINDING AFFINITY PREDICTED BY RF-SCORE:    0.00 PKD
ROOT
HETATM    1  C   UNL     1      -7.867   6.034  71.728  1.00  0.00    -0.102 C  
HETATM    2  N   UNL     1      -9.051   6.409  70.838  1.00  0.00    -0.150 N  
HETATM    3  C   UNL     1      -8.707   7.676  70.069  1.00  0.00    -0.142 C  
HETATM    4  C   UNL     1     -10.256   6.684  71.738  1.00  0.00    -0.187 C  
ENDROOT
BRANCH   2   5
HETATM    5  C   UNL     1      -9.315   5.221  69.879  1.00  0.00    -0.141 C  
BRANCH   5   6
HETATM    6  C   UNL     1     -10.287   5.520  68.727  1.00  0.00    -0.201 C  
HETATM    7  O   UNL     1     -10.104   4.598  67.658  1.00  0.00    -0.134 OA 
HETATM    8  H   UNL     1     -10.704   4.783  66.947  1.00  0.00     0.000 HD 
ENDBRANCH   5   6
ENDBRANCH   2   5
TORSDOF 2
ENDMDL
MODEL      179
REMARK 921   NORMALIZED FREE ENERGY PREDICTED BY IDOCK:   -0.90 KCAL/MOL
REMARK 922        TOTAL FREE ENERGY PREDICTED BY IDOCK:   -1.05 KCAL/MOL
REMARK 923 INTER-LIGAND FREE ENERGY PREDICTED BY IDOCK:   -1.05 KCAL/MOL
REMARK 924 INTRA-LIGAND FREE ENERGY PREDICTED BY IDOCK:    0.00 KCAL/MOL
REMARK 927      BINDING AFFINITY PREDICTED BY RF-SCORE:    0.00 PKD
ROOT
HETATM    1  C   UNL     1      -9.065   8.175  72.651  1.00  0.00    -0.250 C  
HETATM    2  N   UNL     1      -8.773   6.880  71.895  1.00  0.00    -0.126 N  
HETATM    3  C   UNL     1      -9.530   5.740  72.559  1.00  0.00    -0.141 C  
HETATM    4  C   UNL     1      -7.273   6.600  71.986  1.00  0.00    -0.081 C  
ENDROOT
BRANCH   2   5
HETATM    5  C   UNL     1      -9.227   7.078  70.426  1.00  0.00    -0.156 C  
BRANCH   5   6
HETATM    6  C   UNL     1      -8.712   8.360  69.754  1.00  0.00    -0.133 C  
HETATM    7  O   UNL     1      -9.777   9.277  69.531  1.00  0.00    -0.162 OA 
HETATM    8  H   UNL     1      -9.459  10.069  69.115  1.00  0.00     0.000 HD 
ENDBRANCH   5   6
ENDBRANCH   2   5
TORSDOF 2
ENDMDL
MODEL      180
REMARK 921   NORMALIZED FREE ENERGY PREDICTED BY IDOCK:   -0.89 KCAL/MOL
REMARK 922        TOTAL FREE ENERGY PREDICTED BY IDOCK:   -1.04 KCAL/MOL
REMARK 923 INTER-LIGAND FREE ENERGY PREDICTED BY IDOCK:   -1.02 KCAL/MOL
REMARK 924 INTRA-LIGAND FREE ENERGY PREDICTED BY IDOCK:   -0.02 KCAL/MOL
REMARK 927      BINDING AFFINITY PREDICTED BY RF-SCORE:    0.00 PKD
ROOT
HETATM    1  C   UNL     1      -7.243   8.696  65.728  1.00  0.00    -0.080 C  
HETATM    2  N   UNL     1      -7.172  10.079  66.371  1.00  0.00    -0.099 N  
HETATM    3  C   UNL     1      -8.359  10.905  65.899  1.00  0.00    -0.149 C  
HETATM    4  C   UNL     1      -5.880  10.755  65.909  1.00  0.00    -0.142 C  
ENDROOT
BRANCH   2   5
HETATM    5  C   UNL     1      -7.194   9.887  67.909  1.00  0.00    -0.087 C  
BRANCH   5   6
HETATM    6  C   UNL     1      -7.794  11.058  68.702  1.00  0.00    -0.136 C  
HETATM    7  O   UNL     1      -8.081  10.668  70.040  1.00  0.00    -0.331 OA 
HETATM    8  H   UNL     1      -8.452  11.392  70.530  1.00  0.00     0.000 HD 
ENDBRANCH   5   6
ENDBRANCH   2   5
TORSDOF 2
ENDMDL
MODEL      181
REMARK 921   NORMALIZED FREE ENERGY PREDICTED BY IDOCK:   -0.89 KCAL/MOL
REMARK 922        TOTAL FREE ENERGY PREDICTED BY IDOCK:   -1.03 KCAL/MOL
REMARK 923 INTER-LIGAND FREE ENERGY PREDICTED BY IDOCK:   -0.96 KCAL/MOL
REMARK 924 INTRA-LIGAND FREE ENERGY PREDICTED BY IDOCK:   -0.07 KCAL/MOL
REMARK 927      BINDING AFFINITY PREDICTED BY RF-SCORE:    0.00 PKD
ROOT
HETATM    1  C   UNL     1      -6.355   9.180  71.435  1.00  0.00    -0.077 C  
HETATM    2  N   UNL     1      -7.535   8.617  70.646  1.00  0.00    -0.065 N  
HETATM    3  C   UNL     1      -8.809   8.822  71.452  1.00  0.00    -0.225 C  
HETATM    4  C   UNL     1      -7.307   7.118  70.449  1.00  0.00    -0.079 C  
ENDROOT
BRANCH   2   5
HETATM    5  C   UNL     1      -7.598   9.366  69.291  1.00  0.00    -0.081 C  
BRANCH   5   6
HETATM    6  C   UNL     1      -6.884  10.727  69.267  1.00  0.00    -0.092 C  
HETATM    7  O   UNL     1      -7.823  11.792  69.362  1.00  0.00    -0.342 OA 
HETATM    8  H   UNL     1      -7.381  12.632  69.347  1.00  0.00     0.000 HD 
ENDBRANCH   5   6
ENDBRANCH   2   5
TORSDOF 2
ENDMDL
MODEL      182
REMARK 921   NORMALIZED FREE ENERGY PREDICTED BY IDOCK:   -0.87 KCAL/MOL
REMARK 922        TOTAL FREE ENERGY PREDICTED BY IDOCK:   -1.02 KCAL/MOL
REMARK 923 INTER-LIGAND FREE ENERGY PREDICTED BY IDOCK:   -0.97 KCAL/MOL
REMARK 924 INTRA-LIGAND FREE ENERGY PREDICTED BY IDOCK:   -0.04 KCAL/MOL
REMARK 927      BINDING AFFINITY PREDICTED BY RF-SCORE:    0.00 PKD
ROOT
HETATM    1  C   UNL     1      -5.772   9.220  66.475  1.00  0.00    -0.054 C  
HETATM    2  N   UNL     1      -7.067   9.994  66.233  1.00  0.00    -0.100 N  
HETATM    3  C   UNL     1      -7.182  10.310  64.750  1.00  0.00    -0.092 C  
HETATM    4  C   UNL     1      -6.993  11.305  67.018  1.00  0.00    -0.126 C  
ENDROOT
BRANCH   2   5
HETATM    5  C   UNL     1      -8.244   9.108  66.715  1.00  0.00    -0.119 C  
BRANCH   5   6
HETATM    6  C   UNL     1      -9.018   8.393  65.598  1.00  0.00    -0.134 C  
HETATM    7  O   UNL     1      -9.058   6.990  65.829  1.00  0.00    -0.350 OA 
HETATM    8  H   UNL     1      -9.537   6.547  65.138  1.00  0.00     0.000 HD 
ENDBRANCH   5   6
ENDBRANCH   2   5
TORSDOF 2
ENDMDL
MODEL      183
REMARK 921   NORMALIZED FREE ENERGY PREDICTED BY IDOCK:   -0.82 KCAL/MOL
REMARK 922        TOTAL FREE ENERGY PREDICTED BY IDOCK:   -0.96 KCAL/MOL
REMARK 923 INTER-LIGAND FREE ENERGY PREDICTED BY IDOCK:   -0.88 KCAL/MOL
REMARK 924 INTRA-LIGAND FREE ENERGY PREDICTED BY IDOCK:   -0.07 KCAL/MOL
REMARK 927      BINDING AFFINITY PREDICTED BY RF-SCORE:    0.00 PKD
ROOT
HETATM    1  C   UNL     1      -9.226   3.306  66.808  1.00  0.00    -0.167 C  
HETATM    2  N   UNL     1      -8.880   4.619  67.507  1.00  0.00    -0.104 N  
HETATM    3  C   UNL     1      -7.407   4.602  67.888  1.00  0.00    -0.066 C  
HETATM    4  C   UNL     1      -9.722   4.719  68.780  1.00  0.00    -0.167 C  
ENDROOT
BRANCH   2   5
HETATM    5  C   UNL     1      -9.196   5.775  66.524  1.00  0.00    -0.143 C  
BRANCH   5   6
HETATM    6  C   UNL     1      -8.259   6.988  66.624  1.00  0.00    -0.112 C  
HETATM    7  O   UNL     1      -8.740   7.921  67.584  1.00  0.00    -0.126 OA 
HETATM    8  H   UNL     1      -8.160   8.671  67.646  1.00  0.00     0.000 HD 
ENDBRANCH   5   6
ENDBRANCH   2   5
TORSDOF 2
ENDMDL
MODEL      184
REMARK 921   NORMALIZED FREE ENERGY PREDICTED BY IDOCK:   -0.82 KCAL/MOL
REMARK 922        TOTAL FREE ENERGY PREDICTED BY IDOCK:   -0.95 KCAL/MOL
REMARK 923 INTER-LIGAND FREE ENERGY PREDICTED BY IDOCK:   -0.92 KCAL/MOL
REMARK 924 INTRA-LIGAND FREE ENERGY PREDICTED BY IDOCK:   -0.04 KCAL/MOL
REMARK 927      BINDING AFFINITY PREDICTED BY RF-SCORE:    0.00 PKD
ROOT
HETATM    1  C   UNL     1      -8.314   8.844  64.947  1.00  0.00    -0.172 C  
HETATM    2  N   UNL     1      -8.679   9.410  66.318  1.00  0.00    -0.137 N  
HETATM    3  C   UNL     1     -10.173   9.231  66.543  1.00  0.00    -0.246 C  
HETATM    4  C   UNL     1      -8.351  10.904  66.322  1.00  0.00    -0.164 C  
ENDROOT
BRANCH   2   5
HETATM    5  C   UNL     1      -7.852   8.643  67.382  1.00  0.00    -0.098 C  
BRANCH   5   6
HETATM    6  C   UNL     1      -6.334   8.869  67.311  1.00  0.00    -0.060 C  
HETATM    7  O   UNL     1      -5.811   9.200  68.592  1.00  0.00    -0.041 OA 
HETATM    8  H   UNL     1      -4.873   9.339  68.548  1.00  0.00     0.000 HD 
ENDBRANCH   5   6
ENDBRANCH   2   5
TORSDOF 2
ENDMDL
MODEL      185
REMARK 921   NORMALIZED FREE ENERGY PREDICTED BY IDOCK:   -0.76 KCAL/MOL
REMARK 922        TOTAL FREE ENERGY PREDICTED BY IDOCK:   -0.89 KCAL/MOL
REMARK 923 INTER-LIGAND FREE ENERGY PREDICTED BY IDOCK:   -0.87 KCAL/MOL
REMARK 924 INTRA-LIGAND FREE ENERGY PREDICTED BY IDOCK:   -0.02 KCAL/MOL
REMARK 927      BINDING AFFINITY PREDICTED BY RF-SCORE:    0.00 PKD
ROOT
HETATM    1  C   UNL     1      -8.435   3.126  64.570  1.00  0.00    -0.094 C  
HETATM    2  N   UNL     1      -7.639   3.740  65.720  1.00  0.00    -0.081 N  
HETATM    3  C   UNL     1      -6.162   3.441  65.512  1.00  0.00    -0.028 C  
HETATM    4  C   UNL     1      -8.101   3.085  67.023  1.00  0.00    -0.079 C  
ENDROOT
BRANCH   2   5
HETATM    5  C   UNL     1      -7.912   5.266  65.722  1.00  0.00    -0.105 C  
BRANCH   5   6
HETATM    6  C   UNL     1      -7.956   5.920  64.333  1.00  0.00    -0.129 C  
HETATM    7  O   UNL     1      -8.614   7.180  64.388  1.00  0.00    -0.350 OA 
HETATM    8  H   UNL     1      -8.641   7.584  63.529  1.00  0.00     0.000 HD 
ENDBRANCH   5   6
ENDBRANCH   2   5
TORSDOF 2
ENDMDL
MODEL      186
REMARK 921   NORMALIZED FREE ENERGY PREDICTED BY IDOCK:   -0.72 KCAL/MOL
REMARK 922        TOTAL FREE ENERGY PREDICTED BY IDOCK:   -0.85 KCAL/MOL
REMARK 923 INTER-LIGAND FREE ENERGY PREDICTED BY IDOCK:   -0.82 KCAL/MOL
REMARK 924 INTRA-LIGAND FREE ENERGY PREDICTED BY IDOCK:   -0.03 KCAL/MOL
REMARK 927      BINDING AFFINITY PREDICTED BY RF-SCORE:    0.00 PKD
ROOT
HETATM    1  C   UNL     1      -8.480   6.251  69.654  1.00  0.00    -0.129 C  
HETATM    2  N   UNL     1      -8.897   7.351  70.629  1.00  0.00    -0.149 N  
HETATM    3  C   UNL     1     -10.154   6.908  71.363  1.00  0.00    -0.185 C  
HETATM    4  C   UNL     1      -9.211   8.611  69.821  1.00  0.00    -0.154 C  
ENDROOT
BRANCH   2   5
HETATM    5  C   UNL     1      -7.721   7.583  71.611  1.00  0.00    -0.085 C  
BRANCH   5   6
HETATM    6  C   UNL     1      -7.285   6.344  72.407  1.00  0.00    -0.083 C  
HETATM    7  O   UNL     1      -5.970   5.944  72.039  1.00  0.00    -0.033 OA 
HETATM    8  H   UNL     1      -5.701   5.177  72.531  1.00  0.00     0.000 HD 
ENDBRANCH   5   6
ENDBRANCH   2   5
TORSDOF 2
ENDMDL
MODEL      187
REMARK 921   NORMALIZED FREE ENERGY PREDICTED BY IDOCK:   -0.66 KCAL/MOL
REMARK 922        TOTAL FREE ENERGY PREDICTED BY IDOCK:   -0.78 KCAL/MOL
REMARK 923 INTER-LIGAND FREE ENERGY PREDICTED BY IDOCK:   -0.76 KCAL/MOL
REMARK 924 INTRA-LIGAND FREE ENERGY PREDICTED BY IDOCK:   -0.02 KCAL/MOL
REMARK 927      BINDING AFFINITY PREDICTED BY RF-SCORE:    0.00 PKD
ROOT
HETATM    1  C   UNL     1     -10.028   6.361  70.578  1.00  0.00    -0.184 C  
HETATM    2  N   UNL     1      -8.942   6.688  69.555  1.00  0.00    -0.138 N  
HETATM    3  C   UNL     1      -8.920   8.191  69.321  1.00  0.00    -0.148 C  
HETATM    4  C   UNL     1      -9.295   5.985  68.243  1.00  0.00    -0.116 C  
ENDROOT
BRANCH   2   5
HETATM    5  C   UNL     1      -7.591   6.185  70.124  1.00  0.00    -0.096 C  
BRANCH   5   6
HETATM    6  C   UNL     1      -7.380   4.665  70.053  1.00  0.00    -0.054 C  
HETATM    7  O   UNL     1      -6.558   4.217  71.124  1.00  0.00    -0.028 OA 
HETATM    8  H   UNL     1      -6.428   3.278  71.080  1.00  0.00     0.000 HD 
ENDBRANCH   5   6
ENDBRANCH   2   5
TORSDOF 2
ENDMDL
MODEL      188
REMARK 921   NORMALIZED FREE ENERGY PREDICTED BY IDOCK:   -0.63 KCAL/MOL
REMARK 922        TOTAL FREE ENERGY PREDICTED BY IDOCK:   -0.75 KCAL/MOL
REMARK 923 INTER-LIGAND FREE ENERGY PREDICTED BY IDOCK:   -0.71 KCAL/MOL
REMARK 924 INTRA-LIGAND FREE ENERGY PREDICTED BY IDOCK:   -0.04 KCAL/MOL
REMARK 927      BINDING AFFINITY PREDICTED BY RF-SCORE:    0.00 PKD
ROOT
HETATM    1  C   UNL     1      -9.359   2.924  72.434  1.00  0.00    -0.103 C  
HETATM    2  N   UNL     1      -8.331   4.053  72.489  1.00  0.00    -0.097 N  
HETATM    3  C   UNL     1      -7.909   4.404  71.070  1.00  0.00    -0.068 C  
HETATM    4  C   UNL     1      -7.111   3.551  73.261  1.00  0.00    -0.053 C  
ENDROOT
BRANCH   2   5
HETATM    5  C   UNL     1      -8.995   5.262  73.196  1.00  0.00    -0.118 C  
BRANCH   5   6
HETATM    6  C   UNL     1      -8.573   6.640  72.662  1.00  0.00    -0.123 C  
HETATM    7  O   UNL     1      -9.713   7.448  72.392  1.00  0.00    -0.148 OA 
HETATM    8  H   UNL     1      -9.452   8.299  72.062  1.00  0.00     0.000 HD 
ENDBRANCH   5   6
ENDBRANCH   2   5
TORSDOF 2
ENDMDL
MODEL      189
REMARK 921   NORMALIZED FREE ENERGY PREDICTED BY IDOCK:   -0.63 KCAL/MOL
REMARK 922        TOTAL FREE ENERGY PREDICTED BY IDOCK:   -0.74 KCAL/MOL
REMARK 923 INTER-LIGAND FREE ENERGY PREDICTED BY IDOCK:   -0.71 KCAL/MOL
REMARK 924 INTRA-LIGAND FREE ENERGY PREDICTED BY IDOCK:   -0.03 KCAL/MOL
REMARK 927      BINDING AFFINITY PREDICTED BY RF-SCORE:    0.00 PKD
ROOT
HETATM    1  C   UNL     1      -9.657   7.525  66.278  1.00  0.00    -0.065 C  
HETATM    2  N   UNL     1      -8.138   7.432  66.412  1.00  0.00    -0.114 N  
HETATM    3  C   UNL     1      -7.764   7.566  67.881  1.00  0.00    -0.116 C  
HETATM    4  C   UNL     1      -7.518   8.593  65.633  1.00  0.00    -0.085 C  
ENDROOT
BRANCH   2   5
HETATM    5  C   UNL     1      -7.696   6.062  65.839  1.00  0.00    -0.096 C  
BRANCH   5   6
HETATM    6  C   UNL     1      -8.279   5.714  64.461  1.00  0.00    -0.125 C  
HETATM    7  O   UNL     1      -8.587   4.328  64.377  1.00  0.00    -0.110 OA 
HETATM    8  H   UNL     1      -8.948   4.113  63.525  1.00  0.00     0.000 HD 
ENDBRANCH   5   6
ENDBRANCH   2   5
TORSDOF 2
ENDMDL
MODEL      190
REMARK 921   NORMALIZED FREE ENERGY PREDICTED BY IDOCK:   -0.59 KCAL/MOL
REMARK 922        TOTAL FREE ENERGY PREDICTED BY IDOCK:   -0.70 KCAL/MOL
REMARK 923 INTER-LIGAND FREE ENERGY PREDICTED BY IDOCK:   -0.77 KCAL/MOL
REMARK 924 INTRA-LIGAND FREE ENERGY PREDICTED BY IDOCK:    0.06 KCAL/MOL
REMARK 927      BINDING AFFINITY PREDICTED BY RF-SCORE:    0.00 PKD
ROOT
HETATM    1  C   UNL     1      -8.115   6.106  63.675  1.00  0.00    -0.065 C  
HETATM    2  N   UNL     1      -8.092   5.884  65.187  1.00  0.00    -0.125 N  
HETATM    3  C   UNL     1      -8.577   7.148  65.879  1.00  0.00    -0.148 C  
HETATM    4  C   UNL     1      -6.647   5.610  65.607  1.00  0.00    -0.041 C  
ENDROOT
BRANCH   2   5
HETATM    5  C   UNL     1      -9.014   4.678  65.501  1.00  0.00    -0.142 C  
BRANCH   5   6
HETATM    6  C   UNL     1      -8.815   3.454  64.594  1.00  0.00    -0.116 C  
HETATM    7  O   UNL     1      -9.868   3.352  63.643  1.00  0.00    -0.130 OA 
HETATM    8  H   UNL     1      -9.745   2.595  63.083  1.00  0.00     0.000 HD 
ENDBRANCH   5   6
ENDBRANCH   2   5
TORSDOF 2
ENDMDL
MODEL      191
REMARK 921   NORMALIZED FREE ENERGY PREDICTED BY IDOCK:    0.93 KCAL/MOL
REMARK 922        TOTAL FREE ENERGY PREDICTED BY IDOCK:    0.99 KCAL/MOL
REMARK 923 INTER-LIGAND FREE ENERGY PREDICTED BY IDOCK:   -0.45 KCAL/MOL
REMARK 924 INTRA-LIGAND FREE ENERGY PREDICTED BY IDOCK:    1.45 KCAL/MOL
REMARK 927      BINDING AFFINITY PREDICTED BY RF-SCORE:    0.00 PKD
ROOT
HETATM    1  C   UNL     1      -8.934  11.949  67.063  1.00  0.00    -0.190 C  
HETATM    2  N   UNL     1      -8.803  12.248  68.555  1.00  0.00    -0.121 N  
HETATM    3  C   UNL     1      -9.809  13.325  68.933  1.00  0.00     0.110 C  
HETATM    4  C   UNL     1      -7.390  12.773  68.815  1.00  0.00    -0.067 C  
ENDROOT
BRANCH   2   5
HETATM    5  C   UNL     1      -9.071  10.930  69.326  1.00  0.00     0.023 C  
BRANCH   5   6
HETATM    6  C   UNL     1      -8.287   9.710  68.819  1.00  0.00    -0.111 C  
HETATM    7  O   UNL     1      -7.792   9.937  67.504  1.00  0.00    -0.098 OA 
HETATM    8  H   UNL     1      -7.308   9.183  67.191  1.00  0.00     0.000 HD 
ENDBRANCH   5   6
ENDBRANCH   2   5
TORSDOF 2
ENDMDL
MODEL      192
REMARK 921   NORMALIZED FREE ENERGY PREDICTED BY IDOCK:    3.44 KCAL/MOL
REMARK 922        TOTAL FREE ENERGY PREDICTED BY IDOCK:    3.79 KCAL/MOL
REMARK 923 INTER-LIGAND FREE ENERGY PREDICTED BY IDOCK:    2.72 KCAL/MOL
REMARK 924 INTRA-LIGAND FREE ENERGY PREDICTED BY IDOCK:    1.07 KCAL/MOL
REMARK 927      BINDING AFFINITY PREDICTED BY RF-SCORE:    0.00 PKD
ROOT
HETATM    1  C   UNL     1      -8.428  11.953  62.817  1.00  0.00     1.183 C  
HETATM    2  N   UNL     1      -7.590  10.880  63.511  1.00  0.00     0.289 N  
HETATM    3  C   UNL     1      -7.533  11.186  65.000  1.00  0.00     0.653 C  
HETATM    4  C   UNL     1      -6.174  10.936  62.936  1.00  0.00     0.124 C  
ENDROOT
BRANCH   2   5
HETATM    5  C   UNL     1      -8.261   9.509  63.240  1.00  0.00    -0.162 C  
BRANCH   5   6
HETATM    6  C   UNL     1      -9.628   9.310  63.913  1.00  0.00     0.899 C  
HETATM    7  O   UNL     1      -9.651   9.917  65.199  1.00  0.00    -0.264 OA 
HETATM    8  H   UNL     1     -10.496   9.794  65.615  1.00  0.00     0.000 HD 
ENDBRANCH   5   6
ENDBRANCH   2   5
TORSDOF 2
ENDMDL
MODEL      193
REMARK 921   NORMALIZED FREE ENERGY PREDICTED BY IDOCK:    4.46 KCAL/MOL
REMARK 922        TOTAL FREE ENERGY PREDICTED BY IDOCK:    4.94 KCAL/MOL
REMARK 923 INTER-LIGAND FREE ENERGY PREDICTED BY IDOCK:    4.99 KCAL/MOL
REMARK 924 INTRA-LIGAND FREE ENERGY PREDICTED BY IDOCK:   -0.05 KCAL/MOL
REMARK 927      BINDING AFFINITY PREDICTED BY RF-SCORE:    0.00 PKD
ROOT
HETATM    1  C   UNL     1      -7.027  14.033  70.244  1.00  0.00     0.378 C  
HETATM    2  N   UNL     1      -6.607  15.347  70.901  1.00  0.00     0.504 N  
HETATM    3  C   UNL     1      -5.129  15.584  70.629  1.00  0.00    -0.145 C  
HETATM    4  C   UNL     1      -6.821  15.216  72.410  1.00  0.00     2.938 C  
ENDROOT
BRANCH   2   5
HETATM    5  C   UNL     1      -7.480  16.477  70.299  1.00  0.00     1.634 C  
BRANCH   5   6
HETATM    6  C   UNL     1      -6.714  17.517  69.467  1.00  0.00    -0.116 C  
HETATM    7  O   UNL     1      -7.178  17.530  68.122  1.00  0.00    -0.202 OA 
HETATM    8  H   UNL     1      -6.704  18.173  67.608  1.00  0.00     0.000 HD 
ENDBRANCH   5   6
ENDBRANCH   2   5
TORSDOF 2
ENDMDL
