MODEL        1
REMARK 921   NORMALIZED FREE ENERGY PREDICTED BY IDOCK:   -6.30 KCAL/MOL
REMARK 922        TOTAL FREE ENERGY PREDICTED BY IDOCK:   -6.97 KCAL/MOL
REMARK 923 INTER-LIGAND FREE ENERGY PREDICTED BY IDOCK:   -6.67 KCAL/MOL
REMARK 924 INTRA-LIGAND FREE ENERGY PREDICTED BY IDOCK:   -0.30 KCAL/MOL
REMARK 927      BINDING AFFINITY PREDICTED BY RF-SCORE:    0.00 PKD
ROOT
HETATM    1  C   UNL     1     -11.792  13.600  68.588  1.00  0.00    -0.409 C  
HETATM    2  C   UNL     1     -11.672  14.344  67.293  1.00  0.00    -0.429 C  
HETATM    3  C   UNL     1     -12.270  13.909  66.171  1.00  0.00    -0.498 C  
HETATM    4  C   UNL     1     -12.141  14.690  64.922  1.00  0.00    -0.382 C  
HETATM    5  O   UNL     1     -12.661  14.303  63.877  1.00  0.00    -0.787 OA 
HETATM    6  N   UNL     1     -11.404  15.855  65.020  1.00  0.00    -0.246 N  
HETATM    7  O   UNL     1     -11.301  16.598  63.831  1.00  0.00    -1.104 OA 
HETATM    8  C   UNL     1     -10.745  16.310  66.141  1.00  0.00    -0.197 C  
HETATM    9  C   UNL     1     -10.876  15.565  67.265  1.00  0.00    -0.313 C  
ENDROOT
BRANCH   8  10
HETATM   10  C   UNL     1      -9.870  17.571  66.149  1.00  0.00    -0.256 C  
HETATM   11  C   UNL     1     -10.529  18.952  66.405  1.00  0.00    -0.505 C  
HETATM   12  C   UNL     1     -10.375  19.547  67.811  1.00  0.00    -0.575 C  
HETATM   13  C   UNL     1      -8.980  19.361  68.385  1.00  0.00    -0.403 C  
HETATM   14  C   UNL     1      -8.586  17.892  68.358  1.00  0.00    -0.296 C  
HETATM   15  C   UNL     1      -8.553  17.373  66.928  1.00  0.00    -0.270 C  
ENDBRANCH   8  10
TORSDOF 1
ENDMDL
MODEL        2
REMARK 921   NORMALIZED FREE ENERGY PREDICTED BY IDOCK:   -6.29 KCAL/MOL
REMARK 922        TOTAL FREE ENERGY PREDICTED BY IDOCK:   -6.95 KCAL/MOL
REMARK 923 INTER-LIGAND FREE ENERGY PREDICTED BY IDOCK:   -6.56 KCAL/MOL
REMARK 924 INTRA-LIGAND FREE ENERGY PREDICTED BY IDOCK:   -0.39 KCAL/MOL
REMARK 927      BINDING AFFINITY PREDICTED BY RF-SCORE:    0.00 PKD
ROOT
HETATM    1  C   UNL     1     -11.786  12.700  68.015  1.00  0.00    -0.402 C  
HETATM    2  C   UNL     1     -11.705  13.662  66.869  1.00  0.00    -0.423 C  
HETATM    3  C   UNL     1     -12.256  13.386  65.675  1.00  0.00    -0.510 C  
HETATM    4  C   UNL     1     -12.169  14.378  64.582  1.00  0.00    -0.464 C  
HETATM    5  O   UNL     1     -12.646  14.141  63.474  1.00  0.00    -0.834 OA 
HETATM    6  N   UNL     1     -11.520  15.557  64.895  1.00  0.00    -0.321 N  
HETATM    7  O   UNL     1     -11.457  16.499  63.854  1.00  0.00    -1.145 OA 
HETATM    8  C   UNL     1     -10.910  15.857  66.093  1.00  0.00    -0.208 C  
HETATM    9  C   UNL     1     -11.000  14.922  67.070  1.00  0.00    -0.327 C  
ENDROOT
BRANCH   8  10
HETATM   10  C   UNL     1     -10.129  17.155  66.339  1.00  0.00    -0.326 C  
HETATM   11  C   UNL     1     -10.595  18.122  67.459  1.00  0.00    -0.419 C  
HETATM   12  C   UNL     1      -9.809  18.092  68.776  1.00  0.00    -0.360 C  
HETATM   13  C   UNL     1      -8.307  17.991  68.570  1.00  0.00    -0.313 C  
HETATM   14  C   UNL     1      -7.971  16.792  67.695  1.00  0.00    -0.189 C  
HETATM   15  C   UNL     1      -8.602  16.942  66.318  1.00  0.00    -0.319 C  
ENDBRANCH   8  10
TORSDOF 1
ENDMDL
MODEL        3
REMARK 921   NORMALIZED FREE ENERGY PREDICTED BY IDOCK:   -6.08 KCAL/MOL
REMARK 922        TOTAL FREE ENERGY PREDICTED BY IDOCK:   -6.73 KCAL/MOL
REMARK 923 INTER-LIGAND FREE ENERGY PREDICTED BY IDOCK:   -6.34 KCAL/MOL
REMARK 924 INTRA-LIGAND FREE ENERGY PREDICTED BY IDOCK:   -0.38 KCAL/MOL
REMARK 927      BINDING AFFINITY PREDICTED BY RF-SCORE:    0.00 PKD
ROOT
HETATM    1  C   UNL     1     -12.050  10.042  71.185  1.00  0.00    -0.475 C  
HETATM    2  C   UNL     1     -11.994  11.207  70.245  1.00  0.00    -0.460 C  
HETATM    3  C   UNL     1     -11.654  11.058  68.954  1.00  0.00    -0.383 C  
HETATM    4  C   UNL     1     -11.635  12.235  68.060  1.00  0.00    -0.349 C  
HETATM    5  O   UNL     1     -11.307  12.128  66.880  1.00  0.00    -0.302 OA 
HETATM    6  N   UNL     1     -11.999  13.434  68.643  1.00  0.00    -0.351 N  
HETATM    7  O   UNL     1     -11.994  14.543  67.781  1.00  0.00    -0.363 OA 
HETATM    8  C   UNL     1     -12.315  13.631  69.969  1.00  0.00    -0.278 C  
HETATM    9  C   UNL     1     -12.313  12.532  70.763  1.00  0.00    -0.376 C  
ENDROOT
BRANCH   8  10
HETATM   10  C   UNL     1     -12.624  15.011  70.565  1.00  0.00    -0.420 C  
HETATM   11  C   UNL     1     -14.031  15.285  71.159  1.00  0.00    -0.462 C  
HETATM   12  C   UNL     1     -14.161  15.246  72.687  1.00  0.00    -0.476 C  
HETATM   13  C   UNL     1     -12.998  15.918  73.399  1.00  0.00    -0.693 C  
HETATM   14  C   UNL     1     -11.677  15.319  72.939  1.00  0.00    -0.478 C  
HETATM   15  C   UNL     1     -11.478  15.546  71.448  1.00  0.00    -0.478 C  
ENDBRANCH   8  10
TORSDOF 1
ENDMDL
MODEL        4
REMARK 921   NORMALIZED FREE ENERGY PREDICTED BY IDOCK:   -5.93 KCAL/MOL
REMARK 922        TOTAL FREE ENERGY PREDICTED BY IDOCK:   -6.57 KCAL/MOL
REMARK 923 INTER-LIGAND FREE ENERGY PREDICTED BY IDOCK:   -6.31 KCAL/MOL
REMARK 924 INTRA-LIGAND FREE ENERGY PREDICTED BY IDOCK:   -0.27 KCAL/MOL
REMARK 927      BINDING AFFINITY PREDICTED BY RF-SCORE:    0.00 PKD
ROOT
HETATM    1  C   UNL     1      -8.276  15.707  67.182  1.00  0.00    -0.244 C  
HETATM    2  C   UNL     1      -9.424  15.384  66.273  1.00  0.00    -0.342 C  
HETATM    3  C   UNL     1     -10.042  16.333  65.552  1.00  0.00    -0.276 C  
HETATM    4  C   UNL     1     -11.155  15.961  64.652  1.00  0.00    -0.354 C  
HETATM    5  O   UNL     1     -11.751  16.814  63.997  1.00  0.00    -1.120 OA 
HETATM    6  N   UNL     1     -11.467  14.615  64.614  1.00  0.00    -0.398 N  
HETATM    7  O   UNL     1     -12.515  14.271  63.744  1.00  0.00    -0.810 OA 
HETATM    8  C   UNL     1     -10.883  13.622  65.368  1.00  0.00    -0.301 C  
HETATM    9  C   UNL     1      -9.872  14.000  66.189  1.00  0.00    -0.319 C  
ENDROOT
BRANCH   8  10
HETATM   10  C   UNL     1     -11.344  12.159  65.336  1.00  0.00    -0.388 C  
HETATM   11  C   UNL     1     -10.901  11.247  64.162  1.00  0.00    -0.407 C  
HETATM   12  C   UNL     1      -9.754  10.266  64.438  1.00  0.00    -0.381 C  
HETATM   13  C   UNL     1      -9.861   9.593  65.796  1.00  0.00    -0.373 C  
HETATM   14  C   UNL     1      -9.976  10.636  66.897  1.00  0.00    -0.245 C  
HETATM   15  C   UNL     1     -11.234  11.472  66.713  1.00  0.00    -0.350 C  
ENDBRANCH   8  10
TORSDOF 1
ENDMDL
MODEL        5
REMARK 921   NORMALIZED FREE ENERGY PREDICTED BY IDOCK:   -5.66 KCAL/MOL
REMARK 922        TOTAL FREE ENERGY PREDICTED BY IDOCK:   -6.28 KCAL/MOL
REMARK 923 INTER-LIGAND FREE ENERGY PREDICTED BY IDOCK:   -5.87 KCAL/MOL
REMARK 924 INTRA-LIGAND FREE ENERGY PREDICTED BY IDOCK:   -0.41 KCAL/MOL
REMARK 927      BINDING AFFINITY PREDICTED BY RF-SCORE:    0.00 PKD
ROOT
HETATM    1  C   UNL     1     -12.282   9.555  71.081  1.00  0.00    -0.421 C  
HETATM    2  C   UNL     1     -12.441  11.044  71.025  1.00  0.00    -0.512 C  
HETATM    3  C   UNL     1     -13.170  11.711  71.934  1.00  0.00    -0.475 C  
HETATM    4  C   UNL     1     -13.278  13.184  71.849  1.00  0.00    -0.431 C  
HETATM    5  O   UNL     1     -13.956  13.815  72.657  1.00  0.00    -0.710 OA 
HETATM    6  N   UNL     1     -12.580  13.775  70.814  1.00  0.00    -0.346 N  
HETATM    7  O   UNL     1     -12.676  15.175  70.752  1.00  0.00    -0.350 OA 
HETATM    8  C   UNL     1     -11.857  13.120  69.841  1.00  0.00    -0.308 C  
HETATM    9  C   UNL     1     -11.787  11.770  69.943  1.00  0.00    -0.423 C  
ENDROOT
BRANCH   8  10
HETATM   10  C   UNL     1     -11.181  13.840  68.667  1.00  0.00    -0.308 C  
HETATM   11  C   UNL     1      -9.712  13.492  68.306  1.00  0.00    -0.224 C  
HETATM   12  C   UNL     1      -9.493  12.567  67.101  1.00  0.00    -0.208 C  
HETATM   13  C   UNL     1     -10.405  12.890  65.929  1.00  0.00    -0.297 C  
HETATM   14  C   UNL     1     -11.860  12.887  66.374  1.00  0.00    -0.478 C  
HETATM   15  C   UNL     1     -12.098  13.954  67.432  1.00  0.00    -0.380 C  
ENDBRANCH   8  10
TORSDOF 1
ENDMDL
MODEL        6
REMARK 921   NORMALIZED FREE ENERGY PREDICTED BY IDOCK:   -5.64 KCAL/MOL
REMARK 922        TOTAL FREE ENERGY PREDICTED BY IDOCK:   -6.26 KCAL/MOL
REMARK 923 INTER-LIGAND FREE ENERGY PREDICTED BY IDOCK:   -6.00 KCAL/MOL
REMARK 924 INTRA-LIGAND FREE ENERGY PREDICTED BY IDOCK:   -0.26 KCAL/MOL
REMARK 927      BINDING AFFINITY PREDICTED BY RF-SCORE:    0.00 PKD
ROOT
HETATM    1  C   UNL     1     -13.955  15.333  72.122  1.00  0.00    -0.650 C  
HETATM    2  C   UNL     1     -13.361  14.059  71.602  1.00  0.00    -0.442 C  
HETATM    3  C   UNL     1     -13.580  12.880  72.208  1.00  0.00    -0.611 C  
HETATM    4  C   UNL     1     -12.990  11.647  71.644  1.00  0.00    -0.378 C  
HETATM    5  O   UNL     1     -13.158  10.559  72.191  1.00  0.00    -0.459 OA 
HETATM    6  N   UNL     1     -12.251  11.813  70.488  1.00  0.00    -0.365 N  
HETATM    7  O   UNL     1     -11.709  10.632  69.952  1.00  0.00    -0.267 OA 
HETATM    8  C   UNL     1     -11.974  13.009  69.864  1.00  0.00    -0.311 C  
HETATM    9  C   UNL     1     -12.521  14.120  70.413  1.00  0.00    -0.424 C  
ENDROOT
BRANCH   8  10
HETATM   10  C   UNL     1     -11.068  13.124  68.630  1.00  0.00    -0.304 C  
HETATM   11  C   UNL     1     -11.633  12.749  67.235  1.00  0.00    -0.420 C  
HETATM   12  C   UNL     1     -12.043  13.908  66.315  1.00  0.00    -0.484 C  
HETATM   13  C   UNL     1     -11.058  15.064  66.343  1.00  0.00    -0.329 C  
HETATM   14  C   UNL     1     -10.838  15.540  67.771  1.00  0.00    -0.309 C  
HETATM   15  C   UNL     1     -10.242  14.427  68.620  1.00  0.00    -0.245 C  
ENDBRANCH   8  10
TORSDOF 1
ENDMDL
MODEL        7
REMARK 921   NORMALIZED FREE ENERGY PREDICTED BY IDOCK:   -5.58 KCAL/MOL
REMARK 922        TOTAL FREE ENERGY PREDICTED BY IDOCK:   -6.20 KCAL/MOL
REMARK 923 INTER-LIGAND FREE ENERGY PREDICTED BY IDOCK:   -6.11 KCAL/MOL
REMARK 924 INTRA-LIGAND FREE ENERGY PREDICTED BY IDOCK:   -0.09 KCAL/MOL
REMARK 927      BINDING AFFINITY PREDICTED BY RF-SCORE:    0.00 PKD
ROOT
HETATM    1  C   UNL     1     -12.718  12.006  63.801  1.00  0.00    -0.516 C  
HETATM    2  C   UNL     1     -12.134  13.161  64.557  1.00  0.00    -0.462 C  
HETATM    3  C   UNL     1     -12.002  14.376  63.999  1.00  0.00    -0.288 C  
HETATM    4  C   UNL     1     -11.440  15.489  64.794  1.00  0.00    -0.313 C  
HETATM    5  O   UNL     1     -11.290  16.605  64.300  1.00  0.00    -1.116 OA 
HETATM    6  N   UNL     1     -11.101  15.181  66.097  1.00  0.00    -0.334 N  
HETATM    7  O   UNL     1     -10.583  16.250  66.848  1.00  0.00    -0.310 OA 
HETATM    8  C   UNL     1     -11.185  13.940  66.689  1.00  0.00    -0.320 C  
HETATM    9  C   UNL     1     -11.695  12.940  65.929  1.00  0.00    -0.449 C  
ENDROOT
BRANCH   8  10
HETATM   10  C   UNL     1     -10.703  13.654  68.118  1.00  0.00    -0.260 C  
HETATM   11  C   UNL     1     -11.302  14.464  69.297  1.00  0.00    -0.319 C  
HETATM   12  C   UNL     1     -12.374  13.768  70.147  1.00  0.00    -0.390 C  
HETATM   13  C   UNL     1     -12.048  12.313  70.440  1.00  0.00    -0.385 C  
HETATM   14  C   UNL     1     -11.787  11.557  69.146  1.00  0.00    -0.406 C  
HETATM   15  C   UNL     1     -10.589  12.144  68.415  1.00  0.00    -0.243 C  
ENDBRANCH   8  10
TORSDOF 1
ENDMDL
MODEL        8
REMARK 921   NORMALIZED FREE ENERGY PREDICTED BY IDOCK:   -5.51 KCAL/MOL
REMARK 922        TOTAL FREE ENERGY PREDICTED BY IDOCK:   -6.12 KCAL/MOL
REMARK 923 INTER-LIGAND FREE ENERGY PREDICTED BY IDOCK:   -5.80 KCAL/MOL
REMARK 924 INTRA-LIGAND FREE ENERGY PREDICTED BY IDOCK:   -0.32 KCAL/MOL
REMARK 927      BINDING AFFINITY PREDICTED BY RF-SCORE:    0.00 PKD
ROOT
HETATM    1  C   UNL     1     -11.929  10.345  70.902  1.00  0.00    -0.478 C  
HETATM    2  C   UNL     1     -12.359  11.780  70.902  1.00  0.00    -0.420 C  
HETATM    3  C   UNL     1     -13.153  12.279  71.864  1.00  0.00    -0.469 C  
HETATM    4  C   UNL     1     -13.532  13.709  71.833  1.00  0.00    -0.433 C  
HETATM    5  O   UNL     1     -14.274  14.185  72.689  1.00  0.00    -0.598 OA 
HETATM    6  N   UNL     1     -13.005  14.444  70.788  1.00  0.00    -0.350 N  
HETATM    7  O   UNL     1     -13.358  15.804  70.777  1.00  0.00    -0.539 OA 
HETATM    8  C   UNL     1     -12.222  13.957  69.765  1.00  0.00    -0.332 C  
HETATM    9  C   UNL     1     -11.902  12.641  69.819  1.00  0.00    -0.379 C  
ENDROOT
BRANCH   8  10
HETATM   10  C   UNL     1     -11.746  14.819  68.587  1.00  0.00    -0.356 C  
HETATM   11  C   UNL     1     -10.322  15.435  68.623  1.00  0.00    -0.234 C  
HETATM   12  C   UNL     1      -9.240  14.737  67.787  1.00  0.00    -0.194 C  
HETATM   13  C   UNL     1      -9.738  14.295  66.421  1.00  0.00    -0.315 C  
HETATM   14  C   UNL     1     -10.977  13.424  66.564  1.00  0.00    -0.299 C  
HETATM   15  C   UNL     1     -12.107  14.205  67.219  1.00  0.00    -0.407 C  
ENDBRANCH   8  10
TORSDOF 1
ENDMDL
MODEL        9
REMARK 921   NORMALIZED FREE ENERGY PREDICTED BY IDOCK:   -5.49 KCAL/MOL
REMARK 922        TOTAL FREE ENERGY PREDICTED BY IDOCK:   -6.11 KCAL/MOL
REMARK 923 INTER-LIGAND FREE ENERGY PREDICTED BY IDOCK:   -5.72 KCAL/MOL
REMARK 924 INTRA-LIGAND FREE ENERGY PREDICTED BY IDOCK:   -0.39 KCAL/MOL
REMARK 927      BINDING AFFINITY PREDICTED BY RF-SCORE:    0.00 PKD
ROOT
HETATM    1  C   UNL     1     -11.910  10.493  69.631  1.00  0.00    -0.306 C  
HETATM    2  C   UNL     1     -11.892  11.974  69.401  1.00  0.00    -0.384 C  
HETATM    3  C   UNL     1     -12.059  12.847  70.408  1.00  0.00    -0.385 C  
HETATM    4  C   UNL     1     -12.012  14.300  70.134  1.00  0.00    -0.326 C  
HETATM    5  O   UNL     1     -12.181  15.119  71.035  1.00  0.00    -0.284 OA 
HETATM    6  N   UNL     1     -11.775  14.652  68.819  1.00  0.00    -0.314 N  
HETATM    7  O   UNL     1     -11.716  16.034  68.573  1.00  0.00    -0.375 OA 
HETATM    8  C   UNL     1     -11.640  13.786  67.756  1.00  0.00    -0.346 C  
HETATM    9  C   UNL     1     -11.698  12.462  68.041  1.00  0.00    -0.414 C  
ENDROOT
BRANCH   8  10
HETATM   10  C   UNL     1     -11.467  14.255  66.305  1.00  0.00    -0.360 C  
HETATM   11  C   UNL     1     -10.179  13.871  65.530  1.00  0.00    -0.348 C  
HETATM   12  C   UNL     1     -10.289  12.716  64.525  1.00  0.00    -0.369 C  
HETATM   13  C   UNL     1     -11.568  12.763  63.705  1.00  0.00    -0.548 C  
HETATM   14  C   UNL     1     -12.783  12.823  64.619  1.00  0.00    -0.439 C  
HETATM   15  C   UNL     1     -12.752  14.084  65.469  1.00  0.00    -0.517 C  
ENDBRANCH   8  10
TORSDOF 1
ENDMDL
MODEL       10
REMARK 921   NORMALIZED FREE ENERGY PREDICTED BY IDOCK:   -5.48 KCAL/MOL
REMARK 922        TOTAL FREE ENERGY PREDICTED BY IDOCK:   -6.10 KCAL/MOL
REMARK 923 INTER-LIGAND FREE ENERGY PREDICTED BY IDOCK:   -5.80 KCAL/MOL
REMARK 924 INTRA-LIGAND FREE ENERGY PREDICTED BY IDOCK:   -0.29 KCAL/MOL
REMARK 927      BINDING AFFINITY PREDICTED BY RF-SCORE:    0.00 PKD
ROOT
HETATM    1  C   UNL     1     -11.041  11.428  67.421  1.00  0.00    -0.349 C  
HETATM    2  C   UNL     1     -11.620  11.816  68.748  1.00  0.00    -0.367 C  
HETATM    3  C   UNL     1     -11.899  13.095  69.050  1.00  0.00    -0.358 C  
HETATM    4  C   UNL     1     -12.491  13.425  70.364  1.00  0.00    -0.252 C  
HETATM    5  O   UNL     1     -12.736  14.590  70.672  1.00  0.00    -0.338 OA 
HETATM    6  N   UNL     1     -12.732  12.350  71.198  1.00  0.00    -0.313 N  
HETATM    7  O   UNL     1     -13.309  12.673  72.437  1.00  0.00    -0.514 OA 
HETATM    8  C   UNL     1     -12.422  11.033  70.938  1.00  0.00    -0.410 C  
HETATM    9  C   UNL     1     -11.872  10.767  69.728  1.00  0.00    -0.409 C  
ENDROOT
BRANCH   8  10
HETATM   10  C   UNL     1     -12.639   9.901  71.952  1.00  0.00    -0.471 C  
HETATM   11  C   UNL     1     -14.027   9.211  72.035  1.00  0.00    -0.434 C  
HETATM   12  C   UNL     1     -14.163   7.840  71.360  1.00  0.00    -0.489 C  
HETATM   13  C   UNL     1     -12.961   6.941  71.592  1.00  0.00    -0.359 C  
HETATM   14  C   UNL     1     -11.681   7.645  71.164  1.00  0.00    -0.311 C  
HETATM   15  C   UNL     1     -11.463   8.905  71.989  1.00  0.00    -0.431 C  
ENDBRANCH   8  10
TORSDOF 1
ENDMDL
MODEL       11
REMARK 921   NORMALIZED FREE ENERGY PREDICTED BY IDOCK:   -5.46 KCAL/MOL
REMARK 922        TOTAL FREE ENERGY PREDICTED BY IDOCK:   -6.07 KCAL/MOL
REMARK 923 INTER-LIGAND FREE ENERGY PREDICTED BY IDOCK:   -5.66 KCAL/MOL
REMARK 924 INTRA-LIGAND FREE ENERGY PREDICTED BY IDOCK:   -0.41 KCAL/MOL
REMARK 927      BINDING AFFINITY PREDICTED BY RF-SCORE:    0.00 PKD
ROOT
HETATM    1  C   UNL     1      -8.759  15.851  66.325  1.00  0.00    -0.372 C  
HETATM    2  C   UNL     1      -9.927  15.016  65.894  1.00  0.00    -0.353 C  
HETATM    3  C   UNL     1     -10.820  15.462  64.995  1.00  0.00    -0.462 C  
HETATM    4  C   UNL     1     -11.944  14.593  64.585  1.00  0.00    -0.462 C  
HETATM    5  O   UNL     1     -12.785  14.985  63.779  1.00  0.00    -0.741 OA 
HETATM    6  N   UNL     1     -11.974  13.341  65.169  1.00  0.00    -0.359 N  
HETATM    7  O   UNL     1     -13.037  12.517  64.760  1.00  0.00    -0.853 OA 
HETATM    8  C   UNL     1     -11.101  12.866  66.122  1.00  0.00    -0.286 C  
HETATM    9  C   UNL     1     -10.089  13.693  66.482  1.00  0.00    -0.286 C  
ENDROOT
BRANCH   8  10
HETATM   10  C   UNL     1     -11.251  11.494  66.792  1.00  0.00    -0.350 C  
HETATM   11  C   UNL     1     -10.043  10.520  66.809  1.00  0.00    -0.270 C  
HETATM   12  C   UNL     1      -9.249  10.419  68.119  1.00  0.00    -0.145 C  
HETATM   13  C   UNL     1     -10.137  10.396  69.352  1.00  0.00    -0.251 C  
HETATM   14  C   UNL     1     -11.068  11.600  69.358  1.00  0.00    -0.268 C  
HETATM   15  C   UNL     1     -11.987  11.572  68.146  1.00  0.00    -0.206 C  
ENDBRANCH   8  10
TORSDOF 1
ENDMDL
MODEL       12
REMARK 921   NORMALIZED FREE ENERGY PREDICTED BY IDOCK:   -5.45 KCAL/MOL
REMARK 922        TOTAL FREE ENERGY PREDICTED BY IDOCK:   -6.07 KCAL/MOL
REMARK 923 INTER-LIGAND FREE ENERGY PREDICTED BY IDOCK:   -5.71 KCAL/MOL
REMARK 924 INTRA-LIGAND FREE ENERGY PREDICTED BY IDOCK:   -0.36 KCAL/MOL
REMARK 927      BINDING AFFINITY PREDICTED BY RF-SCORE:    0.00 PKD
ROOT
HETATM    1  C   UNL     1     -10.600  11.454  66.586  1.00  0.00    -0.302 C  
HETATM    2  C   UNL     1     -10.949  12.695  65.822  1.00  0.00    -0.313 C  
HETATM    3  C   UNL     1     -11.734  12.657  64.733  1.00  0.00    -0.402 C  
HETATM    4  C   UNL     1     -12.067  13.912  64.025  1.00  0.00    -0.396 C  
HETATM    5  O   UNL     1     -12.767  13.901  63.014  1.00  0.00    -0.634 OA 
HETATM    6  N   UNL     1     -11.538  15.065  64.572  1.00  0.00    -0.376 N  
HETATM    7  O   UNL     1     -11.874  16.253  63.902  1.00  0.00    -0.994 OA 
HETATM    8  C   UNL     1     -10.698  15.137  65.662  1.00  0.00    -0.363 C  
HETATM    9  C   UNL     1     -10.405  13.967  66.280  1.00  0.00    -0.294 C  
ENDROOT
BRANCH   8  10
HETATM   10  C   UNL     1     -10.075  16.449  66.159  1.00  0.00    -0.364 C  
HETATM   11  C   UNL     1     -10.573  17.069  67.492  1.00  0.00    -0.310 C  
HETATM   12  C   UNL     1      -9.687  16.864  68.728  1.00  0.00    -0.265 C  
HETATM   13  C   UNL     1      -8.206  17.030  68.432  1.00  0.00    -0.250 C  
HETATM   14  C   UNL     1      -7.787  16.114  67.291  1.00  0.00    -0.207 C  
HETATM   15  C   UNL     1      -8.540  16.469  66.017  1.00  0.00    -0.241 C  
ENDBRANCH   8  10
TORSDOF 1
ENDMDL
MODEL       13
REMARK 921   NORMALIZED FREE ENERGY PREDICTED BY IDOCK:   -5.45 KCAL/MOL
REMARK 922        TOTAL FREE ENERGY PREDICTED BY IDOCK:   -6.06 KCAL/MOL
REMARK 923 INTER-LIGAND FREE ENERGY PREDICTED BY IDOCK:   -5.67 KCAL/MOL
REMARK 924 INTRA-LIGAND FREE ENERGY PREDICTED BY IDOCK:   -0.39 KCAL/MOL
REMARK 927      BINDING AFFINITY PREDICTED BY RF-SCORE:    0.00 PKD
ROOT
HETATM    1  C   UNL     1     -12.583  12.059  63.403  1.00  0.00    -0.592 C  
HETATM    2  C   UNL     1     -12.058  13.136  64.305  1.00  0.00    -0.477 C  
HETATM    3  C   UNL     1     -11.920  14.404  63.883  1.00  0.00    -0.157 C  
HETATM    4  C   UNL     1     -11.419  15.435  64.817  1.00  0.00    -0.336 C  
HETATM    5  O   UNL     1     -11.264  16.598  64.450  1.00  0.00    -1.033 OA 
HETATM    6  N   UNL     1     -11.141  14.997  66.098  1.00  0.00    -0.338 N  
HETATM    7  O   UNL     1     -10.682  15.989  66.981  1.00  0.00    -0.319 OA 
HETATM    8  C   UNL     1     -11.233  13.700  66.552  1.00  0.00    -0.310 C  
HETATM    9  C   UNL     1     -11.686  12.778  65.668  1.00  0.00    -0.443 C  
ENDROOT
BRANCH   8  10
HETATM   10  C   UNL     1     -10.820  13.273  67.967  1.00  0.00    -0.261 C  
HETATM   11  C   UNL     1     -11.885  12.668  68.919  1.00  0.00    -0.345 C  
HETATM   12  C   UNL     1     -11.879  11.142  69.091  1.00  0.00    -0.419 C  
HETATM   13  C   UNL     1     -10.479  10.564  69.209  1.00  0.00    -0.258 C  
HETATM   14  C   UNL     1      -9.626  10.993  68.024  1.00  0.00    -0.175 C  
HETATM   15  C   UNL     1      -9.481  12.507  67.989  1.00  0.00    -0.209 C  
ENDBRANCH   8  10
TORSDOF 1
ENDMDL
MODEL       14
REMARK 921   NORMALIZED FREE ENERGY PREDICTED BY IDOCK:   -5.43 KCAL/MOL
REMARK 922        TOTAL FREE ENERGY PREDICTED BY IDOCK:   -6.04 KCAL/MOL
REMARK 923 INTER-LIGAND FREE ENERGY PREDICTED BY IDOCK:   -6.26 KCAL/MOL
REMARK 924 INTRA-LIGAND FREE ENERGY PREDICTED BY IDOCK:    0.21 KCAL/MOL
REMARK 927      BINDING AFFINITY PREDICTED BY RF-SCORE:    0.00 PKD
ROOT
HETATM    1  C   UNL     1     -10.048  12.243  67.672  1.00  0.00    -0.204 C  
HETATM    2  C   UNL     1     -10.914  11.921  68.853  1.00  0.00    -0.285 C  
HETATM    3  C   UNL     1     -11.055  10.663  69.303  1.00  0.00    -0.306 C  
HETATM    4  C   UNL     1     -11.903  10.399  70.486  1.00  0.00    -0.337 C  
HETATM    5  O   UNL     1     -12.064   9.255  70.905  1.00  0.00    -0.286 OA 
HETATM    6  N   UNL     1     -12.487  11.511  71.062  1.00  0.00    -0.384 N  
HETATM    7  O   UNL     1     -13.277  11.251  72.194  1.00  0.00    -0.481 OA 
HETATM    8  C   UNL     1     -12.397  12.807  70.605  1.00  0.00    -0.297 C  
HETATM    9  C   UNL     1     -11.620  13.012  69.513  1.00  0.00    -0.342 C  
ENDROOT
BRANCH   8  10
HETATM   10  C   UNL     1     -13.149  13.981  71.247  1.00  0.00    -0.399 C  
HETATM   11  C   UNL     1     -13.407  13.972  72.777  1.00  0.00    -0.603 C  
HETATM   12  C   UNL     1     -12.492  14.850  73.642  1.00  0.00    -0.596 C  
HETATM   13  C   UNL     1     -12.216  16.210  73.024  1.00  0.00    -0.641 C  
HETATM   14  C   UNL     1     -11.663  16.050  71.615  1.00  0.00    -0.583 C  
HETATM   15  C   UNL     1     -12.674  15.350  70.719  1.00  0.00    -0.516 C  
ENDBRANCH   8  10
TORSDOF 1
ENDMDL
MODEL       15
REMARK 921   NORMALIZED FREE ENERGY PREDICTED BY IDOCK:   -5.39 KCAL/MOL
REMARK 922        TOTAL FREE ENERGY PREDICTED BY IDOCK:   -6.00 KCAL/MOL
REMARK 923 INTER-LIGAND FREE ENERGY PREDICTED BY IDOCK:   -5.73 KCAL/MOL
REMARK 924 INTRA-LIGAND FREE ENERGY PREDICTED BY IDOCK:   -0.27 KCAL/MOL
REMARK 927      BINDING AFFINITY PREDICTED BY RF-SCORE:    0.00 PKD
ROOT
HETATM    1  C   UNL     1     -13.193  14.731  73.049  1.00  0.00    -0.592 C  
HETATM    2  C   UNL     1     -12.754  14.198  71.718  1.00  0.00    -0.420 C  
HETATM    3  C   UNL     1     -12.431  15.016  70.703  1.00  0.00    -0.422 C  
HETATM    4  C   UNL     1     -11.982  14.443  69.415  1.00  0.00    -0.328 C  
HETATM    5  O   UNL     1     -11.700  15.169  68.464  1.00  0.00    -0.330 OA 
HETATM    6  N   UNL     1     -11.913  13.064  69.367  1.00  0.00    -0.303 N  
HETATM    7  O   UNL     1     -11.470  12.530  68.145  1.00  0.00    -0.273 OA 
HETATM    8  C   UNL     1     -12.275  12.195  70.373  1.00  0.00    -0.294 C  
HETATM    9  C   UNL     1     -12.691  12.754  71.536  1.00  0.00    -0.330 C  
ENDROOT
BRANCH   8  10
HETATM   10  C   UNL     1     -12.256  10.669  70.215  1.00  0.00    -0.417 C  
HETATM   11  C   UNL     1     -10.908   9.909  70.332  1.00  0.00    -0.380 C  
HETATM   12  C   UNL     1     -10.630   9.187  71.658  1.00  0.00    -0.427 C  
HETATM   13  C   UNL     1     -11.848   8.465  72.208  1.00  0.00    -0.456 C  
HETATM   14  C   UNL     1     -13.021   9.426  72.335  1.00  0.00    -0.427 C  
HETATM   15  C   UNL     1     -13.409   9.979  70.972  1.00  0.00    -0.334 C  
ENDBRANCH   8  10
TORSDOF 1
ENDMDL
MODEL       16
REMARK 921   NORMALIZED FREE ENERGY PREDICTED BY IDOCK:   -5.37 KCAL/MOL
REMARK 922        TOTAL FREE ENERGY PREDICTED BY IDOCK:   -5.98 KCAL/MOL
REMARK 923 INTER-LIGAND FREE ENERGY PREDICTED BY IDOCK:   -5.63 KCAL/MOL
REMARK 924 INTRA-LIGAND FREE ENERGY PREDICTED BY IDOCK:   -0.35 KCAL/MOL
REMARK 927      BINDING AFFINITY PREDICTED BY RF-SCORE:    0.00 PKD
ROOT
HETATM    1  C   UNL     1     -11.391  11.356  68.066  1.00  0.00    -0.372 C  
HETATM    2  C   UNL     1     -11.316  12.852  68.102  1.00  0.00    -0.327 C  
HETATM    3  C   UNL     1     -10.649  13.549  67.168  1.00  0.00    -0.264 C  
HETATM    4  C   UNL     1     -10.623  15.026  67.235  1.00  0.00    -0.279 C  
HETATM    5  O   UNL     1     -10.002  15.686  66.404  1.00  0.00    -0.253 OA 
HETATM    6  N   UNL     1     -11.327  15.589  68.282  1.00  0.00    -0.344 N  
HETATM    7  O   UNL     1     -11.309  16.993  68.327  1.00  0.00    -0.174 OA 
HETATM    8  C   UNL     1     -11.988  14.906  69.279  1.00  0.00    -0.291 C  
HETATM    9  C   UNL     1     -11.983  13.553  69.192  1.00  0.00    -0.378 C  
ENDROOT
BRANCH   8  10
HETATM   10  C   UNL     1     -12.675  15.600  70.463  1.00  0.00    -0.391 C  
HETATM   11  C   UNL     1     -13.973  14.988  71.053  1.00  0.00    -0.343 C  
HETATM   12  C   UNL     1     -13.835  14.192  72.358  1.00  0.00    -0.638 C  
HETATM   13  C   UNL     1     -12.896  14.846  73.357  1.00  0.00    -0.638 C  
HETATM   14  C   UNL     1     -11.539  15.105  72.719  1.00  0.00    -0.380 C  
HETATM   15  C   UNL     1     -11.675  16.060  71.543  1.00  0.00    -0.554 C  
ENDBRANCH   8  10
TORSDOF 1
ENDMDL
MODEL       17
REMARK 921   NORMALIZED FREE ENERGY PREDICTED BY IDOCK:   -5.35 KCAL/MOL
REMARK 922        TOTAL FREE ENERGY PREDICTED BY IDOCK:   -5.96 KCAL/MOL
REMARK 923 INTER-LIGAND FREE ENERGY PREDICTED BY IDOCK:   -5.58 KCAL/MOL
REMARK 924 INTRA-LIGAND FREE ENERGY PREDICTED BY IDOCK:   -0.38 KCAL/MOL
REMARK 927      BINDING AFFINITY PREDICTED BY RF-SCORE:    0.00 PKD
ROOT
HETATM    1  C   UNL     1     -12.636  15.383  70.815  1.00  0.00    -0.497 C  
HETATM    2  C   UNL     1     -12.371  14.027  70.236  1.00  0.00    -0.425 C  
HETATM    3  C   UNL     1     -12.514  12.907  70.964  1.00  0.00    -0.374 C  
HETATM    4  C   UNL     1     -12.262  11.590  70.340  1.00  0.00    -0.355 C  
HETATM    5  O   UNL     1     -12.366  10.552  70.991  1.00  0.00    -0.328 OA 
HETATM    6  N   UNL     1     -11.902  11.620  69.006  1.00  0.00    -0.320 N  
HETATM    7  O   UNL     1     -11.681  10.363  68.419  1.00  0.00    -0.307 OA 
HETATM    8  C   UNL     1     -11.707  12.749  68.241  1.00  0.00    -0.344 C  
HETATM    9  C   UNL     1     -11.937  13.939  68.847  1.00  0.00    -0.393 C  
ENDROOT
BRANCH   8  10
HETATM   10  C   UNL     1     -11.220  12.706  66.786  1.00  0.00    -0.347 C  
HETATM   11  C   UNL     1     -12.166  13.184  65.654  1.00  0.00    -0.521 C  
HETATM   12  C   UNL     1     -11.912  14.585  65.080  1.00  0.00    -0.369 C  
HETATM   13  C   UNL     1     -10.436  14.888  64.884  1.00  0.00    -0.389 C  
HETATM   14  C   UNL     1      -9.673  14.673  66.183  1.00  0.00    -0.344 C  
HETATM   15  C   UNL     1      -9.775  13.222  66.629  1.00  0.00    -0.270 C  
ENDBRANCH   8  10
TORSDOF 1
ENDMDL
MODEL       18
REMARK 921   NORMALIZED FREE ENERGY PREDICTED BY IDOCK:   -5.34 KCAL/MOL
REMARK 922        TOTAL FREE ENERGY PREDICTED BY IDOCK:   -5.95 KCAL/MOL
REMARK 923 INTER-LIGAND FREE ENERGY PREDICTED BY IDOCK:   -5.65 KCAL/MOL
REMARK 924 INTRA-LIGAND FREE ENERGY PREDICTED BY IDOCK:   -0.30 KCAL/MOL
REMARK 927      BINDING AFFINITY PREDICTED BY RF-SCORE:    0.00 PKD
ROOT
HETATM    1  C   UNL     1      -8.766  16.230  69.266  1.00  0.00    -0.151 C  
HETATM    2  C   UNL     1      -9.478  16.473  67.970  1.00  0.00    -0.222 C  
HETATM    3  C   UNL     1      -9.572  17.703  67.436  1.00  0.00    -0.267 C  
HETATM    4  C   UNL     1     -10.266  17.889  66.144  1.00  0.00    -0.343 C  
HETATM    5  O   UNL     1     -10.383  19.006  65.645  1.00  0.00    -0.531 OA 
HETATM    6  N   UNL     1     -10.764  16.739  65.562  1.00  0.00    -0.279 N  
HETATM    7  O   UNL     1     -11.407  16.925  64.327  1.00  0.00    -1.202 OA 
HETATM    8  C   UNL     1     -10.721  15.471  66.099  1.00  0.00    -0.313 C  
HETATM    9  C   UNL     1     -10.086  15.338  67.289  1.00  0.00    -0.236 C  
ENDROOT
BRANCH   8  10
HETATM   10  C   UNL     1     -11.377  14.253  65.434  1.00  0.00    -0.329 C  
HETATM   11  C   UNL     1     -10.572  13.432  64.391  1.00  0.00    -0.423 C  
HETATM   12  C   UNL     1      -9.963  12.107  64.869  1.00  0.00    -0.235 C  
HETATM   13  C   UNL     1     -10.900  11.310  65.761  1.00  0.00    -0.257 C  
HETATM   14  C   UNL     1     -11.368  12.160  66.933  1.00  0.00    -0.402 C  
HETATM   15  C   UNL     1     -12.146  13.371  66.438  1.00  0.00    -0.464 C  
ENDBRANCH   8  10
TORSDOF 1
ENDMDL
MODEL       19
REMARK 921   NORMALIZED FREE ENERGY PREDICTED BY IDOCK:   -5.33 KCAL/MOL
REMARK 922        TOTAL FREE ENERGY PREDICTED BY IDOCK:   -5.94 KCAL/MOL
REMARK 923 INTER-LIGAND FREE ENERGY PREDICTED BY IDOCK:   -5.54 KCAL/MOL
REMARK 924 INTRA-LIGAND FREE ENERGY PREDICTED BY IDOCK:   -0.39 KCAL/MOL
REMARK 927      BINDING AFFINITY PREDICTED BY RF-SCORE:    0.00 PKD
ROOT
HETATM    1  C   UNL     1     -11.480  15.785  70.845  1.00  0.00    -0.438 C  
HETATM    2  C   UNL     1     -11.328  15.607  69.365  1.00  0.00    -0.332 C  
HETATM    3  C   UNL     1     -11.722  14.483  68.744  1.00  0.00    -0.362 C  
HETATM    4  C   UNL     1     -11.571  14.364  67.277  1.00  0.00    -0.379 C  
HETATM    5  O   UNL     1     -11.905  13.338  66.689  1.00  0.00    -0.360 OA 
HETATM    6  N   UNL     1     -11.033  15.466  66.641  1.00  0.00    -0.304 N  
HETATM    7  O   UNL     1     -10.909  15.349  65.247  1.00  0.00    -0.358 OA 
HETATM    8  C   UNL     1     -10.582  16.617  67.249  1.00  0.00    -0.281 C  
HETATM    9  C   UNL     1     -10.726  16.689  68.595  1.00  0.00    -0.349 C  
ENDROOT
BRANCH   8  10
HETATM   10  C   UNL     1      -9.912  17.766  66.483  1.00  0.00    -0.346 C  
HETATM   11  C   UNL     1     -10.550  19.180  66.524  1.00  0.00    -0.523 C  
HETATM   12  C   UNL     1      -9.904  20.209  67.461  1.00  0.00    -0.574 C  
HETATM   13  C   UNL     1      -8.385  20.167  67.432  1.00  0.00    -0.390 C  
HETATM   14  C   UNL     1      -7.887  18.759  67.725  1.00  0.00    -0.262 C  
HETATM   15  C   UNL     1      -8.380  17.787  66.664  1.00  0.00    -0.285 C  
ENDBRANCH   8  10
TORSDOF 1
ENDMDL
MODEL       20
REMARK 921   NORMALIZED FREE ENERGY PREDICTED BY IDOCK:   -5.25 KCAL/MOL
REMARK 922        TOTAL FREE ENERGY PREDICTED BY IDOCK:   -5.86 KCAL/MOL
REMARK 923 INTER-LIGAND FREE ENERGY PREDICTED BY IDOCK:   -5.45 KCAL/MOL
REMARK 924 INTRA-LIGAND FREE ENERGY PREDICTED BY IDOCK:   -0.40 KCAL/MOL
REMARK 927      BINDING AFFINITY PREDICTED BY RF-SCORE:    0.00 PKD
ROOT
HETATM    1  C   UNL     1     -11.382   9.913  69.473  1.00  0.00    -0.172 C  
HETATM    2  C   UNL     1     -11.658  11.384  69.415  1.00  0.00    -0.391 C  
HETATM    3  C   UNL     1     -12.043  12.074  70.502  1.00  0.00    -0.402 C  
HETATM    4  C   UNL     1     -12.282  13.530  70.399  1.00  0.00    -0.356 C  
HETATM    5  O   UNL     1     -12.655  14.180  71.374  1.00  0.00    -0.332 OA 
HETATM    6  N   UNL     1     -12.065  14.084  69.152  1.00  0.00    -0.355 N  
HETATM    7  O   UNL     1     -12.280  15.470  69.069  1.00  0.00    -0.267 OA 
HETATM    8  C   UNL     1     -11.710  13.402  68.009  1.00  0.00    -0.356 C  
HETATM    9  C   UNL     1     -11.509  12.068  68.137  1.00  0.00    -0.383 C  
ENDROOT
BRANCH   8  10
HETATM   10  C   UNL     1     -11.574  14.074  66.636  1.00  0.00    -0.400 C  
HETATM   11  C   UNL     1     -10.238  13.949  65.858  1.00  0.00    -0.326 C  
HETATM   12  C   UNL     1     -10.193  12.931  64.710  1.00  0.00    -0.307 C  
HETATM   13  C   UNL     1     -11.455  12.934  63.864  1.00  0.00    -0.504 C  
HETATM   14  C   UNL     1     -12.682  12.729  64.741  1.00  0.00    -0.469 C  
HETATM   15  C   UNL     1     -12.816  13.863  65.746  1.00  0.00    -0.437 C  
ENDBRANCH   8  10
TORSDOF 1
ENDMDL
MODEL       21
REMARK 921   NORMALIZED FREE ENERGY PREDICTED BY IDOCK:   -5.23 KCAL/MOL
REMARK 922        TOTAL FREE ENERGY PREDICTED BY IDOCK:   -5.83 KCAL/MOL
REMARK 923 INTER-LIGAND FREE ENERGY PREDICTED BY IDOCK:   -5.42 KCAL/MOL
REMARK 924 INTRA-LIGAND FREE ENERGY PREDICTED BY IDOCK:   -0.41 KCAL/MOL
REMARK 927      BINDING AFFINITY PREDICTED BY RF-SCORE:    0.00 PKD
ROOT
HETATM    1  C   UNL     1      -9.335  17.652  66.422  1.00  0.00    -0.265 C  
HETATM    2  C   UNL     1     -10.153  16.729  67.274  1.00  0.00    -0.281 C  
HETATM    3  C   UNL     1     -10.379  16.983  68.574  1.00  0.00    -0.359 C  
HETATM    4  C   UNL     1     -11.211  16.054  69.368  1.00  0.00    -0.349 C  
HETATM    5  O   UNL     1     -11.416  16.253  70.563  1.00  0.00    -0.367 OA 
HETATM    6  N   UNL     1     -11.721  14.971  68.678  1.00  0.00    -0.341 N  
HETATM    7  O   UNL     1     -12.524  14.103  69.438  1.00  0.00    -0.277 OA 
HETATM    8  C   UNL     1     -11.479  14.658  67.358  1.00  0.00    -0.369 C  
HETATM    9  C   UNL     1     -10.703  15.526  66.663  1.00  0.00    -0.306 C  
ENDROOT
BRANCH   8  10
HETATM   10  C   UNL     1     -12.009  13.386  66.683  1.00  0.00    -0.452 C  
HETATM   11  C   UNL     1     -12.782  13.503  65.343  1.00  0.00    -0.495 C  
HETATM   12  C   UNL     1     -12.012  13.157  64.062  1.00  0.00    -0.524 C  
HETATM   13  C   UNL     1     -11.129  11.929  64.213  1.00  0.00    -0.418 C  
HETATM   14  C   UNL     1     -10.190  12.094  65.399  1.00  0.00    -0.299 C  
HETATM   15  C   UNL     1     -10.980  12.237  66.691  1.00  0.00    -0.321 C  
ENDBRANCH   8  10
TORSDOF 1
ENDMDL
MODEL       22
REMARK 921   NORMALIZED FREE ENERGY PREDICTED BY IDOCK:   -5.14 KCAL/MOL
REMARK 922        TOTAL FREE ENERGY PREDICTED BY IDOCK:   -5.74 KCAL/MOL
REMARK 923 INTER-LIGAND FREE ENERGY PREDICTED BY IDOCK:   -5.33 KCAL/MOL
REMARK 924 INTRA-LIGAND FREE ENERGY PREDICTED BY IDOCK:   -0.41 KCAL/MOL
REMARK 927      BINDING AFFINITY PREDICTED BY RF-SCORE:    0.00 PKD
ROOT
HETATM    1  C   UNL     1      -8.771  10.656  65.122  1.00  0.00    -0.196 C  
HETATM    2  C   UNL     1      -9.930  11.596  64.996  1.00  0.00    -0.297 C  
HETATM    3  C   UNL     1     -10.958  11.344  64.168  1.00  0.00    -0.411 C  
HETATM    4  C   UNL     1     -12.091  12.292  64.095  1.00  0.00    -0.436 C  
HETATM    5  O   UNL     1     -13.033  12.094  63.331  1.00  0.00    -0.776 OA 
HETATM    6  N   UNL     1     -12.003  13.391  64.928  1.00  0.00    -0.360 N  
HETATM    7  O   UNL     1     -13.092  14.277  64.863  1.00  0.00    -0.645 OA 
HETATM    8  C   UNL     1     -10.949  13.702  65.758  1.00  0.00    -0.278 C  
HETATM    9  C   UNL     1      -9.923  12.817  65.793  1.00  0.00    -0.259 C  
ENDROOT
BRANCH   8  10
HETATM   10  C   UNL     1     -10.883  14.991  66.589  1.00  0.00    -0.318 C  
HETATM   11  C   UNL     1     -10.626  14.898  68.116  1.00  0.00    -0.244 C  
HETATM   12  C   UNL     1      -9.204  15.208  68.603  1.00  0.00    -0.196 C  
HETATM   13  C   UNL     1      -8.582  16.401  67.897  1.00  0.00    -0.175 C  
HETATM   14  C   UNL     1      -8.622  16.206  66.388  1.00  0.00    -0.365 C  
HETATM   15  C   UNL     1     -10.060  16.099  65.901  1.00  0.00    -0.379 C  
ENDBRANCH   8  10
TORSDOF 1
ENDMDL
MODEL       23
REMARK 921   NORMALIZED FREE ENERGY PREDICTED BY IDOCK:   -5.14 KCAL/MOL
REMARK 922        TOTAL FREE ENERGY PREDICTED BY IDOCK:   -5.74 KCAL/MOL
REMARK 923 INTER-LIGAND FREE ENERGY PREDICTED BY IDOCK:   -5.33 KCAL/MOL
REMARK 924 INTRA-LIGAND FREE ENERGY PREDICTED BY IDOCK:   -0.41 KCAL/MOL
REMARK 927      BINDING AFFINITY PREDICTED BY RF-SCORE:    0.00 PKD
ROOT
HETATM    1  C   UNL     1     -10.780  16.862  67.457  1.00  0.00    -0.270 C  
HETATM    2  C   UNL     1     -11.188  15.484  67.880  1.00  0.00    -0.325 C  
HETATM    3  C   UNL     1     -11.417  15.179  69.168  1.00  0.00    -0.322 C  
HETATM    4  C   UNL     1     -11.840  13.809  69.532  1.00  0.00    -0.339 C  
HETATM    5  O   UNL     1     -12.036  13.499  70.706  1.00  0.00    -0.339 OA 
HETATM    6  N   UNL     1     -11.986  12.929  68.477  1.00  0.00    -0.289 N  
HETATM    7  O   UNL     1     -12.404  11.635  68.833  1.00  0.00    -0.355 OA 
HETATM    8  C   UNL     1     -11.722  13.195  67.152  1.00  0.00    -0.377 C  
HETATM    9  C   UNL     1     -11.327  14.457  66.854  1.00  0.00    -0.357 C  
ENDROOT
BRANCH   8  10
HETATM   10  C   UNL     1     -11.822  12.137  66.044  1.00  0.00    -0.328 C  
HETATM   11  C   UNL     1     -12.591  12.474  64.740  1.00  0.00    -0.493 C  
HETATM   12  C   UNL     1     -11.749  12.835  63.508  1.00  0.00    -0.597 C  
HETATM   13  C   UNL     1     -10.524  11.951  63.347  1.00  0.00    -0.487 C  
HETATM   14  C   UNL     1      -9.686  11.967  64.617  1.00  0.00    -0.138 C  
HETATM   15  C   UNL     1     -10.483  11.415  65.790  1.00  0.00    -0.314 C  
ENDBRANCH   8  10
TORSDOF 1
ENDMDL
MODEL       24
REMARK 921   NORMALIZED FREE ENERGY PREDICTED BY IDOCK:   -5.14 KCAL/MOL
REMARK 922        TOTAL FREE ENERGY PREDICTED BY IDOCK:   -5.73 KCAL/MOL
REMARK 923 INTER-LIGAND FREE ENERGY PREDICTED BY IDOCK:   -5.33 KCAL/MOL
REMARK 924 INTRA-LIGAND FREE ENERGY PREDICTED BY IDOCK:   -0.41 KCAL/MOL
REMARK 927      BINDING AFFINITY PREDICTED BY RF-SCORE:    0.00 PKD
ROOT
HETATM    1  C   UNL     1     -11.908  13.396  69.754  1.00  0.00    -0.393 C  
HETATM    2  C   UNL     1     -11.479  14.360  68.689  1.00  0.00    -0.316 C  
HETATM    3  C   UNL     1     -11.304  15.666  68.948  1.00  0.00    -0.341 C  
HETATM    4  C   UNL     1     -10.859  16.574  67.869  1.00  0.00    -0.326 C  
HETATM    5  O   UNL     1     -10.711  17.777  68.076  1.00  0.00    -0.382 OA 
HETATM    6  N   UNL     1     -10.635  15.979  66.642  1.00  0.00    -0.316 N  
HETATM    7  O   UNL     1     -10.197  16.847  65.628  1.00  0.00    -0.542 OA 
HETATM    8  C   UNL     1     -10.843  14.653  66.331  1.00  0.00    -0.315 C  
HETATM    9  C   UNL     1     -11.260  13.851  67.341  1.00  0.00    -0.330 C  
ENDROOT
BRANCH   8  10
HETATM   10  C   UNL     1     -10.658  14.081  64.919  1.00  0.00    -0.442 C  
HETATM   11  C   UNL     1      -9.921  12.727  64.738  1.00  0.00    -0.158 C  
HETATM   12  C   UNL     1     -10.793  11.489  64.490  1.00  0.00    -0.390 C  
HETATM   13  C   UNL     1     -11.941  11.753  63.530  1.00  0.00    -0.484 C  
HETATM   14  C   UNL     1     -12.775  12.931  64.011  1.00  0.00    -0.233 C  
HETATM   15  C   UNL     1     -11.933  14.198  64.059  1.00  0.00    -0.359 C  
ENDBRANCH   8  10
TORSDOF 1
ENDMDL
MODEL       25
REMARK 921   NORMALIZED FREE ENERGY PREDICTED BY IDOCK:   -5.04 KCAL/MOL
REMARK 922        TOTAL FREE ENERGY PREDICTED BY IDOCK:   -5.63 KCAL/MOL
REMARK 923 INTER-LIGAND FREE ENERGY PREDICTED BY IDOCK:   -5.94 KCAL/MOL
REMARK 924 INTRA-LIGAND FREE ENERGY PREDICTED BY IDOCK:    0.31 KCAL/MOL
REMARK 927      BINDING AFFINITY PREDICTED BY RF-SCORE:    0.00 PKD
ROOT
HETATM    1  C   UNL     1     -11.376  16.169  70.186  1.00  0.00    -0.347 C  
HETATM    2  C   UNL     1     -11.182  15.927  68.720  1.00  0.00    -0.359 C  
HETATM    3  C   UNL     1     -10.616  16.848  67.921  1.00  0.00    -0.361 C  
HETATM    4  C   UNL     1     -10.426  16.553  66.485  1.00  0.00    -0.270 C  
HETATM    5  O   UNL     1      -9.930  17.386  65.729  1.00  0.00    -0.539 OA 
HETATM    6  N   UNL     1     -10.845  15.303  66.071  1.00  0.00    -0.327 N  
HETATM    7  O   UNL     1     -10.645  15.028  64.707  1.00  0.00    -0.402 OA 
HETATM    8  C   UNL     1     -11.464  14.352  66.852  1.00  0.00    -0.366 C  
HETATM    9  C   UNL     1     -11.632  14.659  68.161  1.00  0.00    -0.362 C  
ENDROOT
BRANCH   8  10
HETATM   10  C   UNL     1     -11.984  13.018  66.300  1.00  0.00    -0.477 C  
HETATM   11  C   UNL     1     -12.775  13.004  64.965  1.00  0.00    -0.475 C  
HETATM   12  C   UNL     1     -12.014  12.554  63.710  1.00  0.00    -0.598 C  
HETATM   13  C   UNL     1     -11.113  11.357  63.959  1.00  0.00    -0.400 C  
HETATM   14  C   UNL     1     -10.162  11.639  65.113  1.00  0.00    -0.319 C  
HETATM   15  C   UNL     1     -10.939  11.887  66.397  1.00  0.00    -0.337 C  
ENDBRANCH   8  10
TORSDOF 1
ENDMDL
MODEL       26
REMARK 921   NORMALIZED FREE ENERGY PREDICTED BY IDOCK:   -5.02 KCAL/MOL
REMARK 922        TOTAL FREE ENERGY PREDICTED BY IDOCK:   -5.61 KCAL/MOL
REMARK 923 INTER-LIGAND FREE ENERGY PREDICTED BY IDOCK:   -5.30 KCAL/MOL
REMARK 924 INTRA-LIGAND FREE ENERGY PREDICTED BY IDOCK:   -0.31 KCAL/MOL
REMARK 927      BINDING AFFINITY PREDICTED BY RF-SCORE:    0.00 PKD
ROOT
HETATM    1  C   UNL     1      -9.279  10.053  63.332  1.00  0.00    -0.317 C  
HETATM    2  C   UNL     1     -10.171  11.084  63.955  1.00  0.00    -0.420 C  
HETATM    3  C   UNL     1     -10.950  11.886  63.211  1.00  0.00    -0.399 C  
HETATM    4  C   UNL     1     -11.830  12.874  63.874  1.00  0.00    -0.473 C  
HETATM    5  O   UNL     1     -12.537  13.633  63.215  1.00  0.00    -0.816 OA 
HETATM    6  N   UNL     1     -11.788  12.877  65.255  1.00  0.00    -0.367 N  
HETATM    7  O   UNL     1     -12.639  13.808  65.875  1.00  0.00    -0.472 OA 
HETATM    8  C   UNL     1     -10.973  12.099  66.047  1.00  0.00    -0.293 C  
HETATM    9  C   UNL     1     -10.173  11.212  65.407  1.00  0.00    -0.327 C  
ENDROOT
BRANCH   8  10
HETATM   10  C   UNL     1     -10.918  12.223  67.576  1.00  0.00    -0.298 C  
HETATM   11  C   UNL     1     -11.849  11.335  68.444  1.00  0.00    -0.331 C  
HETATM   12  C   UNL     1     -11.216  10.104  69.108  1.00  0.00    -0.234 C  
HETATM   13  C   UNL     1      -9.838  10.383  69.685  1.00  0.00    -0.179 C  
HETATM   14  C   UNL     1      -8.925  10.969  68.618  1.00  0.00    -0.167 C  
HETATM   15  C   UNL     1      -9.474  12.296  68.114  1.00  0.00    -0.213 C  
ENDBRANCH   8  10
TORSDOF 1
ENDMDL
MODEL       27
REMARK 921   NORMALIZED FREE ENERGY PREDICTED BY IDOCK:   -4.97 KCAL/MOL
REMARK 922        TOTAL FREE ENERGY PREDICTED BY IDOCK:   -5.56 KCAL/MOL
REMARK 923 INTER-LIGAND FREE ENERGY PREDICTED BY IDOCK:   -5.27 KCAL/MOL
REMARK 924 INTRA-LIGAND FREE ENERGY PREDICTED BY IDOCK:   -0.29 KCAL/MOL
REMARK 927      BINDING AFFINITY PREDICTED BY RF-SCORE:    0.00 PKD
ROOT
HETATM    1  C   UNL     1     -10.511   9.319  67.478  1.00  0.00    -0.338 C  
HETATM    2  C   UNL     1     -11.109  10.487  68.202  1.00  0.00    -0.346 C  
HETATM    3  C   UNL     1     -11.514  10.394  69.480  1.00  0.00    -0.311 C  
HETATM    4  C   UNL     1     -12.077  11.582  70.158  1.00  0.00    -0.351 C  
HETATM    5  O   UNL     1     -12.473  11.517  71.320  1.00  0.00    -0.353 OA 
HETATM    6  N   UNL     1     -12.126  12.736  69.399  1.00  0.00    -0.241 N  
HETATM    7  O   UNL     1     -12.647  13.862  70.059  1.00  0.00    -0.294 OA 
HETATM    8  C   UNL     1     -11.757  12.857  68.078  1.00  0.00    -0.356 C  
HETATM    9  C   UNL     1     -11.255  11.747  67.484  1.00  0.00    -0.354 C  
ENDROOT
BRANCH   8  10
HETATM   10  C   UNL     1     -11.925  14.153  67.273  1.00  0.00    -0.449 C  
HETATM   11  C   UNL     1     -10.830  15.249  67.362  1.00  0.00    -0.304 C  
HETATM   12  C   UNL     1      -9.842  15.343  66.192  1.00  0.00    -0.337 C  
HETATM   13  C   UNL     1     -10.509  15.180  64.836  1.00  0.00    -0.350 C  
HETATM   14  C   UNL     1     -11.305  13.884  64.789  1.00  0.00    -0.365 C  
HETATM   15  C   UNL     1     -12.412  13.898  65.832  1.00  0.00    -0.519 C  
ENDBRANCH   8  10
TORSDOF 1
ENDMDL
MODEL       28
REMARK 921   NORMALIZED FREE ENERGY PREDICTED BY IDOCK:   -4.92 KCAL/MOL
REMARK 922        TOTAL FREE ENERGY PREDICTED BY IDOCK:   -5.50 KCAL/MOL
REMARK 923 INTER-LIGAND FREE ENERGY PREDICTED BY IDOCK:   -5.29 KCAL/MOL
REMARK 924 INTRA-LIGAND FREE ENERGY PREDICTED BY IDOCK:   -0.21 KCAL/MOL
REMARK 927      BINDING AFFINITY PREDICTED BY RF-SCORE:    0.00 PKD
ROOT
HETATM    1  C   UNL     1     -10.265   9.995  66.233  1.00  0.00    -0.285 C  
HETATM    2  C   UNL     1     -10.802  10.822  67.362  1.00  0.00    -0.345 C  
HETATM    3  C   UNL     1     -11.102  12.122  67.205  1.00  0.00    -0.345 C  
HETATM    4  C   UNL     1     -11.650  12.890  68.343  1.00  0.00    -0.333 C  
HETATM    5  O   UNL     1     -11.913  14.086  68.231  1.00  0.00    -0.357 OA 
HETATM    6  N   UNL     1     -11.832  12.177  69.513  1.00  0.00    -0.322 N  
HETATM    7  O   UNL     1     -12.369  12.912  70.583  1.00  0.00    -0.358 OA 
HETATM    8  C   UNL     1     -11.499  10.857  69.721  1.00  0.00    -0.313 C  
HETATM    9  C   UNL     1     -10.990  10.185  68.660  1.00  0.00    -0.273 C  
ENDROOT
BRANCH   8  10
HETATM   10  C   UNL     1     -11.648  10.155  71.078  1.00  0.00    -0.462 C  
HETATM   11  C   UNL     1     -13.068   9.851  71.624  1.00  0.00    -0.538 C  
HETATM   12  C   UNL     1     -13.574   8.408  71.484  1.00  0.00    -0.332 C  
HETATM   13  C   UNL     1     -12.507   7.372  71.796  1.00  0.00    -0.367 C  
HETATM   14  C   UNL     1     -11.269   7.612  70.945  1.00  0.00    -0.282 C  
HETATM   15  C   UNL     1     -10.667   8.976  71.247  1.00  0.00    -0.379 C  
ENDBRANCH   8  10
TORSDOF 1
ENDMDL
MODEL       29
REMARK 921   NORMALIZED FREE ENERGY PREDICTED BY IDOCK:   -4.90 KCAL/MOL
REMARK 922        TOTAL FREE ENERGY PREDICTED BY IDOCK:   -5.49 KCAL/MOL
REMARK 923 INTER-LIGAND FREE ENERGY PREDICTED BY IDOCK:   -5.19 KCAL/MOL
REMARK 924 INTRA-LIGAND FREE ENERGY PREDICTED BY IDOCK:   -0.30 KCAL/MOL
REMARK 927      BINDING AFFINITY PREDICTED BY RF-SCORE:    0.00 PKD
ROOT
HETATM    1  C   UNL     1      -9.855   9.510  65.613  1.00  0.00    -0.343 C  
HETATM    2  C   UNL     1     -10.478  10.290  66.730  1.00  0.00    -0.279 C  
HETATM    3  C   UNL     1     -10.645   9.762  67.954  1.00  0.00    -0.310 C  
HETATM    4  C   UNL     1     -11.245  10.580  69.030  1.00  0.00    -0.259 C  
HETATM    5  O   UNL     1     -11.427  10.113  70.153  1.00  0.00    -0.261 OA 
HETATM    6  N   UNL     1     -11.582  11.873  68.679  1.00  0.00    -0.285 N  
HETATM    7  O   UNL     1     -12.137  12.647  69.713  1.00  0.00    -0.294 OA 
HETATM    8  C   UNL     1     -11.463  12.434  67.427  1.00  0.00    -0.352 C  
HETATM    9  C   UNL     1     -10.918  11.654  66.462  1.00  0.00    -0.349 C  
ENDROOT
BRANCH   8  10
HETATM   10  C   UNL     1     -11.943  13.853  67.091  1.00  0.00    -0.455 C  
HETATM   11  C   UNL     1     -10.980  15.051  67.303  1.00  0.00    -0.326 C  
HETATM   12  C   UNL     1     -10.293  15.621  66.055  1.00  0.00    -0.351 C  
HETATM   13  C   UNL     1     -11.223  15.721  64.858  1.00  0.00    -0.358 C  
HETATM   14  C   UNL     1     -11.866  14.373  64.570  1.00  0.00    -0.463 C  
HETATM   15  C   UNL     1     -12.709  13.919  65.753  1.00  0.00    -0.503 C  
ENDBRANCH   8  10
TORSDOF 1
ENDMDL
MODEL       30
REMARK 921   NORMALIZED FREE ENERGY PREDICTED BY IDOCK:   -4.87 KCAL/MOL
REMARK 922        TOTAL FREE ENERGY PREDICTED BY IDOCK:   -5.46 KCAL/MOL
REMARK 923 INTER-LIGAND FREE ENERGY PREDICTED BY IDOCK:   -5.13 KCAL/MOL
REMARK 924 INTRA-LIGAND FREE ENERGY PREDICTED BY IDOCK:   -0.32 KCAL/MOL
REMARK 927      BINDING AFFINITY PREDICTED BY RF-SCORE:    0.00 PKD
ROOT
HETATM    1  C   UNL     1     -11.639  15.577  69.091  1.00  0.00    -0.374 C  
HETATM    2  C   UNL     1     -12.021  14.360  69.877  1.00  0.00    -0.391 C  
HETATM    3  C   UNL     1     -12.715  14.449  71.023  1.00  0.00    -0.416 C  
HETATM    4  C   UNL     1     -13.087  13.217  71.752  1.00  0.00    -0.383 C  
HETATM    5  O   UNL     1     -13.704  13.272  72.813  1.00  0.00    -0.669 OA 
HETATM    6  N   UNL     1     -12.691  12.032  71.162  1.00  0.00    -0.332 N  
HETATM    7  O   UNL     1     -13.065  10.867  71.853  1.00  0.00    -0.482 OA 
HETATM    8  C   UNL     1     -11.946  11.905  70.011  1.00  0.00    -0.332 C  
HETATM    9  C   UNL     1     -11.613  13.054  69.374  1.00  0.00    -0.360 C  
ENDROOT
BRANCH   8  10
HETATM   10  C   UNL     1     -11.466  10.553  69.463  1.00  0.00    -0.339 C  
HETATM   11  C   UNL     1     -11.301  10.370  67.931  1.00  0.00    -0.248 C  
HETATM   12  C   UNL     1      -9.873  10.439  67.372  1.00  0.00    -0.210 C  
HETATM   13  C   UNL     1      -8.859   9.713  68.240  1.00  0.00    -0.120 C  
HETATM   14  C   UNL     1      -8.921  10.228  69.671  1.00  0.00    -0.140 C  
HETATM   15  C   UNL     1     -10.293   9.967  70.275  1.00  0.00    -0.339 C  
ENDBRANCH   8  10
TORSDOF 1
ENDMDL
MODEL       31
REMARK 921   NORMALIZED FREE ENERGY PREDICTED BY IDOCK:   -4.87 KCAL/MOL
REMARK 922        TOTAL FREE ENERGY PREDICTED BY IDOCK:   -5.46 KCAL/MOL
REMARK 923 INTER-LIGAND FREE ENERGY PREDICTED BY IDOCK:   -5.36 KCAL/MOL
REMARK 924 INTRA-LIGAND FREE ENERGY PREDICTED BY IDOCK:   -0.10 KCAL/MOL
REMARK 927      BINDING AFFINITY PREDICTED BY RF-SCORE:    0.00 PKD
ROOT
HETATM    1  C   UNL     1      -6.802  14.372  67.792  1.00  0.00    -0.194 C  
HETATM    2  C   UNL     1      -7.800  15.258  67.109  1.00  0.00    -0.249 C  
HETATM    3  C   UNL     1      -7.511  16.529  66.784  1.00  0.00    -0.281 C  
HETATM    4  C   UNL     1      -8.522  17.356  66.091  1.00  0.00    -0.163 C  
HETATM    5  O   UNL     1      -8.289  18.528  65.801  1.00  0.00    -0.471 OA 
HETATM    6  N   UNL     1      -9.718  16.725  65.809  1.00  0.00    -0.193 N  
HETATM    7  O   UNL     1     -10.666  17.515  65.137  1.00  0.00    -0.673 OA 
HETATM    8  C   UNL     1     -10.064  15.439  66.163  1.00  0.00    -0.305 C  
HETATM    9  C   UNL     1      -9.117  14.712  66.806  1.00  0.00    -0.287 C  
ENDROOT
BRANCH   8  10
HETATM   10  C   UNL     1     -11.449  14.835  65.894  1.00  0.00    -0.319 C  
HETATM   11  C   UNL     1     -11.974  14.759  64.436  1.00  0.00    -0.433 C  
HETATM   12  C   UNL     1     -11.892  13.395  63.737  1.00  0.00    -0.483 C  
HETATM   13  C   UNL     1     -12.280  12.239  64.643  1.00  0.00    -0.454 C  
HETATM   14  C   UNL     1     -11.448  12.261  65.917  1.00  0.00    -0.428 C  
HETATM   15  C   UNL     1     -11.699  13.543  66.698  1.00  0.00    -0.425 C  
ENDBRANCH   8  10
TORSDOF 1
ENDMDL
MODEL       32
REMARK 921   NORMALIZED FREE ENERGY PREDICTED BY IDOCK:   -4.77 KCAL/MOL
REMARK 922        TOTAL FREE ENERGY PREDICTED BY IDOCK:   -5.35 KCAL/MOL
REMARK 923 INTER-LIGAND FREE ENERGY PREDICTED BY IDOCK:   -5.45 KCAL/MOL
REMARK 924 INTRA-LIGAND FREE ENERGY PREDICTED BY IDOCK:    0.10 KCAL/MOL
REMARK 927      BINDING AFFINITY PREDICTED BY RF-SCORE:    0.00 PKD
ROOT
HETATM    1  C   UNL     1     -13.736  13.437  72.310  1.00  0.00    -0.705 C  
HETATM    2  C   UNL     1     -13.027  12.375  71.527  1.00  0.00    -0.385 C  
HETATM    3  C   UNL     1     -13.087  11.079  71.878  1.00  0.00    -0.525 C  
HETATM    4  C   UNL     1     -12.388  10.065  71.059  1.00  0.00    -0.360 C  
HETATM    5  O   UNL     1     -12.411   8.876  71.371  1.00  0.00    -0.300 OA 
HETATM    6  N   UNL     1     -11.720  10.549  69.951  1.00  0.00    -0.280 N  
HETATM    7  O   UNL     1     -11.073   9.576  69.172  1.00  0.00    -0.171 OA 
HETATM    8  C   UNL     1     -11.604  11.872  69.584  1.00  0.00    -0.317 C  
HETATM    9  C   UNL     1     -12.248  12.776  70.362  1.00  0.00    -0.371 C  
ENDROOT
BRANCH   8  10
HETATM   10  C   UNL     1     -10.768  12.343  68.386  1.00  0.00    -0.254 C  
HETATM   11  C   UNL     1     -10.821  11.540  67.060  1.00  0.00    -0.320 C  
HETATM   12  C   UNL     1     -11.688  12.115  65.932  1.00  0.00    -0.393 C  
HETATM   13  C   UNL     1     -11.555  13.622  65.790  1.00  0.00    -0.349 C  
HETATM   14  C   UNL     1     -11.843  14.308  67.117  1.00  0.00    -0.454 C  
HETATM   15  C   UNL     1     -10.841  13.869  68.174  1.00  0.00    -0.262 C  
ENDBRANCH   8  10
TORSDOF 1
ENDMDL
MODEL       33
REMARK 921   NORMALIZED FREE ENERGY PREDICTED BY IDOCK:   -4.77 KCAL/MOL
REMARK 922        TOTAL FREE ENERGY PREDICTED BY IDOCK:   -5.34 KCAL/MOL
REMARK 923 INTER-LIGAND FREE ENERGY PREDICTED BY IDOCK:   -5.00 KCAL/MOL
REMARK 924 INTRA-LIGAND FREE ENERGY PREDICTED BY IDOCK:   -0.34 KCAL/MOL
REMARK 927      BINDING AFFINITY PREDICTED BY RF-SCORE:    0.00 PKD
ROOT
HETATM    1  C   UNL     1     -10.722  19.611  66.120  1.00  0.00    -0.520 C  
HETATM    2  C   UNL     1      -9.707  18.522  66.294  1.00  0.00    -0.315 C  
HETATM    3  C   UNL     1      -8.421  18.793  66.569  1.00  0.00    -0.310 C  
HETATM    4  C   UNL     1      -7.462  17.682  66.754  1.00  0.00    -0.215 C  
HETATM    5  O   UNL     1      -6.275  17.904  66.986  1.00  0.00    -0.146 OA 
HETATM    6  N   UNL     1      -7.991  16.411  66.642  1.00  0.00    -0.258 N  
HETATM    7  O   UNL     1      -7.075  15.364  66.836  1.00  0.00    -0.191 OA 
HETATM    8  C   UNL     1      -9.294  16.097  66.323  1.00  0.00    -0.317 C  
HETATM    9  C   UNL     1     -10.144  17.139  66.150  1.00  0.00    -0.317 C  
ENDROOT
BRANCH   8  10
HETATM   10  C   UNL     1      -9.789  14.658  66.127  1.00  0.00    -0.334 C  
HETATM   11  C   UNL     1     -10.642  13.991  67.238  1.00  0.00    -0.273 C  
HETATM   12  C   UNL     1     -12.158  13.920  67.004  1.00  0.00    -0.451 C  
HETATM   13  C   UNL     1     -12.521  13.550  65.576  1.00  0.00    -0.538 C  
HETATM   14  C   UNL     1     -11.851  14.500  64.594  1.00  0.00    -0.462 C  
HETATM   15  C   UNL     1     -10.337  14.406  64.708  1.00  0.00    -0.352 C  
ENDBRANCH   8  10
TORSDOF 1
ENDMDL
MODEL       34
REMARK 921   NORMALIZED FREE ENERGY PREDICTED BY IDOCK:   -4.76 KCAL/MOL
REMARK 922        TOTAL FREE ENERGY PREDICTED BY IDOCK:   -5.34 KCAL/MOL
REMARK 923 INTER-LIGAND FREE ENERGY PREDICTED BY IDOCK:   -4.93 KCAL/MOL
REMARK 924 INTRA-LIGAND FREE ENERGY PREDICTED BY IDOCK:   -0.41 KCAL/MOL
REMARK 927      BINDING AFFINITY PREDICTED BY RF-SCORE:    0.00 PKD
ROOT
HETATM    1  C   UNL     1      -7.664  18.672  69.170  1.00  0.00    -0.113 C  
HETATM    2  C   UNL     1      -8.607  18.476  68.021  1.00  0.00    -0.310 C  
HETATM    3  C   UNL     1      -9.054  19.511  67.290  1.00  0.00    -0.373 C  
HETATM    4  C   UNL     1      -9.967  19.264  66.153  1.00  0.00    -0.397 C  
HETATM    5  O   UNL     1     -10.406  20.196  65.482  1.00  0.00    -0.378 OA 
HETATM    6  N   UNL     1     -10.282  17.940  65.917  1.00  0.00    -0.279 N  
HETATM    7  O   UNL     1     -11.136  17.716  64.824  1.00  0.00    -0.915 OA 
HETATM    8  C   UNL     1      -9.875  16.860  66.668  1.00  0.00    -0.287 C  
HETATM    9  C   UNL     1      -9.048  17.122  67.709  1.00  0.00    -0.233 C  
ENDROOT
BRANCH   8  10
HETATM   10  C   UNL     1     -10.340  15.422  66.397  1.00  0.00    -0.303 C  
HETATM   11  C   UNL     1      -9.304  14.268  66.438  1.00  0.00    -0.270 C  
HETATM   12  C   UNL     1      -9.282  13.398  67.702  1.00  0.00    -0.212 C  
HETATM   13  C   UNL     1     -10.672  13.060  68.216  1.00  0.00    -0.261 C  
HETATM   14  C   UNL     1     -11.481  14.331  68.430  1.00  0.00    -0.331 C  
HETATM   15  C   UNL     1     -11.660  15.079  67.118  1.00  0.00    -0.271 C  
ENDBRANCH   8  10
TORSDOF 1
ENDMDL
MODEL       35
REMARK 921   NORMALIZED FREE ENERGY PREDICTED BY IDOCK:   -4.76 KCAL/MOL
REMARK 922        TOTAL FREE ENERGY PREDICTED BY IDOCK:   -5.34 KCAL/MOL
REMARK 923 INTER-LIGAND FREE ENERGY PREDICTED BY IDOCK:   -5.02 KCAL/MOL
REMARK 924 INTRA-LIGAND FREE ENERGY PREDICTED BY IDOCK:   -0.32 KCAL/MOL
REMARK 927      BINDING AFFINITY PREDICTED BY RF-SCORE:    0.00 PKD
ROOT
HETATM    1  C   UNL     1     -10.829  15.544  70.137  1.00  0.00    -0.346 C  
HETATM    2  C   UNL     1     -11.195  14.625  69.012  1.00  0.00    -0.287 C  
HETATM    3  C   UNL     1     -11.462  15.089  67.780  1.00  0.00    -0.347 C  
HETATM    4  C   UNL     1     -11.797  14.140  66.696  1.00  0.00    -0.424 C  
HETATM    5  O   UNL     1     -12.065  14.541  65.565  1.00  0.00    -0.357 OA 
HETATM    6  N   UNL     1     -11.791  12.804  67.049  1.00  0.00    -0.381 N  
HETATM    7  O   UNL     1     -12.094  11.910  66.008  1.00  0.00    -0.500 OA 
HETATM    8  C   UNL     1     -11.562  12.296  68.308  1.00  0.00    -0.331 C  
HETATM    9  C   UNL     1     -11.268  13.194  69.280  1.00  0.00    -0.266 C  
ENDROOT
BRANCH   8  10
HETATM   10  C   UNL     1     -11.660  10.801  68.644  1.00  0.00    -0.342 C  
HETATM   11  C   UNL     1     -10.370   9.939  68.657  1.00  0.00    -0.217 C  
HETATM   12  C   UNL     1      -9.769   9.607  70.029  1.00  0.00    -0.280 C  
HETATM   13  C   UNL     1     -10.819   9.246  71.067  1.00  0.00    -0.385 C  
HETATM   14  C   UNL     1     -11.864  10.347  71.170  1.00  0.00    -0.432 C  
HETATM   15  C   UNL     1     -12.589  10.523  69.844  1.00  0.00    -0.124 C  
ENDBRANCH   8  10
TORSDOF 1
ENDMDL
MODEL       36
REMARK 921   NORMALIZED FREE ENERGY PREDICTED BY IDOCK:   -4.74 KCAL/MOL
REMARK 922        TOTAL FREE ENERGY PREDICTED BY IDOCK:   -5.31 KCAL/MOL
REMARK 923 INTER-LIGAND FREE ENERGY PREDICTED BY IDOCK:   -5.57 KCAL/MOL
REMARK 924 INTRA-LIGAND FREE ENERGY PREDICTED BY IDOCK:    0.26 KCAL/MOL
REMARK 927      BINDING AFFINITY PREDICTED BY RF-SCORE:    0.00 PKD
ROOT
HETATM    1  C   UNL     1     -12.837  10.713  71.564  1.00  0.00    -0.567 C  
HETATM    2  C   UNL     1     -12.570  11.943  70.750  1.00  0.00    -0.325 C  
HETATM    3  C   UNL     1     -12.785  13.175  71.240  1.00  0.00    -0.396 C  
HETATM    4  C   UNL     1     -12.485  14.358  70.405  1.00  0.00    -0.357 C  
HETATM    5  O   UNL     1     -12.692  15.495  70.823  1.00  0.00    -0.430 OA 
HETATM    6  N   UNL     1     -11.974  14.089  69.150  1.00  0.00    -0.348 N  
HETATM    7  O   UNL     1     -11.677  15.220  68.371  1.00  0.00    -0.342 OA 
HETATM    8  C   UNL     1     -11.779  12.841  68.601  1.00  0.00    -0.324 C  
HETATM    9  C   UNL     1     -12.073  11.778  69.390  1.00  0.00    -0.301 C  
ENDROOT
BRANCH   8  10
HETATM   10  C   UNL     1     -11.290  12.620  67.162  1.00  0.00    -0.373 C  
HETATM   11  C   UNL     1     -12.149  13.140  65.980  1.00  0.00    -0.495 C  
HETATM   12  C   UNL     1     -11.696  14.444  65.310  1.00  0.00    -0.364 C  
HETATM   13  C   UNL     1     -10.190  14.522  65.120  1.00  0.00    -0.420 C  
HETATM   14  C   UNL     1      -9.476  14.301  66.446  1.00  0.00    -0.297 C  
HETATM   15  C   UNL     1      -9.785  12.916  66.995  1.00  0.00    -0.230 C  
ENDBRANCH   8  10
TORSDOF 1
ENDMDL
MODEL       37
REMARK 921   NORMALIZED FREE ENERGY PREDICTED BY IDOCK:   -4.73 KCAL/MOL
REMARK 922        TOTAL FREE ENERGY PREDICTED BY IDOCK:   -5.30 KCAL/MOL
REMARK 923 INTER-LIGAND FREE ENERGY PREDICTED BY IDOCK:   -4.91 KCAL/MOL
REMARK 924 INTRA-LIGAND FREE ENERGY PREDICTED BY IDOCK:   -0.40 KCAL/MOL
REMARK 927      BINDING AFFINITY PREDICTED BY RF-SCORE:    0.00 PKD
ROOT
HETATM    1  C   UNL     1     -13.198  11.877  71.887  1.00  0.00    -0.467 C  
HETATM    2  C   UNL     1     -12.398  11.126  70.867  1.00  0.00    -0.500 C  
HETATM    3  C   UNL     1     -12.352  11.512  69.581  1.00  0.00    -0.207 C  
HETATM    4  C   UNL     1     -11.530  10.751  68.616  1.00  0.00    -0.295 C  
HETATM    5  O   UNL     1     -11.488  11.072  67.430  1.00  0.00    -0.475 OA 
HETATM    6  N   UNL     1     -10.838   9.675  69.139  1.00  0.00    -0.214 N  
HETATM    7  O   UNL     1     -10.048   8.969  68.217  1.00  0.00    -0.177 OA 
HETATM    8  C   UNL     1     -10.892   9.227  70.440  1.00  0.00    -0.254 C  
HETATM    9  C   UNL     1     -11.663   9.943  71.296  1.00  0.00    -0.472 C  
ENDROOT
BRANCH   8  10
HETATM   10  C   UNL     1     -10.163   7.968  70.929  1.00  0.00    -0.213 C  
HETATM   11  C   UNL     1      -9.457   7.987  72.310  1.00  0.00    -0.272 C  
HETATM   12  C   UNL     1     -10.187   7.303  73.474  1.00  0.00    -0.404 C  
HETATM   13  C   UNL     1     -10.834   5.986  73.078  1.00  0.00    -0.290 C  
HETATM   14  C   UNL     1     -11.757   6.187  71.885  1.00  0.00    -0.337 C  
HETATM   15  C   UNL     1     -10.972   6.679  70.678  1.00  0.00    -0.329 C  
ENDBRANCH   8  10
TORSDOF 1
ENDMDL
MODEL       38
REMARK 921   NORMALIZED FREE ENERGY PREDICTED BY IDOCK:   -4.71 KCAL/MOL
REMARK 922        TOTAL FREE ENERGY PREDICTED BY IDOCK:   -5.28 KCAL/MOL
REMARK 923 INTER-LIGAND FREE ENERGY PREDICTED BY IDOCK:   -5.85 KCAL/MOL
REMARK 924 INTRA-LIGAND FREE ENERGY PREDICTED BY IDOCK:    0.57 KCAL/MOL
REMARK 927      BINDING AFFINITY PREDICTED BY RF-SCORE:    0.00 PKD
ROOT
HETATM    1  C   UNL     1     -12.778  12.164  63.900  1.00  0.00    -0.487 C  
HETATM    2  C   UNL     1     -12.150  13.323  64.613  1.00  0.00    -0.458 C  
HETATM    3  C   UNL     1     -11.993  14.517  64.017  1.00  0.00    -0.238 C  
HETATM    4  C   UNL     1     -11.388  15.637  64.770  1.00  0.00    -0.343 C  
HETATM    5  O   UNL     1     -11.214  16.733  64.241  1.00  0.00    -1.163 OA 
HETATM    6  N   UNL     1     -11.037  15.358  66.077  1.00  0.00    -0.282 N  
HETATM    7  O   UNL     1     -10.478  16.434  66.787  1.00  0.00    -0.292 OA 
HETATM    8  C   UNL     1     -11.147  14.138  66.706  1.00  0.00    -0.310 C  
HETATM    9  C   UNL     1     -11.696  13.131  65.985  1.00  0.00    -0.424 C  
ENDROOT
BRANCH   8  10
HETATM   10  C   UNL     1     -10.652  13.881  68.136  1.00  0.00    -0.258 C  
HETATM   11  C   UNL     1      -9.485  14.733  68.701  1.00  0.00    -0.213 C  
HETATM   12  C   UNL     1      -9.856  15.871  69.662  1.00  0.00    -0.238 C  
HETATM   13  C   UNL     1     -10.934  15.479  70.658  1.00  0.00    -0.370 C  
HETATM   14  C   UNL     1     -12.159  14.944  69.932  1.00  0.00    -0.379 C  
HETATM   15  C   UNL     1     -11.808  13.693  69.140  1.00  0.00    -0.394 C  
ENDBRANCH   8  10
TORSDOF 1
ENDMDL
MODEL       39
REMARK 921   NORMALIZED FREE ENERGY PREDICTED BY IDOCK:   -4.70 KCAL/MOL
REMARK 922        TOTAL FREE ENERGY PREDICTED BY IDOCK:   -5.27 KCAL/MOL
REMARK 923 INTER-LIGAND FREE ENERGY PREDICTED BY IDOCK:   -4.88 KCAL/MOL
REMARK 924 INTRA-LIGAND FREE ENERGY PREDICTED BY IDOCK:   -0.39 KCAL/MOL
REMARK 927      BINDING AFFINITY PREDICTED BY RF-SCORE:    0.00 PKD
ROOT
HETATM    1  C   UNL     1     -12.011  13.960  68.256  1.00  0.00    -0.392 C  
HETATM    2  C   UNL     1     -11.759  13.278  66.946  1.00  0.00    -0.437 C  
HETATM    3  C   UNL     1     -12.388  13.656  65.821  1.00  0.00    -0.524 C  
HETATM    4  C   UNL     1     -12.089  12.966  64.547  1.00  0.00    -0.413 C  
HETATM    5  O   UNL     1     -12.666  13.280  63.508  1.00  0.00    -0.708 OA 
HETATM    6  N   UNL     1     -11.141  11.963  64.620  1.00  0.00    -0.312 N  
HETATM    7  O   UNL     1     -10.853  11.325  63.401  1.00  0.00    -0.369 OA 
HETATM    8  C   UNL     1     -10.508  11.523  65.760  1.00  0.00    -0.259 C  
HETATM    9  C   UNL     1     -10.812  12.170  66.912  1.00  0.00    -0.291 C  
ENDROOT
BRANCH   8  10
HETATM   10  C   UNL     1      -9.529  10.340  65.777  1.00  0.00    -0.255 C  
HETATM   11  C   UNL     1      -8.067  10.570  66.243  1.00  0.00    -0.142 C  
HETATM   12  C   UNL     1      -7.712  10.124  67.668  1.00  0.00    -0.091 C  
HETATM   13  C   UNL     1      -8.325   8.785  68.041  1.00  0.00    -0.119 C  
HETATM   14  C   UNL     1      -9.831   8.811  67.826  1.00  0.00    -0.217 C  
HETATM   15  C   UNL     1     -10.158   9.058  66.361  1.00  0.00    -0.351 C  
ENDBRANCH   8  10
TORSDOF 1
ENDMDL
MODEL       40
REMARK 921   NORMALIZED FREE ENERGY PREDICTED BY IDOCK:   -4.69 KCAL/MOL
REMARK 922        TOTAL FREE ENERGY PREDICTED BY IDOCK:   -5.26 KCAL/MOL
REMARK 923 INTER-LIGAND FREE ENERGY PREDICTED BY IDOCK:   -5.08 KCAL/MOL
REMARK 924 INTRA-LIGAND FREE ENERGY PREDICTED BY IDOCK:   -0.18 KCAL/MOL
REMARK 927      BINDING AFFINITY PREDICTED BY RF-SCORE:    0.00 PKD
ROOT
HETATM    1  C   UNL     1      -7.698   8.929  70.431  1.00  0.00    -0.098 C  
HETATM    2  C   UNL     1      -9.076   8.900  71.020  1.00  0.00    -0.303 C  
HETATM    3  C   UNL     1      -9.411   8.034  71.990  1.00  0.00    -0.257 C  
HETATM    4  C   UNL     1     -10.778   8.059  72.555  1.00  0.00    -0.341 C  
HETATM    5  O   UNL     1     -11.116   7.263  73.429  1.00  0.00    -0.323 OA 
HETATM    6  N   UNL     1     -11.622   9.019  72.032  1.00  0.00    -0.364 N  
HETATM    7  O   UNL     1     -12.913   9.046  72.587  1.00  0.00    -0.405 OA 
HETATM    8  C   UNL     1     -11.326   9.896  71.011  1.00  0.00    -0.386 C  
HETATM    9  C   UNL     1     -10.068   9.838  70.510  1.00  0.00    -0.289 C  
ENDROOT
BRANCH   8  10
HETATM   10  C   UNL     1     -12.347  10.877  70.420  1.00  0.00    -0.436 C  
HETATM   11  C   UNL     1     -12.892  12.030  71.303  1.00  0.00    -0.364 C  
HETATM   12  C   UNL     1     -12.297  13.426  71.070  1.00  0.00    -0.401 C  
HETATM   13  C   UNL     1     -12.103  13.751  69.598  1.00  0.00    -0.392 C  
HETATM   14  C   UNL     1     -11.271  12.672  68.921  1.00  0.00    -0.329 C  
HETATM   15  C   UNL     1     -11.980  11.327  68.991  1.00  0.00    -0.393 C  
ENDBRANCH   8  10
TORSDOF 1
ENDMDL
MODEL       41
REMARK 921   NORMALIZED FREE ENERGY PREDICTED BY IDOCK:   -4.68 KCAL/MOL
REMARK 922        TOTAL FREE ENERGY PREDICTED BY IDOCK:   -5.25 KCAL/MOL
REMARK 923 INTER-LIGAND FREE ENERGY PREDICTED BY IDOCK:   -4.87 KCAL/MOL
REMARK 924 INTRA-LIGAND FREE ENERGY PREDICTED BY IDOCK:   -0.38 KCAL/MOL
REMARK 927      BINDING AFFINITY PREDICTED BY RF-SCORE:    0.00 PKD
ROOT
HETATM    1  C   UNL     1     -13.571  13.311  72.414  1.00  0.00    -0.694 C  
HETATM    2  C   UNL     1     -12.845  12.502  71.382  1.00  0.00    -0.359 C  
HETATM    3  C   UNL     1     -12.741  11.166  71.476  1.00  0.00    -0.499 C  
HETATM    4  C   UNL     1     -12.033  10.410  70.421  1.00  0.00    -0.320 C  
HETATM    5  O   UNL     1     -11.907   9.189  70.494  1.00  0.00    -0.218 OA 
HETATM    6  N   UNL     1     -11.533  11.166  69.378  1.00  0.00    -0.269 N  
HETATM    7  O   UNL     1     -10.877  10.436  68.373  1.00  0.00    -0.212 OA 
HETATM    8  C   UNL     1     -11.586  12.538  69.269  1.00  0.00    -0.319 C  
HETATM    9  C   UNL     1     -12.233  13.201  70.258  1.00  0.00    -0.376 C  
ENDROOT
BRANCH   8  10
HETATM   10  C   UNL     1     -10.928  13.317  68.122  1.00  0.00    -0.278 C  
HETATM   11  C   UNL     1     -11.654  14.553  67.529  1.00  0.00    -0.403 C  
HETATM   12  C   UNL     1     -11.152  15.935  67.972  1.00  0.00    -0.334 C  
HETATM   13  C   UNL     1      -9.637  16.023  68.037  1.00  0.00    -0.215 C  
HETATM   14  C   UNL     1      -9.078  14.919  68.922  1.00  0.00    -0.191 C  
HETATM   15  C   UNL     1      -9.420  13.551  68.351  1.00  0.00    -0.185 C  
ENDBRANCH   8  10
TORSDOF 1
ENDMDL
MODEL       42
REMARK 921   NORMALIZED FREE ENERGY PREDICTED BY IDOCK:   -4.67 KCAL/MOL
REMARK 922        TOTAL FREE ENERGY PREDICTED BY IDOCK:   -5.24 KCAL/MOL
REMARK 923 INTER-LIGAND FREE ENERGY PREDICTED BY IDOCK:   -5.68 KCAL/MOL
REMARK 924 INTRA-LIGAND FREE ENERGY PREDICTED BY IDOCK:    0.44 KCAL/MOL
REMARK 927      BINDING AFFINITY PREDICTED BY RF-SCORE:    0.00 PKD
ROOT
HETATM    1  C   UNL     1     -12.148  13.639  69.123  1.00  0.00    -0.361 C  
HETATM    2  C   UNL     1     -11.514  14.566  68.131  1.00  0.00    -0.337 C  
HETATM    3  C   UNL     1     -11.271  14.188  66.865  1.00  0.00    -0.326 C  
HETATM    4  C   UNL     1     -10.664  15.148  65.918  1.00  0.00    -0.334 C  
HETATM    5  O   UNL     1     -10.413  14.819  64.760  1.00  0.00    -0.406 OA 
HETATM    6  N   UNL     1     -10.404  16.405  66.426  1.00  0.00    -0.308 N  
HETATM    7  O   UNL     1      -9.842  17.314  65.513  1.00  0.00    -0.541 OA 
HETATM    8  C   UNL     1     -10.602  16.815  67.726  1.00  0.00    -0.341 C  
HETATM    9  C   UNL     1     -11.151  15.908  68.571  1.00  0.00    -0.340 C  
ENDROOT
BRANCH   8  10
HETATM   10  C   UNL     1     -10.205  18.205  68.241  1.00  0.00    -0.402 C  
HETATM   11  C   UNL     1      -8.705  18.532  68.465  1.00  0.00    -0.352 C  
HETATM   12  C   UNL     1      -8.008  19.377  67.390  1.00  0.00    -0.299 C  
HETATM   13  C   UNL     1      -8.868  20.523  66.885  1.00  0.00    -0.304 C  
HETATM   14  C   UNL     1     -10.213  20.003  66.398  1.00  0.00    -0.598 C  
HETATM   15  C   UNL     1     -10.974  19.342  67.537  1.00  0.00    -0.426 C  
ENDBRANCH   8  10
TORSDOF 1
ENDMDL
MODEL       43
REMARK 921   NORMALIZED FREE ENERGY PREDICTED BY IDOCK:   -4.66 KCAL/MOL
REMARK 922        TOTAL FREE ENERGY PREDICTED BY IDOCK:   -5.23 KCAL/MOL
REMARK 923 INTER-LIGAND FREE ENERGY PREDICTED BY IDOCK:   -5.46 KCAL/MOL
REMARK 924 INTRA-LIGAND FREE ENERGY PREDICTED BY IDOCK:    0.24 KCAL/MOL
REMARK 927      BINDING AFFINITY PREDICTED BY RF-SCORE:    0.00 PKD
ROOT
HETATM    1  C   UNL     1     -11.341  13.195  64.268  1.00  0.00    -0.427 C  
HETATM    2  C   UNL     1     -11.262  14.030  65.510  1.00  0.00    -0.311 C  
HETATM    3  C   UNL     1     -11.763  13.603  66.681  1.00  0.00    -0.420 C  
HETATM    4  C   UNL     1     -11.640  14.454  67.884  1.00  0.00    -0.345 C  
HETATM    5  O   UNL     1     -12.109  14.095  68.963  1.00  0.00    -0.343 OA 
HETATM    6  N   UNL     1     -10.982  15.655  67.702  1.00  0.00    -0.317 N  
HETATM    7  O   UNL     1     -10.856  16.449  68.855  1.00  0.00    -0.293 OA 
HETATM    8  C   UNL     1     -10.491  16.141  66.510  1.00  0.00    -0.297 C  
HETATM    9  C   UNL     1     -10.629  15.340  65.425  1.00  0.00    -0.413 C  
ENDROOT
BRANCH   8  10
HETATM   10  C   UNL     1      -9.849  17.528  66.367  1.00  0.00    -0.316 C  
HETATM   11  C   UNL     1     -10.630  18.780  66.846  1.00  0.00    -0.472 C  
HETATM   12  C   UNL     1     -10.223  19.379  68.199  1.00  0.00    -0.537 C  
HETATM   13  C   UNL     1      -8.718  19.418  68.404  1.00  0.00    -0.397 C  
HETATM   14  C   UNL     1      -8.120  18.032  68.207  1.00  0.00    -0.296 C  
HETATM   15  C   UNL     1      -8.365  17.541  66.788  1.00  0.00    -0.277 C  
ENDBRANCH   8  10
TORSDOF 1
ENDMDL
MODEL       44
REMARK 921   NORMALIZED FREE ENERGY PREDICTED BY IDOCK:   -4.62 KCAL/MOL
REMARK 922        TOTAL FREE ENERGY PREDICTED BY IDOCK:   -5.18 KCAL/MOL
REMARK 923 INTER-LIGAND FREE ENERGY PREDICTED BY IDOCK:   -5.57 KCAL/MOL
REMARK 924 INTRA-LIGAND FREE ENERGY PREDICTED BY IDOCK:    0.39 KCAL/MOL
REMARK 927      BINDING AFFINITY PREDICTED BY RF-SCORE:    0.00 PKD
ROOT
HETATM    1  C   UNL     1      -9.129  13.967  66.951  1.00  0.00    -0.262 C  
HETATM    2  C   UNL     1     -10.102  13.575  68.022  1.00  0.00    -0.244 C  
HETATM    3  C   UNL     1     -10.350  12.287  68.312  1.00  0.00    -0.227 C  
HETATM    4  C   UNL     1     -11.302  11.950  69.392  1.00  0.00    -0.261 C  
HETATM    5  O   UNL     1     -11.562  10.779  69.664  1.00  0.00    -0.264 OA 
HETATM    6  N   UNL     1     -11.866  13.027  70.049  1.00  0.00    -0.314 N  
HETATM    7  O   UNL     1     -12.756  12.695  71.084  1.00  0.00    -0.358 OA 
HETATM    8  C   UNL     1     -11.666  14.357  69.752  1.00  0.00    -0.305 C  
HETATM    9  C   UNL     1     -10.795  14.630  68.750  1.00  0.00    -0.261 C  
ENDROOT
BRANCH   8  10
HETATM   10  C   UNL     1     -12.398  15.499  70.470  1.00  0.00    -0.461 C  
HETATM   11  C   UNL     1     -13.895  15.329  70.838  1.00  0.00    -0.311 C  
HETATM   12  C   UNL     1     -14.218  14.990  72.300  1.00  0.00    -0.594 C  
HETATM   13  C   UNL     1     -13.375  15.775  73.292  1.00  0.00    -0.649 C  
HETATM   14  C   UNL     1     -11.895  15.592  72.993  1.00  0.00    -0.555 C  
HETATM   15  C   UNL     1     -11.560  16.120  71.606  1.00  0.00    -0.503 C  
ENDBRANCH   8  10
TORSDOF 1
ENDMDL
MODEL       45
REMARK 921   NORMALIZED FREE ENERGY PREDICTED BY IDOCK:   -4.59 KCAL/MOL
REMARK 922        TOTAL FREE ENERGY PREDICTED BY IDOCK:   -5.15 KCAL/MOL
REMARK 923 INTER-LIGAND FREE ENERGY PREDICTED BY IDOCK:   -4.85 KCAL/MOL
REMARK 924 INTRA-LIGAND FREE ENERGY PREDICTED BY IDOCK:   -0.30 KCAL/MOL
REMARK 927      BINDING AFFINITY PREDICTED BY RF-SCORE:    0.00 PKD
ROOT
HETATM    1  C   UNL     1     -11.914  12.304  70.259  1.00  0.00    -0.373 C  
HETATM    2  C   UNL     1     -12.158  10.910  70.752  1.00  0.00    -0.469 C  
HETATM    3  C   UNL     1     -13.115  10.638  71.654  1.00  0.00    -0.555 C  
HETATM    4  C   UNL     1     -13.332   9.242  72.094  1.00  0.00    -0.468 C  
HETATM    5  O   UNL     1     -14.188   8.970  72.934  1.00  0.00    -0.528 OA 
HETATM    6  N   UNL     1     -12.514   8.297  71.505  1.00  0.00    -0.308 N  
HETATM    7  O   UNL     1     -12.740   6.973  71.918  1.00  0.00    -0.329 OA 
HETATM    8  C   UNL     1     -11.498   8.544  70.609  1.00  0.00    -0.228 C  
HETATM    9  C   UNL     1     -11.320   9.835  70.235  1.00  0.00    -0.333 C  
ENDROOT
BRANCH   8  10
HETATM   10  C   UNL     1     -10.571   7.449  70.064  1.00  0.00    -0.241 C  
HETATM   11  C   UNL     1     -10.990   6.659  68.797  1.00  0.00    -0.322 C  
HETATM   12  C   UNL     1     -10.324   7.061  67.474  1.00  0.00    -0.288 C  
HETATM   13  C   UNL     1      -8.838   7.343  67.619  1.00  0.00    -0.127 C  
HETATM   14  C   UNL     1      -8.598   8.385  68.701  1.00  0.00    -0.132 C  
HETATM   15  C   UNL     1      -9.090   7.880  70.049  1.00  0.00    -0.152 C  
ENDBRANCH   8  10
TORSDOF 1
ENDMDL
MODEL       46
REMARK 921   NORMALIZED FREE ENERGY PREDICTED BY IDOCK:   -4.59 KCAL/MOL
REMARK 922        TOTAL FREE ENERGY PREDICTED BY IDOCK:   -5.15 KCAL/MOL
REMARK 923 INTER-LIGAND FREE ENERGY PREDICTED BY IDOCK:   -5.48 KCAL/MOL
REMARK 924 INTRA-LIGAND FREE ENERGY PREDICTED BY IDOCK:    0.33 KCAL/MOL
REMARK 927      BINDING AFFINITY PREDICTED BY RF-SCORE:    0.00 PKD
ROOT
HETATM    1  C   UNL     1      -9.941   9.934  65.218  1.00  0.00    -0.320 C  
HETATM    2  C   UNL     1     -10.342  11.365  65.026  1.00  0.00    -0.342 C  
HETATM    3  C   UNL     1     -11.173  11.740  64.040  1.00  0.00    -0.461 C  
HETATM    4  C   UNL     1     -11.557  13.162  63.906  1.00  0.00    -0.433 C  
HETATM    5  O   UNL     1     -12.299  13.534  62.999  1.00  0.00    -0.661 OA 
HETATM    6  N   UNL     1     -11.023  14.016  64.851  1.00  0.00    -0.370 N  
HETATM    7  O   UNL     1     -11.407  15.362  64.725  1.00  0.00    -0.412 OA 
HETATM    8  C   UNL     1     -10.138  13.674  65.850  1.00  0.00    -0.310 C  
HETATM    9  C   UNL     1      -9.800  12.365  65.938  1.00  0.00    -0.265 C  
ENDROOT
BRANCH   8  10
HETATM   10  C   UNL     1      -9.516  14.697  66.811  1.00  0.00    -0.275 C  
HETATM   11  C   UNL     1      -9.004  16.051  66.251  1.00  0.00    -0.380 C  
HETATM   12  C   UNL     1      -9.903  17.276  66.463  1.00  0.00    -0.306 C  
HETATM   13  C   UNL     1     -10.526  17.324  67.848  1.00  0.00    -0.382 C  
HETATM   14  C   UNL     1     -11.272  16.031  68.139  1.00  0.00    -0.325 C  
HETATM   15  C   UNL     1     -10.318  14.846  68.120  1.00  0.00    -0.237 C  
ENDBRANCH   8  10
TORSDOF 1
ENDMDL
MODEL       47
REMARK 921   NORMALIZED FREE ENERGY PREDICTED BY IDOCK:   -4.58 KCAL/MOL
REMARK 922        TOTAL FREE ENERGY PREDICTED BY IDOCK:   -5.15 KCAL/MOL
REMARK 923 INTER-LIGAND FREE ENERGY PREDICTED BY IDOCK:   -4.77 KCAL/MOL
REMARK 924 INTRA-LIGAND FREE ENERGY PREDICTED BY IDOCK:   -0.38 KCAL/MOL
REMARK 927      BINDING AFFINITY PREDICTED BY RF-SCORE:    0.00 PKD
ROOT
HETATM    1  C   UNL     1      -5.991  14.659  68.075  1.00  0.00    -0.158 C  
HETATM    2  C   UNL     1      -7.081  15.404  67.365  1.00  0.00    -0.229 C  
HETATM    3  C   UNL     1      -6.867  16.608  66.810  1.00  0.00    -0.252 C  
HETATM    4  C   UNL     1      -7.968  17.294  66.101  1.00  0.00    -0.257 C  
HETATM    5  O   UNL     1      -7.804  18.406  65.602  1.00  0.00    -0.505 OA 
HETATM    6  N   UNL     1      -9.166  16.607  66.051  1.00  0.00    -0.266 N  
HETATM    7  O   UNL     1     -10.201  17.261  65.360  1.00  0.00    -0.604 OA 
HETATM    8  C   UNL     1      -9.432  15.392  66.641  1.00  0.00    -0.259 C  
HETATM    9  C   UNL     1      -8.403  14.795  67.292  1.00  0.00    -0.234 C  
ENDROOT
BRANCH   8  10
HETATM   10  C   UNL     1     -10.817  14.730  66.619  1.00  0.00    -0.319 C  
HETATM   11  C   UNL     1     -11.004  13.386  65.865  1.00  0.00    -0.284 C  
HETATM   12  C   UNL     1     -11.057  12.112  66.718  1.00  0.00    -0.349 C  
HETATM   13  C   UNL     1     -11.875  12.280  67.988  1.00  0.00    -0.368 C  
HETATM   14  C   UNL     1     -11.366  13.467  68.793  1.00  0.00    -0.332 C  
HETATM   15  C   UNL     1     -11.509  14.755  67.997  1.00  0.00    -0.351 C  
ENDBRANCH   8  10
TORSDOF 1
ENDMDL
MODEL       48
REMARK 921   NORMALIZED FREE ENERGY PREDICTED BY IDOCK:   -4.57 KCAL/MOL
REMARK 922        TOTAL FREE ENERGY PREDICTED BY IDOCK:   -5.13 KCAL/MOL
REMARK 923 INTER-LIGAND FREE ENERGY PREDICTED BY IDOCK:   -4.75 KCAL/MOL
REMARK 924 INTRA-LIGAND FREE ENERGY PREDICTED BY IDOCK:   -0.39 KCAL/MOL
REMARK 927      BINDING AFFINITY PREDICTED BY RF-SCORE:    0.00 PKD
ROOT
HETATM    1  C   UNL     1     -12.210  13.912  63.587  1.00  0.00    -0.232 C  
HETATM    2  C   UNL     1     -11.779  13.616  64.992  1.00  0.00    -0.354 C  
HETATM    3  C   UNL     1     -12.122  12.473  65.609  1.00  0.00    -0.464 C  
HETATM    4  C   UNL     1     -11.654  12.216  66.988  1.00  0.00    -0.337 C  
HETATM    5  O   UNL     1     -11.971  11.187  67.582  1.00  0.00    -0.613 OA 
HETATM    6  N   UNL     1     -10.859  13.201  67.542  1.00  0.00    -0.251 N  
HETATM    7  O   UNL     1     -10.406  12.939  68.846  1.00  0.00    -0.163 OA 
HETATM    8  C   UNL     1     -10.521  14.400  66.955  1.00  0.00    -0.269 C  
HETATM    9  C   UNL     1     -10.975  14.608  65.695  1.00  0.00    -0.336 C  
ENDROOT
BRANCH   8  10
HETATM   10  C   UNL     1      -9.706  15.487  67.669  1.00  0.00    -0.212 C  
HETATM   11  C   UNL     1      -8.322  15.896  67.099  1.00  0.00    -0.231 C  
HETATM   12  C   UNL     1      -8.259  17.203  66.295  1.00  0.00    -0.306 C  
HETATM   13  C   UNL     1      -9.078  18.322  66.916  1.00  0.00    -0.282 C  
HETATM   14  C   UNL     1     -10.515  17.871  67.131  1.00  0.00    -0.359 C  
HETATM   15  C   UNL     1     -10.568  16.693  68.093  1.00  0.00    -0.336 C  
ENDBRANCH   8  10
TORSDOF 1
ENDMDL
MODEL       49
REMARK 921   NORMALIZED FREE ENERGY PREDICTED BY IDOCK:   -4.56 KCAL/MOL
REMARK 922        TOTAL FREE ENERGY PREDICTED BY IDOCK:   -5.12 KCAL/MOL
REMARK 923 INTER-LIGAND FREE ENERGY PREDICTED BY IDOCK:   -4.80 KCAL/MOL
REMARK 924 INTRA-LIGAND FREE ENERGY PREDICTED BY IDOCK:   -0.32 KCAL/MOL
REMARK 927      BINDING AFFINITY PREDICTED BY RF-SCORE:    0.00 PKD
ROOT
HETATM    1  C   UNL     1     -13.112  11.463  72.024  1.00  0.00    -0.423 C  
HETATM    2  C   UNL     1     -12.225  10.818  71.003  1.00  0.00    -0.485 C  
HETATM    3  C   UNL     1     -11.816   9.544  71.126  1.00  0.00    -0.436 C  
HETATM    4  C   UNL     1     -10.958   8.945  70.081  1.00  0.00    -0.227 C  
HETATM    5  O   UNL     1     -10.554   7.789  70.180  1.00  0.00    -0.227 OA 
HETATM    6  N   UNL     1     -10.651   9.770  69.016  1.00  0.00    -0.213 N  
HETATM    7  O   UNL     1      -9.849   9.187  68.020  1.00  0.00    -0.157 OA 
HETATM    8  C   UNL     1     -11.018  11.091  68.876  1.00  0.00    -0.227 C  
HETATM    9  C   UNL     1     -11.796  11.611  69.857  1.00  0.00    -0.434 C  
ENDROOT
BRANCH   8  10
HETATM   10  C   UNL     1     -10.563  11.972  67.705  1.00  0.00    -0.234 C  
HETATM   11  C   UNL     1     -11.513  12.180  66.496  1.00  0.00    -0.430 C  
HETATM   12  C   UNL     1     -12.278  13.509  66.433  1.00  0.00    -0.454 C  
HETATM   13  C   UNL     1     -11.424  14.705  66.819  1.00  0.00    -0.371 C  
HETATM   14  C   UNL     1     -10.797  14.490  68.188  1.00  0.00    -0.246 C  
HETATM   15  C   UNL     1      -9.882  13.275  68.173  1.00  0.00    -0.231 C  
ENDBRANCH   8  10
TORSDOF 1
ENDMDL
MODEL       50
REMARK 921   NORMALIZED FREE ENERGY PREDICTED BY IDOCK:   -4.54 KCAL/MOL
REMARK 922        TOTAL FREE ENERGY PREDICTED BY IDOCK:   -5.11 KCAL/MOL
REMARK 923 INTER-LIGAND FREE ENERGY PREDICTED BY IDOCK:   -5.37 KCAL/MOL
REMARK 924 INTRA-LIGAND FREE ENERGY PREDICTED BY IDOCK:    0.26 KCAL/MOL
REMARK 927      BINDING AFFINITY PREDICTED BY RF-SCORE:    0.00 PKD
ROOT
HETATM    1  C   UNL     1      -9.188  10.047  63.938  1.00  0.00    -0.317 C  
HETATM    2  C   UNL     1     -10.049  11.192  64.377  1.00  0.00    -0.377 C  
HETATM    3  C   UNL     1     -11.089  11.616  63.640  1.00  0.00    -0.506 C  
HETATM    4  C   UNL     1     -11.923  12.737  64.127  1.00  0.00    -0.427 C  
HETATM    5  O   UNL     1     -12.867  13.157  63.462  1.00  0.00    -0.638 OA 
HETATM    6  N   UNL     1     -11.560  13.264  65.351  1.00  0.00    -0.312 N  
HETATM    7  O   UNL     1     -12.368  14.317  65.811  1.00  0.00    -0.426 OA 
HETATM    8  C   UNL     1     -10.478  12.881  66.113  1.00  0.00    -0.269 C  
HETATM    9  C   UNL     1      -9.729  11.858  65.633  1.00  0.00    -0.248 C  
ENDROOT
BRANCH   8  10
HETATM   10  C   UNL     1     -10.084  13.575  67.425  1.00  0.00    -0.237 C  
HETATM   11  C   UNL     1      -9.987  15.123  67.466  1.00  0.00    -0.225 C  
HETATM   12  C   UNL     1     -11.162  15.877  68.104  1.00  0.00    -0.339 C  
HETATM   13  C   UNL     1     -11.679  15.211  69.368  1.00  0.00    -0.355 C  
HETATM   14  C   UNL     1     -12.036  13.757  69.094  1.00  0.00    -0.403 C  
HETATM   15  C   UNL     1     -10.806  12.979  68.651  1.00  0.00    -0.287 C  
ENDBRANCH   8  10
TORSDOF 1
ENDMDL
MODEL       51
REMARK 921   NORMALIZED FREE ENERGY PREDICTED BY IDOCK:   -4.52 KCAL/MOL
REMARK 922        TOTAL FREE ENERGY PREDICTED BY IDOCK:   -5.08 KCAL/MOL
REMARK 923 INTER-LIGAND FREE ENERGY PREDICTED BY IDOCK:   -4.78 KCAL/MOL
REMARK 924 INTRA-LIGAND FREE ENERGY PREDICTED BY IDOCK:   -0.30 KCAL/MOL
REMARK 927      BINDING AFFINITY PREDICTED BY RF-SCORE:    0.00 PKD
ROOT
HETATM    1  C   UNL     1      -7.767   8.907  70.903  1.00  0.00    -0.139 C  
HETATM    2  C   UNL     1      -9.241   9.175  70.918  1.00  0.00    -0.326 C  
HETATM    3  C   UNL     1     -10.048   8.631  71.844  1.00  0.00    -0.398 C  
HETATM    4  C   UNL     1     -11.494   8.945  71.831  1.00  0.00    -0.372 C  
HETATM    5  O   UNL     1     -12.256   8.444  72.655  1.00  0.00    -0.380 OA 
HETATM    6  N   UNL     1     -11.907   9.816  70.842  1.00  0.00    -0.313 N  
HETATM    7  O   UNL     1     -13.279  10.119  70.848  1.00  0.00    -0.395 OA 
HETATM    8  C   UNL     1     -11.116  10.360  69.854  1.00  0.00    -0.305 C  
HETATM    9  C   UNL     1      -9.798  10.044  69.890  1.00  0.00    -0.266 C  
ENDROOT
BRANCH   8  10
HETATM   10  C   UNL     1     -11.665  11.252  68.732  1.00  0.00    -0.405 C  
HETATM   11  C   UNL     1     -11.720  12.789  68.942  1.00  0.00    -0.370 C  
HETATM   12  C   UNL     1     -10.622  13.623  68.268  1.00  0.00    -0.261 C  
HETATM   13  C   UNL     1     -10.303  13.157  66.858  1.00  0.00    -0.247 C  
HETATM   14  C   UNL     1      -9.956  11.676  66.854  1.00  0.00    -0.225 C  
HETATM   15  C   UNL     1     -11.136  10.848  67.340  1.00  0.00    -0.373 C  
ENDBRANCH   8  10
TORSDOF 1
ENDMDL
MODEL       52
REMARK 921   NORMALIZED FREE ENERGY PREDICTED BY IDOCK:   -4.50 KCAL/MOL
REMARK 922        TOTAL FREE ENERGY PREDICTED BY IDOCK:   -5.06 KCAL/MOL
REMARK 923 INTER-LIGAND FREE ENERGY PREDICTED BY IDOCK:   -4.67 KCAL/MOL
REMARK 924 INTRA-LIGAND FREE ENERGY PREDICTED BY IDOCK:   -0.39 KCAL/MOL
REMARK 927      BINDING AFFINITY PREDICTED BY RF-SCORE:    0.00 PKD
ROOT
HETATM    1  C   UNL     1      -6.373  16.350  69.431  1.00  0.00    -0.200 C  
HETATM    2  C   UNL     1      -7.580  17.069  68.908  1.00  0.00    -0.233 C  
HETATM    3  C   UNL     1      -7.539  18.372  68.582  1.00  0.00    -0.321 C  
HETATM    4  C   UNL     1      -8.750  19.032  68.050  1.00  0.00    -0.306 C  
HETATM    5  O   UNL     1      -8.744  20.227  67.763  1.00  0.00    -0.293 OA 
HETATM    6  N   UNL     1      -9.860  18.221  67.910  1.00  0.00    -0.303 N  
HETATM    7  O   UNL     1     -11.000  18.854  67.388  1.00  0.00    -0.437 OA 
HETATM    8  C   UNL     1      -9.949  16.895  68.271  1.00  0.00    -0.282 C  
HETATM    9  C   UNL     1      -8.824  16.323  68.765  1.00  0.00    -0.243 C  
ENDROOT
BRANCH   8  10
HETATM   10  C   UNL     1     -11.246  16.080  68.170  1.00  0.00    -0.325 C  
HETATM   11  C   UNL     1     -11.292  14.838  67.241  1.00  0.00    -0.366 C  
HETATM   12  C   UNL     1     -11.173  13.463  67.911  1.00  0.00    -0.303 C  
HETATM   13  C   UNL     1     -11.973  13.358  69.198  1.00  0.00    -0.363 C  
HETATM   14  C   UNL     1     -11.588  14.477  70.155  1.00  0.00    -0.334 C  
HETATM   15  C   UNL     1     -11.902  15.834  69.544  1.00  0.00    -0.359 C  
ENDBRANCH   8  10
TORSDOF 1
ENDMDL
MODEL       53
REMARK 921   NORMALIZED FREE ENERGY PREDICTED BY IDOCK:   -4.48 KCAL/MOL
REMARK 922        TOTAL FREE ENERGY PREDICTED BY IDOCK:   -5.03 KCAL/MOL
REMARK 923 INTER-LIGAND FREE ENERGY PREDICTED BY IDOCK:   -4.62 KCAL/MOL
REMARK 924 INTRA-LIGAND FREE ENERGY PREDICTED BY IDOCK:   -0.41 KCAL/MOL
REMARK 927      BINDING AFFINITY PREDICTED BY RF-SCORE:    0.00 PKD
ROOT
HETATM    1  C   UNL     1     -12.014   8.203  71.750  1.00  0.00    -0.348 C  
HETATM    2  C   UNL     1     -12.146   9.647  71.371  1.00  0.00    -0.472 C  
HETATM    3  C   UNL     1     -12.960  10.481  72.039  1.00  0.00    -0.490 C  
HETATM    4  C   UNL     1     -13.040  11.903  71.640  1.00  0.00    -0.328 C  
HETATM    5  O   UNL     1     -13.792  12.682  72.222  1.00  0.00    -0.446 OA 
HETATM    6  N   UNL     1     -12.228  12.274  70.585  1.00  0.00    -0.357 N  
HETATM    7  O   UNL     1     -12.299  13.630  70.225  1.00  0.00    -0.333 OA 
HETATM    8  C   UNL     1     -11.413  11.439  69.853  1.00  0.00    -0.273 C  
HETATM    9  C   UNL     1     -11.371  10.140  70.239  1.00  0.00    -0.387 C  
ENDROOT
BRANCH   8  10
HETATM   10  C   UNL     1     -10.606  11.907  68.634  1.00  0.00    -0.259 C  
HETATM   11  C   UNL     1      -9.109  11.517  68.519  1.00  0.00    -0.157 C  
HETATM   12  C   UNL     1      -8.761  10.362  67.570  1.00  0.00    -0.125 C  
HETATM   13  C   UNL     1      -9.535  10.414  66.263  1.00  0.00    -0.215 C  
HETATM   14  C   UNL     1     -11.031  10.479  66.535  1.00  0.00    -0.054 C  
HETATM   15  C   UNL     1     -11.380  11.740  67.310  1.00  0.00    -0.379 C  
ENDBRANCH   8  10
TORSDOF 1
ENDMDL
MODEL       54
REMARK 921   NORMALIZED FREE ENERGY PREDICTED BY IDOCK:   -4.46 KCAL/MOL
REMARK 922        TOTAL FREE ENERGY PREDICTED BY IDOCK:   -5.02 KCAL/MOL
REMARK 923 INTER-LIGAND FREE ENERGY PREDICTED BY IDOCK:   -4.92 KCAL/MOL
REMARK 924 INTRA-LIGAND FREE ENERGY PREDICTED BY IDOCK:   -0.10 KCAL/MOL
REMARK 927      BINDING AFFINITY PREDICTED BY RF-SCORE:    0.00 PKD
ROOT
HETATM    1  C   UNL     1      -9.692  17.701  68.574  1.00  0.00    -0.328 C  
HETATM    2  C   UNL     1     -10.335  16.863  67.511  1.00  0.00    -0.318 C  
HETATM    3  C   UNL     1     -10.506  17.319  66.259  1.00  0.00    -0.268 C  
HETATM    4  C   UNL     1     -11.126  16.445  65.239  1.00  0.00    -0.113 C  
HETATM    5  O   UNL     1     -11.313  16.847  64.092  1.00  0.00    -1.208 OA 
HETATM    6  N   UNL     1     -11.475  15.180  65.669  1.00  0.00    -0.255 N  
HETATM    7  O   UNL     1     -12.048  14.352  64.689  1.00  0.00    -0.430 OA 
HETATM    8  C   UNL     1     -11.351  14.693  66.952  1.00  0.00    -0.356 C  
HETATM    9  C   UNL     1     -10.788  15.523  67.864  1.00  0.00    -0.307 C  
ENDROOT
BRANCH   8  10
HETATM   10  C   UNL     1     -11.844  13.303  67.376  1.00  0.00    -0.413 C  
HETATM   11  C   UNL     1     -11.275  12.045  66.668  1.00  0.00    -0.380 C  
HETATM   12  C   UNL     1     -10.201  11.248  67.420  1.00  0.00    -0.217 C  
HETATM   13  C   UNL     1     -10.504  11.095  68.901  1.00  0.00    -0.233 C  
HETATM   14  C   UNL     1     -10.735  12.456  69.540  1.00  0.00     0.226 C  
HETATM   15  C   UNL     1     -11.934  13.147  68.908  1.00  0.00    -0.317 C  
ENDBRANCH   8  10
TORSDOF 1
ENDMDL
MODEL       55
REMARK 921   NORMALIZED FREE ENERGY PREDICTED BY IDOCK:   -4.46 KCAL/MOL
REMARK 922        TOTAL FREE ENERGY PREDICTED BY IDOCK:   -5.02 KCAL/MOL
REMARK 923 INTER-LIGAND FREE ENERGY PREDICTED BY IDOCK:   -4.62 KCAL/MOL
REMARK 924 INTRA-LIGAND FREE ENERGY PREDICTED BY IDOCK:   -0.39 KCAL/MOL
REMARK 927      BINDING AFFINITY PREDICTED BY RF-SCORE:    0.00 PKD
ROOT
HETATM    1  C   UNL     1     -10.177   9.239  67.963  1.00  0.00    -0.255 C  
HETATM    2  C   UNL     1     -10.150  10.065  66.712  1.00  0.00    -0.286 C  
HETATM    3  C   UNL     1      -9.769   9.547  65.533  1.00  0.00    -0.344 C  
HETATM    4  C   UNL     1      -9.780  10.396  64.322  1.00  0.00    -0.326 C  
HETATM    5  O   UNL     1      -9.417   9.951  63.235  1.00  0.00    -0.268 OA 
HETATM    6  N   UNL     1     -10.213  11.695  64.508  1.00  0.00    -0.274 N  
HETATM    7  O   UNL     1     -10.234  12.488  63.348  1.00  0.00    -0.385 OA 
HETATM    8  C   UNL     1     -10.571  12.270  65.707  1.00  0.00    -0.254 C  
HETATM    9  C   UNL     1     -10.540  11.466  66.798  1.00  0.00    -0.298 C  
ENDROOT
BRANCH   8  10
HETATM   10  C   UNL     1     -10.957  13.749  65.850  1.00  0.00    -0.283 C  
HETATM   11  C   UNL     1     -12.134  14.140  66.781  1.00  0.00    -0.474 C  
HETATM   12  C   UNL     1     -11.772  14.709  68.160  1.00  0.00    -0.360 C  
HETATM   13  C   UNL     1     -10.610  15.687  68.113  1.00  0.00    -0.274 C  
HETATM   14  C   UNL     1      -9.404  15.046  67.442  1.00  0.00    -0.204 C  
HETATM   15  C   UNL     1      -9.729  14.670  66.004  1.00  0.00    -0.340 C  
ENDBRANCH   8  10
TORSDOF 1
ENDMDL
MODEL       56
REMARK 921   NORMALIZED FREE ENERGY PREDICTED BY IDOCK:   -4.45 KCAL/MOL
REMARK 922        TOTAL FREE ENERGY PREDICTED BY IDOCK:   -5.01 KCAL/MOL
REMARK 923 INTER-LIGAND FREE ENERGY PREDICTED BY IDOCK:   -4.63 KCAL/MOL
REMARK 924 INTRA-LIGAND FREE ENERGY PREDICTED BY IDOCK:   -0.37 KCAL/MOL
REMARK 927      BINDING AFFINITY PREDICTED BY RF-SCORE:    0.00 PKD
ROOT
HETATM    1  C   UNL     1     -11.822  14.715  64.600  1.00  0.00    -0.459 C  
HETATM    2  C   UNL     1     -10.838  14.706  65.730  1.00  0.00    -0.326 C  
HETATM    3  C   UNL     1     -10.400  13.560  66.277  1.00  0.00    -0.293 C  
HETATM    4  C   UNL     1      -9.411  13.603  67.376  1.00  0.00    -0.225 C  
HETATM    5  O   UNL     1      -9.010  12.569  67.906  1.00  0.00    -0.172 OA 
HETATM    6  N   UNL     1      -8.992  14.865  67.752  1.00  0.00    -0.174 N  
HETATM    7  O   UNL     1      -8.040  14.894  68.786  1.00  0.00    -0.145 OA 
HETATM    8  C   UNL     1      -9.448  16.060  67.243  1.00  0.00    -0.215 C  
HETATM    9  C   UNL     1     -10.361  15.984  66.244  1.00  0.00    -0.330 C  
ENDROOT
BRANCH   8  10
HETATM   10  C   UNL     1      -9.000  17.429  67.774  1.00  0.00    -0.236 C  
HETATM   11  C   UNL     1      -8.158  18.359  66.862  1.00  0.00    -0.257 C  
HETATM   12  C   UNL     1      -8.896  19.522  66.183  1.00  0.00    -0.335 C  
HETATM   13  C   UNL     1      -9.887  20.214  67.104  1.00  0.00    -0.586 C  
HETATM   14  C   UNL     1     -10.862  19.203  67.690  1.00  0.00    -0.467 C  
HETATM   15  C   UNL     1     -10.123  18.170  68.527  1.00  0.00    -0.413 C  
ENDBRANCH   8  10
TORSDOF 1
ENDMDL
MODEL       57
REMARK 921   NORMALIZED FREE ENERGY PREDICTED BY IDOCK:   -4.45 KCAL/MOL
REMARK 922        TOTAL FREE ENERGY PREDICTED BY IDOCK:   -5.00 KCAL/MOL
REMARK 923 INTER-LIGAND FREE ENERGY PREDICTED BY IDOCK:   -4.63 KCAL/MOL
REMARK 924 INTRA-LIGAND FREE ENERGY PREDICTED BY IDOCK:   -0.38 KCAL/MOL
REMARK 927      BINDING AFFINITY PREDICTED BY RF-SCORE:    0.00 PKD
ROOT
HETATM    1  C   UNL     1     -12.519  12.448  63.555  1.00  0.00    -0.605 C  
HETATM    2  C   UNL     1     -11.322  11.924  64.290  1.00  0.00    -0.425 C  
HETATM    3  C   UNL     1     -10.411  11.143  63.688  1.00  0.00    -0.449 C  
HETATM    4  C   UNL     1      -9.235  10.669  64.450  1.00  0.00    -0.234 C  
HETATM    5  O   UNL     1      -8.397   9.936  63.928  1.00  0.00    -0.148 OA 
HETATM    6  N   UNL     1      -9.160  11.098  65.761  1.00  0.00    -0.205 N  
HETATM    7  O   UNL     1      -8.031  10.656  66.471  1.00  0.00    -0.126 OA 
HETATM    8  C   UNL     1     -10.095  11.865  66.421  1.00  0.00    -0.214 C  
HETATM    9  C   UNL     1     -11.164  12.274  65.696  1.00  0.00    -0.375 C  
ENDROOT
BRANCH   8  10
HETATM   10  C   UNL     1      -9.986  12.230  67.908  1.00  0.00    -0.202 C  
HETATM   11  C   UNL     1     -10.429  13.640  68.379  1.00  0.00    -0.251 C  
HETATM   12  C   UNL     1     -11.802  13.749  69.056  1.00  0.00    -0.397 C  
HETATM   13  C   UNL     1     -12.080  12.610  70.022  1.00  0.00    -0.339 C  
HETATM   14  C   UNL     1     -11.910  11.268  69.324  1.00  0.00    -0.423 C  
HETATM   15  C   UNL     1     -10.479  11.098  68.834  1.00  0.00    -0.233 C  
ENDBRANCH   8  10
TORSDOF 1
ENDMDL
MODEL       58
REMARK 921   NORMALIZED FREE ENERGY PREDICTED BY IDOCK:   -4.45 KCAL/MOL
REMARK 922        TOTAL FREE ENERGY PREDICTED BY IDOCK:   -5.00 KCAL/MOL
REMARK 923 INTER-LIGAND FREE ENERGY PREDICTED BY IDOCK:   -5.25 KCAL/MOL
REMARK 924 INTRA-LIGAND FREE ENERGY PREDICTED BY IDOCK:    0.25 KCAL/MOL
REMARK 927      BINDING AFFINITY PREDICTED BY RF-SCORE:    0.00 PKD
ROOT
HETATM    1  C   UNL     1      -6.665  14.645  68.692  1.00  0.00    -0.086 C  
HETATM    2  C   UNL     1      -7.754  14.852  67.684  1.00  0.00    -0.197 C  
HETATM    3  C   UNL     1      -7.977  16.052  67.122  1.00  0.00    -0.234 C  
HETATM    4  C   UNL     1      -9.050  16.201  66.115  1.00  0.00    -0.347 C  
HETATM    5  O   UNL     1      -9.288  17.293  65.602  1.00  0.00    -0.506 OA 
HETATM    6  N   UNL     1      -9.748  15.048  65.811  1.00  0.00    -0.346 N  
HETATM    7  O   UNL     1     -10.754  15.198  64.841  1.00  0.00    -0.409 OA 
HETATM    8  C   UNL     1      -9.574  13.813  66.394  1.00  0.00    -0.272 C  
HETATM    9  C   UNL     1      -8.589  13.714  67.321  1.00  0.00    -0.220 C  
ENDROOT
BRANCH   8  10
HETATM   10  C   UNL     1     -10.450  12.596  66.068  1.00  0.00    -0.288 C  
HETATM   11  C   UNL     1     -11.994  12.735  66.123  1.00  0.00    -0.476 C  
HETATM   12  C   UNL     1     -12.728  12.885  64.783  1.00  0.00    -0.442 C  
HETATM   13  C   UNL     1     -12.183  11.968  63.702  1.00  0.00    -0.642 C  
HETATM   14  C   UNL     1     -10.683  12.170  63.540  1.00  0.00    -0.509 C  
HETATM   15  C   UNL     1      -9.954  11.822  64.829  1.00  0.00    -0.275 C  
ENDBRANCH   8  10
TORSDOF 1
ENDMDL
MODEL       59
REMARK 921   NORMALIZED FREE ENERGY PREDICTED BY IDOCK:   -4.45 KCAL/MOL
REMARK 922        TOTAL FREE ENERGY PREDICTED BY IDOCK:   -5.00 KCAL/MOL
REMARK 923 INTER-LIGAND FREE ENERGY PREDICTED BY IDOCK:   -4.72 KCAL/MOL
REMARK 924 INTRA-LIGAND FREE ENERGY PREDICTED BY IDOCK:   -0.28 KCAL/MOL
REMARK 927      BINDING AFFINITY PREDICTED BY RF-SCORE:    0.00 PKD
ROOT
HETATM    1  C   UNL     1     -10.447   6.503  66.931  1.00  0.00    -0.347 C  
HETATM    2  C   UNL     1     -10.314   7.966  67.229  1.00  0.00    -0.377 C  
HETATM    3  C   UNL     1      -9.891   8.840  66.301  1.00  0.00    -0.342 C  
HETATM    4  C   UNL     1      -9.798  10.277  66.637  1.00  0.00    -0.204 C  
HETATM    5  O   UNL     1      -9.394  11.094  65.812  1.00  0.00    -0.202 OA 
HETATM    6  N   UNL     1     -10.184  10.617  67.920  1.00  0.00    -0.171 N  
HETATM    7  O   UNL     1     -10.107  11.987  68.223  1.00  0.00    -0.192 OA 
HETATM    8  C   UNL     1     -10.584   9.744  68.908  1.00  0.00    -0.218 C  
HETATM    9  C   UNL     1     -10.649   8.433  68.569  1.00  0.00    -0.149 C  
ENDROOT
BRANCH   8  10
HETATM   10  C   UNL     1     -10.913  10.187  70.340  1.00  0.00    -0.386 C  
HETATM   11  C   UNL     1     -12.316  10.770  70.651  1.00  0.00    -0.465 C  
HETATM   12  C   UNL     1     -13.322   9.835  71.336  1.00  0.00    -0.449 C  
HETATM   13  C   UNL     1     -12.696   8.990  72.434  1.00  0.00    -0.433 C  
HETATM   14  C   UNL     1     -11.501   8.220  71.893  1.00  0.00    -0.372 C  
HETATM   15  C   UNL     1     -10.426   9.178  71.400  1.00  0.00    -0.414 C  
ENDBRANCH   8  10
TORSDOF 1
ENDMDL
MODEL       60
REMARK 921   NORMALIZED FREE ENERGY PREDICTED BY IDOCK:   -4.44 KCAL/MOL
REMARK 922        TOTAL FREE ENERGY PREDICTED BY IDOCK:   -5.00 KCAL/MOL
REMARK 923 INTER-LIGAND FREE ENERGY PREDICTED BY IDOCK:   -4.68 KCAL/MOL
REMARK 924 INTRA-LIGAND FREE ENERGY PREDICTED BY IDOCK:   -0.32 KCAL/MOL
REMARK 927      BINDING AFFINITY PREDICTED BY RF-SCORE:    0.00 PKD
ROOT
HETATM    1  C   UNL     1     -12.594  12.055  63.351  1.00  0.00    -0.592 C  
HETATM    2  C   UNL     1     -12.095  12.310  64.742  1.00  0.00    -0.436 C  
HETATM    3  C   UNL     1     -12.395  13.439  65.404  1.00  0.00    -0.522 C  
HETATM    4  C   UNL     1     -11.896  13.634  66.783  1.00  0.00    -0.413 C  
HETATM    5  O   UNL     1     -12.140  14.668  67.402  1.00  0.00    -0.352 OA 
HETATM    6  N   UNL     1     -11.151  12.593  67.301  1.00  0.00    -0.266 N  
HETATM    7  O   UNL     1     -10.697  12.781  68.617  1.00  0.00    -0.245 OA 
HETATM    8  C   UNL     1     -10.791  11.440  66.638  1.00  0.00    -0.289 C  
HETATM    9  C   UNL     1     -11.256  11.298  65.373  1.00  0.00    -0.066 C  
ENDROOT
BRANCH   8  10
HETATM   10  C   UNL     1      -9.884  10.365  67.251  1.00  0.00    -0.214 C  
HETATM   11  C   UNL     1     -10.525   9.122  67.923  1.00  0.00    -0.293 C  
HETATM   12  C   UNL     1     -10.533   7.819  67.113  1.00  0.00    -0.413 C  
HETATM   13  C   UNL     1      -9.230   7.573  66.370  1.00  0.00    -0.212 C  
HETATM   14  C   UNL     1      -8.884   8.769  65.495  1.00  0.00    -0.229 C  
HETATM   15  C   UNL     1      -8.684  10.014  66.346  1.00  0.00    -0.140 C  
ENDBRANCH   8  10
TORSDOF 1
ENDMDL
MODEL       61
REMARK 921   NORMALIZED FREE ENERGY PREDICTED BY IDOCK:   -4.44 KCAL/MOL
REMARK 922        TOTAL FREE ENERGY PREDICTED BY IDOCK:   -5.00 KCAL/MOL
REMARK 923 INTER-LIGAND FREE ENERGY PREDICTED BY IDOCK:   -4.68 KCAL/MOL
REMARK 924 INTRA-LIGAND FREE ENERGY PREDICTED BY IDOCK:   -0.32 KCAL/MOL
REMARK 927      BINDING AFFINITY PREDICTED BY RF-SCORE:    0.00 PKD
ROOT
HETATM    1  C   UNL     1      -7.907  17.073  66.340  1.00  0.00    -0.343 C  
HETATM    2  C   UNL     1      -8.201  15.686  66.826  1.00  0.00    -0.300 C  
HETATM    3  C   UNL     1      -7.395  15.057  67.697  1.00  0.00    -0.209 C  
HETATM    4  C   UNL     1      -7.739  13.696  68.164  1.00  0.00    -0.138 C  
HETATM    5  O   UNL     1      -7.007  13.092  68.945  1.00  0.00    -0.101 OA 
HETATM    6  N   UNL     1      -8.914  13.172  67.660  1.00  0.00    -0.181 N  
HETATM    7  O   UNL     1      -9.240  11.886  68.122  1.00  0.00    -0.176 OA 
HETATM    8  C   UNL     1      -9.742  13.770  66.736  1.00  0.00    -0.275 C  
HETATM    9  C   UNL     1      -9.392  15.012  66.323  1.00  0.00    -0.341 C  
ENDROOT
BRANCH   8  10
HETATM   10  C   UNL     1     -10.987  13.086  66.154  1.00  0.00    -0.300 C  
HETATM   11  C   UNL     1     -12.206  13.952  65.740  1.00  0.00    -0.488 C  
HETATM   12  C   UNL     1     -12.381  14.235  64.242  1.00  0.00    -0.407 C  
HETATM   13  C   UNL     1     -12.104  13.021  63.371  1.00  0.00    -0.591 C  
HETATM   14  C   UNL     1     -10.723  12.457  63.672  1.00  0.00    -0.497 C  
HETATM   15  C   UNL     1     -10.636  11.997  65.119  1.00  0.00    -0.330 C  
ENDBRANCH   8  10
TORSDOF 1
ENDMDL
MODEL       62
REMARK 921   NORMALIZED FREE ENERGY PREDICTED BY IDOCK:   -4.43 KCAL/MOL
REMARK 922        TOTAL FREE ENERGY PREDICTED BY IDOCK:   -4.99 KCAL/MOL
REMARK 923 INTER-LIGAND FREE ENERGY PREDICTED BY IDOCK:   -4.68 KCAL/MOL
REMARK 924 INTRA-LIGAND FREE ENERGY PREDICTED BY IDOCK:   -0.31 KCAL/MOL
REMARK 927      BINDING AFFINITY PREDICTED BY RF-SCORE:    0.00 PKD
ROOT
HETATM    1  C   UNL     1     -12.238  13.713  70.411  1.00  0.00    -0.434 C  
HETATM    2  C   UNL     1     -11.815  12.635  69.459  1.00  0.00    -0.376 C  
HETATM    3  C   UNL     1     -11.729  12.855  68.136  1.00  0.00    -0.395 C  
HETATM    4  C   UNL     1     -11.285  11.766  67.240  1.00  0.00    -0.305 C  
HETATM    5  O   UNL     1     -11.218  11.936  66.024  1.00  0.00    -0.318 OA 
HETATM    6  N   UNL     1     -10.966  10.574  67.861  1.00  0.00    -0.276 N  
HETATM    7  O   UNL     1     -10.530   9.551  67.002  1.00  0.00    -0.249 OA 
HETATM    8  C   UNL     1     -11.080  10.301  69.207  1.00  0.00    -0.245 C  
HETATM    9  C   UNL     1     -11.500  11.319  69.998  1.00  0.00    -0.359 C  
ENDROOT
BRANCH   8  10
HETATM   10  C   UNL     1     -10.792   8.921  69.813  1.00  0.00    -0.207 C  
HETATM   11  C   UNL     1      -9.367   8.606  70.342  1.00  0.00    -0.191 C  
HETATM   12  C   UNL     1      -9.159   8.667  71.861  1.00  0.00    -0.326 C  
HETATM   13  C   UNL     1     -10.308   8.053  72.643  1.00  0.00    -0.398 C  
HETATM   14  C   UNL     1     -11.628   8.691  72.237  1.00  0.00    -0.424 C  
HETATM   15  C   UNL     1     -11.910   8.445  70.763  1.00  0.00    -0.178 C  
ENDBRANCH   8  10
TORSDOF 1
ENDMDL
MODEL       63
REMARK 921   NORMALIZED FREE ENERGY PREDICTED BY IDOCK:   -4.43 KCAL/MOL
REMARK 922        TOTAL FREE ENERGY PREDICTED BY IDOCK:   -4.99 KCAL/MOL
REMARK 923 INTER-LIGAND FREE ENERGY PREDICTED BY IDOCK:   -4.59 KCAL/MOL
REMARK 924 INTRA-LIGAND FREE ENERGY PREDICTED BY IDOCK:   -0.40 KCAL/MOL
REMARK 927      BINDING AFFINITY PREDICTED BY RF-SCORE:    0.00 PKD
ROOT
HETATM    1  C   UNL     1     -12.263  12.734  63.366  1.00  0.00    -0.594 C  
HETATM    2  C   UNL     1     -11.193  12.478  64.383  1.00  0.00    -0.388 C  
HETATM    3  C   UNL     1     -10.695  11.248  64.589  1.00  0.00    -0.371 C  
HETATM    4  C   UNL     1      -9.623  11.049  65.589  1.00  0.00    -0.226 C  
HETATM    5  O   UNL     1      -9.165   9.930  65.811  1.00  0.00    -0.156 OA 
HETATM    6  N   UNL     1      -9.196  12.190  66.240  1.00  0.00    -0.211 N  
HETATM    7  O   UNL     1      -8.166  11.993  67.176  1.00  0.00    -0.168 OA 
HETATM    8  C   UNL     1      -9.710  13.458  66.083  1.00  0.00    -0.250 C  
HETATM    9  C   UNL     1     -10.698  13.603  65.166  1.00  0.00    -0.359 C  
ENDROOT
BRANCH   8  10
HETATM   10  C   UNL     1      -9.243  14.665  66.909  1.00  0.00    -0.267 C  
HETATM   11  C   UNL     1      -9.023  16.029  66.204  1.00  0.00    -0.381 C  
HETATM   12  C   UNL     1     -10.125  17.085  66.372  1.00  0.00    -0.325 C  
HETATM   13  C   UNL     1     -10.673  17.150  67.788  1.00  0.00    -0.329 C  
HETATM   14  C   UNL     1     -11.148  15.776  68.237  1.00  0.00    -0.342 C  
HETATM   15  C   UNL     1      -9.990  14.789  68.253  1.00  0.00    -0.222 C  
ENDBRANCH   8  10
TORSDOF 1
ENDMDL
MODEL       64
REMARK 921   NORMALIZED FREE ENERGY PREDICTED BY IDOCK:   -4.43 KCAL/MOL
REMARK 922        TOTAL FREE ENERGY PREDICTED BY IDOCK:   -4.98 KCAL/MOL
REMARK 923 INTER-LIGAND FREE ENERGY PREDICTED BY IDOCK:   -4.69 KCAL/MOL
REMARK 924 INTRA-LIGAND FREE ENERGY PREDICTED BY IDOCK:   -0.30 KCAL/MOL
REMARK 927      BINDING AFFINITY PREDICTED BY RF-SCORE:    0.00 PKD
ROOT
HETATM    1  C   UNL     1     -12.384  13.224  70.591  1.00  0.00    -0.416 C  
HETATM    2  C   UNL     1     -12.330  11.744  70.818  1.00  0.00    -0.433 C  
HETATM    3  C   UNL     1     -13.151  11.133  71.688  1.00  0.00    -0.529 C  
HETATM    4  C   UNL     1     -13.074   9.666  71.862  1.00  0.00    -0.436 C  
HETATM    5  O   UNL     1     -13.800   9.086  72.667  1.00  0.00    -0.467 OA 
HETATM    6  N   UNL     1     -12.141   9.020  71.074  1.00  0.00    -0.280 N  
HETATM    7  O   UNL     1     -12.088   7.625  71.235  1.00  0.00    -0.302 OA 
HETATM    8  C   UNL     1     -11.257   9.617  70.202  1.00  0.00    -0.256 C  
HETATM    9  C   UNL     1     -11.349  10.964  70.075  1.00  0.00    -0.386 C  
ENDROOT
BRANCH   8  10
HETATM   10  C   UNL     1     -10.186   8.840  69.425  1.00  0.00    -0.210 C  
HETATM   11  C   UNL     1     -10.553   8.200  68.060  1.00  0.00    -0.188 C  
HETATM   12  C   UNL     1     -10.094   8.942  66.797  1.00  0.00    -0.350 C  
HETATM   13  C   UNL     1      -8.683   9.494  66.913  1.00  0.00    -0.136 C  
HETATM   14  C   UNL     1      -8.557  10.372  68.149  1.00  0.00    -0.125 C  
HETATM   15  C   UNL     1      -8.823   9.562  69.410  1.00  0.00    -0.172 C  
ENDBRANCH   8  10
TORSDOF 1
ENDMDL
MODEL       65
REMARK 921   NORMALIZED FREE ENERGY PREDICTED BY IDOCK:   -4.43 KCAL/MOL
REMARK 922        TOTAL FREE ENERGY PREDICTED BY IDOCK:   -4.98 KCAL/MOL
REMARK 923 INTER-LIGAND FREE ENERGY PREDICTED BY IDOCK:   -4.59 KCAL/MOL
REMARK 924 INTRA-LIGAND FREE ENERGY PREDICTED BY IDOCK:   -0.39 KCAL/MOL
REMARK 927      BINDING AFFINITY PREDICTED BY RF-SCORE:    0.00 PKD
ROOT
HETATM    1  C   UNL     1     -13.831   8.807  72.692  1.00  0.00    -0.352 C  
HETATM    2  C   UNL     1     -12.887   9.474  71.739  1.00  0.00    -0.496 C  
HETATM    3  C   UNL     1     -12.979  10.783  71.452  1.00  0.00    -0.535 C  
HETATM    4  C   UNL     1     -12.010  11.400  70.522  1.00  0.00    -0.356 C  
HETATM    5  O   UNL     1     -12.086  12.591  70.228  1.00  0.00    -0.349 OA 
HETATM    6  N   UNL     1     -11.042  10.551  70.019  1.00  0.00    -0.297 N  
HETATM    7  O   UNL     1     -10.116  11.151  69.149  1.00  0.00    -0.195 OA 
HETATM    8  C   UNL     1     -10.941   9.199  70.259  1.00  0.00    -0.245 C  
HETATM    9  C   UNL     1     -11.852   8.664  71.108  1.00  0.00    -0.331 C  
ENDROOT
BRANCH   8  10
HETATM   10  C   UNL     1      -9.889   8.302  69.592  1.00  0.00    -0.184 C  
HETATM   11  C   UNL     1      -9.205   7.185  70.424  1.00  0.00    -0.156 C  
HETATM   12  C   UNL     1      -9.710   5.751  70.211  1.00  0.00    -0.223 C  
HETATM   13  C   UNL     1      -9.972   5.424  68.751  1.00  0.00    -0.235 C  
HETATM   14  C   UNL     1     -10.924   6.443  68.141  1.00  0.00    -0.393 C  
HETATM   15  C   UNL     1     -10.313   7.836  68.184  1.00  0.00    -0.248 C  
ENDBRANCH   8  10
TORSDOF 1
ENDMDL
MODEL       66
REMARK 921   NORMALIZED FREE ENERGY PREDICTED BY IDOCK:   -4.39 KCAL/MOL
REMARK 922        TOTAL FREE ENERGY PREDICTED BY IDOCK:   -4.95 KCAL/MOL
REMARK 923 INTER-LIGAND FREE ENERGY PREDICTED BY IDOCK:   -4.54 KCAL/MOL
REMARK 924 INTRA-LIGAND FREE ENERGY PREDICTED BY IDOCK:   -0.41 KCAL/MOL
REMARK 927      BINDING AFFINITY PREDICTED BY RF-SCORE:    0.00 PKD
ROOT
HETATM    1  C   UNL     1      -9.431  10.468  68.549  1.00  0.00    -0.164 C  
HETATM    2  C   UNL     1     -10.305  11.432  67.807  1.00  0.00    -0.206 C  
HETATM    3  C   UNL     1     -10.554  11.294  66.494  1.00  0.00    -0.315 C  
HETATM    4  C   UNL     1     -11.442  12.259  65.811  1.00  0.00    -0.367 C  
HETATM    5  O   UNL     1     -11.670  12.166  64.606  1.00  0.00    -0.350 OA 
HETATM    6  N   UNL     1     -11.976  13.250  66.612  1.00  0.00    -0.393 N  
HETATM    7  O   UNL     1     -12.830  14.152  65.956  1.00  0.00    -0.425 OA 
HETATM    8  C   UNL     1     -11.711  13.446  67.949  1.00  0.00    -0.361 C  
HETATM    9  C   UNL     1     -10.885  12.549  68.542  1.00  0.00    -0.271 C  
ENDROOT
BRANCH   8  10
HETATM   10  C   UNL     1     -12.272  14.626  68.754  1.00  0.00    -0.154 C  
HETATM   11  C   UNL     1     -12.868  14.369  70.164  1.00  0.00    -0.152 C  
HETATM   12  C   UNL     1     -11.987  14.728  71.368  1.00  0.00    -0.403 C  
HETATM   13  C   UNL     1     -11.245  16.042  71.191  1.00  0.00    -0.313 C  
HETATM   14  C   UNL     1     -10.441  16.028  69.899  1.00  0.00    -0.287 C  
HETATM   15  C   UNL     1     -11.361  15.870  68.698  1.00  0.00    -0.376 C  
ENDBRANCH   8  10
TORSDOF 1
ENDMDL
MODEL       67
REMARK 921   NORMALIZED FREE ENERGY PREDICTED BY IDOCK:   -4.37 KCAL/MOL
REMARK 922        TOTAL FREE ENERGY PREDICTED BY IDOCK:   -4.92 KCAL/MOL
REMARK 923 INTER-LIGAND FREE ENERGY PREDICTED BY IDOCK:   -4.56 KCAL/MOL
REMARK 924 INTRA-LIGAND FREE ENERGY PREDICTED BY IDOCK:   -0.35 KCAL/MOL
REMARK 927      BINDING AFFINITY PREDICTED BY RF-SCORE:    0.00 PKD
ROOT
HETATM    1  C   UNL     1     -10.786  10.667  67.314  1.00  0.00    -0.345 C  
HETATM    2  C   UNL     1     -10.213  10.179  68.610  1.00  0.00    -0.193 C  
HETATM    3  C   UNL     1      -8.887  10.123  68.819  1.00  0.00    -0.146 C  
HETATM    4  C   UNL     1      -8.370   9.655  70.123  1.00  0.00    -0.198 C  
HETATM    5  O   UNL     1      -7.161   9.575  70.332  1.00  0.00    -0.089 OA 
HETATM    6  N   UNL     1      -9.328   9.319  71.060  1.00  0.00    -0.255 N  
HETATM    7  O   UNL     1      -8.826   8.892  72.301  1.00  0.00    -0.397 OA 
HETATM    8  C   UNL     1     -10.692   9.327  70.867  1.00  0.00    -0.301 C  
HETATM    9  C   UNL     1     -11.132   9.751  69.657  1.00  0.00    -0.251 C  
ENDROOT
BRANCH   8  10
HETATM   10  C   UNL     1     -11.695   8.853  71.929  1.00  0.00    -0.439 C  
HETATM   11  C   UNL     1     -13.071   9.561  72.044  1.00  0.00    -0.528 C  
HETATM   12  C   UNL     1     -14.278   8.841  71.428  1.00  0.00    -0.293 C  
HETATM   13  C   UNL     1     -14.277   7.345  71.696  1.00  0.00    -0.583 C  
HETATM   14  C   UNL     1     -12.966   6.725  71.236  1.00  0.00    -0.216 C  
HETATM   15  C   UNL     1     -11.795   7.316  72.007  1.00  0.00    -0.332 C  
ENDBRANCH   8  10
TORSDOF 1
ENDMDL
MODEL       68
REMARK 921   NORMALIZED FREE ENERGY PREDICTED BY IDOCK:   -4.36 KCAL/MOL
REMARK 922        TOTAL FREE ENERGY PREDICTED BY IDOCK:   -4.91 KCAL/MOL
REMARK 923 INTER-LIGAND FREE ENERGY PREDICTED BY IDOCK:   -4.61 KCAL/MOL
REMARK 924 INTRA-LIGAND FREE ENERGY PREDICTED BY IDOCK:   -0.31 KCAL/MOL
REMARK 927      BINDING AFFINITY PREDICTED BY RF-SCORE:    0.00 PKD
ROOT
HETATM    1  C   UNL     1     -12.786  11.860  63.451  1.00  0.00    -0.496 C  
HETATM    2  C   UNL     1     -11.810  12.631  64.287  1.00  0.00    -0.462 C  
HETATM    3  C   UNL     1     -11.678  13.963  64.170  1.00  0.00    -0.369 C  
HETATM    4  C   UNL     1     -10.716  14.683  65.033  1.00  0.00    -0.430 C  
HETATM    5  O   UNL     1     -10.562  15.898  64.931  1.00  0.00    -0.546 OA 
HETATM    6  N   UNL     1     -10.020  13.899  65.933  1.00  0.00    -0.307 N  
HETATM    7  O   UNL     1      -9.122  14.595  66.760  1.00  0.00    -0.241 OA 
HETATM    8  C   UNL     1     -10.101  12.529  66.053  1.00  0.00    -0.253 C  
HETATM    9  C   UNL     1     -10.984  11.901  65.240  1.00  0.00    -0.354 C  
ENDROOT
BRANCH   8  10
HETATM   10  C   UNL     1      -9.227  11.716  67.018  1.00  0.00    -0.185 C  
HETATM   11  C   UNL     1      -9.750  11.418  68.448  1.00  0.00    -0.203 C  
HETATM   12  C   UNL     1     -10.314  10.014  68.705  1.00  0.00    -0.211 C  
HETATM   13  C   UNL     1      -9.488   8.915  68.058  1.00  0.00    -0.158 C  
HETATM   14  C   UNL     1      -9.320   9.183  66.570  1.00  0.00    -0.244 C  
HETATM   15  C   UNL     1      -8.578  10.491  66.342  1.00  0.00    -0.147 C  
ENDBRANCH   8  10
TORSDOF 1
ENDMDL
MODEL       69
REMARK 921   NORMALIZED FREE ENERGY PREDICTED BY IDOCK:   -4.36 KCAL/MOL
REMARK 922        TOTAL FREE ENERGY PREDICTED BY IDOCK:   -4.91 KCAL/MOL
REMARK 923 INTER-LIGAND FREE ENERGY PREDICTED BY IDOCK:   -4.51 KCAL/MOL
REMARK 924 INTRA-LIGAND FREE ENERGY PREDICTED BY IDOCK:   -0.40 KCAL/MOL
REMARK 927      BINDING AFFINITY PREDICTED BY RF-SCORE:    0.00 PKD
ROOT
HETATM    1  C   UNL     1     -10.999   6.249  67.171  1.00  0.00    -0.453 C  
HETATM    2  C   UNL     1     -10.742   5.758  68.564  1.00  0.00    -0.288 C  
HETATM    3  C   UNL     1     -10.023   4.649  68.800  1.00  0.00    -0.153 C  
HETATM    4  C   UNL     1      -9.778   4.216  70.193  1.00  0.00    -0.208 C  
HETATM    5  O   UNL     1      -9.140   3.194  70.435  1.00  0.00    -0.095 OA 
HETATM    6  N   UNL     1     -10.316   5.029  71.173  1.00  0.00    -0.210 N  
HETATM    7  O   UNL     1     -10.064   4.618  72.493  1.00  0.00    -0.161 OA 
HETATM    8  C   UNL     1     -11.091   6.148  70.968  1.00  0.00    -0.297 C  
HETATM    9  C   UNL     1     -11.304   6.510  69.679  1.00  0.00    -0.443 C  
ENDROOT
BRANCH   8  10
HETATM   10  C   UNL     1     -11.730   6.951  72.109  1.00  0.00    -0.327 C  
HETATM   11  C   UNL     1     -11.403   8.461  72.252  1.00  0.00    -0.448 C  
HETATM   12  C   UNL     1     -12.461   9.453  71.748  1.00  0.00    -0.471 C  
HETATM   13  C   UNL     1     -13.879   9.044  72.111  1.00  0.00    -0.526 C  
HETATM   14  C   UNL     1     -14.165   7.632  71.623  1.00  0.00    -0.578 C  
HETATM   15  C   UNL     1     -13.229   6.635  72.291  1.00  0.00     0.151 C  
ENDBRANCH   8  10
TORSDOF 1
ENDMDL
MODEL       70
REMARK 921   NORMALIZED FREE ENERGY PREDICTED BY IDOCK:   -4.35 KCAL/MOL
REMARK 922        TOTAL FREE ENERGY PREDICTED BY IDOCK:   -4.90 KCAL/MOL
REMARK 923 INTER-LIGAND FREE ENERGY PREDICTED BY IDOCK:   -4.54 KCAL/MOL
REMARK 924 INTRA-LIGAND FREE ENERGY PREDICTED BY IDOCK:   -0.36 KCAL/MOL
REMARK 927      BINDING AFFINITY PREDICTED BY RF-SCORE:    0.00 PKD
ROOT
HETATM    1  C   UNL     1      -6.650  13.803  67.913  1.00  0.00    -0.164 C  
HETATM    2  C   UNL     1      -7.676  14.889  67.792  1.00  0.00    -0.174 C  
HETATM    3  C   UNL     1      -7.444  16.133  68.243  1.00  0.00    -0.145 C  
HETATM    4  C   UNL     1      -8.480  17.176  68.081  1.00  0.00    -0.227 C  
HETATM    5  O   UNL     1      -8.300  18.316  68.503  1.00  0.00    -0.306 OA 
HETATM    6  N   UNL     1      -9.636  16.774  67.441  1.00  0.00    -0.234 N  
HETATM    7  O   UNL     1     -10.607  17.777  67.277  1.00  0.00    -0.362 OA 
HETATM    8  C   UNL     1      -9.924  15.501  67.002  1.00  0.00    -0.239 C  
HETATM    9  C   UNL     1      -8.957  14.567  67.175  1.00  0.00    -0.244 C  
ENDROOT
BRANCH   8  10
HETATM   10  C   UNL     1     -11.270  15.109  66.378  1.00  0.00    -0.277 C  
HETATM   11  C   UNL     1     -11.346  14.819  64.856  1.00  0.00    -0.411 C  
HETATM   12  C   UNL     1     -11.386  13.345  64.429  1.00  0.00    -0.419 C  
HETATM   13  C   UNL     1     -12.285  12.496  65.312  1.00  0.00    -0.493 C  
HETATM   14  C   UNL     1     -11.885  12.640  66.773  1.00  0.00    -0.440 C  
HETATM   15  C   UNL     1     -12.044  14.082  67.231  1.00  0.00    -0.405 C  
ENDBRANCH   8  10
TORSDOF 1
ENDMDL
MODEL       71
REMARK 921   NORMALIZED FREE ENERGY PREDICTED BY IDOCK:   -4.32 KCAL/MOL
REMARK 922        TOTAL FREE ENERGY PREDICTED BY IDOCK:   -4.87 KCAL/MOL
REMARK 923 INTER-LIGAND FREE ENERGY PREDICTED BY IDOCK:   -4.50 KCAL/MOL
REMARK 924 INTRA-LIGAND FREE ENERGY PREDICTED BY IDOCK:   -0.37 KCAL/MOL
REMARK 927      BINDING AFFINITY PREDICTED BY RF-SCORE:    0.00 PKD
ROOT
HETATM    1  C   UNL     1      -9.482  10.568  68.071  1.00  0.00    -0.157 C  
HETATM    2  C   UNL     1     -10.469  10.549  69.200  1.00  0.00    -0.250 C  
HETATM    3  C   UNL     1     -11.168  11.643  69.545  1.00  0.00    -0.282 C  
HETATM    4  C   UNL     1     -12.146  11.569  70.651  1.00  0.00    -0.353 C  
HETATM    5  O   UNL     1     -12.783  12.561  71.000  1.00  0.00    -0.326 OA 
HETATM    6  N   UNL     1     -12.278  10.330  71.249  1.00  0.00    -0.376 N  
HETATM    7  O   UNL     1     -13.222  10.266  72.288  1.00  0.00    -0.409 OA 
HETATM    8  C   UNL     1     -11.551   9.200  70.949  1.00  0.00    -0.291 C  
HETATM    9  C   UNL     1     -10.656   9.306  69.936  1.00  0.00    -0.246 C  
ENDROOT
BRANCH   8  10
HETATM   10  C   UNL     1     -11.690   7.879  71.719  1.00  0.00    -0.329 C  
HETATM   11  C   UNL     1     -11.572   6.536  70.952  1.00  0.00    -0.417 C  
HETATM   12  C   UNL     1     -10.239   5.783  71.068  1.00  0.00    -0.275 C  
HETATM   13  C   UNL     1      -9.671   5.794  72.477  1.00  0.00    -0.175 C  
HETATM   14  C   UNL     1      -9.549   7.222  72.988  1.00  0.00    -0.219 C  
HETATM   15  C   UNL     1     -10.916   7.886  73.053  1.00  0.00    -0.398 C  
ENDBRANCH   8  10
TORSDOF 1
ENDMDL
MODEL       72
REMARK 921   NORMALIZED FREE ENERGY PREDICTED BY IDOCK:   -4.32 KCAL/MOL
REMARK 922        TOTAL FREE ENERGY PREDICTED BY IDOCK:   -4.86 KCAL/MOL
REMARK 923 INTER-LIGAND FREE ENERGY PREDICTED BY IDOCK:   -4.59 KCAL/MOL
REMARK 924 INTRA-LIGAND FREE ENERGY PREDICTED BY IDOCK:   -0.27 KCAL/MOL
REMARK 927      BINDING AFFINITY PREDICTED BY RF-SCORE:    0.00 PKD
ROOT
HETATM    1  C   UNL     1     -10.720  12.145  68.269  1.00  0.00    -0.248 C  
HETATM    2  C   UNL     1     -11.321  11.456  69.456  1.00  0.00    -0.357 C  
HETATM    3  C   UNL     1     -12.210  12.069  70.254  1.00  0.00    -0.348 C  
HETATM    4  C   UNL     1     -12.791  11.338  71.401  1.00  0.00    -0.410 C  
HETATM    5  O   UNL     1     -13.592  11.884  72.158  1.00  0.00    -0.377 OA 
HETATM    6  N   UNL     1     -12.369  10.032  71.553  1.00  0.00    -0.395 N  
HETATM    7  O   UNL     1     -12.939   9.342  72.636  1.00  0.00    -0.333 OA 
HETATM    8  C   UNL     1     -11.430   9.385  70.780  1.00  0.00    -0.300 C  
HETATM    9  C   UNL     1     -10.911  10.087  69.743  1.00  0.00    -0.308 C  
ENDROOT
BRANCH   8  10
HETATM   10  C   UNL     1     -10.944   7.957  71.065  1.00  0.00    -0.262 C  
HETATM   11  C   UNL     1     -11.813   6.754  70.611  1.00  0.00    -0.442 C  
HETATM   12  C   UNL     1     -11.374   6.020  69.336  1.00  0.00    -0.282 C  
HETATM   13  C   UNL     1      -9.870   5.821  69.253  1.00  0.00    -0.220 C  
HETATM   14  C   UNL     1      -9.149   7.153  69.404  1.00  0.00    -0.145 C  
HETATM   15  C   UNL     1      -9.443   7.770  70.763  1.00  0.00    -0.163 C  
ENDBRANCH   8  10
TORSDOF 1
ENDMDL
MODEL       73
REMARK 921   NORMALIZED FREE ENERGY PREDICTED BY IDOCK:   -4.30 KCAL/MOL
REMARK 922        TOTAL FREE ENERGY PREDICTED BY IDOCK:   -4.85 KCAL/MOL
REMARK 923 INTER-LIGAND FREE ENERGY PREDICTED BY IDOCK:   -4.44 KCAL/MOL
REMARK 924 INTRA-LIGAND FREE ENERGY PREDICTED BY IDOCK:   -0.40 KCAL/MOL
REMARK 927      BINDING AFFINITY PREDICTED BY RF-SCORE:    0.00 PKD
ROOT
HETATM    1  C   UNL     1      -7.011  13.625  67.553  1.00  0.00    -0.157 C  
HETATM    2  C   UNL     1      -7.945  14.791  67.432  1.00  0.00    -0.220 C  
HETATM    3  C   UNL     1      -7.620  15.886  66.726  1.00  0.00    -0.215 C  
HETATM    4  C   UNL     1      -8.585  17.002  66.618  1.00  0.00    -0.252 C  
HETATM    5  O   UNL     1      -8.303  18.023  65.995  1.00  0.00    -0.494 OA 
HETATM    6  N   UNL     1      -9.793  16.810  67.261  1.00  0.00    -0.255 N  
HETATM    7  O   UNL     1     -10.708  17.869  67.138  1.00  0.00    -0.331 OA 
HETATM    8  C   UNL     1     -10.144  15.720  68.025  1.00  0.00    -0.228 C  
HETATM    9  C   UNL     1      -9.233  14.720  68.112  1.00  0.00    -0.195 C  
ENDROOT
BRANCH   8  10
HETATM   10  C   UNL     1     -11.474  15.618  68.785  1.00  0.00    -0.382 C  
HETATM   11  C   UNL     1     -12.260  14.280  68.764  1.00  0.00    -0.226 C  
HETATM   12  C   UNL     1     -12.155  13.391  70.011  1.00  0.00    -0.404 C  
HETATM   13  C   UNL     1     -12.219  14.179  71.309  1.00  0.00    -0.419 C  
HETATM   14  C   UNL     1     -11.164  15.275  71.318  1.00  0.00    -0.375 C  
HETATM   15  C   UNL     1     -11.408  16.261  70.186  1.00  0.00    -0.292 C  
ENDBRANCH   8  10
TORSDOF 1
ENDMDL
MODEL       74
REMARK 921   NORMALIZED FREE ENERGY PREDICTED BY IDOCK:   -4.28 KCAL/MOL
REMARK 922        TOTAL FREE ENERGY PREDICTED BY IDOCK:   -4.83 KCAL/MOL
REMARK 923 INTER-LIGAND FREE ENERGY PREDICTED BY IDOCK:   -4.52 KCAL/MOL
REMARK 924 INTRA-LIGAND FREE ENERGY PREDICTED BY IDOCK:   -0.30 KCAL/MOL
REMARK 927      BINDING AFFINITY PREDICTED BY RF-SCORE:    0.00 PKD
ROOT
HETATM    1  C   UNL     1     -14.096   8.061  71.653  1.00  0.00    -0.516 C  
HETATM    2  C   UNL     1     -12.625   8.329  71.745  1.00  0.00    -0.364 C  
HETATM    3  C   UNL     1     -11.874   7.816  72.734  1.00  0.00    -0.247 C  
HETATM    4  C   UNL     1     -10.422   8.091  72.770  1.00  0.00    -0.345 C  
HETATM    5  O   UNL     1      -9.717   7.651  73.676  1.00  0.00    -0.287 OA 
HETATM    6  N   UNL     1      -9.935   8.867  71.735  1.00  0.00    -0.325 N  
HETATM    7  O   UNL     1      -8.552   9.108  71.769  1.00  0.00    -0.340 OA 
HETATM    8  C   UNL     1     -10.680   9.440  70.728  1.00  0.00    -0.305 C  
HETATM    9  C   UNL     1     -12.010   9.176  70.731  1.00  0.00    -0.243 C  
ENDROOT
BRANCH   8  10
HETATM   10  C   UNL     1     -10.081  10.366  69.660  1.00  0.00    -0.226 C  
HETATM   11  C   UNL     1      -9.522   9.752  68.350  1.00  0.00    -0.146 C  
HETATM   12  C   UNL     1     -10.408   9.854  67.100  1.00  0.00    -0.304 C  
HETATM   13  C   UNL     1     -11.087  11.206  66.962  1.00  0.00    -0.339 C  
HETATM   14  C   UNL     1     -11.868  11.539  68.225  1.00  0.00    -0.327 C  
HETATM   15  C   UNL     1     -10.934  11.629  69.423  1.00  0.00    -0.211 C  
ENDBRANCH   8  10
TORSDOF 1
ENDMDL
MODEL       75
REMARK 921   NORMALIZED FREE ENERGY PREDICTED BY IDOCK:   -4.24 KCAL/MOL
REMARK 922        TOTAL FREE ENERGY PREDICTED BY IDOCK:   -4.79 KCAL/MOL
REMARK 923 INTER-LIGAND FREE ENERGY PREDICTED BY IDOCK:   -4.42 KCAL/MOL
REMARK 924 INTRA-LIGAND FREE ENERGY PREDICTED BY IDOCK:   -0.37 KCAL/MOL
REMARK 927      BINDING AFFINITY PREDICTED BY RF-SCORE:    0.00 PKD
ROOT
HETATM    1  C   UNL     1      -9.846  20.189  68.057  1.00  0.00    -0.498 C  
HETATM    2  C   UNL     1      -8.943  19.020  68.312  1.00  0.00    -0.372 C  
HETATM    3  C   UNL     1      -7.675  19.184  68.722  1.00  0.00    -0.390 C  
HETATM    4  C   UNL     1      -6.829  17.998  68.981  1.00  0.00    -0.248 C  
HETATM    5  O   UNL     1      -5.659  18.122  69.337  1.00  0.00    -0.198 OA 
HETATM    6  N   UNL     1      -7.442  16.775  68.789  1.00  0.00    -0.219 N  
HETATM    7  O   UNL     1      -6.635  15.655  69.054  1.00  0.00    -0.117 OA 
HETATM    8  C   UNL     1      -8.725  16.570  68.332  1.00  0.00    -0.218 C  
HETATM    9  C   UNL     1      -9.469  17.678  68.095  1.00  0.00    -0.286 C  
ENDROOT
BRANCH   8  10
HETATM   10  C   UNL     1      -9.309  15.177  68.058  1.00  0.00    -0.187 C  
HETATM   11  C   UNL     1     -10.461  14.647  68.951  1.00  0.00    -0.248 C  
HETATM   12  C   UNL     1     -11.880  14.711  68.367  1.00  0.00    -0.330 C  
HETATM   13  C   UNL     1     -11.938  14.312  66.902  1.00  0.00    -0.467 C  
HETATM   14  C   UNL     1     -10.963  15.148  66.085  1.00  0.00    -0.331 C  
HETATM   15  C   UNL     1      -9.535  14.914  66.555  1.00  0.00    -0.307 C  
ENDBRANCH   8  10
TORSDOF 1
ENDMDL
MODEL       76
REMARK 921   NORMALIZED FREE ENERGY PREDICTED BY IDOCK:   -4.24 KCAL/MOL
REMARK 922        TOTAL FREE ENERGY PREDICTED BY IDOCK:   -4.79 KCAL/MOL
REMARK 923 INTER-LIGAND FREE ENERGY PREDICTED BY IDOCK:   -4.39 KCAL/MOL
REMARK 924 INTRA-LIGAND FREE ENERGY PREDICTED BY IDOCK:   -0.39 KCAL/MOL
REMARK 927      BINDING AFFINITY PREDICTED BY RF-SCORE:    0.00 PKD
ROOT
HETATM    1  C   UNL     1     -11.934  12.481  69.902  1.00  0.00    -0.371 C  
HETATM    2  C   UNL     1     -12.055  11.147  70.574  1.00  0.00    -0.474 C  
HETATM    3  C   UNL     1     -13.118  10.833  71.334  1.00  0.00    -0.469 C  
HETATM    4  C   UNL     1     -13.202   9.495  71.958  1.00  0.00    -0.452 C  
HETATM    5  O   UNL     1     -14.154   9.190  72.674  1.00  0.00    -0.512 OA 
HETATM    6  N   UNL     1     -12.151   8.641  71.684  1.00  0.00    -0.307 N  
HETATM    7  O   UNL     1     -12.250   7.367  72.268  1.00  0.00    -0.259 OA 
HETATM    8  C   UNL     1     -11.029   8.942  70.944  1.00  0.00    -0.266 C  
HETATM    9  C   UNL     1     -10.979  10.180  70.395  1.00  0.00    -0.386 C  
ENDROOT
BRANCH   8  10
HETATM   10  C   UNL     1      -9.858   7.968  70.757  1.00  0.00    -0.197 C  
HETATM   11  C   UNL     1      -9.483   7.496  69.327  1.00  0.00    -0.154 C  
HETATM   12  C   UNL     1      -8.267   8.163  68.670  1.00  0.00    -0.125 C  
HETATM   13  C   UNL     1      -7.106   8.358  69.630  1.00  0.00    -0.052 C  
HETATM   14  C   UNL     1      -7.560   9.123  70.864  1.00  0.00    -0.146 C  
HETATM   15  C   UNL     1      -8.631   8.344  71.613  1.00  0.00    -0.223 C  
ENDBRANCH   8  10
TORSDOF 1
ENDMDL
MODEL       77
REMARK 921   NORMALIZED FREE ENERGY PREDICTED BY IDOCK:   -4.19 KCAL/MOL
REMARK 922        TOTAL FREE ENERGY PREDICTED BY IDOCK:   -4.73 KCAL/MOL
REMARK 923 INTER-LIGAND FREE ENERGY PREDICTED BY IDOCK:   -4.49 KCAL/MOL
REMARK 924 INTRA-LIGAND FREE ENERGY PREDICTED BY IDOCK:   -0.25 KCAL/MOL
REMARK 927      BINDING AFFINITY PREDICTED BY RF-SCORE:    0.00 PKD
ROOT
HETATM    1  C   UNL     1     -12.368  13.124  70.512  1.00  0.00    -0.380 C  
HETATM    2  C   UNL     1     -11.727  12.514  69.302  1.00  0.00    -0.379 C  
HETATM    3  C   UNL     1     -11.769  11.191  69.073  1.00  0.00    -0.408 C  
HETATM    4  C   UNL     1     -11.141  10.639  67.853  1.00  0.00    -0.308 C  
HETATM    5  O   UNL     1     -11.147   9.430  67.631  1.00  0.00    -0.149 OA 
HETATM    6  N   UNL     1     -10.557  11.565  67.010  1.00  0.00    -0.231 N  
HETATM    7  O   UNL     1      -9.978  11.031  65.846  1.00  0.00    -0.221 OA 
HETATM    8  C   UNL     1     -10.461  12.921  67.232  1.00  0.00    -0.234 C  
HETATM    9  C   UNL     1     -11.038  13.392  68.365  1.00  0.00    -0.301 C  
ENDROOT
BRANCH   8  10
HETATM   10  C   UNL     1      -9.717  13.878  66.291  1.00  0.00    -0.304 C  
HETATM   11  C   UNL     1     -10.371  14.278  64.942  1.00  0.00    -0.429 C  
HETATM   12  C   UNL     1     -11.032  15.662  64.873  1.00  0.00    -0.447 C  
HETATM   13  C   UNL     1     -10.218  16.744  65.563  1.00  0.00    -0.188 C  
HETATM   14  C   UNL     1      -9.914  16.345  66.999  1.00  0.00    -0.261 C  
HETATM   15  C   UNL     1      -9.084  15.071  67.036  1.00  0.00    -0.249 C  
ENDBRANCH   8  10
TORSDOF 1
ENDMDL
MODEL       78
REMARK 921   NORMALIZED FREE ENERGY PREDICTED BY IDOCK:   -4.16 KCAL/MOL
REMARK 922        TOTAL FREE ENERGY PREDICTED BY IDOCK:   -4.70 KCAL/MOL
REMARK 923 INTER-LIGAND FREE ENERGY PREDICTED BY IDOCK:   -4.29 KCAL/MOL
REMARK 924 INTRA-LIGAND FREE ENERGY PREDICTED BY IDOCK:   -0.41 KCAL/MOL
REMARK 927      BINDING AFFINITY PREDICTED BY RF-SCORE:    0.00 PKD
ROOT
HETATM    1  C   UNL     1      -8.973  10.154  63.649  1.00  0.00    -0.269 C  
HETATM    2  C   UNL     1      -9.960  11.125  64.222  1.00  0.00    -0.359 C  
HETATM    3  C   UNL     1     -11.120  11.400  63.604  1.00  0.00    -0.411 C  
HETATM    4  C   UNL     1     -12.072  12.350  64.220  1.00  0.00    -0.433 C  
HETATM    5  O   UNL     1     -13.131  12.633  63.665  1.00  0.00    -0.598 OA 
HETATM    6  N   UNL     1     -11.682  12.883  65.434  1.00  0.00    -0.354 N  
HETATM    7  O   UNL     1     -12.600  13.771  66.018  1.00  0.00    -0.454 OA 
HETATM    8  C   UNL     1     -10.484  12.655  66.076  1.00  0.00    -0.268 C  
HETATM    9  C   UNL     1      -9.632  11.787  65.478  1.00  0.00    -0.222 C  
ENDROOT
BRANCH   8  10
HETATM   10  C   UNL     1     -10.083  13.355  67.381  1.00  0.00    -0.237 C  
HETATM   11  C   UNL     1      -9.457  12.520  68.529  1.00  0.00    -0.100 C  
HETATM   12  C   UNL     1      -7.934  12.606  68.703  1.00  0.00    -0.030 C  
HETATM   13  C   UNL     1      -7.397  14.018  68.540  1.00  0.00    -0.114 C  
HETATM   14  C   UNL     1      -7.838  14.604  67.207  1.00  0.00    -0.213 C  
HETATM   15  C   UNL     1      -9.356  14.693  67.138  1.00  0.00    -0.231 C  
ENDBRANCH   8  10
TORSDOF 1
ENDMDL
MODEL       79
REMARK 921   NORMALIZED FREE ENERGY PREDICTED BY IDOCK:   -4.15 KCAL/MOL
REMARK 922        TOTAL FREE ENERGY PREDICTED BY IDOCK:   -4.68 KCAL/MOL
REMARK 923 INTER-LIGAND FREE ENERGY PREDICTED BY IDOCK:   -4.47 KCAL/MOL
REMARK 924 INTRA-LIGAND FREE ENERGY PREDICTED BY IDOCK:   -0.21 KCAL/MOL
REMARK 927      BINDING AFFINITY PREDICTED BY RF-SCORE:    0.00 PKD
ROOT
HETATM    1  C   UNL     1     -10.709   9.468  69.394  1.00  0.00    -0.244 C  
HETATM    2  C   UNL     1     -10.218   9.430  67.979  1.00  0.00    -0.248 C  
HETATM    3  C   UNL     1      -9.586   8.354  67.480  1.00  0.00    -0.194 C  
HETATM    4  C   UNL     1      -9.139   8.356  66.070  1.00  0.00    -0.183 C  
HETATM    5  O   UNL     1      -8.541   7.393  65.595  1.00  0.00    -0.148 OA 
HETATM    6  N   UNL     1      -9.435   9.498  65.351  1.00  0.00    -0.266 N  
HETATM    7  O   UNL     1      -9.021   9.482  64.008  1.00  0.00    -0.229 OA 
HETATM    8  C   UNL     1     -10.045  10.633  65.840  1.00  0.00    -0.261 C  
HETATM    9  C   UNL     1     -10.432  10.601  67.138  1.00  0.00    -0.295 C  
ENDROOT
BRANCH   8  10
HETATM   10  C   UNL     1     -10.260  11.900  65.002  1.00  0.00    -0.316 C  
HETATM   11  C   UNL     1     -11.301  11.882  63.851  1.00  0.00    -0.509 C  
HETATM   12  C   UNL     1     -12.658  12.544  64.130  1.00  0.00    -0.474 C  
HETATM   13  C   UNL     1     -12.535  13.852  64.893  1.00  0.00    -0.420 C  
HETATM   14  C   UNL     1     -11.744  13.645  66.177  1.00  0.00    -0.391 C  
HETATM   15  C   UNL     1     -10.330  13.177  65.864  1.00  0.00    -0.295 C  
ENDBRANCH   8  10
TORSDOF 1
ENDMDL
MODEL       80
REMARK 921   NORMALIZED FREE ENERGY PREDICTED BY IDOCK:   -4.12 KCAL/MOL
REMARK 922        TOTAL FREE ENERGY PREDICTED BY IDOCK:   -4.65 KCAL/MOL
REMARK 923 INTER-LIGAND FREE ENERGY PREDICTED BY IDOCK:   -4.29 KCAL/MOL
REMARK 924 INTRA-LIGAND FREE ENERGY PREDICTED BY IDOCK:   -0.36 KCAL/MOL
REMARK 927      BINDING AFFINITY PREDICTED BY RF-SCORE:    0.00 PKD
ROOT
HETATM    1  C   UNL     1      -6.837  12.513  67.618  1.00  0.00    -0.136 C  
HETATM    2  C   UNL     1      -8.246  12.059  67.853  1.00  0.00    -0.153 C  
HETATM    3  C   UNL     1      -8.523  10.974  68.596  1.00  0.00    -0.157 C  
HETATM    4  C   UNL     1      -9.930  10.579  68.818  1.00  0.00    -0.192 C  
HETATM    5  O   UNL     1     -10.210   9.579  69.477  1.00  0.00    -0.191 OA 
HETATM    6  N   UNL     1     -10.879  11.397  68.236  1.00  0.00    -0.196 N  
HETATM    7  O   UNL     1     -12.214  11.021  68.467  1.00  0.00    -0.582 OA 
HETATM    8  C   UNL     1     -10.631  12.491  67.437  1.00  0.00    -0.223 C  
HETATM    9  C   UNL     1      -9.330  12.820  67.246  1.00  0.00    -0.200 C  
ENDROOT
BRANCH   8  10
HETATM   10  C   UNL     1     -11.740  13.301  66.750  1.00  0.00    -0.434 C  
HETATM   11  C   UNL     1     -11.571  14.834  66.588  1.00  0.00    -0.319 C  
HETATM   12  C   UNL     1     -11.149  15.346  65.204  1.00  0.00    -0.402 C  
HETATM   13  C   UNL     1     -11.859  14.633  64.066  1.00  0.00    -0.135 C  
HETATM   14  C   UNL     1     -11.671  13.128  64.182  1.00  0.00    -0.472 C  
HETATM   15  C   UNL     1     -12.277  12.612  65.479  1.00  0.00    -0.501 C  
ENDBRANCH   8  10
TORSDOF 1
ENDMDL
MODEL       81
REMARK 921   NORMALIZED FREE ENERGY PREDICTED BY IDOCK:   -4.11 KCAL/MOL
REMARK 922        TOTAL FREE ENERGY PREDICTED BY IDOCK:   -4.64 KCAL/MOL
REMARK 923 INTER-LIGAND FREE ENERGY PREDICTED BY IDOCK:   -4.24 KCAL/MOL
REMARK 924 INTRA-LIGAND FREE ENERGY PREDICTED BY IDOCK:   -0.40 KCAL/MOL
REMARK 927      BINDING AFFINITY PREDICTED BY RF-SCORE:    0.00 PKD
ROOT
HETATM    1  C   UNL     1     -11.932   6.312  72.123  1.00  0.00    -0.338 C  
HETATM    2  C   UNL     1     -11.980   7.725  71.624  1.00  0.00    -0.330 C  
HETATM    3  C   UNL     1     -12.771   8.648  72.195  1.00  0.00    -0.447 C  
HETATM    4  C   UNL     1     -12.767  10.035  71.680  1.00  0.00    -0.435 C  
HETATM    5  O   UNL     1     -13.497  10.893  72.172  1.00  0.00    -0.372 OA 
HETATM    6  N   UNL     1     -11.906  10.279  70.628  1.00  0.00    -0.320 N  
HETATM    7  O   UNL     1     -11.898  11.603  70.158  1.00  0.00    -0.330 OA 
HETATM    8  C   UNL     1     -11.112   9.349  69.993  1.00  0.00    -0.221 C  
HETATM    9  C   UNL     1     -11.147   8.086  70.484  1.00  0.00    -0.251 C  
ENDROOT
BRANCH   8  10
HETATM   10  C   UNL     1     -10.246   9.677  68.770  1.00  0.00    -0.213 C  
HETATM   11  C   UNL     1      -8.724   9.377  68.814  1.00  0.00    -0.131 C  
HETATM   12  C   UNL     1      -8.241   8.116  68.084  1.00  0.00    -0.129 C  
HETATM   13  C   UNL     1      -8.919   7.912  66.740  1.00  0.00    -0.169 C  
HETATM   14  C   UNL     1     -10.432   7.915  66.902  1.00  0.00    -0.388 C  
HETATM   15  C   UNL     1     -10.909   9.255  67.442  1.00  0.00    -0.165 C  
ENDBRANCH   8  10
TORSDOF 1
ENDMDL
MODEL       82
REMARK 921   NORMALIZED FREE ENERGY PREDICTED BY IDOCK:   -4.10 KCAL/MOL
REMARK 922        TOTAL FREE ENERGY PREDICTED BY IDOCK:   -4.63 KCAL/MOL
REMARK 923 INTER-LIGAND FREE ENERGY PREDICTED BY IDOCK:   -4.24 KCAL/MOL
REMARK 924 INTRA-LIGAND FREE ENERGY PREDICTED BY IDOCK:   -0.40 KCAL/MOL
REMARK 927      BINDING AFFINITY PREDICTED BY RF-SCORE:    0.00 PKD
ROOT
HETATM    1  C   UNL     1     -10.916   6.709  67.053  1.00  0.00    -0.463 C  
HETATM    2  C   UNL     1     -10.052   7.418  68.051  1.00  0.00    -0.216 C  
HETATM    3  C   UNL     1      -8.715   7.462  67.923  1.00  0.00    -0.123 C  
HETATM    4  C   UNL     1      -7.907   8.194  68.922  1.00  0.00    -0.112 C  
HETATM    5  O   UNL     1      -6.681   8.231  68.839  1.00  0.00    -0.051 OA 
HETATM    6  N   UNL     1      -8.621   8.809  69.933  1.00  0.00    -0.128 N  
HETATM    7  O   UNL     1      -7.845   9.515  70.867  1.00  0.00    -0.299 OA 
HETATM    8  C   UNL     1      -9.985   8.752  70.117  1.00  0.00    -0.184 C  
HETATM    9  C   UNL     1     -10.694   8.065  69.189  1.00  0.00    -0.121 C  
ENDROOT
BRANCH   8  10
HETATM   10  C   UNL     1     -10.699   9.388  71.317  1.00  0.00    -0.421 C  
HETATM   11  C   UNL     1     -11.808  10.444  71.068  1.00  0.00    -0.458 C  
HETATM   12  C   UNL     1     -13.262   9.971  71.201  1.00  0.00    -0.441 C  
HETATM   13  C   UNL     1     -13.481   9.047  72.388  1.00  0.00    -0.524 C  
HETATM   14  C   UNL     1     -12.517   7.871  72.328  1.00  0.00    -0.265 C  
HETATM   15  C   UNL     1     -11.077   8.356  72.399  1.00  0.00    -0.431 C  
ENDBRANCH   8  10
TORSDOF 1
ENDMDL
MODEL       83
REMARK 921   NORMALIZED FREE ENERGY PREDICTED BY IDOCK:   -4.09 KCAL/MOL
REMARK 922        TOTAL FREE ENERGY PREDICTED BY IDOCK:   -4.62 KCAL/MOL
REMARK 923 INTER-LIGAND FREE ENERGY PREDICTED BY IDOCK:   -4.22 KCAL/MOL
REMARK 924 INTRA-LIGAND FREE ENERGY PREDICTED BY IDOCK:   -0.40 KCAL/MOL
REMARK 927      BINDING AFFINITY PREDICTED BY RF-SCORE:    0.00 PKD
ROOT
HETATM    1  C   UNL     1     -11.018   7.125  67.172  1.00  0.00    -0.342 C  
HETATM    2  C   UNL     1     -10.427   8.433  67.601  1.00  0.00    -0.307 C  
HETATM    3  C   UNL     1      -9.898   8.601  68.825  1.00  0.00    -0.180 C  
HETATM    4  C   UNL     1      -9.306   9.906  69.194  1.00  0.00    -0.193 C  
HETATM    5  O   UNL     1      -8.835  10.091  70.314  1.00  0.00    -0.115 OA 
HETATM    6  N   UNL     1      -9.332  10.873  68.209  1.00  0.00    -0.162 N  
HETATM    7  O   UNL     1      -8.752  12.103  68.565  1.00  0.00    -0.157 OA 
HETATM    8  C   UNL     1      -9.900  10.749  66.960  1.00  0.00    -0.187 C  
HETATM    9  C   UNL     1     -10.442   9.544  66.658  1.00  0.00    -0.241 C  
ENDROOT
BRANCH   8  10
HETATM   10  C   UNL     1      -9.969  11.901  65.948  1.00  0.00    -0.261 C  
HETATM   11  C   UNL     1      -9.671  11.617  64.452  1.00  0.00    -0.199 C  
HETATM   12  C   UNL     1     -10.879  11.498  63.512  1.00  0.00    -0.473 C  
HETATM   13  C   UNL     1     -11.951  12.539  63.789  1.00  0.00    -0.598 C  
HETATM   14  C   UNL     1     -12.377  12.487  65.250  1.00  0.00    -0.469 C  
HETATM   15  C   UNL     1     -11.201  12.805  66.161  1.00  0.00    -0.336 C  
ENDBRANCH   8  10
TORSDOF 1
ENDMDL
MODEL       84
REMARK 921   NORMALIZED FREE ENERGY PREDICTED BY IDOCK:   -4.08 KCAL/MOL
REMARK 922        TOTAL FREE ENERGY PREDICTED BY IDOCK:   -4.62 KCAL/MOL
REMARK 923 INTER-LIGAND FREE ENERGY PREDICTED BY IDOCK:   -4.88 KCAL/MOL
REMARK 924 INTRA-LIGAND FREE ENERGY PREDICTED BY IDOCK:    0.26 KCAL/MOL
REMARK 927      BINDING AFFINITY PREDICTED BY RF-SCORE:    0.00 PKD
ROOT
HETATM    1  C   UNL     1     -11.751   8.073  71.917  1.00  0.00    -0.351 C  
HETATM    2  C   UNL     1     -11.991   9.478  71.456  1.00  0.00    -0.475 C  
HETATM    3  C   UNL     1     -12.796  10.315  72.132  1.00  0.00    -0.351 C  
HETATM    4  C   UNL     1     -12.984  11.700  71.649  1.00  0.00    -0.378 C  
HETATM    5  O   UNL     1     -13.731  12.479  72.238  1.00  0.00    -0.482 OA 
HETATM    6  N   UNL     1     -12.277  12.037  70.510  1.00  0.00    -0.361 N  
HETATM    7  O   UNL     1     -12.450  13.360  70.070  1.00  0.00    -0.248 OA 
HETATM    8  C   UNL     1     -11.476  11.195  69.771  1.00  0.00    -0.312 C  
HETATM    9  C   UNL     1     -11.334   9.930  70.236  1.00  0.00    -0.357 C  
ENDROOT
BRANCH   8  10
HETATM   10  C   UNL     1     -10.792  11.616  68.463  1.00  0.00    -0.257 C  
HETATM   11  C   UNL     1     -11.664  12.043  67.253  1.00  0.00    -0.339 C  
HETATM   12  C   UNL     1     -11.793  13.549  66.985  1.00  0.00    -0.447 C  
HETATM   13  C   UNL     1     -10.481  14.297  67.154  1.00  0.00    -0.266 C  
HETATM   14  C   UNL     1      -9.890  14.026  68.529  1.00  0.00    -0.225 C  
HETATM   15  C   UNL     1      -9.584  12.546  68.698  1.00  0.00    -0.029 C  
ENDBRANCH   8  10
TORSDOF 1
ENDMDL
MODEL       85
REMARK 921   NORMALIZED FREE ENERGY PREDICTED BY IDOCK:   -4.06 KCAL/MOL
REMARK 922        TOTAL FREE ENERGY PREDICTED BY IDOCK:   -4.59 KCAL/MOL
REMARK 923 INTER-LIGAND FREE ENERGY PREDICTED BY IDOCK:   -4.18 KCAL/MOL
REMARK 924 INTRA-LIGAND FREE ENERGY PREDICTED BY IDOCK:   -0.41 KCAL/MOL
REMARK 927      BINDING AFFINITY PREDICTED BY RF-SCORE:    0.00 PKD
ROOT
HETATM    1  C   UNL     1      -7.181  12.257  68.244  1.00  0.00    -0.101 C  
HETATM    2  C   UNL     1      -8.439  12.296  67.432  1.00  0.00    -0.176 C  
HETATM    3  C   UNL     1      -8.849  11.237  66.714  1.00  0.00    -0.170 C  
HETATM    4  C   UNL     1     -10.111  11.316  65.946  1.00  0.00    -0.245 C  
HETATM    5  O   UNL     1     -10.497  10.368  65.265  1.00  0.00    -0.249 OA 
HETATM    6  N   UNL     1     -10.797  12.511  66.048  1.00  0.00    -0.270 N  
HETATM    7  O   UNL     1     -12.003  12.569  65.327  1.00  0.00    -0.400 OA 
HETATM    8  C   UNL     1     -10.388  13.629  66.740  1.00  0.00    -0.268 C  
HETATM    9  C   UNL     1      -9.223  13.525  67.425  1.00  0.00    -0.223 C  
ENDROOT
BRANCH   8  10
HETATM   10  C   UNL     1     -11.163  14.954  66.734  1.00  0.00    -0.338 C  
HETATM   11  C   UNL     1     -11.518  15.632  68.083  1.00  0.00    -0.325 C  
HETATM   12  C   UNL     1     -10.648  16.821  68.515  1.00  0.00    -0.354 C  
HETATM   13  C   UNL     1     -10.313  17.759  67.367  1.00  0.00    -0.370 C  
HETATM   14  C   UNL     1      -9.673  16.990  66.221  1.00  0.00    -0.302 C  
HETATM   15  C   UNL     1     -10.635  15.945  65.676  1.00  0.00    -0.393 C  
ENDBRANCH   8  10
TORSDOF 1
ENDMDL
MODEL       86
REMARK 921   NORMALIZED FREE ENERGY PREDICTED BY IDOCK:   -4.06 KCAL/MOL
REMARK 922        TOTAL FREE ENERGY PREDICTED BY IDOCK:   -4.59 KCAL/MOL
REMARK 923 INTER-LIGAND FREE ENERGY PREDICTED BY IDOCK:   -4.18 KCAL/MOL
REMARK 924 INTRA-LIGAND FREE ENERGY PREDICTED BY IDOCK:   -0.41 KCAL/MOL
REMARK 927      BINDING AFFINITY PREDICTED BY RF-SCORE:    0.00 PKD
ROOT
HETATM    1  C   UNL     1     -11.075   9.598  71.077  1.00  0.00    -0.438 C  
HETATM    2  C   UNL     1     -10.827   9.686  69.602  1.00  0.00    -0.266 C  
HETATM    3  C   UNL     1     -10.529   8.600  68.870  1.00  0.00    -0.211 C  
HETATM    4  C   UNL     1     -10.314   8.734  67.413  1.00  0.00    -0.280 C  
HETATM    5  O   UNL     1     -10.020   7.759  66.724  1.00  0.00    -0.230 OA 
HETATM    6  N   UNL     1     -10.459  10.010  66.903  1.00  0.00    -0.233 N  
HETATM    7  O   UNL     1     -10.269  10.124  65.515  1.00  0.00    -0.286 OA 
HETATM    8  C   UNL     1     -10.724  11.151  67.628  1.00  0.00    -0.230 C  
HETATM    9  C   UNL     1     -10.906  10.993  68.962  1.00  0.00    -0.274 C  
ENDROOT
BRANCH   8  10
HETATM   10  C   UNL     1     -10.783  12.552  67.003  1.00  0.00    -0.268 C  
HETATM   11  C   UNL     1     -11.984  13.479  67.329  1.00  0.00    -0.408 C  
HETATM   12  C   UNL     1     -11.744  14.591  68.360  1.00  0.00    -0.367 C  
HETATM   13  C   UNL     1     -10.401  15.280  68.189  1.00  0.00    -0.242 C  
HETATM   14  C   UNL     1      -9.274  14.257  68.204  1.00  0.00    -0.202 C  
HETATM   15  C   UNL     1      -9.424  13.280  67.048  1.00  0.00    -0.243 C  
ENDBRANCH   8  10
TORSDOF 1
ENDMDL
MODEL       87
REMARK 921   NORMALIZED FREE ENERGY PREDICTED BY IDOCK:   -4.04 KCAL/MOL
REMARK 922        TOTAL FREE ENERGY PREDICTED BY IDOCK:   -4.58 KCAL/MOL
REMARK 923 INTER-LIGAND FREE ENERGY PREDICTED BY IDOCK:   -4.23 KCAL/MOL
REMARK 924 INTRA-LIGAND FREE ENERGY PREDICTED BY IDOCK:   -0.35 KCAL/MOL
REMARK 927      BINDING AFFINITY PREDICTED BY RF-SCORE:    0.00 PKD
ROOT
HETATM    1  C   UNL     1      -9.115   9.739  63.715  1.00  0.00    -0.270 C  
HETATM    2  C   UNL     1      -9.887  10.399  64.818  1.00  0.00    -0.406 C  
HETATM    3  C   UNL     1     -10.556  11.547  64.622  1.00  0.00    -0.369 C  
HETATM    4  C   UNL     1     -11.321  12.148  65.736  1.00  0.00    -0.354 C  
HETATM    5  O   UNL     1     -11.925  13.208  65.588  1.00  0.00    -0.368 OA 
HETATM    6  N   UNL     1     -11.298  11.444  66.924  1.00  0.00    -0.275 N  
HETATM    7  O   UNL     1     -12.042  12.015  67.971  1.00  0.00    -0.514 OA 
HETATM    8  C   UNL     1     -10.592  10.287  67.172  1.00  0.00    -0.260 C  
HETATM    9  C   UNL     1      -9.893   9.769  66.132  1.00  0.00    -0.329 C  
ENDROOT
BRANCH   8  10
HETATM   10  C   UNL     1     -10.543   9.609  68.548  1.00  0.00    -0.253 C  
HETATM   11  C   UNL     1     -10.465   8.062  68.630  1.00  0.00    -0.196 C  
HETATM   12  C   UNL     1      -9.090   7.449  68.931  1.00  0.00    -0.136 C  
HETATM   13  C   UNL     1      -8.322   8.209  69.999  1.00  0.00    -0.122 C  
HETATM   14  C   UNL     1      -8.205   9.679  69.623  1.00  0.00    -0.148 C  
HETATM   15  C   UNL     1      -9.582  10.317  69.525  1.00  0.00    -0.225 C  
ENDBRANCH   8  10
TORSDOF 1
ENDMDL
MODEL       88
REMARK 921   NORMALIZED FREE ENERGY PREDICTED BY IDOCK:   -4.03 KCAL/MOL
REMARK 922        TOTAL FREE ENERGY PREDICTED BY IDOCK:   -4.57 KCAL/MOL
REMARK 923 INTER-LIGAND FREE ENERGY PREDICTED BY IDOCK:   -4.87 KCAL/MOL
REMARK 924 INTRA-LIGAND FREE ENERGY PREDICTED BY IDOCK:    0.31 KCAL/MOL
REMARK 927      BINDING AFFINITY PREDICTED BY RF-SCORE:    0.00 PKD
ROOT
HETATM    1  C   UNL     1     -12.020  12.175  70.281  1.00  0.00    -0.389 C  
HETATM    2  C   UNL     1     -12.152  10.789  70.837  1.00  0.00    -0.475 C  
HETATM    3  C   UNL     1     -13.255  10.394  71.494  1.00  0.00    -0.485 C  
HETATM    4  C   UNL     1     -13.347   9.009  72.005  1.00  0.00    -0.438 C  
HETATM    5  O   UNL     1     -14.336   8.629  72.627  1.00  0.00    -0.533 OA 
HETATM    6  N   UNL     1     -12.258   8.201  71.738  1.00  0.00    -0.303 N  
HETATM    7  O   UNL     1     -12.363   6.883  72.213  1.00  0.00    -0.216 OA 
HETATM    8  C   UNL     1     -11.097   8.583  71.103  1.00  0.00    -0.260 C  
HETATM    9  C   UNL     1     -11.042   9.861  70.657  1.00  0.00    -0.409 C  
ENDROOT
BRANCH   8  10
HETATM   10  C   UNL     1      -9.891   7.651  70.922  1.00  0.00    -0.179 C  
HETATM   11  C   UNL     1      -9.421   6.776  72.114  1.00  0.00    -0.145 C  
HETATM   12  C   UNL     1      -9.824   5.295  72.093  1.00  0.00    -0.216 C  
HETATM   13  C   UNL     1      -9.695   4.665  70.716  1.00  0.00    -0.269 C  
HETATM   14  C   UNL     1     -10.479   5.469  69.689  1.00  0.00    -0.379 C  
HETATM   15  C   UNL     1      -9.929   6.884  69.584  1.00  0.00    -0.179 C  
ENDBRANCH   8  10
TORSDOF 1
ENDMDL
MODEL       89
REMARK 921   NORMALIZED FREE ENERGY PREDICTED BY IDOCK:   -4.03 KCAL/MOL
REMARK 922        TOTAL FREE ENERGY PREDICTED BY IDOCK:   -4.56 KCAL/MOL
REMARK 923 INTER-LIGAND FREE ENERGY PREDICTED BY IDOCK:   -4.29 KCAL/MOL
REMARK 924 INTRA-LIGAND FREE ENERGY PREDICTED BY IDOCK:   -0.26 KCAL/MOL
REMARK 927      BINDING AFFINITY PREDICTED BY RF-SCORE:    0.00 PKD
ROOT
HETATM    1  C   UNL     1     -12.962  11.508  71.734  1.00  0.00    -0.500 C  
HETATM    2  C   UNL     1     -12.333  12.413  70.718  1.00  0.00    -0.377 C  
HETATM    3  C   UNL     1     -12.483  13.747  70.772  1.00  0.00    -0.441 C  
HETATM    4  C   UNL     1     -11.825  14.600  69.759  1.00  0.00    -0.316 C  
HETATM    5  O   UNL     1     -11.963  15.821  69.775  1.00  0.00    -0.352 OA 
HETATM    6  N   UNL     1     -11.068  13.931  68.816  1.00  0.00    -0.255 N  
HETATM    7  O   UNL     1     -10.434  14.752  67.868  1.00  0.00    -0.242 OA 
HETATM    8  C   UNL     1     -10.925  12.565  68.707  1.00  0.00    -0.253 C  
HETATM    9  C   UNL     1     -11.550  11.813  69.645  1.00  0.00    -0.393 C  
ENDROOT
BRANCH   8  10
HETATM   10  C   UNL     1     -10.139  11.889  67.575  1.00  0.00    -0.206 C  
HETATM   11  C   UNL     1      -8.589  11.853  67.644  1.00  0.00    -0.156 C  
HETATM   12  C   UNL     1      -7.942  10.534  68.088  1.00  0.00    -0.111 C  
HETATM   13  C   UNL     1      -8.608   9.311  67.479  1.00  0.00    -0.116 C  
HETATM   14  C   UNL     1     -10.102   9.322  67.767  1.00  0.00    -0.253 C  
HETATM   15  C   UNL     1     -10.759  10.544  67.143  1.00  0.00    -0.323 C  
ENDBRANCH   8  10
TORSDOF 1
ENDMDL
MODEL       90
REMARK 921   NORMALIZED FREE ENERGY PREDICTED BY IDOCK:   -3.91 KCAL/MOL
REMARK 922        TOTAL FREE ENERGY PREDICTED BY IDOCK:   -4.44 KCAL/MOL
REMARK 923 INTER-LIGAND FREE ENERGY PREDICTED BY IDOCK:   -4.07 KCAL/MOL
REMARK 924 INTRA-LIGAND FREE ENERGY PREDICTED BY IDOCK:   -0.37 KCAL/MOL
REMARK 927      BINDING AFFINITY PREDICTED BY RF-SCORE:    0.00 PKD
ROOT
HETATM    1  C   UNL     1      -9.756  10.680  63.910  1.00  0.00    -0.378 C  
HETATM    2  C   UNL     1     -10.214  10.587  65.334  1.00  0.00    -0.340 C  
HETATM    3  C   UNL     1     -10.778  11.631  65.964  1.00  0.00    -0.328 C  
HETATM    4  C   UNL     1     -11.234  11.483  67.363  1.00  0.00    -0.304 C  
HETATM    5  O   UNL     1     -11.735  12.429  67.968  1.00  0.00    -0.329 OA 
HETATM    6  N   UNL     1     -11.052  10.232  67.921  1.00  0.00    -0.297 N  
HETATM    7  O   UNL     1     -11.503  10.098  69.245  1.00  0.00    -0.197 OA 
HETATM    8  C   UNL     1     -10.442   9.153  67.319  1.00  0.00    -0.265 C  
HETATM    9  C   UNL     1     -10.027   9.327  66.041  1.00  0.00    -0.325 C  
ENDROOT
BRANCH   8  10
HETATM   10  C   UNL     1     -10.194   7.819  68.036  1.00  0.00    -0.249 C  
HETATM   11  C   UNL     1     -10.977   6.558  67.585  1.00  0.00    -0.426 C  
HETATM   12  C   UNL     1     -10.226   5.551  66.703  1.00  0.00    -0.279 C  
HETATM   13  C   UNL     1      -8.794   5.317  67.156  1.00  0.00    -0.109 C  
HETATM   14  C   UNL     1      -8.046   6.638  67.252  1.00  0.00    -0.121 C  
HETATM   15  C   UNL     1      -8.696   7.547  68.284  1.00  0.00    -0.123 C  
ENDBRANCH   8  10
TORSDOF 1
ENDMDL
MODEL       91
REMARK 921   NORMALIZED FREE ENERGY PREDICTED BY IDOCK:   -3.90 KCAL/MOL
REMARK 922        TOTAL FREE ENERGY PREDICTED BY IDOCK:   -4.43 KCAL/MOL
REMARK 923 INTER-LIGAND FREE ENERGY PREDICTED BY IDOCK:   -4.11 KCAL/MOL
REMARK 924 INTRA-LIGAND FREE ENERGY PREDICTED BY IDOCK:   -0.32 KCAL/MOL
REMARK 927      BINDING AFFINITY PREDICTED BY RF-SCORE:    0.00 PKD
ROOT
HETATM    1  C   UNL     1     -10.250   5.860  66.901  1.00  0.00    -0.262 C  
HETATM    2  C   UNL     1     -10.588   6.675  68.112  1.00  0.00    -0.294 C  
HETATM    3  C   UNL     1     -11.226   6.141  69.167  1.00  0.00    -0.409 C  
HETATM    4  C   UNL     1     -11.518   6.982  70.348  1.00  0.00    -0.310 C  
HETATM    5  O   UNL     1     -12.119   6.522  71.317  1.00  0.00    -0.343 OA 
HETATM    6  N   UNL     1     -11.079   8.289  70.274  1.00  0.00    -0.247 N  
HETATM    7  O   UNL     1     -11.347   9.074  71.409  1.00  0.00    -0.272 OA 
HETATM    8  C   UNL     1     -10.458   8.880  69.195  1.00  0.00    -0.223 C  
HETATM    9  C   UNL     1     -10.215   8.084  68.125  1.00  0.00    -0.251 C  
ENDROOT
BRANCH   8  10
HETATM   10  C   UNL     1     -10.079  10.367  69.152  1.00  0.00    -0.236 C  
HETATM   11  C   UNL     1      -8.836  10.810  68.337  1.00  0.00    -0.146 C  
HETATM   12  C   UNL     1      -9.094  11.440  66.961  1.00  0.00    -0.169 C  
HETATM   13  C   UNL     1     -10.267  12.407  66.962  1.00  0.00    -0.232 C  
HETATM   14  C   UNL     1     -11.515  11.727  67.505  1.00  0.00    -0.373 C  
HETATM   15  C   UNL     1     -11.300  11.285  68.945  1.00  0.00    -0.340 C  
ENDBRANCH   8  10
TORSDOF 1
ENDMDL
MODEL       92
REMARK 921   NORMALIZED FREE ENERGY PREDICTED BY IDOCK:   -3.90 KCAL/MOL
REMARK 922        TOTAL FREE ENERGY PREDICTED BY IDOCK:   -4.43 KCAL/MOL
REMARK 923 INTER-LIGAND FREE ENERGY PREDICTED BY IDOCK:   -4.15 KCAL/MOL
REMARK 924 INTRA-LIGAND FREE ENERGY PREDICTED BY IDOCK:   -0.27 KCAL/MOL
REMARK 927      BINDING AFFINITY PREDICTED BY RF-SCORE:    0.00 PKD
ROOT
HETATM    1  C   UNL     1      -7.108  13.561  68.301  1.00  0.00    -0.110 C  
HETATM    2  C   UNL     1      -8.413  13.859  67.628  1.00  0.00    -0.193 C  
HETATM    3  C   UNL     1      -9.089  14.995  67.870  1.00  0.00    -0.180 C  
HETATM    4  C   UNL     1     -10.362  15.254  67.163  1.00  0.00    -0.265 C  
HETATM    5  O   UNL     1     -11.010  16.276  67.382  1.00  0.00    -0.281 OA 
HETATM    6  N   UNL     1     -10.757  14.279  66.267  1.00  0.00    -0.293 N  
HETATM    7  O   UNL     1     -11.960  14.543  65.590  1.00  0.00    -0.359 OA 
HETATM    8  C   UNL     1     -10.112  13.087  66.024  1.00  0.00    -0.284 C  
HETATM    9  C   UNL     1      -8.953  12.877  66.696  1.00  0.00    -0.141 C  
ENDROOT
BRANCH   8  10
HETATM   10  C   UNL     1     -10.660  12.010  65.078  1.00  0.00    -0.332 C  
HETATM   11  C   UNL     1     -10.456  12.168  63.548  1.00  0.00    -0.490 C  
HETATM   12  C   UNL     1      -9.341  11.333  62.904  1.00  0.00    -0.376 C  
HETATM   13  C   UNL     1      -9.280   9.912  63.438  1.00  0.00    -0.278 C  
HETATM   14  C   UNL     1      -9.163   9.919  64.955  1.00  0.00    -0.295 C  
HETATM   15  C   UNL     1     -10.382  10.579  65.582  1.00  0.00    -0.274 C  
ENDBRANCH   8  10
TORSDOF 1
ENDMDL
MODEL       93
REMARK 921   NORMALIZED FREE ENERGY PREDICTED BY IDOCK:   -3.90 KCAL/MOL
REMARK 922        TOTAL FREE ENERGY PREDICTED BY IDOCK:   -4.42 KCAL/MOL
REMARK 923 INTER-LIGAND FREE ENERGY PREDICTED BY IDOCK:   -4.91 KCAL/MOL
REMARK 924 INTRA-LIGAND FREE ENERGY PREDICTED BY IDOCK:    0.49 KCAL/MOL
REMARK 927      BINDING AFFINITY PREDICTED BY RF-SCORE:    0.00 PKD
ROOT
HETATM    1  C   UNL     1     -12.031  13.614  68.678  1.00  0.00    -0.395 C  
HETATM    2  C   UNL     1     -11.676  12.159  68.730  1.00  0.00    -0.374 C  
HETATM    3  C   UNL     1     -11.232  11.501  67.647  1.00  0.00    -0.343 C  
HETATM    4  C   UNL     1     -10.872  10.071  67.754  1.00  0.00    -0.282 C  
HETATM    5  O   UNL     1     -10.483   9.441  66.773  1.00  0.00    -0.243 OA 
HETATM    6  N   UNL     1     -11.011   9.513  69.011  1.00  0.00    -0.154 N  
HETATM    7  O   UNL     1     -10.652   8.158  69.105  1.00  0.00    -0.219 OA 
HETATM    8  C   UNL     1     -11.500  10.145  70.133  1.00  0.00    -0.296 C  
HETATM    9  C   UNL     1     -11.829  11.453  69.996  1.00  0.00    -0.440 C  
ENDROOT
BRANCH   8  10
HETATM   10  C   UNL     1     -11.711   9.434  71.476  1.00  0.00    -0.465 C  
HETATM   11  C   UNL     1     -12.927   8.486  71.652  1.00  0.00    -0.369 C  
HETATM   12  C   UNL     1     -12.653   6.979  71.564  1.00  0.00    -0.426 C  
HETATM   13  C   UNL     1     -11.379   6.564  72.282  1.00  0.00    -0.318 C  
HETATM   14  C   UNL     1     -10.196   7.374  71.774  1.00  0.00    -0.212 C  
HETATM   15  C   UNL     1     -10.402   8.855  72.053  1.00  0.00    -0.378 C  
ENDBRANCH   8  10
TORSDOF 1
ENDMDL
MODEL       94
REMARK 921   NORMALIZED FREE ENERGY PREDICTED BY IDOCK:   -3.90 KCAL/MOL
REMARK 922        TOTAL FREE ENERGY PREDICTED BY IDOCK:   -4.42 KCAL/MOL
REMARK 923 INTER-LIGAND FREE ENERGY PREDICTED BY IDOCK:   -4.72 KCAL/MOL
REMARK 924 INTRA-LIGAND FREE ENERGY PREDICTED BY IDOCK:    0.30 KCAL/MOL
REMARK 927      BINDING AFFINITY PREDICTED BY RF-SCORE:    0.00 PKD
ROOT
HETATM    1  C   UNL     1     -12.640  14.754  72.725  1.00  0.00    -0.457 C  
HETATM    2  C   UNL     1     -12.000  14.980  71.389  1.00  0.00    -0.397 C  
HETATM    3  C   UNL     1     -11.499  16.177  71.040  1.00  0.00    -0.424 C  
HETATM    4  C   UNL     1     -10.857  16.345  69.718  1.00  0.00    -0.343 C  
HETATM    5  O   UNL     1     -10.409  17.435  69.367  1.00  0.00    -0.292 OA 
HETATM    6  N   UNL     1     -10.807  15.212  68.930  1.00  0.00    -0.231 N  
HETATM    7  O   UNL     1     -10.180  15.379  67.684  1.00  0.00    -0.241 OA 
HETATM    8  C   UNL     1     -11.344  13.981  69.239  1.00  0.00    -0.273 C  
HETATM    9  C   UNL     1     -11.934  13.865  70.453  1.00  0.00    -0.393 C  
ENDROOT
BRANCH   8  10
HETATM   10  C   UNL     1     -11.328  12.789  68.272  1.00  0.00    -0.335 C  
HETATM   11  C   UNL     1     -12.141  12.870  66.953  1.00  0.00    -0.313 C  
HETATM   12  C   UNL     1     -11.355  13.169  65.668  1.00  0.00    -0.328 C  
HETATM   13  C   UNL     1     -10.037  12.418  65.590  1.00  0.00    -0.277 C  
HETATM   14  C   UNL     1      -9.197  12.689  66.830  1.00  0.00    -0.216 C  
HETATM   15  C   UNL     1      -9.915  12.200  68.079  1.00  0.00    -0.203 C  
ENDBRANCH   8  10
TORSDOF 1
ENDMDL
MODEL       95
REMARK 921   NORMALIZED FREE ENERGY PREDICTED BY IDOCK:   -3.87 KCAL/MOL
REMARK 922        TOTAL FREE ENERGY PREDICTED BY IDOCK:   -4.39 KCAL/MOL
REMARK 923 INTER-LIGAND FREE ENERGY PREDICTED BY IDOCK:   -4.37 KCAL/MOL
REMARK 924 INTRA-LIGAND FREE ENERGY PREDICTED BY IDOCK:   -0.03 KCAL/MOL
REMARK 927      BINDING AFFINITY PREDICTED BY RF-SCORE:    0.00 PKD
ROOT
HETATM    1  C   UNL     1     -12.116  10.092  71.517  1.00  0.00    -0.475 C  
HETATM    2  C   UNL     1     -11.796  10.678  70.176  1.00  0.00    -0.421 C  
HETATM    3  C   UNL     1     -11.338   9.922  69.165  1.00  0.00    -0.088 C  
HETATM    4  C   UNL     1     -11.057  10.543  67.853  1.00  0.00    -0.304 C  
HETATM    5  O   UNL     1     -10.618   9.877  66.918  1.00  0.00    -0.228 OA 
HETATM    6  N   UNL     1     -11.316  11.898  67.767  1.00  0.00    -0.269 N  
HETATM    7  O   UNL     1     -11.062  12.475  66.511  1.00  0.00    -0.264 OA 
HETATM    8  C   UNL     1     -11.748  12.711  68.791  1.00  0.00    -0.323 C  
HETATM    9  C   UNL     1     -11.985  12.111  69.983  1.00  0.00    -0.391 C  
ENDROOT
BRANCH   8  10
HETATM   10  C   UNL     1     -11.928  14.228  68.643  1.00  0.00    -0.348 C  
HETATM   11  C   UNL     1     -12.648  15.021  69.766  1.00  0.00    -0.145 C  
HETATM   12  C   UNL     1     -11.761  15.813  70.737  1.00  0.00    -0.430 C  
HETATM   13  C   UNL     1     -10.618  16.535  70.043  1.00  0.00    -0.167 C  
HETATM   14  C   UNL     1      -9.798  15.557  69.214  1.00  0.00    -0.270 C  
HETATM   15  C   UNL     1     -10.655  14.929  68.125  1.00  0.00    -0.244 C  
ENDBRANCH   8  10
TORSDOF 1
ENDMDL
MODEL       96
REMARK 921   NORMALIZED FREE ENERGY PREDICTED BY IDOCK:   -3.87 KCAL/MOL
REMARK 922        TOTAL FREE ENERGY PREDICTED BY IDOCK:   -4.39 KCAL/MOL
REMARK 923 INTER-LIGAND FREE ENERGY PREDICTED BY IDOCK:   -4.15 KCAL/MOL
REMARK 924 INTRA-LIGAND FREE ENERGY PREDICTED BY IDOCK:   -0.24 KCAL/MOL
REMARK 927      BINDING AFFINITY PREDICTED BY RF-SCORE:    0.00 PKD
ROOT
HETATM    1  C   UNL     1      -9.197   7.562  71.742  1.00  0.00    -0.162 C  
HETATM    2  C   UNL     1     -10.088   8.513  71.002  1.00  0.00    -0.257 C  
HETATM    3  C   UNL     1     -10.955   9.313  71.644  1.00  0.00    -0.433 C  
HETATM    4  C   UNL     1     -11.798  10.251  70.871  1.00  0.00    -0.377 C  
HETATM    5  O   UNL     1     -12.614  10.978  71.433  1.00  0.00    -0.390 OA 
HETATM    6  N   UNL     1     -11.605  10.238  69.503  1.00  0.00    -0.204 N  
HETATM    7  O   UNL     1     -12.399  11.144  68.780  1.00  0.00    -0.539 OA 
HETATM    8  C   UNL     1     -10.756   9.405  68.808  1.00  0.00    -0.171 C  
HETATM    9  C   UNL     1     -10.005   8.551  69.547  1.00  0.00    -0.193 C  
ENDROOT
BRANCH   8  10
HETATM   10  C   UNL     1     -10.660   9.387  67.277  1.00  0.00    -0.314 C  
HETATM   11  C   UNL     1      -9.943  10.554  66.546  1.00  0.00    -0.266 C  
HETATM   12  C   UNL     1      -8.514  10.292  66.053  1.00  0.00    -0.144 C  
HETATM   13  C   UNL     1      -8.343   8.916  65.432  1.00  0.00    -0.155 C  
HETATM   14  C   UNL     1      -8.802   7.836  66.400  1.00  0.00    -0.180 C  
HETATM   15  C   UNL     1     -10.280   7.999  66.722  1.00  0.00    -0.367 C  
ENDBRANCH   8  10
TORSDOF 1
ENDMDL
MODEL       97
REMARK 921   NORMALIZED FREE ENERGY PREDICTED BY IDOCK:   -3.84 KCAL/MOL
REMARK 922        TOTAL FREE ENERGY PREDICTED BY IDOCK:   -4.37 KCAL/MOL
REMARK 923 INTER-LIGAND FREE ENERGY PREDICTED BY IDOCK:   -4.60 KCAL/MOL
REMARK 924 INTRA-LIGAND FREE ENERGY PREDICTED BY IDOCK:    0.24 KCAL/MOL
REMARK 927      BINDING AFFINITY PREDICTED BY RF-SCORE:    0.00 PKD
ROOT
HETATM    1  C   UNL     1      -9.438   7.638  66.903  1.00  0.00    -0.222 C  
HETATM    2  C   UNL     1     -10.060   8.966  67.212  1.00  0.00    -0.303 C  
HETATM    3  C   UNL     1     -10.377   9.322  68.468  1.00  0.00    -0.237 C  
HETATM    4  C   UNL     1     -10.968  10.653  68.726  1.00  0.00    -0.246 C  
HETATM    5  O   UNL     1     -11.287  10.993  69.863  1.00  0.00    -0.268 OA 
HETATM    6  N   UNL     1     -11.135  11.457  67.615  1.00  0.00    -0.248 N  
HETATM    7  O   UNL     1     -11.682  12.725  67.873  1.00  0.00    -0.327 OA 
HETATM    8  C   UNL     1     -10.858  11.111  66.310  1.00  0.00    -0.205 C  
HETATM    9  C   UNL     1     -10.327   9.881  66.109  1.00  0.00    -0.223 C  
ENDROOT
BRANCH   8  10
HETATM   10  C   UNL     1     -11.154  12.028  65.115  1.00  0.00    -0.369 C  
HETATM   11  C   UNL     1     -12.582  12.608  64.938  1.00  0.00    -0.525 C  
HETATM   12  C   UNL     1     -12.797  14.068  65.360  1.00  0.00    -0.442 C  
HETATM   13  C   UNL     1     -11.654  14.981  64.947  1.00  0.00    -0.374 C  
HETATM   14  C   UNL     1     -10.330  14.441  65.468  1.00  0.00    -0.382 C  
HETATM   15  C   UNL     1     -10.041  13.070  64.876  1.00  0.00    -0.233 C  
ENDBRANCH   8  10
TORSDOF 1
ENDMDL
MODEL       98
REMARK 921   NORMALIZED FREE ENERGY PREDICTED BY IDOCK:   -3.84 KCAL/MOL
REMARK 922        TOTAL FREE ENERGY PREDICTED BY IDOCK:   -4.36 KCAL/MOL
REMARK 923 INTER-LIGAND FREE ENERGY PREDICTED BY IDOCK:   -4.61 KCAL/MOL
REMARK 924 INTRA-LIGAND FREE ENERGY PREDICTED BY IDOCK:    0.25 KCAL/MOL
REMARK 927      BINDING AFFINITY PREDICTED BY RF-SCORE:    0.00 PKD
ROOT
HETATM    1  C   UNL     1     -13.220  12.056  71.915  1.00  0.00    -0.469 C  
HETATM    2  C   UNL     1     -12.462  11.177  70.966  1.00  0.00    -0.506 C  
HETATM    3  C   UNL     1     -12.159  11.578  69.721  1.00  0.00    -0.374 C  
HETATM    4  C   UNL     1     -11.390  10.683  68.829  1.00  0.00    -0.277 C  
HETATM    5  O   UNL     1     -11.118  11.018  67.678  1.00  0.00    -0.260 OA 
HETATM    6  N   UNL     1     -11.019   9.470  69.378  1.00  0.00    -0.208 N  
HETATM    7  O   UNL     1     -10.274   8.634  68.528  1.00  0.00    -0.187 OA 
HETATM    8  C   UNL     1     -11.345   9.011  70.634  1.00  0.00    -0.265 C  
HETATM    9  C   UNL     1     -12.059   9.852  71.421  1.00  0.00    -0.501 C  
ENDROOT
BRANCH   8  10
HETATM   10  C   UNL     1     -10.971   7.612  71.143  1.00  0.00    -0.263 C  
HETATM   11  C   UNL     1     -11.502   6.363  70.390  1.00  0.00    -0.458 C  
HETATM   12  C   UNL     1     -10.520   5.644  69.455  1.00  0.00    -0.372 C  
HETATM   13  C   UNL     1      -9.123   5.521  70.042  1.00  0.00    -0.160 C  
HETATM   14  C   UNL     1      -8.598   6.889  70.453  1.00  0.00    -0.143 C  
HETATM   15  C   UNL     1      -9.483   7.499  71.531  1.00  0.00    -0.166 C  
ENDBRANCH   8  10
TORSDOF 1
ENDMDL
MODEL       99
REMARK 921   NORMALIZED FREE ENERGY PREDICTED BY IDOCK:   -3.84 KCAL/MOL
REMARK 922        TOTAL FREE ENERGY PREDICTED BY IDOCK:   -4.36 KCAL/MOL
REMARK 923 INTER-LIGAND FREE ENERGY PREDICTED BY IDOCK:   -3.97 KCAL/MOL
REMARK 924 INTRA-LIGAND FREE ENERGY PREDICTED BY IDOCK:   -0.39 KCAL/MOL
REMARK 927      BINDING AFFINITY PREDICTED BY RF-SCORE:    0.00 PKD
ROOT
HETATM    1  C   UNL     1      -9.938   8.408  66.290  1.00  0.00    -0.216 C  
HETATM    2  C   UNL     1     -10.478   9.076  67.518  1.00  0.00    -0.338 C  
HETATM    3  C   UNL     1     -11.011  10.309  67.475  1.00  0.00    -0.344 C  
HETATM    4  C   UNL     1     -11.551  10.917  68.711  1.00  0.00    -0.309 C  
HETATM    5  O   UNL     1     -12.025  12.051  68.702  1.00  0.00    -0.316 OA 
HETATM    6  N   UNL     1     -11.477  10.131  69.845  1.00  0.00    -0.260 N  
HETATM    7  O   UNL     1     -12.008  10.712  71.009  1.00  0.00    -0.343 OA 
HETATM    8  C   UNL     1     -10.903   8.882  69.934  1.00  0.00    -0.211 C  
HETATM    9  C   UNL     1     -10.409   8.359  68.785  1.00  0.00    -0.225 C  
ENDROOT
BRANCH   8  10
HETATM   10  C   UNL     1     -10.778   8.105  71.251  1.00  0.00    -0.270 C  
HETATM   11  C   UNL     1     -11.503   6.742  71.402  1.00  0.00    -0.336 C  
HETATM   12  C   UNL     1     -10.646   5.477  71.256  1.00  0.00    -0.304 C  
HETATM   13  C   UNL     1      -9.298   5.591  71.947  1.00  0.00    -0.163 C  
HETATM   14  C   UNL     1      -8.554   6.825  71.459  1.00  0.00    -0.120 C  
HETATM   15  C   UNL     1      -9.334   8.087  71.795  1.00  0.00    -0.218 C  
ENDBRANCH   8  10
TORSDOF 1
ENDMDL
MODEL      100
REMARK 921   NORMALIZED FREE ENERGY PREDICTED BY IDOCK:   -3.83 KCAL/MOL
REMARK 922        TOTAL FREE ENERGY PREDICTED BY IDOCK:   -4.35 KCAL/MOL
REMARK 923 INTER-LIGAND FREE ENERGY PREDICTED BY IDOCK:   -4.59 KCAL/MOL
REMARK 924 INTRA-LIGAND FREE ENERGY PREDICTED BY IDOCK:    0.24 KCAL/MOL
REMARK 927      BINDING AFFINITY PREDICTED BY RF-SCORE:    0.00 PKD
ROOT
HETATM    1  C   UNL     1      -5.793  18.654  69.197  1.00  0.00    -0.229 C  
HETATM    2  C   UNL     1      -7.231  18.405  68.855  1.00  0.00    -0.286 C  
HETATM    3  C   UNL     1      -8.114  19.411  68.745  1.00  0.00    -0.388 C  
HETATM    4  C   UNL     1      -9.518  19.117  68.383  1.00  0.00    -0.369 C  
HETATM    5  O   UNL     1     -10.350  20.018  68.296  1.00  0.00    -0.429 OA 
HETATM    6  N   UNL     1      -9.812  17.785  68.164  1.00  0.00    -0.309 N  
HETATM    7  O   UNL     1     -11.144  17.519  67.805  1.00  0.00    -0.235 OA 
HETATM    8  C   UNL     1      -8.943  16.726  68.307  1.00  0.00    -0.228 C  
HETATM    9  C   UNL     1      -7.667  17.030  68.648  1.00  0.00    -0.251 C  
ENDROOT
BRANCH   8  10
HETATM   10  C   UNL     1      -9.365  15.261  68.132  1.00  0.00    -0.198 C  
HETATM   11  C   UNL     1     -10.509  14.690  69.012  1.00  0.00    -0.248 C  
HETATM   12  C   UNL     1     -11.890  14.554  68.357  1.00  0.00    -0.351 C  
HETATM   13  C   UNL     1     -11.822  14.027  66.933  1.00  0.00    -0.458 C  
HETATM   14  C   UNL     1     -10.891  14.887  66.092  1.00  0.00    -0.327 C  
HETATM   15  C   UNL     1      -9.476  14.847  66.650  1.00  0.00    -0.286 C  
ENDBRANCH   8  10
TORSDOF 1
ENDMDL
MODEL      101
REMARK 921   NORMALIZED FREE ENERGY PREDICTED BY IDOCK:   -3.83 KCAL/MOL
REMARK 922        TOTAL FREE ENERGY PREDICTED BY IDOCK:   -4.35 KCAL/MOL
REMARK 923 INTER-LIGAND FREE ENERGY PREDICTED BY IDOCK:   -4.60 KCAL/MOL
REMARK 924 INTRA-LIGAND FREE ENERGY PREDICTED BY IDOCK:    0.25 KCAL/MOL
REMARK 927      BINDING AFFINITY PREDICTED BY RF-SCORE:    0.00 PKD
ROOT
HETATM    1  C   UNL     1     -10.251  19.752  68.361  1.00  0.00    -0.568 C  
HETATM    2  C   UNL     1      -9.874  18.416  67.798  1.00  0.00    -0.336 C  
HETATM    3  C   UNL     1      -8.645  18.175  67.311  1.00  0.00    -0.240 C  
HETATM    4  C   UNL     1      -8.315  16.833  66.786  1.00  0.00    -0.237 C  
HETATM    5  O   UNL     1      -7.205  16.593  66.316  1.00  0.00    -0.199 OA 
HETATM    6  N   UNL     1      -9.330  15.897  66.857  1.00  0.00    -0.217 N  
HETATM    7  O   UNL     1      -9.000  14.621  66.371  1.00  0.00    -0.244 OA 
HETATM    8  C   UNL     1     -10.611  16.119  67.312  1.00  0.00    -0.305 C  
HETATM    9  C   UNL     1     -10.882  17.363  67.777  1.00  0.00    -0.257 C  
ENDROOT
BRANCH   8  10
HETATM   10  C   UNL     1     -11.713  15.051  67.278  1.00  0.00    -0.238 C  
HETATM   11  C   UNL     1     -12.140  14.443  65.916  1.00  0.00    -0.358 C  
HETATM   12  C   UNL     1     -11.594  13.050  65.574  1.00  0.00    -0.382 C  
HETATM   13  C   UNL     1     -11.609  12.099  66.759  1.00  0.00    -0.412 C  
HETATM   14  C   UNL     1     -10.870  12.711  67.940  1.00  0.00    -0.244 C  
HETATM   15  C   UNL     1     -11.551  13.995  68.390  1.00  0.00    -0.366 C  
ENDBRANCH   8  10
TORSDOF 1
ENDMDL
MODEL      102
REMARK 921   NORMALIZED FREE ENERGY PREDICTED BY IDOCK:   -3.83 KCAL/MOL
REMARK 922        TOTAL FREE ENERGY PREDICTED BY IDOCK:   -4.35 KCAL/MOL
REMARK 923 INTER-LIGAND FREE ENERGY PREDICTED BY IDOCK:   -4.62 KCAL/MOL
REMARK 924 INTRA-LIGAND FREE ENERGY PREDICTED BY IDOCK:    0.27 KCAL/MOL
REMARK 927      BINDING AFFINITY PREDICTED BY RF-SCORE:    0.00 PKD
ROOT
HETATM    1  C   UNL     1     -10.302  19.852  68.037  1.00  0.00    -0.547 C  
HETATM    2  C   UNL     1      -9.838  18.431  68.146  1.00  0.00    -0.365 C  
HETATM    3  C   UNL     1      -8.602  18.123  68.574  1.00  0.00    -0.307 C  
HETATM    4  C   UNL     1      -8.198  16.705  68.686  1.00  0.00    -0.245 C  
HETATM    5  O   UNL     1      -7.067  16.397  69.055  1.00  0.00    -0.183 OA 
HETATM    6  N   UNL     1      -9.166  15.780  68.344  1.00  0.00    -0.188 N  
HETATM    7  O   UNL     1      -8.776  14.435  68.469  1.00  0.00    -0.174 OA 
HETATM    8  C   UNL     1     -10.426  16.059  67.864  1.00  0.00    -0.292 C  
HETATM    9  C   UNL     1     -10.760  17.369  67.765  1.00  0.00    -0.332 C  
ENDROOT
BRANCH   8  10
HETATM   10  C   UNL     1     -11.417  14.975  67.420  1.00  0.00    -0.326 C  
HETATM   11  C   UNL     1     -11.052  14.056  66.224  1.00  0.00    -0.307 C  
HETATM   12  C   UNL     1     -10.561  12.641  66.559  1.00  0.00    -0.272 C  
HETATM   13  C   UNL     1     -11.350  11.988  67.681  1.00  0.00    -0.375 C  
HETATM   14  C   UNL     1     -11.357  12.880  68.914  1.00  0.00    -0.335 C  
HETATM   15  C   UNL     1     -12.032  14.209  68.609  1.00  0.00    -0.373 C  
ENDBRANCH   8  10
TORSDOF 1
ENDMDL
MODEL      103
REMARK 921   NORMALIZED FREE ENERGY PREDICTED BY IDOCK:   -3.81 KCAL/MOL
REMARK 922        TOTAL FREE ENERGY PREDICTED BY IDOCK:   -4.33 KCAL/MOL
REMARK 923 INTER-LIGAND FREE ENERGY PREDICTED BY IDOCK:   -4.03 KCAL/MOL
REMARK 924 INTRA-LIGAND FREE ENERGY PREDICTED BY IDOCK:   -0.30 KCAL/MOL
REMARK 927      BINDING AFFINITY PREDICTED BY RF-SCORE:    0.00 PKD
ROOT
HETATM    1  C   UNL     1      -9.790   4.776  67.485  1.00  0.00    -0.206 C  
HETATM    2  C   UNL     1     -10.085   6.211  67.802  1.00  0.00    -0.177 C  
HETATM    3  C   UNL     1      -9.924   7.183  66.890  1.00  0.00    -0.293 C  
HETATM    4  C   UNL     1     -10.249   8.582  67.244  1.00  0.00    -0.276 C  
HETATM    5  O   UNL     1     -10.092   9.492  66.434  1.00  0.00    -0.254 OA 
HETATM    6  N   UNL     1     -10.725   8.777  68.526  1.00  0.00    -0.122 N  
HETATM    7  O   UNL     1     -11.047  10.107  68.848  1.00  0.00    -0.231 OA 
HETATM    8  C   UNL     1     -10.865   7.812  69.499  1.00  0.00    -0.153 C  
HETATM    9  C   UNL     1     -10.548   6.543  69.144  1.00  0.00    -0.286 C  
ENDROOT
BRANCH   8  10
HETATM   10  C   UNL     1     -11.316   8.121  70.933  1.00  0.00    -0.286 C  
HETATM   11  C   UNL     1     -12.084   7.038  71.738  1.00  0.00    -0.371 C  
HETATM   12  C   UNL     1     -11.284   6.252  72.785  1.00  0.00    -0.272 C  
HETATM   13  C   UNL     1     -10.335   7.126  73.587  1.00  0.00    -0.411 C  
HETATM   14  C   UNL     1      -9.417   7.906  72.657  1.00  0.00    -0.284 C  
HETATM   15  C   UNL     1     -10.225   8.831  71.760  1.00  0.00    -0.408 C  
ENDBRANCH   8  10
TORSDOF 1
ENDMDL
MODEL      104
REMARK 921   NORMALIZED FREE ENERGY PREDICTED BY IDOCK:   -3.81 KCAL/MOL
REMARK 922        TOTAL FREE ENERGY PREDICTED BY IDOCK:   -4.33 KCAL/MOL
REMARK 923 INTER-LIGAND FREE ENERGY PREDICTED BY IDOCK:   -3.95 KCAL/MOL
REMARK 924 INTRA-LIGAND FREE ENERGY PREDICTED BY IDOCK:   -0.39 KCAL/MOL
REMARK 927      BINDING AFFINITY PREDICTED BY RF-SCORE:    0.00 PKD
ROOT
HETATM    1  C   UNL     1      -5.850  14.502  67.831  1.00  0.00    -0.137 C  
HETATM    2  C   UNL     1      -7.218  15.069  67.600  1.00  0.00    -0.208 C  
HETATM    3  C   UNL     1      -8.258  14.289  67.261  1.00  0.00    -0.212 C  
HETATM    4  C   UNL     1      -9.593  14.893  67.064  1.00  0.00    -0.238 C  
HETATM    5  O   UNL     1     -10.556  14.204  66.735  1.00  0.00    -0.275 OA 
HETATM    6  N   UNL     1      -9.668  16.257  67.270  1.00  0.00    -0.235 N  
HETATM    7  O   UNL     1     -10.944  16.818  67.096  1.00  0.00    -0.168 OA 
HETATM    8  C   UNL     1      -8.617  17.092  67.577  1.00  0.00    -0.203 C  
HETATM    9  C   UNL     1      -7.405  16.507  67.741  1.00  0.00    -0.154 C  
ENDROOT
BRANCH   8  10
HETATM   10  C   UNL     1      -8.760  18.615  67.702  1.00  0.00    -0.288 C  
HETATM   11  C   UNL     1      -7.982  19.363  68.817  1.00  0.00    -0.391 C  
HETATM   12  C   UNL     1      -6.707  20.107  68.397  1.00  0.00    -0.337 C  
HETATM   13  C   UNL     1      -6.861  20.852  67.081  1.00  0.00    -0.417 C  
HETATM   14  C   UNL     1      -7.338  19.906  65.988  1.00  0.00    -0.324 C  
HETATM   15  C   UNL     1      -8.703  19.331  66.337  1.00  0.00    -0.362 C  
ENDBRANCH   8  10
TORSDOF 1
ENDMDL
MODEL      105
REMARK 921   NORMALIZED FREE ENERGY PREDICTED BY IDOCK:   -3.79 KCAL/MOL
REMARK 922        TOTAL FREE ENERGY PREDICTED BY IDOCK:   -4.31 KCAL/MOL
REMARK 923 INTER-LIGAND FREE ENERGY PREDICTED BY IDOCK:   -4.09 KCAL/MOL
REMARK 924 INTRA-LIGAND FREE ENERGY PREDICTED BY IDOCK:   -0.22 KCAL/MOL
REMARK 927      BINDING AFFINITY PREDICTED BY RF-SCORE:    0.00 PKD
ROOT
HETATM    1  C   UNL     1     -13.088  14.705  71.237  1.00  0.00    -0.424 C  
HETATM    2  C   UNL     1     -12.321  14.061  70.122  1.00  0.00    -0.409 C  
HETATM    3  C   UNL     1     -12.586  12.809  69.714  1.00  0.00     0.227 C  
HETATM    4  C   UNL     1     -11.817  12.226  68.594  1.00  0.00    -0.305 C  
HETATM    5  O   UNL     1     -12.027  11.075  68.215  1.00  0.00    -0.593 OA 
HETATM    6  N   UNL     1     -10.867  13.053  68.027  1.00  0.00    -0.234 N  
HETATM    7  O   UNL     1     -10.153  12.494  66.953  1.00  0.00    -0.221 OA 
HETATM    8  C   UNL     1     -10.541  14.324  68.444  1.00  0.00    -0.253 C  
HETATM    9  C   UNL     1     -11.259  14.825  69.480  1.00  0.00    -0.305 C  
ENDROOT
BRANCH   8  10
HETATM   10  C   UNL     1      -9.408  15.151  67.821  1.00  0.00    -0.189 C  
HETATM   11  C   UNL     1      -9.587  15.729  66.392  1.00  0.00    -0.311 C  
HETATM   12  C   UNL     1      -9.942  17.219  66.283  1.00  0.00    -0.311 C  
HETATM   13  C   UNL     1      -9.164  18.087  67.258  1.00  0.00    -0.255 C  
HETATM   14  C   UNL     1      -9.339  17.577  68.681  1.00  0.00    -0.277 C  
HETATM   15  C   UNL     1      -8.796  16.162  68.812  1.00  0.00    -0.233 C  
ENDBRANCH   8  10
TORSDOF 1
ENDMDL
MODEL      106
REMARK 921   NORMALIZED FREE ENERGY PREDICTED BY IDOCK:   -3.78 KCAL/MOL
REMARK 922        TOTAL FREE ENERGY PREDICTED BY IDOCK:   -4.29 KCAL/MOL
REMARK 923 INTER-LIGAND FREE ENERGY PREDICTED BY IDOCK:   -3.89 KCAL/MOL
REMARK 924 INTRA-LIGAND FREE ENERGY PREDICTED BY IDOCK:   -0.41 KCAL/MOL
REMARK 927      BINDING AFFINITY PREDICTED BY RF-SCORE:    0.00 PKD
ROOT
HETATM    1  C   UNL     1      -9.297  11.388  63.143  1.00  0.00    -0.307 C  
HETATM    2  C   UNL     1      -9.606  10.950  64.543  1.00  0.00    -0.312 C  
HETATM    3  C   UNL     1      -9.722   9.652  64.867  1.00  0.00    -0.174 C  
HETATM    4  C   UNL     1     -10.005   9.268  66.267  1.00  0.00    -0.286 C  
HETATM    5  O   UNL     1     -10.136   8.088  66.585  1.00  0.00    -0.268 OA 
HETATM    6  N   UNL     1     -10.114  10.315  67.162  1.00  0.00    -0.200 N  
HETATM    7  O   UNL     1     -10.367   9.939  68.492  1.00  0.00    -0.180 OA 
HETATM    8  C   UNL     1     -10.041  11.657  66.859  1.00  0.00    -0.211 C  
HETATM    9  C   UNL     1      -9.790  11.973  65.565  1.00  0.00    -0.251 C  
ENDROOT
BRANCH   8  10
HETATM   10  C   UNL     1     -10.261  12.767  67.895  1.00  0.00    -0.229 C  
HETATM   11  C   UNL     1      -9.306  13.990  67.913  1.00  0.00    -0.206 C  
HETATM   12  C   UNL     1      -9.825  15.288  67.278  1.00  0.00    -0.220 C  
HETATM   13  C   UNL     1     -11.278  15.576  67.617  1.00  0.00    -0.291 C  
HETATM   14  C   UNL     1     -12.154  14.388  67.249  1.00  0.00    -0.358 C  
HETATM   15  C   UNL     1     -11.747  13.155  68.042  1.00  0.00    -0.394 C  
ENDBRANCH   8  10
TORSDOF 1
ENDMDL
MODEL      107
REMARK 921   NORMALIZED FREE ENERGY PREDICTED BY IDOCK:   -3.76 KCAL/MOL
REMARK 922        TOTAL FREE ENERGY PREDICTED BY IDOCK:   -4.28 KCAL/MOL
REMARK 923 INTER-LIGAND FREE ENERGY PREDICTED BY IDOCK:   -4.45 KCAL/MOL
REMARK 924 INTRA-LIGAND FREE ENERGY PREDICTED BY IDOCK:    0.17 KCAL/MOL
REMARK 927      BINDING AFFINITY PREDICTED BY RF-SCORE:    0.00 PKD
ROOT
HETATM    1  C   UNL     1     -10.559  19.853  65.381  1.00  0.00    -0.187 C  
HETATM    2  C   UNL     1     -10.461  18.764  66.407  1.00  0.00    -0.485 C  
HETATM    3  C   UNL     1     -10.395  19.036  67.720  1.00  0.00    -0.498 C  
HETATM    4  C   UNL     1     -10.322  17.926  68.695  1.00  0.00    -0.337 C  
HETATM    5  O   UNL     1     -10.240  18.148  69.901  1.00  0.00     0.324 OA 
HETATM    6  N   UNL     1     -10.347  16.654  68.155  1.00  0.00    -0.288 N  
HETATM    7  O   UNL     1     -10.294  15.607  69.091  1.00  0.00    -0.214 OA 
HETATM    8  C   UNL     1     -10.374  16.340  66.814  1.00  0.00    -0.296 C  
HETATM    9  C   UNL     1     -10.430  17.381  65.948  1.00  0.00    -0.256 C  
ENDROOT
BRANCH   8  10
HETATM   10  C   UNL     1     -10.310  14.900  66.286  1.00  0.00    -0.302 C  
HETATM   11  C   UNL     1     -11.030  13.770  67.068  1.00  0.00    -0.297 C  
HETATM   12  C   UNL     1     -12.378  13.290  66.513  1.00  0.00    -0.311 C  
HETATM   13  C   UNL     1     -12.384  13.156  65.000  1.00  0.00    -0.511 C  
HETATM   14  C   UNL     1     -11.949  14.462  64.350  1.00  0.00    -0.471 C  
HETATM   15  C   UNL     1     -10.528  14.817  64.761  1.00  0.00    -0.317 C  
ENDBRANCH   8  10
TORSDOF 1
ENDMDL
MODEL      108
REMARK 921   NORMALIZED FREE ENERGY PREDICTED BY IDOCK:   -3.74 KCAL/MOL
REMARK 922        TOTAL FREE ENERGY PREDICTED BY IDOCK:   -4.26 KCAL/MOL
REMARK 923 INTER-LIGAND FREE ENERGY PREDICTED BY IDOCK:   -3.87 KCAL/MOL
REMARK 924 INTRA-LIGAND FREE ENERGY PREDICTED BY IDOCK:   -0.39 KCAL/MOL
REMARK 927      BINDING AFFINITY PREDICTED BY RF-SCORE:    0.00 PKD
ROOT
HETATM    1  C   UNL     1     -10.176   4.105  72.127  1.00  0.00    -0.220 C  
HETATM    2  C   UNL     1     -10.548   5.469  71.630  1.00  0.00    -0.294 C  
HETATM    3  C   UNL     1     -11.188   6.355  72.411  1.00  0.00    -0.313 C  
HETATM    4  C   UNL     1     -11.514   7.697  71.882  1.00  0.00    -0.272 C  
HETATM    5  O   UNL     1     -12.117   8.518  72.569  1.00  0.00    -0.389 OA 
HETATM    6  N   UNL     1     -11.103   7.944  70.586  1.00  0.00    -0.257 N  
HETATM    7  O   UNL     1     -11.403   9.227  70.099  1.00  0.00    -0.240 OA 
HETATM    8  C   UNL     1     -10.481   7.048  69.744  1.00  0.00    -0.219 C  
HETATM    9  C   UNL     1     -10.207   5.824  70.258  1.00  0.00    -0.295 C  
ENDROOT
BRANCH   8  10
HETATM   10  C   UNL     1     -10.134   7.367  68.284  1.00  0.00    -0.201 C  
HETATM   11  C   UNL     1      -8.653   7.314  67.826  1.00  0.00    -0.120 C  
HETATM   12  C   UNL     1      -8.209   6.069  67.045  1.00  0.00    -0.105 C  
HETATM   13  C   UNL     1      -9.236   5.612  66.023  1.00  0.00    -0.164 C  
HETATM   14  C   UNL     1     -10.588   5.399  66.687  1.00  0.00    -0.359 C  
HETATM   15  C   UNL     1     -11.102   6.700  67.284  1.00  0.00    -0.418 C  
ENDBRANCH   8  10
TORSDOF 1
ENDMDL
MODEL      109
REMARK 921   NORMALIZED FREE ENERGY PREDICTED BY IDOCK:   -3.74 KCAL/MOL
REMARK 922        TOTAL FREE ENERGY PREDICTED BY IDOCK:   -4.26 KCAL/MOL
REMARK 923 INTER-LIGAND FREE ENERGY PREDICTED BY IDOCK:   -4.30 KCAL/MOL
REMARK 924 INTRA-LIGAND FREE ENERGY PREDICTED BY IDOCK:    0.04 KCAL/MOL
REMARK 927      BINDING AFFINITY PREDICTED BY RF-SCORE:    0.00 PKD
ROOT
HETATM    1  C   UNL     1      -6.657  11.656  67.402  1.00  0.00    -0.106 C  
HETATM    2  C   UNL     1      -7.832  12.555  67.643  1.00  0.00    -0.162 C  
HETATM    3  C   UNL     1      -7.756  13.609  68.472  1.00  0.00    -0.129 C  
HETATM    4  C   UNL     1      -8.937  14.480  68.660  1.00  0.00    -0.181 C  
HETATM    5  O   UNL     1      -8.900  15.438  69.429  1.00  0.00    -0.245 OA 
HETATM    6  N   UNL     1     -10.056  14.134  67.927  1.00  0.00    -0.231 N  
HETATM    7  O   UNL     1     -11.167  14.977  68.101  1.00  0.00    -0.281 OA 
HETATM    8  C   UNL     1     -10.182  13.040  67.100  1.00  0.00    -0.243 C  
HETATM    9  C   UNL     1      -9.084  12.258  66.959  1.00  0.00    -0.201 C  
ENDROOT
BRANCH   8  10
HETATM   10  C   UNL     1     -11.490  12.669  66.387  1.00  0.00    -0.409 C  
HETATM   11  C   UNL     1     -12.286  13.772  65.640  1.00  0.00    -0.484 C  
HETATM   12  C   UNL     1     -12.150  13.814  64.111  1.00  0.00    -0.478 C  
HETATM   13  C   UNL     1     -12.171  12.434  63.475  1.00  0.00    -0.661 C  
HETATM   14  C   UNL     1     -11.108  11.544  64.103  1.00  0.00    -0.417 C  
HETATM   15  C   UNL     1     -11.378  11.354  65.588  1.00  0.00    -0.069 C  
ENDBRANCH   8  10
TORSDOF 1
ENDMDL
MODEL      110
REMARK 921   NORMALIZED FREE ENERGY PREDICTED BY IDOCK:   -3.70 KCAL/MOL
REMARK 922        TOTAL FREE ENERGY PREDICTED BY IDOCK:   -4.21 KCAL/MOL
REMARK 923 INTER-LIGAND FREE ENERGY PREDICTED BY IDOCK:   -3.81 KCAL/MOL
REMARK 924 INTRA-LIGAND FREE ENERGY PREDICTED BY IDOCK:   -0.40 KCAL/MOL
REMARK 927      BINDING AFFINITY PREDICTED BY RF-SCORE:    0.00 PKD
ROOT
HETATM    1  C   UNL     1      -8.939   2.387  69.915  1.00  0.00    -0.159 C  
HETATM    2  C   UNL     1      -9.483   3.516  69.093  1.00  0.00    -0.224 C  
HETATM    3  C   UNL     1      -9.389   3.524  67.753  1.00  0.00    -0.246 C  
HETATM    4  C   UNL     1      -9.961   4.651  66.985  1.00  0.00    -0.195 C  
HETATM    5  O   UNL     1      -9.870   4.691  65.760  1.00  0.00    -0.182 OA 
HETATM    6  N   UNL     1     -10.581   5.631  67.736  1.00  0.00    -0.222 N  
HETATM    7  O   UNL     1     -11.135   6.689  66.995  1.00  0.00    -0.403 OA 
HETATM    8  C   UNL     1     -10.661   5.676  69.110  1.00  0.00    -0.264 C  
HETATM    9  C   UNL     1     -10.118   4.632  69.783  1.00  0.00    -0.243 C  
ENDROOT
BRANCH   8  10
HETATM   10  C   UNL     1     -11.290   6.846  69.879  1.00  0.00    -0.321 C  
HETATM   11  C   UNL     1     -12.200   6.550  71.101  1.00  0.00    -0.263 C  
HETATM   12  C   UNL     1     -11.579   6.736  72.492  1.00  0.00    -0.236 C  
HETATM   13  C   UNL     1     -10.714   7.981  72.595  1.00  0.00    -0.426 C  
HETATM   14  C   UNL     1      -9.650   7.980  71.508  1.00  0.00    -0.209 C  
HETATM   15  C   UNL     1     -10.293   7.996  70.129  1.00  0.00    -0.215 C  
ENDBRANCH   8  10
TORSDOF 1
ENDMDL
MODEL      111
REMARK 921   NORMALIZED FREE ENERGY PREDICTED BY IDOCK:   -3.67 KCAL/MOL
REMARK 922        TOTAL FREE ENERGY PREDICTED BY IDOCK:   -4.19 KCAL/MOL
REMARK 923 INTER-LIGAND FREE ENERGY PREDICTED BY IDOCK:   -3.78 KCAL/MOL
REMARK 924 INTRA-LIGAND FREE ENERGY PREDICTED BY IDOCK:   -0.41 KCAL/MOL
REMARK 927      BINDING AFFINITY PREDICTED BY RF-SCORE:    0.00 PKD
ROOT
HETATM    1  C   UNL     1      -7.001  15.879  66.889  1.00  0.00    -0.077 C  
HETATM    2  C   UNL     1      -8.363  15.954  67.509  1.00  0.00    -0.180 C  
HETATM    3  C   UNL     1      -8.737  16.997  68.268  1.00  0.00    -0.241 C  
HETATM    4  C   UNL     1     -10.101  17.035  68.840  1.00  0.00    -0.307 C  
HETATM    5  O   UNL     1     -10.460  17.968  69.555  1.00  0.00    -0.017 OA 
HETATM    6  N   UNL     1     -10.913  15.965  68.519  1.00  0.00    -0.306 N  
HETATM    7  O   UNL     1     -12.211  16.019  69.054  1.00  0.00    -0.205 OA 
HETATM    8  C   UNL     1     -10.551  14.861  67.778  1.00  0.00    -0.262 C  
HETATM    9  C   UNL     1      -9.291  14.854  67.278  1.00  0.00    -0.210 C  
ENDROOT
BRANCH   8  10
HETATM   10  C   UNL     1     -11.482  13.666  67.538  1.00  0.00    -0.360 C  
HETATM   11  C   UNL     1     -11.583  13.055  66.115  1.00  0.00    -0.412 C  
HETATM   12  C   UNL     1     -10.811  11.753  65.860  1.00  0.00    -0.339 C  
HETATM   13  C   UNL     1     -10.909  10.769  67.013  1.00  0.00    -0.311 C  
HETATM   14  C   UNL     1     -10.472  11.428  68.313  1.00  0.00    -0.221 C  
HETATM   15  C   UNL     1     -11.381  12.601  68.649  1.00  0.00    -0.331 C  
ENDBRANCH   8  10
TORSDOF 1
ENDMDL
MODEL      112
REMARK 921   NORMALIZED FREE ENERGY PREDICTED BY IDOCK:   -3.67 KCAL/MOL
REMARK 922        TOTAL FREE ENERGY PREDICTED BY IDOCK:   -4.18 KCAL/MOL
REMARK 923 INTER-LIGAND FREE ENERGY PREDICTED BY IDOCK:   -4.42 KCAL/MOL
REMARK 924 INTRA-LIGAND FREE ENERGY PREDICTED BY IDOCK:    0.24 KCAL/MOL
REMARK 927      BINDING AFFINITY PREDICTED BY RF-SCORE:    0.00 PKD
ROOT
HETATM    1  C   UNL     1     -12.241  14.684  64.269  1.00  0.00    -0.432 C  
HETATM    2  C   UNL     1     -11.325  14.124  65.314  1.00  0.00    -0.328 C  
HETATM    3  C   UNL     1     -10.173  14.731  65.643  1.00  0.00    -0.382 C  
HETATM    4  C   UNL     1      -9.313  14.151  66.697  1.00  0.00    -0.282 C  
HETATM    5  O   UNL     1      -8.245  14.677  67.002  1.00  0.00    -0.206 OA 
HETATM    6  N   UNL     1      -9.792  13.000  67.291  1.00  0.00    -0.223 N  
HETATM    7  O   UNL     1      -8.976  12.466  68.303  1.00  0.00    -0.190 OA 
HETATM    8  C   UNL     1     -10.947  12.329  66.953  1.00  0.00    -0.267 C  
HETATM    9  C   UNL     1     -11.706  12.882  65.976  1.00  0.00    -0.456 C  
ENDROOT
BRANCH   8  10
HETATM   10  C   UNL     1     -11.370  11.002  67.599  1.00  0.00    -0.355 C  
HETATM   11  C   UNL     1     -10.367   9.818  67.628  1.00  0.00    -0.281 C  
HETATM   12  C   UNL     1      -9.640   9.554  68.954  1.00  0.00    -0.156 C  
HETATM   13  C   UNL     1     -10.547   9.686  70.166  1.00  0.00    -0.320 C  
HETATM   14  C   UNL     1     -11.234  11.043  70.170  1.00  0.00    -0.264 C  
HETATM   15  C   UNL     1     -12.111  11.202  68.937  1.00  0.00    -0.276 C  
ENDBRANCH   8  10
TORSDOF 1
ENDMDL
MODEL      113
REMARK 921   NORMALIZED FREE ENERGY PREDICTED BY IDOCK:   -3.63 KCAL/MOL
REMARK 922        TOTAL FREE ENERGY PREDICTED BY IDOCK:   -4.14 KCAL/MOL
REMARK 923 INTER-LIGAND FREE ENERGY PREDICTED BY IDOCK:   -3.74 KCAL/MOL
REMARK 924 INTRA-LIGAND FREE ENERGY PREDICTED BY IDOCK:   -0.40 KCAL/MOL
REMARK 927      BINDING AFFINITY PREDICTED BY RF-SCORE:    0.00 PKD
ROOT
HETATM    1  C   UNL     1      -9.601  18.354  68.368  1.00  0.00    -0.366 C  
HETATM    2  C   UNL     1      -9.169  16.925  68.500  1.00  0.00    -0.260 C  
HETATM    3  C   UNL     1      -8.122  16.571  69.264  1.00  0.00    -0.087 C  
HETATM    4  C   UNL     1      -7.749  15.144  69.379  1.00  0.00    -0.213 C  
HETATM    5  O   UNL     1      -6.783  14.797  70.055  1.00  0.00    -0.169 OA 
HETATM    6  N   UNL     1      -8.547  14.260  68.680  1.00  0.00    -0.171 N  
HETATM    7  O   UNL     1      -8.193  12.906  68.810  1.00  0.00    -0.035 OA 
HETATM    8  C   UNL     1      -9.601  14.590  67.857  1.00  0.00    -0.217 C  
HETATM    9  C   UNL     1      -9.910  15.906  67.766  1.00  0.00    -0.222 C  
ENDROOT
BRANCH   8  10
HETATM   10  C   UNL     1     -10.388  13.555  67.041  1.00  0.00    -0.252 C  
HETATM   11  C   UNL     1     -11.929  13.474  67.199  1.00  0.00    -0.426 C  
HETATM   12  C   UNL     1     -12.777  14.122  66.096  1.00  0.00    -0.251 C  
HETATM   13  C   UNL     1     -12.239  13.857  64.700  1.00  0.00    -0.449 C  
HETATM   14  C   UNL     1     -10.782  14.284  64.603  1.00  0.00    -0.384 C  
HETATM   15  C   UNL     1      -9.924  13.482  65.571  1.00  0.00    -0.238 C  
ENDBRANCH   8  10
TORSDOF 1
ENDMDL
MODEL      114
REMARK 921   NORMALIZED FREE ENERGY PREDICTED BY IDOCK:   -3.61 KCAL/MOL
REMARK 922        TOTAL FREE ENERGY PREDICTED BY IDOCK:   -4.12 KCAL/MOL
REMARK 923 INTER-LIGAND FREE ENERGY PREDICTED BY IDOCK:   -3.82 KCAL/MOL
REMARK 924 INTRA-LIGAND FREE ENERGY PREDICTED BY IDOCK:   -0.30 KCAL/MOL
REMARK 927      BINDING AFFINITY PREDICTED BY RF-SCORE:    0.00 PKD
ROOT
HETATM    1  C   UNL     1      -7.431  11.410  67.045  1.00  0.00    -0.147 C  
HETATM    2  C   UNL     1      -7.753  12.776  67.570  1.00  0.00    -0.168 C  
HETATM    3  C   UNL     1      -6.946  13.408  68.438  1.00  0.00    -0.105 C  
HETATM    4  C   UNL     1      -7.296  14.765  68.910  1.00  0.00    -0.130 C  
HETATM    5  O   UNL     1      -6.584  15.356  69.720  1.00  0.00    -0.161 OA 
HETATM    6  N   UNL     1      -8.459  15.297  68.387  1.00  0.00    -0.152 N  
HETATM    7  O   UNL     1      -8.774  16.593  68.830  1.00  0.00    -0.246 OA 
HETATM    8  C   UNL     1      -9.330  14.664  67.528  1.00  0.00    -0.195 C  
HETATM    9  C   UNL     1      -8.984  13.418  67.124  1.00  0.00    -0.227 C  
ENDROOT
BRANCH   8  10
HETATM   10  C   UNL     1     -10.652  15.287  67.059  1.00  0.00    -0.306 C  
HETATM   11  C   UNL     1     -10.661  16.190  65.798  1.00  0.00    -0.347 C  
HETATM   12  C   UNL     1     -11.174  15.561  64.495  1.00  0.00    -0.327 C  
HETATM   13  C   UNL     1     -12.405  14.695  64.699  1.00  0.00    -0.390 C  
HETATM   14  C   UNL     1     -12.140  13.636  65.760  1.00  0.00    -0.463 C  
HETATM   15  C   UNL     1     -11.826  14.288  67.098  1.00  0.00    -0.454 C  
ENDBRANCH   8  10
TORSDOF 1
ENDMDL
MODEL      115
REMARK 921   NORMALIZED FREE ENERGY PREDICTED BY IDOCK:   -3.60 KCAL/MOL
REMARK 922        TOTAL FREE ENERGY PREDICTED BY IDOCK:   -4.11 KCAL/MOL
REMARK 923 INTER-LIGAND FREE ENERGY PREDICTED BY IDOCK:   -3.90 KCAL/MOL
REMARK 924 INTRA-LIGAND FREE ENERGY PREDICTED BY IDOCK:   -0.21 KCAL/MOL
REMARK 927      BINDING AFFINITY PREDICTED BY RF-SCORE:    0.00 PKD
ROOT
HETATM    1  C   UNL     1     -10.181   6.233  67.452  1.00  0.00    -0.223 C  
HETATM    2  C   UNL     1     -10.510   7.300  68.453  1.00  0.00    -0.228 C  
HETATM    3  C   UNL     1     -10.481   8.604  68.130  1.00  0.00    -0.241 C  
HETATM    4  C   UNL     1     -10.835   9.618  69.146  1.00  0.00    -0.190 C  
HETATM    5  O   UNL     1     -10.797  10.818  68.882  1.00  0.00    -0.196 OA 
HETATM    6  N   UNL     1     -11.197   9.122  70.384  1.00  0.00    -0.247 N  
HETATM    7  O   UNL     1     -11.547  10.093  71.337  1.00  0.00    -0.348 OA 
HETATM    8  C   UNL     1     -11.199   7.797  70.761  1.00  0.00    -0.271 C  
HETATM    9  C   UNL     1     -10.859   6.895  69.808  1.00  0.00    -0.295 C  
ENDROOT
BRANCH   8  10
HETATM   10  C   UNL     1     -11.527   7.328  72.185  1.00  0.00    -0.310 C  
HETATM   11  C   UNL     1     -12.002   5.869  72.413  1.00  0.00    -0.206 C  
HETATM   12  C   UNL     1     -10.964   4.876  72.956  1.00  0.00    -0.358 C  
HETATM   13  C   UNL     1     -10.091   5.468  74.049  1.00  0.00    -0.241 C  
HETATM   14  C   UNL     1      -9.432   6.751  73.565  1.00  0.00    -0.187 C  
HETATM   15  C   UNL     1     -10.483   7.795  73.220  1.00  0.00    -0.358 C  
ENDBRANCH   8  10
TORSDOF 1
ENDMDL
MODEL      116
REMARK 921   NORMALIZED FREE ENERGY PREDICTED BY IDOCK:   -3.59 KCAL/MOL
REMARK 922        TOTAL FREE ENERGY PREDICTED BY IDOCK:   -4.09 KCAL/MOL
REMARK 923 INTER-LIGAND FREE ENERGY PREDICTED BY IDOCK:   -4.54 KCAL/MOL
REMARK 924 INTRA-LIGAND FREE ENERGY PREDICTED BY IDOCK:    0.45 KCAL/MOL
REMARK 927      BINDING AFFINITY PREDICTED BY RF-SCORE:    0.00 PKD
ROOT
HETATM    1  C   UNL     1      -9.735  11.436  63.977  1.00  0.00    -0.275 C  
HETATM    2  C   UNL     1     -10.358  11.918  65.252  1.00  0.00    -0.316 C  
HETATM    3  C   UNL     1     -10.817  11.062  66.180  1.00  0.00    -0.212 C  
HETATM    4  C   UNL     1     -11.403  11.586  67.433  1.00  0.00    -0.298 C  
HETATM    5  O   UNL     1     -11.849  10.824  68.289  1.00  0.00    -0.504 OA 
HETATM    6  N   UNL     1     -11.414  12.962  67.558  1.00  0.00    -0.314 N  
HETATM    7  O   UNL     1     -11.958  13.448  68.759  1.00  0.00    -0.335 OA 
HETATM    8  C   UNL     1     -10.989  13.868  66.612  1.00  0.00    -0.301 C  
HETATM    9  C   UNL     1     -10.467  13.354  65.472  1.00  0.00    -0.297 C  
ENDROOT
BRANCH   8  10
HETATM   10  C   UNL     1     -11.116  15.388  66.786  1.00  0.00    -0.244 C  
HETATM   11  C   UNL     1     -11.469  15.966  68.181  1.00  0.00    -0.281 C  
HETATM   12  C   UNL     1     -10.315  16.560  69.001  1.00  0.00    -0.296 C  
HETATM   13  C   UNL     1      -9.355  17.388  68.163  1.00  0.00    -0.277 C  
HETATM   14  C   UNL     1      -8.839  16.573  66.986  1.00  0.00    -0.217 C  
HETATM   15  C   UNL     1      -9.987  16.163  66.075  1.00  0.00    -0.373 C  
ENDBRANCH   8  10
TORSDOF 1
ENDMDL
MODEL      117
REMARK 921   NORMALIZED FREE ENERGY PREDICTED BY IDOCK:   -3.55 KCAL/MOL
REMARK 922        TOTAL FREE ENERGY PREDICTED BY IDOCK:   -4.05 KCAL/MOL
REMARK 923 INTER-LIGAND FREE ENERGY PREDICTED BY IDOCK:   -4.29 KCAL/MOL
REMARK 924 INTRA-LIGAND FREE ENERGY PREDICTED BY IDOCK:    0.24 KCAL/MOL
REMARK 927      BINDING AFFINITY PREDICTED BY RF-SCORE:    0.00 PKD
ROOT
HETATM    1  C   UNL     1     -11.848  15.334  69.319  1.00  0.00    -0.353 C  
HETATM    2  C   UNL     1     -11.671  14.311  68.238  1.00  0.00    -0.377 C  
HETATM    3  C   UNL     1     -12.272  14.434  67.044  1.00  0.00    -0.274 C  
HETATM    4  C   UNL     1     -12.048  13.409  66.001  1.00  0.00    -0.438 C  
HETATM    5  O   UNL     1     -12.604  13.488  64.907  1.00  0.00    -0.561 OA 
HETATM    6  N   UNL     1     -11.193  12.381  66.349  1.00  0.00    -0.301 N  
HETATM    7  O   UNL     1     -10.974  11.422  65.346  1.00  0.00    -0.262 OA 
HETATM    8  C   UNL     1     -10.591  12.202  67.575  1.00  0.00    -0.214 C  
HETATM    9  C   UNL     1     -10.826  13.154  68.510  1.00  0.00    -0.285 C  
ENDROOT
BRANCH   8  10
HETATM   10  C   UNL     1      -9.722  10.984  67.917  1.00  0.00    -0.183 C  
HETATM   11  C   UNL     1     -10.335   9.562  67.819  1.00  0.00    -0.291 C  
HETATM   12  C   UNL     1      -9.976   8.733  66.578  1.00  0.00    -0.360 C  
HETATM   13  C   UNL     1      -8.512   8.853  66.186  1.00  0.00    -0.133 C  
HETATM   14  C   UNL     1      -8.129  10.315  66.008  1.00  0.00    -0.139 C  
HETATM   15  C   UNL     1      -8.306  11.077  67.313  1.00  0.00    -0.125 C  
ENDBRANCH   8  10
TORSDOF 1
ENDMDL
MODEL      118
REMARK 921   NORMALIZED FREE ENERGY PREDICTED BY IDOCK:   -3.55 KCAL/MOL
REMARK 922        TOTAL FREE ENERGY PREDICTED BY IDOCK:   -4.05 KCAL/MOL
REMARK 923 INTER-LIGAND FREE ENERGY PREDICTED BY IDOCK:   -3.85 KCAL/MOL
REMARK 924 INTRA-LIGAND FREE ENERGY PREDICTED BY IDOCK:   -0.20 KCAL/MOL
REMARK 927      BINDING AFFINITY PREDICTED BY RF-SCORE:    0.00 PKD
ROOT
HETATM    1  C   UNL     1     -10.424  10.231  67.205  1.00  0.00    -0.311 C  
HETATM    2  C   UNL     1     -10.306   8.756  67.440  1.00  0.00    -0.349 C  
HETATM    3  C   UNL     1      -9.849   7.923  66.490  1.00  0.00    -0.272 C  
HETATM    4  C   UNL     1      -9.731   6.477  66.777  1.00  0.00    -0.164 C  
HETATM    5  O   UNL     1      -9.335   5.693  65.918  1.00  0.00    -0.159 OA 
HETATM    6  N   UNL     1     -10.097   6.090  68.052  1.00  0.00    -0.146 N  
HETATM    7  O   UNL     1      -9.965   4.717  68.320  1.00  0.00    -0.149 OA 
HETATM    8  C   UNL     1     -10.606   6.908  69.036  1.00  0.00    -0.217 C  
HETATM    9  C   UNL     1     -10.711   8.226  68.736  1.00  0.00    -0.076 C  
ENDROOT
BRANCH   8  10
HETATM   10  C   UNL     1     -11.076   6.389  70.402  1.00  0.00    -0.400 C  
HETATM   11  C   UNL     1     -10.027   5.856  71.414  1.00  0.00    -0.228 C  
HETATM   12  C   UNL     1      -9.630   6.793  72.564  1.00  0.00    -0.165 C  
HETATM   13  C   UNL     1     -10.815   7.532  73.163  1.00  0.00    -0.448 C  
HETATM   14  C   UNL     1     -11.580   8.277  72.079  1.00  0.00    -0.403 C  
HETATM   15  C   UNL     1     -12.136   7.303  71.051  1.00  0.00    -0.361 C  
ENDBRANCH   8  10
TORSDOF 1
ENDMDL
MODEL      119
REMARK 921   NORMALIZED FREE ENERGY PREDICTED BY IDOCK:   -3.55 KCAL/MOL
REMARK 922        TOTAL FREE ENERGY PREDICTED BY IDOCK:   -4.05 KCAL/MOL
REMARK 923 INTER-LIGAND FREE ENERGY PREDICTED BY IDOCK:   -3.93 KCAL/MOL
REMARK 924 INTRA-LIGAND FREE ENERGY PREDICTED BY IDOCK:   -0.12 KCAL/MOL
REMARK 927      BINDING AFFINITY PREDICTED BY RF-SCORE:    0.00 PKD
ROOT
HETATM    1  C   UNL     1      -9.866   4.569  69.328  1.00  0.00    -0.241 C  
HETATM    2  C   UNL     1      -9.542   6.024  69.181  1.00  0.00    -0.156 C  
HETATM    3  C   UNL     1      -8.718   6.470  68.219  1.00  0.00    -0.117 C  
HETATM    4  C   UNL     1      -8.446   7.919  68.101  1.00  0.00    -0.124 C  
HETATM    5  O   UNL     1      -7.679   8.351  67.242  1.00  0.00    -0.096 OA 
HETATM    6  N   UNL     1      -9.099   8.726  69.012  1.00  0.00    -0.141 N  
HETATM    7  O   UNL     1      -8.847  10.102  68.881  1.00  0.00    -0.136 OA 
HETATM    8  C   UNL     1      -9.918   8.300  70.035  1.00  0.00    -0.188 C  
HETATM    9  C   UNL     1     -10.138   6.966  70.121  1.00  0.00    -0.196 C  
ENDROOT
BRANCH   8  10
HETATM   10  C   UNL     1     -10.540   9.252  71.067  1.00  0.00    -0.386 C  
HETATM   11  C   UNL     1     -11.491  10.378  70.585  1.00  0.00    -0.438 C  
HETATM   12  C   UNL     1     -12.997  10.143  70.766  1.00  0.00    -0.380 C  
HETATM   13  C   UNL     1     -13.343   9.509  72.103  1.00  0.00    -0.545 C  
HETATM   14  C   UNL     1     -12.552   8.224  72.302  1.00  0.00    -0.357 C  
HETATM   15  C   UNL     1     -11.058   8.513  72.318  1.00  0.00    -0.430 C  
ENDBRANCH   8  10
TORSDOF 1
ENDMDL
MODEL      120
REMARK 921   NORMALIZED FREE ENERGY PREDICTED BY IDOCK:   -3.54 KCAL/MOL
REMARK 922        TOTAL FREE ENERGY PREDICTED BY IDOCK:   -4.05 KCAL/MOL
REMARK 923 INTER-LIGAND FREE ENERGY PREDICTED BY IDOCK:   -4.29 KCAL/MOL
REMARK 924 INTRA-LIGAND FREE ENERGY PREDICTED BY IDOCK:    0.24 KCAL/MOL
REMARK 927      BINDING AFFINITY PREDICTED BY RF-SCORE:    0.00 PKD
ROOT
HETATM    1  C   UNL     1     -12.657  12.687  63.535  1.00  0.00    -0.415 C  
HETATM    2  C   UNL     1     -12.163  12.743  64.949  1.00  0.00    -0.519 C  
HETATM    3  C   UNL     1     -12.422  13.793  65.746  1.00  0.00    -0.527 C  
HETATM    4  C   UNL     1     -11.931  13.793  67.141  1.00  0.00    -0.405 C  
HETATM    5  O   UNL     1     -12.137  14.750  67.884  1.00  0.00    -0.288 OA 
HETATM    6  N   UNL     1     -11.237  12.663  67.529  1.00  0.00    -0.272 N  
HETATM    7  O   UNL     1     -10.789  12.666  68.861  1.00  0.00    -0.237 OA 
HETATM    8  C   UNL     1     -10.919  11.588  66.729  1.00  0.00    -0.294 C  
HETATM    9  C   UNL     1     -11.376  11.625  65.454  1.00  0.00    -0.218 C  
ENDROOT
BRANCH   8  10
HETATM   10  C   UNL     1     -10.064  10.406  67.207  1.00  0.00    -0.244 C  
HETATM   11  C   UNL     1      -8.678  10.681  67.848  1.00  0.00    -0.127 C  
HETATM   12  C   UNL     1      -8.591  10.603  69.378  1.00  0.00    -0.046 C  
HETATM   13  C   UNL     1      -9.370   9.436  69.959  1.00  0.00    -0.253 C  
HETATM   14  C   UNL     1     -10.816   9.475  69.487  1.00  0.00    -0.243 C  
HETATM   15  C   UNL     1     -10.888   9.349  67.972  1.00  0.00    -0.197 C  
ENDBRANCH   8  10
TORSDOF 1
ENDMDL
MODEL      121
REMARK 921   NORMALIZED FREE ENERGY PREDICTED BY IDOCK:   -3.52 KCAL/MOL
REMARK 922        TOTAL FREE ENERGY PREDICTED BY IDOCK:   -4.03 KCAL/MOL
REMARK 923 INTER-LIGAND FREE ENERGY PREDICTED BY IDOCK:   -3.76 KCAL/MOL
REMARK 924 INTRA-LIGAND FREE ENERGY PREDICTED BY IDOCK:   -0.26 KCAL/MOL
REMARK 927      BINDING AFFINITY PREDICTED BY RF-SCORE:    0.00 PKD
ROOT
HETATM    1  C   UNL     1     -13.553   7.439  71.599  1.00  0.00    -0.449 C  
HETATM    2  C   UNL     1     -12.282   6.656  71.467  1.00  0.00    -0.391 C  
HETATM    3  C   UNL     1     -11.786   5.938  72.488  1.00  0.00    -0.288 C  
HETATM    4  C   UNL     1     -10.539   5.164  72.301  1.00  0.00    -0.218 C  
HETATM    5  O   UNL     1     -10.054   4.516  73.226  1.00  0.00    -0.149 OA 
HETATM    6  N   UNL     1      -9.978   5.231  71.041  1.00  0.00    -0.190 N  
HETATM    7  O   UNL     1      -8.804   4.479  70.870  1.00  0.00    -0.107 OA 
HETATM    8  C   UNL     1     -10.437   5.987  69.984  1.00  0.00    -0.250 C  
HETATM    9  C   UNL     1     -11.575   6.692  70.193  1.00  0.00    -0.446 C  
ENDROOT
BRANCH   8  10
HETATM   10  C   UNL     1      -9.707   6.081  68.637  1.00  0.00    -0.149 C  
HETATM   11  C   UNL     1     -10.517   6.412  67.356  1.00  0.00    -0.312 C  
HETATM   12  C   UNL     1     -10.437   7.854  66.835  1.00  0.00    -0.388 C  
HETATM   13  C   UNL     1      -9.032   8.431  66.899  1.00  0.00    -0.168 C  
HETATM   14  C   UNL     1      -8.477   8.319  68.311  1.00  0.00    -0.136 C  
HETATM   15  C   UNL     1      -8.380   6.861  68.734  1.00  0.00    -0.121 C  
ENDBRANCH   8  10
TORSDOF 1
ENDMDL
MODEL      122
REMARK 921   NORMALIZED FREE ENERGY PREDICTED BY IDOCK:   -3.52 KCAL/MOL
REMARK 922        TOTAL FREE ENERGY PREDICTED BY IDOCK:   -4.02 KCAL/MOL
REMARK 923 INTER-LIGAND FREE ENERGY PREDICTED BY IDOCK:   -4.27 KCAL/MOL
REMARK 924 INTRA-LIGAND FREE ENERGY PREDICTED BY IDOCK:    0.25 KCAL/MOL
REMARK 927      BINDING AFFINITY PREDICTED BY RF-SCORE:    0.00 PKD
ROOT
HETATM    1  C   UNL     1      -9.083  10.071  65.134  1.00  0.00    -0.247 C  
HETATM    2  C   UNL     1      -9.797  10.201  66.445  1.00  0.00    -0.279 C  
HETATM    3  C   UNL     1     -10.648  11.212  66.689  1.00  0.00    -0.314 C  
HETATM    4  C   UNL     1     -11.346  11.285  67.991  1.00  0.00    -0.304 C  
HETATM    5  O   UNL     1     -12.113  12.211  68.246  1.00  0.00    -0.407 OA 
HETATM    6  N   UNL     1     -11.068  10.260  68.875  1.00  0.00    -0.238 N  
HETATM    7  O   UNL     1     -11.749  10.331  70.102  1.00  0.00    -0.263 OA 
HETATM    8  C   UNL     1     -10.174   9.232  68.675  1.00  0.00    -0.199 C  
HETATM    9  C   UNL     1      -9.544   9.201  67.475  1.00  0.00    -0.186 C  
ENDROOT
BRANCH   8  10
HETATM   10  C   UNL     1      -9.851   8.177  69.742  1.00  0.00    -0.187 C  
HETATM   11  C   UNL     1      -9.485   8.637  71.178  1.00  0.00    -0.274 C  
HETATM   12  C   UNL     1     -10.584   8.528  72.245  1.00  0.00    -0.408 C  
HETATM   13  C   UNL     1     -11.384   7.241  72.144  1.00  0.00    -0.301 C  
HETATM   14  C   UNL     1     -11.953   7.078  70.742  1.00  0.00    -0.392 C  
HETATM   15  C   UNL     1     -10.832   6.988  69.717  1.00  0.00    -0.276 C  
ENDBRANCH   8  10
TORSDOF 1
ENDMDL
MODEL      123
REMARK 921   NORMALIZED FREE ENERGY PREDICTED BY IDOCK:   -3.52 KCAL/MOL
REMARK 922        TOTAL FREE ENERGY PREDICTED BY IDOCK:   -4.02 KCAL/MOL
REMARK 923 INTER-LIGAND FREE ENERGY PREDICTED BY IDOCK:   -3.67 KCAL/MOL
REMARK 924 INTRA-LIGAND FREE ENERGY PREDICTED BY IDOCK:   -0.35 KCAL/MOL
REMARK 927      BINDING AFFINITY PREDICTED BY RF-SCORE:    0.00 PKD
ROOT
HETATM    1  C   UNL     1      -9.479  15.020  67.071  1.00  0.00    -0.240 C  
HETATM    2  C   UNL     1     -10.236  14.136  68.016  1.00  0.00    -0.232 C  
HETATM    3  C   UNL     1     -11.171  14.626  68.846  1.00  0.00    -0.285 C  
HETATM    4  C   UNL     1     -11.907  13.710  69.745  1.00  0.00    -0.327 C  
HETATM    5  O   UNL     1     -12.752  14.137  70.528  1.00  0.00    -0.340 OA 
HETATM    6  N   UNL     1     -11.571  12.374  69.639  1.00  0.00    -0.281 N  
HETATM    7  O   UNL     1     -12.288  11.510  70.485  1.00  0.00    -0.350 OA 
HETATM    8  C   UNL     1     -10.592  11.842  68.830  1.00  0.00    -0.206 C  
HETATM    9  C   UNL     1      -9.931  12.711  68.027  1.00  0.00    -0.220 C  
ENDROOT
BRANCH   8  10
HETATM   10  C   UNL     1     -10.214  10.354  68.833  1.00  0.00    -0.220 C  
HETATM   11  C   UNL     1     -10.638   9.460  67.637  1.00  0.00    -0.333 C  
HETATM   12  C   UNL     1      -9.558   9.129  66.598  1.00  0.00    -0.263 C  
HETATM   13  C   UNL     1      -8.211   8.806  67.224  1.00  0.00    -0.104 C  
HETATM   14  C   UNL     1      -7.769   9.934  68.144  1.00  0.00    -0.082 C  
HETATM   15  C   UNL     1      -8.760  10.112  69.285  1.00  0.00    -0.186 C  
ENDBRANCH   8  10
TORSDOF 1
ENDMDL
MODEL      124
REMARK 921   NORMALIZED FREE ENERGY PREDICTED BY IDOCK:   -3.51 KCAL/MOL
REMARK 922        TOTAL FREE ENERGY PREDICTED BY IDOCK:   -4.01 KCAL/MOL
REMARK 923 INTER-LIGAND FREE ENERGY PREDICTED BY IDOCK:   -3.67 KCAL/MOL
REMARK 924 INTRA-LIGAND FREE ENERGY PREDICTED BY IDOCK:   -0.33 KCAL/MOL
REMARK 927      BINDING AFFINITY PREDICTED BY RF-SCORE:    0.00 PKD
ROOT
HETATM    1  C   UNL     1     -11.183  11.109  69.628  1.00  0.00    -0.333 C  
HETATM    2  C   UNL     1     -11.057   9.757  70.263  1.00  0.00    -0.349 C  
HETATM    3  C   UNL     1     -11.420   9.540  71.539  1.00  0.00    -0.466 C  
HETATM    4  C   UNL     1     -11.297   8.184  72.114  1.00  0.00    -0.336 C  
HETATM    5  O   UNL     1     -11.603   7.964  73.285  1.00  0.00    -0.252 OA 
HETATM    6  N   UNL     1     -10.819   7.212  71.257  1.00  0.00    -0.231 N  
HETATM    7  O   UNL     1     -10.722   5.923  71.809  1.00  0.00    -0.229 OA 
HETATM    8  C   UNL     1     -10.401   7.406  69.958  1.00  0.00    -0.219 C  
HETATM    9  C   UNL     1     -10.518   8.663  69.466  1.00  0.00    -0.222 C  
ENDROOT
BRANCH   8  10
HETATM   10  C   UNL     1      -9.796   6.292  69.093  1.00  0.00    -0.168 C  
HETATM   11  C   UNL     1     -10.679   5.596  68.025  1.00  0.00    -0.235 C  
HETATM   12  C   UNL     1     -10.480   6.031  66.566  1.00  0.00    -0.227 C  
HETATM   13  C   UNL     1      -9.018   6.221  66.197  1.00  0.00    -0.164 C  
HETATM   14  C   UNL     1      -8.349   7.189  67.162  1.00  0.00    -0.118 C  
HETATM   15  C   UNL     1      -8.383   6.640  68.580  1.00  0.00    -0.123 C  
ENDBRANCH   8  10
TORSDOF 1
ENDMDL
MODEL      125
REMARK 921   NORMALIZED FREE ENERGY PREDICTED BY IDOCK:   -3.49 KCAL/MOL
REMARK 922        TOTAL FREE ENERGY PREDICTED BY IDOCK:   -3.99 KCAL/MOL
REMARK 923 INTER-LIGAND FREE ENERGY PREDICTED BY IDOCK:   -3.77 KCAL/MOL
REMARK 924 INTRA-LIGAND FREE ENERGY PREDICTED BY IDOCK:   -0.21 KCAL/MOL
REMARK 927      BINDING AFFINITY PREDICTED BY RF-SCORE:    0.00 PKD
ROOT
HETATM    1  C   UNL     1      -5.610  13.753  68.714  1.00  0.00    -0.084 C  
HETATM    2  C   UNL     1      -6.891  13.854  67.944  1.00  0.00    -0.166 C  
HETATM    3  C   UNL     1      -7.586  12.762  67.583  1.00  0.00    -0.152 C  
HETATM    4  C   UNL     1      -8.857  12.914  66.842  1.00  0.00    -0.187 C  
HETATM    5  O   UNL     1      -9.501  11.931  66.482  1.00  0.00    -0.206 OA 
HETATM    6  N   UNL     1      -9.248  14.215  66.588  1.00  0.00    -0.268 N  
HETATM    7  O   UNL     1     -10.465  14.349  65.898  1.00  0.00    -0.286 OA 
HETATM    8  C   UNL     1      -8.542  15.354  66.907  1.00  0.00    -0.259 C  
HETATM    9  C   UNL     1      -7.377  15.178  67.577  1.00  0.00    -0.222 C  
ENDROOT
BRANCH   8  10
HETATM   10  C   UNL     1      -8.999  16.766  66.512  1.00  0.00    -0.304 C  
HETATM   11  C   UNL     1     -10.233  17.389  67.215  1.00  0.00    -0.324 C  
HETATM   12  C   UNL     1      -9.959  18.422  68.316  1.00  0.00    -0.394 C  
HETATM   13  C   UNL     1      -8.841  19.387  67.961  1.00  0.00    -0.369 C  
HETATM   14  C   UNL     1      -7.578  18.623  67.590  1.00  0.00    -0.243 C  
HETATM   15  C   UNL     1      -7.821  17.751  66.367  1.00  0.00    -0.312 C  
ENDBRANCH   8  10
TORSDOF 1
ENDMDL
MODEL      126
REMARK 921   NORMALIZED FREE ENERGY PREDICTED BY IDOCK:   -3.48 KCAL/MOL
REMARK 922        TOTAL FREE ENERGY PREDICTED BY IDOCK:   -3.98 KCAL/MOL
REMARK 923 INTER-LIGAND FREE ENERGY PREDICTED BY IDOCK:   -3.57 KCAL/MOL
REMARK 924 INTRA-LIGAND FREE ENERGY PREDICTED BY IDOCK:   -0.41 KCAL/MOL
REMARK 927      BINDING AFFINITY PREDICTED BY RF-SCORE:    0.00 PKD
ROOT
HETATM    1  C   UNL     1     -11.349  11.113  67.933  1.00  0.00    -0.378 C  
HETATM    2  C   UNL     1     -10.908  11.340  66.519  1.00  0.00    -0.319 C  
HETATM    3  C   UNL     1     -11.624  12.092  65.667  1.00  0.00    -0.409 C  
HETATM    4  C   UNL     1     -11.135  12.305  64.288  1.00  0.00    -0.348 C  
HETATM    5  O   UNL     1     -11.783  12.973  63.484  1.00  0.00    -0.487 OA 
HETATM    6  N   UNL     1      -9.929  11.705  63.983  1.00  0.00    -0.281 N  
HETATM    7  O   UNL     1      -9.466  11.927  62.675  1.00  0.00    -0.223 OA 
HETATM    8  C   UNL     1      -9.188  10.896  64.816  1.00  0.00    -0.201 C  
HETATM    9  C   UNL     1      -9.670  10.714  66.069  1.00  0.00    -0.258 C  
ENDROOT
BRANCH   8  10
HETATM   10  C   UNL     1      -7.899  10.189  64.376  1.00  0.00    -0.138 C  
HETATM   11  C   UNL     1      -6.657  10.227  65.304  1.00  0.00    -0.119 C  
HETATM   12  C   UNL     1      -6.368   8.968  66.133  1.00  0.00    -0.064 C  
HETATM   13  C   UNL     1      -6.571   7.682  65.349  1.00  0.00    -0.045 C  
HETATM   14  C   UNL     1      -7.968   7.643  64.746  1.00  0.00    -0.137 C  
HETATM   15  C   UNL     1      -8.163   8.795  63.772  1.00  0.00    -0.163 C  
ENDBRANCH   8  10
TORSDOF 1
ENDMDL
MODEL      127
REMARK 921   NORMALIZED FREE ENERGY PREDICTED BY IDOCK:   -3.47 KCAL/MOL
REMARK 922        TOTAL FREE ENERGY PREDICTED BY IDOCK:   -3.97 KCAL/MOL
REMARK 923 INTER-LIGAND FREE ENERGY PREDICTED BY IDOCK:   -3.59 KCAL/MOL
REMARK 924 INTRA-LIGAND FREE ENERGY PREDICTED BY IDOCK:   -0.38 KCAL/MOL
REMARK 927      BINDING AFFINITY PREDICTED BY RF-SCORE:    0.00 PKD
ROOT
HETATM    1  C   UNL     1     -11.547  15.107  64.632  1.00  0.00    -0.357 C  
HETATM    2  C   UNL     1     -10.367  14.852  65.521  1.00  0.00    -0.388 C  
HETATM    3  C   UNL     1      -9.542  15.842  65.899  1.00  0.00    -0.378 C  
HETATM    4  C   UNL     1      -8.404  15.545  66.796  1.00  0.00    -0.265 C  
HETATM    5  O   UNL     1      -7.622  16.429  67.139  1.00  0.00    -0.152 OA 
HETATM    6  N   UNL     1      -8.290  14.229  67.200  1.00  0.00    -0.200 N  
HETATM    7  O   UNL     1      -7.215  13.961  68.064  1.00  0.00    -0.108 OA 
HETATM    8  C   UNL     1      -9.093  13.183  66.801  1.00  0.00    -0.209 C  
HETATM    9  C   UNL     1     -10.120  13.489  65.971  1.00  0.00    -0.316 C  
ENDROOT
BRANCH   8  10
HETATM   10  C   UNL     1      -8.850  11.727  67.223  1.00  0.00    -0.167 C  
HETATM   11  C   UNL     1     -10.064  10.816  67.542  1.00  0.00    -0.218 C  
HETATM   12  C   UNL     1     -10.487   9.815  66.459  1.00  0.00    -0.212 C  
HETATM   13  C   UNL     1      -9.307   9.135  65.785  1.00  0.00    -0.309 C  
HETATM   14  C   UNL     1      -8.340  10.173  65.235  1.00  0.00    -0.162 C  
HETATM   15  C   UNL     1      -7.778  11.030  66.360  1.00  0.00    -0.146 C  
ENDBRANCH   8  10
TORSDOF 1
ENDMDL
MODEL      128
REMARK 921   NORMALIZED FREE ENERGY PREDICTED BY IDOCK:   -3.47 KCAL/MOL
REMARK 922        TOTAL FREE ENERGY PREDICTED BY IDOCK:   -3.97 KCAL/MOL
REMARK 923 INTER-LIGAND FREE ENERGY PREDICTED BY IDOCK:   -3.61 KCAL/MOL
REMARK 924 INTRA-LIGAND FREE ENERGY PREDICTED BY IDOCK:   -0.35 KCAL/MOL
REMARK 927      BINDING AFFINITY PREDICTED BY RF-SCORE:    0.00 PKD
ROOT
HETATM    1  C   UNL     1      -6.144  12.071  67.165  1.00  0.00    -0.155 C  
HETATM    2  C   UNL     1      -7.305  11.124  67.185  1.00  0.00    -0.121 C  
HETATM    3  C   UNL     1      -7.145   9.816  67.442  1.00  0.00    -0.085 C  
HETATM    4  C   UNL     1      -8.325   8.925  67.472  1.00  0.00    -0.109 C  
HETATM    5  O   UNL     1      -8.203   7.720  67.684  1.00  0.00    -0.122 OA 
HETATM    6  N   UNL     1      -9.542   9.538  67.241  1.00  0.00    -0.146 N  
HETATM    7  O   UNL     1     -10.658   8.686  67.288  1.00  0.00    -0.291 OA 
HETATM    8  C   UNL     1      -9.739  10.866  66.936  1.00  0.00    -0.181 C  
HETATM    9  C   UNL     1      -8.635  11.652  66.907  1.00  0.00    -0.174 C  
ENDROOT
BRANCH   8  10
HETATM   10  C   UNL     1     -11.116  11.459  66.603  1.00  0.00    -0.333 C  
HETATM   11  C   UNL     1     -11.814  12.384  67.634  1.00  0.00    -0.363 C  
HETATM   12  C   UNL     1     -11.752  13.894  67.368  1.00  0.00    -0.422 C  
HETATM   13  C   UNL     1     -11.967  14.249  65.906  1.00  0.00    -0.400 C  
HETATM   14  C   UNL     1     -10.985  13.489  65.026  1.00  0.00    -0.342 C  
HETATM   15  C   UNL     1     -11.200  11.988  65.157  1.00  0.00    -0.368 C  
ENDBRANCH   8  10
TORSDOF 1
ENDMDL
MODEL      129
REMARK 921   NORMALIZED FREE ENERGY PREDICTED BY IDOCK:   -3.46 KCAL/MOL
REMARK 922        TOTAL FREE ENERGY PREDICTED BY IDOCK:   -3.96 KCAL/MOL
REMARK 923 INTER-LIGAND FREE ENERGY PREDICTED BY IDOCK:   -4.16 KCAL/MOL
REMARK 924 INTRA-LIGAND FREE ENERGY PREDICTED BY IDOCK:    0.20 KCAL/MOL
REMARK 927      BINDING AFFINITY PREDICTED BY RF-SCORE:    0.00 PKD
ROOT
HETATM    1  C   UNL     1      -8.751  19.264  69.085  1.00  0.00    -0.156 C  
HETATM    2  C   UNL     1      -9.337  18.115  68.321  1.00  0.00    -0.312 C  
HETATM    3  C   UNL     1      -8.900  17.787  67.094  1.00  0.00    -0.251 C  
HETATM    4  C   UNL     1      -9.495  16.631  66.389  1.00  0.00    -0.280 C  
HETATM    5  O   UNL     1      -9.127  16.322  65.258  1.00  0.00    -0.089 OA 
HETATM    6  N   UNL     1     -10.476  15.948  67.083  1.00  0.00    -0.309 N  
HETATM    7  O   UNL     1     -11.023  14.842  66.412  1.00  0.00    -0.326 OA 
HETATM    8  C   UNL     1     -10.976  16.280  68.323  1.00  0.00    -0.348 C  
HETATM    9  C   UNL     1     -10.415  17.351  68.937  1.00  0.00    -0.312 C  
ENDROOT
BRANCH   8  10
HETATM   10  C   UNL     1     -12.131  15.525  68.995  1.00  0.00    -0.246 C  
HETATM   11  C   UNL     1     -12.270  13.996  68.772  1.00  0.00    -0.237 C  
HETATM   12  C   UNL     1     -11.790  13.080  69.906  1.00  0.00    -0.377 C  
HETATM   13  C   UNL     1     -12.179  13.588  71.284  1.00  0.00    -0.209 C  
HETATM   14  C   UNL     1     -11.694  15.017  71.480  1.00  0.00    -0.426 C  
HETATM   15  C   UNL     1     -12.341  15.946  70.464  1.00  0.00    -0.280 C  
ENDBRANCH   8  10
TORSDOF 1
ENDMDL
MODEL      130
REMARK 921   NORMALIZED FREE ENERGY PREDICTED BY IDOCK:   -3.44 KCAL/MOL
REMARK 922        TOTAL FREE ENERGY PREDICTED BY IDOCK:   -3.94 KCAL/MOL
REMARK 923 INTER-LIGAND FREE ENERGY PREDICTED BY IDOCK:   -3.55 KCAL/MOL
REMARK 924 INTRA-LIGAND FREE ENERGY PREDICTED BY IDOCK:   -0.39 KCAL/MOL
REMARK 927      BINDING AFFINITY PREDICTED BY RF-SCORE:    0.00 PKD
ROOT
HETATM    1  C   UNL     1     -11.894  15.819  69.564  1.00  0.00    -0.359 C  
HETATM    2  C   UNL     1     -10.553  15.541  68.954  1.00  0.00    -0.240 C  
HETATM    3  C   UNL     1     -10.021  14.307  68.952  1.00  0.00    -0.160 C  
HETATM    4  C   UNL     1      -8.705  14.078  68.317  1.00  0.00    -0.182 C  
HETATM    5  O   UNL     1      -8.188  12.963  68.320  1.00  0.00    -0.150 OA 
HETATM    6  N   UNL     1      -8.118  15.189  67.743  1.00  0.00    -0.137 N  
HETATM    7  O   UNL     1      -6.875  14.957  67.129  1.00  0.00    -0.252 OA 
HETATM    8  C   UNL     1      -8.614  16.473  67.762  1.00  0.00    -0.177 C  
HETATM    9  C   UNL     1      -9.818  16.650  68.360  1.00  0.00    -0.252 C  
ENDROOT
BRANCH   8  10
HETATM   10  C   UNL     1      -7.860  17.676  67.179  1.00  0.00    -0.229 C  
HETATM   11  C   UNL     1      -8.645  18.753  66.385  1.00  0.00    -0.294 C  
HETATM   12  C   UNL     1      -8.971  20.060  67.120  1.00  0.00    -0.441 C  
HETATM   13  C   UNL     1      -7.816  20.570  67.965  1.00  0.00    -0.057 C  
HETATM   14  C   UNL     1      -7.349  19.491  68.931  1.00  0.00    -0.398 C  
HETATM   15  C   UNL     1      -6.841  18.275  68.170  1.00  0.00    -0.218 C  
ENDBRANCH   8  10
TORSDOF 1
ENDMDL
MODEL      131
REMARK 921   NORMALIZED FREE ENERGY PREDICTED BY IDOCK:   -3.42 KCAL/MOL
REMARK 922        TOTAL FREE ENERGY PREDICTED BY IDOCK:   -3.92 KCAL/MOL
REMARK 923 INTER-LIGAND FREE ENERGY PREDICTED BY IDOCK:   -3.52 KCAL/MOL
REMARK 924 INTRA-LIGAND FREE ENERGY PREDICTED BY IDOCK:   -0.40 KCAL/MOL
REMARK 927      BINDING AFFINITY PREDICTED BY RF-SCORE:    0.00 PKD
ROOT
HETATM    1  C   UNL     1     -10.201   9.068  69.933  1.00  0.00    -0.214 C  
HETATM    2  C   UNL     1      -9.269  10.086  69.348  1.00  0.00    -0.229 C  
HETATM    3  C   UNL     1      -7.960  10.100  69.649  1.00  0.00    -0.181 C  
HETATM    4  C   UNL     1      -7.077  11.111  69.028  1.00  0.00    -0.113 C  
HETATM    5  O   UNL     1      -5.879  11.158  69.303  1.00  0.00    -0.041 OA 
HETATM    6  N   UNL     1      -7.690  11.978  68.145  1.00  0.00    -0.125 N  
HETATM    7  O   UNL     1      -6.839  12.924  67.548  1.00  0.00    -0.141 OA 
HETATM    8  C   UNL     1      -9.034  12.018  67.844  1.00  0.00    -0.182 C  
HETATM    9  C   UNL     1      -9.816  11.084  68.438  1.00  0.00    -0.186 C  
ENDROOT
BRANCH   8  10
HETATM   10  C   UNL     1      -9.658  13.071  66.918  1.00  0.00    -0.243 C  
HETATM   11  C   UNL     1     -10.413  12.610  65.643  1.00  0.00    -0.298 C  
HETATM   12  C   UNL     1     -11.947  12.608  65.705  1.00  0.00    -0.503 C  
HETATM   13  C   UNL     1     -12.515  13.830  66.407  1.00  0.00    -0.404 C  
HETATM   14  C   UNL     1     -11.903  13.978  67.792  1.00  0.00    -0.419 C  
HETATM   15  C   UNL     1     -10.398  14.180  67.694  1.00  0.00    -0.241 C  
ENDBRANCH   8  10
TORSDOF 1
ENDMDL
MODEL      132
REMARK 921   NORMALIZED FREE ENERGY PREDICTED BY IDOCK:   -3.41 KCAL/MOL
REMARK 922        TOTAL FREE ENERGY PREDICTED BY IDOCK:   -3.91 KCAL/MOL
REMARK 923 INTER-LIGAND FREE ENERGY PREDICTED BY IDOCK:   -4.14 KCAL/MOL
REMARK 924 INTRA-LIGAND FREE ENERGY PREDICTED BY IDOCK:    0.24 KCAL/MOL
REMARK 927      BINDING AFFINITY PREDICTED BY RF-SCORE:    0.00 PKD
ROOT
HETATM    1  C   UNL     1      -6.071  20.474  68.886  1.00  0.00    -0.369 C  
HETATM    2  C   UNL     1      -6.565  19.059  68.915  1.00  0.00    -0.306 C  
HETATM    3  C   UNL     1      -5.889  18.088  69.551  1.00  0.00    -0.236 C  
HETATM    4  C   UNL     1      -6.429  16.711  69.570  1.00  0.00    -0.224 C  
HETATM    5  O   UNL     1      -5.819  15.801  70.127  1.00  0.00    -0.157 OA 
HETATM    6  N   UNL     1      -7.637  16.535  68.924  1.00  0.00    -0.227 N  
HETATM    7  O   UNL     1      -8.149  15.227  68.963  1.00  0.00    -0.169 OA 
HETATM    8  C   UNL     1      -8.337  17.497  68.230  1.00  0.00    -0.265 C  
HETATM    9  C   UNL     1      -7.809  18.745  68.224  1.00  0.00    -0.333 C  
ENDROOT
BRANCH   8  10
HETATM   10  C   UNL     1      -9.632  17.205  67.460  1.00  0.00    -0.254 C  
HETATM   11  C   UNL     1      -9.643  16.078  66.393  1.00  0.00    -0.309 C  
HETATM   12  C   UNL     1     -10.276  14.740  66.799  1.00  0.00    -0.266 C  
HETATM   13  C   UNL     1     -11.556  14.908  67.600  1.00  0.00    -0.357 C  
HETATM   14  C   UNL     1     -11.313  15.798  68.810  1.00  0.00    -0.362 C  
HETATM   15  C   UNL     1     -10.875  17.188  68.373  1.00  0.00    -0.309 C  
ENDBRANCH   8  10
TORSDOF 1
ENDMDL
MODEL      133
REMARK 921   NORMALIZED FREE ENERGY PREDICTED BY IDOCK:   -3.35 KCAL/MOL
REMARK 922        TOTAL FREE ENERGY PREDICTED BY IDOCK:   -3.84 KCAL/MOL
REMARK 923 INTER-LIGAND FREE ENERGY PREDICTED BY IDOCK:   -3.53 KCAL/MOL
REMARK 924 INTRA-LIGAND FREE ENERGY PREDICTED BY IDOCK:   -0.32 KCAL/MOL
REMARK 927      BINDING AFFINITY PREDICTED BY RF-SCORE:    0.00 PKD
ROOT
HETATM    1  C   UNL     1     -11.104   6.758  68.111  1.00  0.00    -0.229 C  
HETATM    2  C   UNL     1     -10.270   7.550  67.149  1.00  0.00    -0.350 C  
HETATM    3  C   UNL     1      -9.339   6.967  66.376  1.00  0.00    -0.182 C  
HETATM    4  C   UNL     1      -8.556   7.788  65.427  1.00  0.00    -0.070 C  
HETATM    5  O   UNL     1      -7.685   7.282  64.724  1.00  0.00    -0.100 OA 
HETATM    6  N   UNL     1      -8.871   9.133  65.401  1.00  0.00    -0.185 N  
HETATM    7  O   UNL     1      -8.133   9.901  64.484  1.00  0.00    -0.135 OA 
HETATM    8  C   UNL     1      -9.790   9.770  66.205  1.00  0.00    -0.250 C  
HETATM    9  C   UNL     1     -10.482   8.990  67.071  1.00  0.00    -0.316 C  
ENDROOT
BRANCH   8  10
HETATM   10  C   UNL     1     -10.022  11.287  66.180  1.00  0.00    -0.268 C  
HETATM   11  C   UNL     1     -11.430  11.846  66.514  1.00  0.00    -0.381 C  
HETATM   12  C   UNL     1     -11.632  12.430  67.919  1.00  0.00    -0.415 C  
HETATM   13  C   UNL     1     -10.456  13.271  68.387  1.00  0.00    -0.261 C  
HETATM   14  C   UNL     1      -9.164  12.474  68.298  1.00  0.00    -0.186 C  
HETATM   15  C   UNL     1      -8.881  12.074  66.857  1.00  0.00    -0.197 C  
ENDBRANCH   8  10
TORSDOF 1
ENDMDL
MODEL      134
REMARK 921   NORMALIZED FREE ENERGY PREDICTED BY IDOCK:   -3.33 KCAL/MOL
REMARK 922        TOTAL FREE ENERGY PREDICTED BY IDOCK:   -3.82 KCAL/MOL
REMARK 923 INTER-LIGAND FREE ENERGY PREDICTED BY IDOCK:   -3.43 KCAL/MOL
REMARK 924 INTRA-LIGAND FREE ENERGY PREDICTED BY IDOCK:   -0.39 KCAL/MOL
REMARK 927      BINDING AFFINITY PREDICTED BY RF-SCORE:    0.00 PKD
ROOT
HETATM    1  C   UNL     1     -10.909   6.171  67.829  1.00  0.00    -0.413 C  
HETATM    2  C   UNL     1     -10.931   6.126  69.326  1.00  0.00    -0.450 C  
HETATM    3  C   UNL     1     -11.570   7.059  70.052  1.00  0.00    -0.226 C  
HETATM    4  C   UNL     1     -11.582   6.959  71.527  1.00  0.00    -0.290 C  
HETATM    5  O   UNL     1     -12.142   7.811  72.214  1.00  0.00    -0.311 OA 
HETATM    6  N   UNL     1     -10.926   5.864  72.057  1.00  0.00    -0.255 N  
HETATM    7  O   UNL     1     -10.958   5.769  73.458  1.00  0.00    -0.262 OA 
HETATM    8  C   UNL     1     -10.229   4.911  71.347  1.00  0.00    -0.187 C  
HETATM    9  C   UNL     1     -10.230   5.039  69.998  1.00  0.00    -0.339 C  
ENDROOT
BRANCH   8  10
HETATM   10  C   UNL     1      -9.448   3.770  72.013  1.00  0.00    -0.200 C  
HETATM   11  C   UNL     1      -9.833   2.300  71.696  1.00  0.00    -0.219 C  
HETATM   12  C   UNL     1      -8.940   1.546  70.702  1.00  0.00    -0.127 C  
HETATM   13  C   UNL     1      -7.459   1.813  70.913  1.00  0.00    -0.033 C  
HETATM   14  C   UNL     1      -7.180   3.308  70.885  1.00  0.00    -0.033 C  
HETATM   15  C   UNL     1      -7.925   4.012  72.010  1.00  0.00    -0.084 C  
ENDBRANCH   8  10
TORSDOF 1
ENDMDL
MODEL      135
REMARK 921   NORMALIZED FREE ENERGY PREDICTED BY IDOCK:   -3.31 KCAL/MOL
REMARK 922        TOTAL FREE ENERGY PREDICTED BY IDOCK:   -3.80 KCAL/MOL
REMARK 923 INTER-LIGAND FREE ENERGY PREDICTED BY IDOCK:   -3.59 KCAL/MOL
REMARK 924 INTRA-LIGAND FREE ENERGY PREDICTED BY IDOCK:   -0.21 KCAL/MOL
REMARK 927      BINDING AFFINITY PREDICTED BY RF-SCORE:    0.00 PKD
ROOT
HETATM    1  C   UNL     1      -8.115   2.902  70.294  1.00  0.00    -0.056 C  
HETATM    2  C   UNL     1      -9.163   3.940  70.560  1.00  0.00    -0.203 C  
HETATM    3  C   UNL     1      -9.739   4.070  71.767  1.00  0.00    -0.241 C  
HETATM    4  C   UNL     1     -10.753   5.124  71.985  1.00  0.00    -0.169 C  
HETATM    5  O   UNL     1     -11.309   5.250  73.074  1.00  0.00    -0.305 OA 
HETATM    6  N   UNL     1     -11.022   5.928  70.895  1.00  0.00    -0.279 N  
HETATM    7  O   UNL     1     -11.975   6.937  71.118  1.00  0.00    -0.329 OA 
HETATM    8  C   UNL     1     -10.482   5.799  69.634  1.00  0.00    -0.293 C  
HETATM    9  C   UNL     1      -9.564   4.817  69.466  1.00  0.00    -0.250 C  
ENDROOT
BRANCH   8  10
HETATM   10  C   UNL     1     -10.898   6.677  68.446  1.00  0.00    -0.320 C  
HETATM   11  C   UNL     1     -10.486   8.172  68.425  1.00  0.00    -0.205 C  
HETATM   12  C   UNL     1      -9.295   8.554  67.535  1.00  0.00    -0.169 C  
HETATM   13  C   UNL     1      -9.312   7.852  66.188  1.00  0.00    -0.188 C  
HETATM   14  C   UNL     1      -9.405   6.345  66.376  1.00  0.00    -0.176 C  
HETATM   15  C   UNL     1     -10.696   5.973  67.089  1.00  0.00    -0.409 C  
ENDBRANCH   8  10
TORSDOF 1
ENDMDL
MODEL      136
REMARK 921   NORMALIZED FREE ENERGY PREDICTED BY IDOCK:   -3.31 KCAL/MOL
REMARK 922        TOTAL FREE ENERGY PREDICTED BY IDOCK:   -3.80 KCAL/MOL
REMARK 923 INTER-LIGAND FREE ENERGY PREDICTED BY IDOCK:   -3.47 KCAL/MOL
REMARK 924 INTRA-LIGAND FREE ENERGY PREDICTED BY IDOCK:   -0.33 KCAL/MOL
REMARK 927      BINDING AFFINITY PREDICTED BY RF-SCORE:    0.00 PKD
ROOT
HETATM    1  C   UNL     1     -11.856  12.685  65.781  1.00  0.00    -0.497 C  
HETATM    2  C   UNL     1     -10.529  12.870  66.452  1.00  0.00    -0.278 C  
HETATM    3  C   UNL     1      -9.774  11.823  66.824  1.00  0.00    -0.213 C  
HETATM    4  C   UNL     1      -8.461  12.057  67.463  1.00  0.00    -0.165 C  
HETATM    5  O   UNL     1      -7.761  11.116  67.831  1.00  0.00    -0.100 OA 
HETATM    6  N   UNL     1      -8.099  13.381  67.616  1.00  0.00    -0.161 N  
HETATM    7  O   UNL     1      -6.843  13.592  68.210  1.00  0.00    -0.085 OA 
HETATM    8  C   UNL     1      -8.864  14.478  67.285  1.00  0.00    -0.208 C  
HETATM    9  C   UNL     1     -10.066  14.227  66.710  1.00  0.00    -0.264 C  
ENDROOT
BRANCH   8  10
HETATM   10  C   UNL     1      -8.431  15.923  67.567  1.00  0.00    -0.181 C  
HETATM   11  C   UNL     1      -8.873  17.051  66.599  1.00  0.00    -0.282 C  
HETATM   12  C   UNL     1     -10.044  17.936  67.049  1.00  0.00    -0.340 C  
HETATM   13  C   UNL     1      -9.973  18.313  68.519  1.00  0.00    -0.413 C  
HETATM   14  C   UNL     1      -9.855  17.065  69.382  1.00  0.00    -0.033 C  
HETATM   15  C   UNL     1      -8.578  16.306  69.054  1.00  0.00    -0.247 C  
ENDBRANCH   8  10
TORSDOF 1
ENDMDL
MODEL      137
REMARK 921   NORMALIZED FREE ENERGY PREDICTED BY IDOCK:   -3.28 KCAL/MOL
REMARK 922        TOTAL FREE ENERGY PREDICTED BY IDOCK:   -3.77 KCAL/MOL
REMARK 923 INTER-LIGAND FREE ENERGY PREDICTED BY IDOCK:   -3.74 KCAL/MOL
REMARK 924 INTRA-LIGAND FREE ENERGY PREDICTED BY IDOCK:   -0.03 KCAL/MOL
REMARK 927      BINDING AFFINITY PREDICTED BY RF-SCORE:    0.00 PKD
ROOT
HETATM    1  C   UNL     1     -10.841  16.242  69.177  1.00  0.00    -0.314 C  
HETATM    2  C   UNL     1     -10.039  15.074  68.690  1.00  0.00    -0.233 C  
HETATM    3  C   UNL     1      -8.845  15.235  68.097  1.00  0.00    -0.171 C  
HETATM    4  C   UNL     1      -8.081  14.049  67.653  1.00  0.00    -0.174 C  
HETATM    5  O   UNL     1      -6.996  14.170  67.089  1.00  0.00    -0.146 OA 
HETATM    6  N   UNL     1      -8.673  12.827  67.911  1.00  0.00    -0.176 N  
HETATM    7  O   UNL     1      -7.931  11.706  67.501  1.00  0.00    -0.127 OA 
HETATM    8  C   UNL     1      -9.911  12.626  68.481  1.00  0.00    -0.148 C  
HETATM    9  C   UNL     1     -10.588  13.735  68.866  1.00  0.00    -0.224 C  
ENDROOT
BRANCH   8  10
HETATM   10  C   UNL     1     -10.542  11.238  68.655  1.00  0.00    -0.231 C  
HETATM   11  C   UNL     1      -9.734  10.119  69.363  1.00  0.00    -0.247 C  
HETATM   12  C   UNL     1     -10.094   9.819  70.825  1.00  0.00    -0.200 C  
HETATM   13  C   UNL     1     -11.593   9.818  71.079  1.00  0.00    -0.455 C  
HETATM   14  C   UNL     1     -12.211  11.127  70.611  1.00  0.00    -0.492 C  
HETATM   15  C   UNL     1     -12.013  11.308  69.114  1.00  0.00    -0.405 C  
ENDBRANCH   8  10
TORSDOF 1
ENDMDL
MODEL      138
REMARK 921   NORMALIZED FREE ENERGY PREDICTED BY IDOCK:   -3.28 KCAL/MOL
REMARK 922        TOTAL FREE ENERGY PREDICTED BY IDOCK:   -3.77 KCAL/MOL
REMARK 923 INTER-LIGAND FREE ENERGY PREDICTED BY IDOCK:   -3.48 KCAL/MOL
REMARK 924 INTRA-LIGAND FREE ENERGY PREDICTED BY IDOCK:   -0.29 KCAL/MOL
REMARK 927      BINDING AFFINITY PREDICTED BY RF-SCORE:    0.00 PKD
ROOT
HETATM    1  C   UNL     1      -5.687   9.103  69.284  1.00  0.00    -0.035 C  
HETATM    2  C   UNL     1      -7.125   9.078  69.707  1.00  0.00    -0.055 C  
HETATM    3  C   UNL     1      -7.481   8.913  70.992  1.00  0.00    -0.124 C  
HETATM    4  C   UNL     1      -8.912   8.918  71.362  1.00  0.00    -0.229 C  
HETATM    5  O   UNL     1      -9.264   8.748  72.528  1.00  0.00    -0.347 OA 
HETATM    6  N   UNL     1      -9.798   9.116  70.320  1.00  0.00    -0.193 N  
HETATM    7  O   UNL     1     -11.155   9.135  70.685  1.00  0.00    -0.240 OA 
HETATM    8  C   UNL     1      -9.472   9.248  68.988  1.00  0.00    -0.155 C  
HETATM    9  C   UNL     1      -8.151   9.229  68.683  1.00  0.00    -0.105 C  
ENDROOT
BRANCH   8  10
HETATM   10  C   UNL     1     -10.519   9.376  67.874  1.00  0.00    -0.296 C  
HETATM   11  C   UNL     1     -11.131  10.767  67.562  1.00  0.00    -0.374 C  
HETATM   12  C   UNL     1     -10.588  11.506  66.331  1.00  0.00    -0.304 C  
HETATM   13  C   UNL     1     -10.374  10.592  65.136  1.00  0.00    -0.331 C  
HETATM   14  C   UNL     1      -9.483   9.420  65.517  1.00  0.00    -0.328 C  
HETATM   15  C   UNL     1     -10.137   8.583  66.607  1.00  0.00    -0.364 C  
ENDBRANCH   8  10
TORSDOF 1
ENDMDL
MODEL      139
REMARK 921   NORMALIZED FREE ENERGY PREDICTED BY IDOCK:   -3.25 KCAL/MOL
REMARK 922        TOTAL FREE ENERGY PREDICTED BY IDOCK:   -3.74 KCAL/MOL
REMARK 923 INTER-LIGAND FREE ENERGY PREDICTED BY IDOCK:   -3.96 KCAL/MOL
REMARK 924 INTRA-LIGAND FREE ENERGY PREDICTED BY IDOCK:    0.22 KCAL/MOL
REMARK 927      BINDING AFFINITY PREDICTED BY RF-SCORE:    0.00 PKD
ROOT
HETATM    1  C   UNL     1     -12.036  13.324  67.658  1.00  0.00    -0.366 C  
HETATM    2  C   UNL     1     -11.272  12.196  67.034  1.00  0.00    -0.370 C  
HETATM    3  C   UNL     1     -11.033  12.150  65.713  1.00  0.00    -0.338 C  
HETATM    4  C   UNL     1     -10.254  11.026  65.148  1.00  0.00    -0.291 C  
HETATM    5  O   UNL     1     -10.040  10.950  63.940  1.00  0.00    -0.309 OA 
HETATM    6  N   UNL     1      -9.806  10.092  66.062  1.00  0.00    -0.239 N  
HETATM    7  O   UNL     1      -9.053   9.037  65.517  1.00  0.00    -0.207 OA 
HETATM    8  C   UNL     1     -10.065  10.086  67.415  1.00  0.00    -0.208 C  
HETATM    9  C   UNL     1     -10.790  11.125  67.898  1.00  0.00    -0.285 C  
ENDROOT
BRANCH   8  10
HETATM   10  C   UNL     1      -9.607   8.963  68.355  1.00  0.00    -0.157 C  
HETATM   11  C   UNL     1      -9.995   9.023  69.856  1.00  0.00    -0.203 C  
HETATM   12  C   UNL     1     -11.158   8.130  70.310  1.00  0.00    -0.221 C  
HETATM   13  C   UNL     1     -11.119   6.743  69.690  1.00  0.00    -0.343 C  
HETATM   14  C   UNL     1     -11.054   6.842  68.173  1.00  0.00    -0.229 C  
HETATM   15  C   UNL     1      -9.786   7.561  67.738  1.00  0.00    -0.191 C  
ENDBRANCH   8  10
TORSDOF 1
ENDMDL
MODEL      140
REMARK 921   NORMALIZED FREE ENERGY PREDICTED BY IDOCK:   -3.20 KCAL/MOL
REMARK 922        TOTAL FREE ENERGY PREDICTED BY IDOCK:   -3.69 KCAL/MOL
REMARK 923 INTER-LIGAND FREE ENERGY PREDICTED BY IDOCK:   -3.28 KCAL/MOL
REMARK 924 INTRA-LIGAND FREE ENERGY PREDICTED BY IDOCK:   -0.41 KCAL/MOL
REMARK 927      BINDING AFFINITY PREDICTED BY RF-SCORE:    0.00 PKD
ROOT
HETATM    1  C   UNL     1      -6.752   9.785  67.019  1.00  0.00    -0.075 C  
HETATM    2  C   UNL     1      -8.020   9.902  67.810  1.00  0.00    -0.105 C  
HETATM    3  C   UNL     1      -8.469   8.894  68.576  1.00  0.00    -0.129 C  
HETATM    4  C   UNL     1      -9.714   9.066  69.355  1.00  0.00    -0.169 C  
HETATM    5  O   UNL     1     -10.158   8.152  70.047  1.00  0.00    -0.190 OA 
HETATM    6  N   UNL     1     -10.325  10.300  69.241  1.00  0.00    -0.216 N  
HETATM    7  O   UNL     1     -11.498  10.458  69.999  1.00  0.00    -0.264 OA 
HETATM    8  C   UNL     1      -9.915  11.340  68.436  1.00  0.00    -0.197 C  
HETATM    9  C   UNL     1      -8.776  11.145  67.728  1.00  0.00    -0.132 C  
ENDROOT
BRANCH   8  10
HETATM   10  C   UNL     1     -10.697  12.653  68.293  1.00  0.00    -0.248 C  
HETATM   11  C   UNL     1      -9.939  14.003  68.389  1.00  0.00    -0.236 C  
HETATM   12  C   UNL     1      -9.633  14.725  67.069  1.00  0.00    -0.248 C  
HETATM   13  C   UNL     1     -10.793  14.683  66.087  1.00  0.00    -0.321 C  
HETATM   14  C   UNL     1     -11.232  13.246  65.846  1.00  0.00    -0.309 C  
HETATM   15  C   UNL     1     -11.720  12.612  67.140  1.00  0.00    -0.438 C  
ENDBRANCH   8  10
TORSDOF 1
ENDMDL
MODEL      141
REMARK 921   NORMALIZED FREE ENERGY PREDICTED BY IDOCK:   -3.20 KCAL/MOL
REMARK 922        TOTAL FREE ENERGY PREDICTED BY IDOCK:   -3.68 KCAL/MOL
REMARK 923 INTER-LIGAND FREE ENERGY PREDICTED BY IDOCK:   -3.32 KCAL/MOL
REMARK 924 INTRA-LIGAND FREE ENERGY PREDICTED BY IDOCK:   -0.37 KCAL/MOL
REMARK 927      BINDING AFFINITY PREDICTED BY RF-SCORE:    0.00 PKD
ROOT
HETATM    1  C   UNL     1     -11.516   6.411  69.722  1.00  0.00    -0.468 C  
HETATM    2  C   UNL     1     -10.665   6.540  68.495  1.00  0.00    -0.329 C  
HETATM    3  C   UNL     1     -10.201   5.462  67.841  1.00  0.00    -0.219 C  
HETATM    4  C   UNL     1      -9.384   5.641  66.622  1.00  0.00    -0.144 C  
HETATM    5  O   UNL     1      -8.930   4.671  66.017  1.00  0.00    -0.118 OA 
HETATM    6  N   UNL     1      -9.172   6.949  66.231  1.00  0.00    -0.149 N  
HETATM    7  O   UNL     1      -8.408   7.107  65.062  1.00  0.00    -0.125 OA 
HETATM    8  C   UNL     1      -9.598   8.077  66.898  1.00  0.00    -0.204 C  
HETATM    9  C   UNL     1     -10.336   7.877  68.017  1.00  0.00    -0.264 C  
ENDROOT
BRANCH   8  10
HETATM   10  C   UNL     1      -9.247   9.502  66.450  1.00  0.00    -0.210 C  
HETATM   11  C   UNL     1     -10.369  10.426  65.906  1.00  0.00    -0.261 C  
HETATM   12  C   UNL     1     -10.918  11.492  66.864  1.00  0.00    -0.350 C  
HETATM   13  C   UNL     1      -9.833  12.175  67.678  1.00  0.00    -0.194 C  
HETATM   14  C   UNL     1      -8.994  11.143  68.418  1.00  0.00    -0.165 C  
HETATM   15  C   UNL     1      -8.297  10.216  67.434  1.00  0.00    -0.118 C  
ENDBRANCH   8  10
TORSDOF 1
ENDMDL
MODEL      142
REMARK 921   NORMALIZED FREE ENERGY PREDICTED BY IDOCK:   -3.20 KCAL/MOL
REMARK 922        TOTAL FREE ENERGY PREDICTED BY IDOCK:   -3.68 KCAL/MOL
REMARK 923 INTER-LIGAND FREE ENERGY PREDICTED BY IDOCK:   -4.00 KCAL/MOL
REMARK 924 INTRA-LIGAND FREE ENERGY PREDICTED BY IDOCK:    0.31 KCAL/MOL
REMARK 927      BINDING AFFINITY PREDICTED BY RF-SCORE:    0.00 PKD
ROOT
HETATM    1  C   UNL     1      -8.182  17.353  66.224  1.00  0.00    -0.288 C  
HETATM    2  C   UNL     1      -8.223  15.962  66.778  1.00  0.00    -0.307 C  
HETATM    3  C   UNL     1      -7.114  15.341  67.213  1.00  0.00    -0.187 C  
HETATM    4  C   UNL     1      -7.210  13.976  67.773  1.00  0.00    -0.165 C  
HETATM    5  O   UNL     1      -6.207  13.379  68.158  1.00  0.00    -0.085 OA 
HETATM    6  N   UNL     1      -8.481  13.438  67.820  1.00  0.00    -0.167 N  
HETATM    7  O   UNL     1      -8.563  12.147  68.369  1.00  0.00    -0.171 OA 
HETATM    8  C   UNL     1      -9.633  14.028  67.348  1.00  0.00    -0.227 C  
HETATM    9  C   UNL     1      -9.508  15.275  66.832  1.00  0.00    -0.249 C  
ENDROOT
BRANCH   8  10
HETATM   10  C   UNL     1     -11.000  13.330  67.354  1.00  0.00    -0.287 C  
HETATM   11  C   UNL     1     -11.098  11.847  66.910  1.00  0.00    -0.356 C  
HETATM   12  C   UNL     1     -11.212  10.793  68.020  1.00  0.00    -0.372 C  
HETATM   13  C   UNL     1     -12.147  11.212  69.142  1.00  0.00    -0.352 C  
HETATM   14  C   UNL     1     -11.732  12.566  69.701  1.00  0.00    -0.372 C  
HETATM   15  C   UNL     1     -11.819  13.638  68.625  1.00  0.00    -0.409 C  
ENDBRANCH   8  10
TORSDOF 1
ENDMDL
MODEL      143
REMARK 921   NORMALIZED FREE ENERGY PREDICTED BY IDOCK:   -3.19 KCAL/MOL
REMARK 922        TOTAL FREE ENERGY PREDICTED BY IDOCK:   -3.67 KCAL/MOL
REMARK 923 INTER-LIGAND FREE ENERGY PREDICTED BY IDOCK:   -3.26 KCAL/MOL
REMARK 924 INTRA-LIGAND FREE ENERGY PREDICTED BY IDOCK:   -0.41 KCAL/MOL
REMARK 927      BINDING AFFINITY PREDICTED BY RF-SCORE:    0.00 PKD
ROOT
HETATM    1  C   UNL     1      -6.043   6.395  69.671  1.00  0.00    -0.029 C  
HETATM    2  C   UNL     1      -7.231   6.849  68.877  1.00  0.00    -0.091 C  
HETATM    3  C   UNL     1      -7.143   7.111  67.562  1.00  0.00    -0.088 C  
HETATM    4  C   UNL     1      -8.349   7.535  66.818  1.00  0.00    -0.126 C  
HETATM    5  O   UNL     1      -8.291   7.800  65.619  1.00  0.00    -0.128 OA 
HETATM    6  N   UNL     1      -9.512   7.614  67.560  1.00  0.00    -0.138 N  
HETATM    7  O   UNL     1     -10.654   8.001  66.839  1.00  0.00    -0.338 OA 
HETATM    8  C   UNL     1      -9.630   7.392  68.914  1.00  0.00    -0.148 C  
HETATM    9  C   UNL     1      -8.504   7.015  69.567  1.00  0.00    -0.134 C  
ENDROOT
BRANCH   8  10
HETATM   10  C   UNL     1     -10.941   7.586  69.688  1.00  0.00    -0.164 C  
HETATM   11  C   UNL     1     -11.436   6.464  70.638  1.00  0.00    -0.426 C  
HETATM   12  C   UNL     1     -11.203   6.672  72.141  1.00  0.00    -0.299 C  
HETATM   13  C   UNL     1     -11.482   8.096  72.594  1.00  0.00    -0.454 C  
HETATM   14  C   UNL     1     -10.674   9.084  71.765  1.00  0.00    -0.437 C  
HETATM   15  C   UNL     1     -11.067   8.998  70.297  1.00  0.00    -0.263 C  
ENDBRANCH   8  10
TORSDOF 1
ENDMDL
MODEL      144
REMARK 921   NORMALIZED FREE ENERGY PREDICTED BY IDOCK:   -3.18 KCAL/MOL
REMARK 922        TOTAL FREE ENERGY PREDICTED BY IDOCK:   -3.67 KCAL/MOL
REMARK 923 INTER-LIGAND FREE ENERGY PREDICTED BY IDOCK:   -3.91 KCAL/MOL
REMARK 924 INTRA-LIGAND FREE ENERGY PREDICTED BY IDOCK:    0.24 KCAL/MOL
REMARK 927      BINDING AFFINITY PREDICTED BY RF-SCORE:    0.00 PKD
ROOT
HETATM    1  C   UNL     1     -12.267  12.863  63.212  1.00  0.00    -0.481 C  
HETATM    2  C   UNL     1     -11.249  12.650  64.291  1.00  0.00    -0.410 C  
HETATM    3  C   UNL     1     -10.648  13.681  64.908  1.00  0.00    -0.421 C  
HETATM    4  C   UNL     1      -9.666  13.420  65.983  1.00  0.00    -0.215 C  
HETATM    5  O   UNL     1      -9.087  14.345  66.548  1.00  0.00    -0.257 OA 
HETATM    6  N   UNL     1      -9.453  12.089  66.286  1.00  0.00    -0.227 N  
HETATM    7  O   UNL     1      -8.531  11.853  67.320  1.00  0.00    -0.156 OA 
HETATM    8  C   UNL     1     -10.021  11.008  65.649  1.00  0.00    -0.248 C  
HETATM    9  C   UNL     1     -10.908  11.283  64.663  1.00  0.00    -0.335 C  
ENDROOT
BRANCH   8  10
HETATM   10  C   UNL     1      -9.667   9.552  65.984  1.00  0.00    -0.341 C  
HETATM   11  C   UNL     1      -8.196   9.078  65.847  1.00  0.00    -0.118 C  
HETATM   12  C   UNL     1      -7.380   8.957  67.142  1.00  0.00    -0.084 C  
HETATM   13  C   UNL     1      -8.171   8.346  68.287  1.00  0.00    -0.124 C  
HETATM   14  C   UNL     1      -9.461   9.121  68.514  1.00  0.00    -0.151 C  
HETATM   15  C   UNL     1     -10.346   9.058  67.278  1.00  0.00    -0.342 C  
ENDBRANCH   8  10
TORSDOF 1
ENDMDL
MODEL      145
REMARK 921   NORMALIZED FREE ENERGY PREDICTED BY IDOCK:   -3.16 KCAL/MOL
REMARK 922        TOTAL FREE ENERGY PREDICTED BY IDOCK:   -3.64 KCAL/MOL
REMARK 923 INTER-LIGAND FREE ENERGY PREDICTED BY IDOCK:   -3.88 KCAL/MOL
REMARK 924 INTRA-LIGAND FREE ENERGY PREDICTED BY IDOCK:    0.24 KCAL/MOL
REMARK 927      BINDING AFFINITY PREDICTED BY RF-SCORE:    0.00 PKD
ROOT
HETATM    1  C   UNL     1     -11.118  16.523  68.531  1.00  0.00    -0.335 C  
HETATM    2  C   UNL     1     -10.255  15.362  68.138  1.00  0.00    -0.230 C  
HETATM    3  C   UNL     1      -8.918  15.405  68.254  1.00  0.00    -0.185 C  
HETATM    4  C   UNL     1      -8.111  14.225  67.874  1.00  0.00    -0.151 C  
HETATM    5  O   UNL     1      -6.884  14.247  67.952  1.00  0.00    -0.129 OA 
HETATM    6  N   UNL     1      -8.827  13.130  67.430  1.00  0.00    -0.194 N  
HETATM    7  O   UNL     1      -8.052  12.010  67.087  1.00  0.00    -0.165 OA 
HETATM    8  C   UNL     1     -10.192  13.065  67.260  1.00  0.00    -0.239 C  
HETATM    9  C   UNL     1     -10.900  14.167  67.609  1.00  0.00    -0.266 C  
ENDROOT
BRANCH   8  10
HETATM   10  C   UNL     1     -10.910  11.840  66.676  1.00  0.00    -0.318 C  
HETATM   11  C   UNL     1     -10.430  11.252  65.324  1.00  0.00    -0.341 C  
HETATM   12  C   UNL     1      -9.567   9.984  65.383  1.00  0.00    -0.342 C  
HETATM   13  C   UNL     1     -10.062   8.976  66.407  1.00  0.00    -0.351 C  
HETATM   14  C   UNL     1     -10.187   9.628  67.776  1.00  0.00    -0.253 C  
HETATM   15  C   UNL     1     -11.202  10.760  67.739  1.00  0.00    -0.385 C  
ENDBRANCH   8  10
TORSDOF 1
ENDMDL
MODEL      146
REMARK 921   NORMALIZED FREE ENERGY PREDICTED BY IDOCK:   -3.14 KCAL/MOL
REMARK 922        TOTAL FREE ENERGY PREDICTED BY IDOCK:   -3.62 KCAL/MOL
REMARK 923 INTER-LIGAND FREE ENERGY PREDICTED BY IDOCK:   -3.72 KCAL/MOL
REMARK 924 INTRA-LIGAND FREE ENERGY PREDICTED BY IDOCK:    0.10 KCAL/MOL
REMARK 927      BINDING AFFINITY PREDICTED BY RF-SCORE:    0.00 PKD
ROOT
HETATM    1  C   UNL     1     -11.852  12.531  67.928  1.00  0.00    -0.383 C  
HETATM    2  C   UNL     1     -11.165  11.243  67.587  1.00  0.00    -0.357 C  
HETATM    3  C   UNL     1     -10.610  11.037  66.381  1.00  0.00    -0.308 C  
HETATM    4  C   UNL     1      -9.923   9.758  66.100  1.00  0.00    -0.268 C  
HETATM    5  O   UNL     1      -9.425   9.536  64.998  1.00  0.00    -0.267 OA 
HETATM    6  N   UNL     1      -9.892   8.854  67.145  1.00  0.00    -0.189 N  
HETATM    7  O   UNL     1      -9.223   7.649  66.873  1.00  0.00    -0.132 OA 
HETATM    8  C   UNL     1     -10.483   9.016  68.379  1.00  0.00    -0.192 C  
HETATM    9  C   UNL     1     -11.113  10.196  68.599  1.00  0.00    -0.254 C  
ENDROOT
BRANCH   8  10
HETATM   10  C   UNL     1     -10.483   7.928  69.462  1.00  0.00    -0.226 C  
HETATM   11  C   UNL     1      -9.189   7.112  69.719  1.00  0.00    -0.143 C  
HETATM   12  C   UNL     1      -8.350   7.505  70.942  1.00  0.00    -0.114 C  
HETATM   13  C   UNL     1      -9.194   7.813  72.168  1.00  0.00    -0.198 C  
HETATM   14  C   UNL     1     -10.233   8.876  71.843  1.00  0.00    -0.403 C  
HETATM   15  C   UNL     1     -11.182   8.383  70.760  1.00  0.00    -0.290 C  
ENDBRANCH   8  10
TORSDOF 1
ENDMDL
MODEL      147
REMARK 921   NORMALIZED FREE ENERGY PREDICTED BY IDOCK:   -3.14 KCAL/MOL
REMARK 922        TOTAL FREE ENERGY PREDICTED BY IDOCK:   -3.62 KCAL/MOL
REMARK 923 INTER-LIGAND FREE ENERGY PREDICTED BY IDOCK:   -3.22 KCAL/MOL
REMARK 924 INTRA-LIGAND FREE ENERGY PREDICTED BY IDOCK:   -0.40 KCAL/MOL
REMARK 927      BINDING AFFINITY PREDICTED BY RF-SCORE:    0.00 PKD
ROOT
HETATM    1  C   UNL     1      -6.737   8.507  71.263  1.00  0.00    -0.066 C  
HETATM    2  C   UNL     1      -8.002   7.847  70.805  1.00  0.00    -0.100 C  
HETATM    3  C   UNL     1      -8.456   6.719  71.376  1.00  0.00    -0.120 C  
HETATM    4  C   UNL     1      -9.722   6.116  70.903  1.00  0.00    -0.177 C  
HETATM    5  O   UNL     1     -10.148   5.073  71.394  1.00  0.00    -0.184 OA 
HETATM    6  N   UNL     1     -10.365   6.798  69.887  1.00  0.00    -0.197 N  
HETATM    7  O   UNL     1     -11.574   6.227  69.457  1.00  0.00    -0.423 OA 
HETATM    8  C   UNL     1      -9.909   7.933  69.253  1.00  0.00    -0.177 C  
HETATM    9  C   UNL     1      -8.741   8.453  69.705  1.00  0.00    -0.133 C  
ENDROOT
BRANCH   8  10
HETATM   10  C   UNL     1     -10.636   8.585  68.069  1.00  0.00    -0.197 C  
HETATM   11  C   UNL     1     -10.762  10.131  68.013  1.00  0.00    -0.305 C  
HETATM   12  C   UNL     1      -9.802  10.874  67.075  1.00  0.00    -0.214 C  
HETATM   13  C   UNL     1      -9.618  10.175  65.738  1.00  0.00    -0.288 C  
HETATM   14  C   UNL     1      -9.182   8.732  65.950  1.00  0.00    -0.282 C  
HETATM   15  C   UNL     1     -10.246   7.959  66.715  1.00  0.00    -0.358 C  
ENDBRANCH   8  10
TORSDOF 1
ENDMDL
MODEL      148
REMARK 921   NORMALIZED FREE ENERGY PREDICTED BY IDOCK:   -3.13 KCAL/MOL
REMARK 922        TOTAL FREE ENERGY PREDICTED BY IDOCK:   -3.61 KCAL/MOL
REMARK 923 INTER-LIGAND FREE ENERGY PREDICTED BY IDOCK:   -3.85 KCAL/MOL
REMARK 924 INTRA-LIGAND FREE ENERGY PREDICTED BY IDOCK:    0.24 KCAL/MOL
REMARK 927      BINDING AFFINITY PREDICTED BY RF-SCORE:    0.00 PKD
ROOT
HETATM    1  C   UNL     1      -8.488   9.131  69.656  1.00  0.00    -0.133 C  
HETATM    2  C   UNL     1      -8.804   9.678  68.297  1.00  0.00    -0.120 C  
HETATM    3  C   UNL     1      -8.495   9.007  67.175  1.00  0.00    -0.113 C  
HETATM    4  C   UNL     1      -8.848   9.579  65.858  1.00  0.00    -0.164 C  
HETATM    5  O   UNL     1      -8.557   8.994  64.817  1.00  0.00    -0.173 OA 
HETATM    6  N   UNL     1      -9.506  10.793  65.891  1.00  0.00    -0.188 N  
HETATM    7  O   UNL     1      -9.852  11.319  64.635  1.00  0.00    -0.241 OA 
HETATM    8  C   UNL     1      -9.804  11.527  67.018  1.00  0.00    -0.192 C  
HETATM    9  C   UNL     1      -9.457  10.978  68.208  1.00  0.00    -0.172 C  
ENDROOT
BRANCH   8  10
HETATM   10  C   UNL     1     -10.460  12.914  66.971  1.00  0.00    -0.244 C  
HETATM   11  C   UNL     1      -9.810  14.033  66.114  1.00  0.00    -0.319 C  
HETATM   12  C   UNL     1     -10.453  14.329  64.752  1.00  0.00    -0.421 C  
HETATM   13  C   UNL     1     -11.972  14.328  64.800  1.00  0.00    -0.449 C  
HETATM   14  C   UNL     1     -12.483  13.018  65.383  1.00  0.00    -0.531 C  
HETATM   15  C   UNL     1     -11.992  12.841  66.812  1.00  0.00    -0.389 C  
ENDBRANCH   8  10
TORSDOF 1
ENDMDL
MODEL      149
REMARK 921   NORMALIZED FREE ENERGY PREDICTED BY IDOCK:   -3.11 KCAL/MOL
REMARK 922        TOTAL FREE ENERGY PREDICTED BY IDOCK:   -3.59 KCAL/MOL
REMARK 923 INTER-LIGAND FREE ENERGY PREDICTED BY IDOCK:   -3.69 KCAL/MOL
REMARK 924 INTRA-LIGAND FREE ENERGY PREDICTED BY IDOCK:    0.10 KCAL/MOL
REMARK 927      BINDING AFFINITY PREDICTED BY RF-SCORE:    0.00 PKD
ROOT
HETATM    1  C   UNL     1     -10.662  11.344  68.813  1.00  0.00    -0.240 C  
HETATM    2  C   UNL     1     -10.905  10.445  69.988  1.00  0.00    -0.348 C  
HETATM    3  C   UNL     1     -12.089  10.417  70.622  1.00  0.00    -0.443 C  
HETATM    4  C   UNL     1     -12.287   9.497  71.763  1.00  0.00    -0.394 C  
HETATM    5  O   UNL     1     -13.354   9.466  72.372  1.00  0.00    -0.452 OA 
HETATM    6  N   UNL     1     -11.204   8.701  72.083  1.00  0.00    -0.364 N  
HETATM    7  O   UNL     1     -11.409   7.819  73.158  1.00  0.00    -0.374 OA 
HETATM    8  C   UNL     1      -9.965   8.732  71.483  1.00  0.00    -0.300 C  
HETATM    9  C   UNL     1      -9.815   9.594  70.447  1.00  0.00    -0.315 C  
ENDROOT
BRANCH   8  10
HETATM   10  C   UNL     1      -8.779   7.879  71.953  1.00  0.00    -0.168 C  
HETATM   11  C   UNL     1      -7.451   7.916  71.152  1.00  0.00    -0.078 C  
HETATM   12  C   UNL     1      -6.312   8.766  71.732  1.00  0.00    -0.074 C  
HETATM   13  C   UNL     1      -6.175   8.626  73.239  1.00  0.00    -0.091 C  
HETATM   14  C   UNL     1      -7.499   8.931  73.924  1.00  0.00     0.253 C  
HETATM   15  C   UNL     1      -8.570   7.945  73.480  1.00  0.00    -0.302 C  
ENDBRANCH   8  10
TORSDOF 1
ENDMDL
MODEL      150
REMARK 921   NORMALIZED FREE ENERGY PREDICTED BY IDOCK:   -3.11 KCAL/MOL
REMARK 922        TOTAL FREE ENERGY PREDICTED BY IDOCK:   -3.59 KCAL/MOL
REMARK 923 INTER-LIGAND FREE ENERGY PREDICTED BY IDOCK:   -3.28 KCAL/MOL
REMARK 924 INTRA-LIGAND FREE ENERGY PREDICTED BY IDOCK:   -0.30 KCAL/MOL
REMARK 927      BINDING AFFINITY PREDICTED BY RF-SCORE:    0.00 PKD
ROOT
HETATM    1  C   UNL     1      -6.862   8.802  71.971  1.00  0.00    -0.051 C  
HETATM    2  C   UNL     1      -8.299   8.401  71.828  1.00  0.00    -0.212 C  
HETATM    3  C   UNL     1      -9.076   8.165  72.898  1.00  0.00    -0.337 C  
HETATM    4  C   UNL     1     -10.494   7.793  72.705  1.00  0.00    -0.328 C  
HETATM    5  O   UNL     1     -11.221   7.551  73.667  1.00  0.00    -0.200 OA 
HETATM    6  N   UNL     1     -10.923   7.734  71.393  1.00  0.00    -0.233 N  
HETATM    7  O   UNL     1     -12.276   7.395  71.222  1.00  0.00    -0.316 OA 
HETATM    8  C   UNL     1     -10.146   7.930  70.273  1.00  0.00    -0.196 C  
HETATM    9  C   UNL     1      -8.848   8.260  70.486  1.00  0.00    -0.148 C  
ENDROOT
BRANCH   8  10
HETATM   10  C   UNL     1     -10.673   7.759  68.842  1.00  0.00    -0.108 C  
HETATM   11  C   UNL     1     -10.050   8.601  67.697  1.00  0.00    -0.271 C  
HETATM   12  C   UNL     1      -9.041   7.893  66.783  1.00  0.00    -0.189 C  
HETATM   13  C   UNL     1      -9.463   6.481  66.414  1.00  0.00    -0.165 C  
HETATM   14  C   UNL     1      -9.743   5.666  67.668  1.00  0.00    -0.135 C  
HETATM   15  C   UNL     1     -10.887   6.280  68.461  1.00  0.00    -0.394 C  
ENDBRANCH   8  10
TORSDOF 1
ENDMDL
MODEL      151
REMARK 921   NORMALIZED FREE ENERGY PREDICTED BY IDOCK:   -3.11 KCAL/MOL
REMARK 922        TOTAL FREE ENERGY PREDICTED BY IDOCK:   -3.58 KCAL/MOL
REMARK 923 INTER-LIGAND FREE ENERGY PREDICTED BY IDOCK:   -3.43 KCAL/MOL
REMARK 924 INTRA-LIGAND FREE ENERGY PREDICTED BY IDOCK:   -0.15 KCAL/MOL
REMARK 927      BINDING AFFINITY PREDICTED BY RF-SCORE:    0.00 PKD
ROOT
HETATM    1  C   UNL     1      -6.932   7.728  71.977  1.00  0.00    -0.067 C  
HETATM    2  C   UNL     1      -8.390   7.381  71.972  1.00  0.00    -0.117 C  
HETATM    3  C   UNL     1      -8.874   6.357  72.695  1.00  0.00    -0.125 C  
HETATM    4  C   UNL     1     -10.325   6.068  72.674  1.00  0.00    -0.196 C  
HETATM    5  O   UNL     1     -10.790   5.124  73.310  1.00  0.00    -0.242 OA 
HETATM    6  N   UNL     1     -11.092   6.915  71.899  1.00  0.00    -0.239 N  
HETATM    7  O   UNL     1     -12.470   6.641  71.899  1.00  0.00    -0.344 OA 
HETATM    8  C   UNL     1     -10.625   7.947  71.115  1.00  0.00    -0.213 C  
HETATM    9  C   UNL     1      -9.290   8.179  71.149  1.00  0.00    -0.187 C  
ENDROOT
BRANCH   8  10
HETATM   10  C   UNL     1     -11.531   8.792  70.208  1.00  0.00    -0.102 C  
HETATM   11  C   UNL     1     -12.639   9.670  70.846  1.00  0.00    -0.299 C  
HETATM   12  C   UNL     1     -12.353  11.172  70.969  1.00  0.00    -0.487 C  
HETATM   13  C   UNL     1     -11.676  11.751  69.738  1.00  0.00    -0.408 C  
HETATM   14  C   UNL     1     -10.412  10.969  69.411  1.00  0.00    -0.177 C  
HETATM   15  C   UNL     1     -10.746   9.519  69.097  1.00  0.00    -0.228 C  
ENDBRANCH   8  10
TORSDOF 1
ENDMDL
MODEL      152
REMARK 921   NORMALIZED FREE ENERGY PREDICTED BY IDOCK:   -3.10 KCAL/MOL
REMARK 922        TOTAL FREE ENERGY PREDICTED BY IDOCK:   -3.58 KCAL/MOL
REMARK 923 INTER-LIGAND FREE ENERGY PREDICTED BY IDOCK:   -3.31 KCAL/MOL
REMARK 924 INTRA-LIGAND FREE ENERGY PREDICTED BY IDOCK:   -0.27 KCAL/MOL
REMARK 927      BINDING AFFINITY PREDICTED BY RF-SCORE:    0.00 PKD
ROOT
HETATM    1  C   UNL     1      -6.488   9.368  67.797  1.00  0.00    -0.059 C  
HETATM    2  C   UNL     1      -7.601   9.856  66.920  1.00  0.00    -0.095 C  
HETATM    3  C   UNL     1      -7.425  10.059  65.604  1.00  0.00    -0.137 C  
HETATM    4  C   UNL     1      -8.560  10.521  64.775  1.00  0.00    -0.166 C  
HETATM    5  O   UNL     1      -8.419  10.733  63.573  1.00  0.00    -0.127 OA 
HETATM    6  N   UNL     1      -9.756  10.695  65.445  1.00  0.00    -0.232 N  
HETATM    7  O   UNL     1     -10.831  11.118  64.645  1.00  0.00    -0.305 OA 
HETATM    8  C   UNL     1      -9.962  10.535  66.797  1.00  0.00    -0.204 C  
HETATM    9  C   UNL     1      -8.898  10.121  67.528  1.00  0.00    -0.126 C  
ENDROOT
BRANCH   8  10
HETATM   10  C   UNL     1     -11.301  10.835  67.486  1.00  0.00    -0.283 C  
HETATM   11  C   UNL     1     -11.661  10.095  68.801  1.00  0.00    -0.037 C  
HETATM   12  C   UNL     1     -11.484  10.877  70.110  1.00  0.00    -0.405 C  
HETATM   13  C   UNL     1     -11.954  12.318  70.009  1.00  0.00    -0.379 C  
HETATM   14  C   UNL     1     -11.269  13.020  68.846  1.00  0.00    -0.326 C  
HETATM   15  C   UNL     1     -11.621  12.343  67.530  1.00  0.00    -0.431 C  
ENDBRANCH   8  10
TORSDOF 1
ENDMDL
MODEL      153
REMARK 921   NORMALIZED FREE ENERGY PREDICTED BY IDOCK:   -3.08 KCAL/MOL
REMARK 922        TOTAL FREE ENERGY PREDICTED BY IDOCK:   -3.55 KCAL/MOL
REMARK 923 INTER-LIGAND FREE ENERGY PREDICTED BY IDOCK:   -3.81 KCAL/MOL
REMARK 924 INTRA-LIGAND FREE ENERGY PREDICTED BY IDOCK:    0.26 KCAL/MOL
REMARK 927      BINDING AFFINITY PREDICTED BY RF-SCORE:    0.00 PKD
ROOT
HETATM    1  C   UNL     1     -11.808  12.484  67.906  1.00  0.00    -0.383 C  
HETATM    2  C   UNL     1     -11.152  11.351  67.178  1.00  0.00    -0.366 C  
HETATM    3  C   UNL     1     -10.709  11.484  65.916  1.00  0.00    -0.325 C  
HETATM    4  C   UNL     1     -10.047  10.342  65.248  1.00  0.00    -0.300 C  
HETATM    5  O   UNL     1      -9.652  10.432  64.087  1.00  0.00    -0.277 OA 
HETATM    6  N   UNL     1      -9.920   9.197  66.009  1.00  0.00    -0.281 N  
HETATM    7  O   UNL     1      -9.275   8.124  65.370  1.00  0.00     0.009 OA 
HETATM    8  C   UNL     1     -10.397   9.012  67.288  1.00  0.00    -0.273 C  
HETATM    9  C   UNL     1     -11.006  10.075  67.868  1.00  0.00    -0.311 C  
ENDROOT
BRANCH   8  10
HETATM   10  C   UNL     1     -10.296   7.677  68.040  1.00  0.00    -0.257 C  
HETATM   11  C   UNL     1     -10.997   6.422  67.457  1.00  0.00    -0.454 C  
HETATM   12  C   UNL     1     -10.109   5.405  66.727  1.00  0.00    -0.246 C  
HETATM   13  C   UNL     1      -8.785   5.159  67.431  1.00  0.00    -0.103 C  
HETATM   14  C   UNL     1      -8.053   6.473  67.660  1.00  0.00    -0.118 C  
HETATM   15  C   UNL     1      -8.870   7.392  68.555  1.00  0.00    -0.126 C  
ENDBRANCH   8  10
TORSDOF 1
ENDMDL
MODEL      154
REMARK 921   NORMALIZED FREE ENERGY PREDICTED BY IDOCK:   -3.03 KCAL/MOL
REMARK 922        TOTAL FREE ENERGY PREDICTED BY IDOCK:   -3.51 KCAL/MOL
REMARK 923 INTER-LIGAND FREE ENERGY PREDICTED BY IDOCK:   -3.12 KCAL/MOL
REMARK 924 INTRA-LIGAND FREE ENERGY PREDICTED BY IDOCK:   -0.39 KCAL/MOL
REMARK 927      BINDING AFFINITY PREDICTED BY RF-SCORE:    0.00 PKD
ROOT
HETATM    1  C   UNL     1     -10.861   7.128  67.298  1.00  0.00    -0.382 C  
HETATM    2  C   UNL     1     -10.715   6.382  68.589  1.00  0.00    -0.341 C  
HETATM    3  C   UNL     1     -11.251   6.839  69.733  1.00  0.00    -0.368 C  
HETATM    4  C   UNL     1     -11.098   6.056  70.978  1.00  0.00    -0.282 C  
HETATM    5  O   UNL     1     -11.561   6.462  72.042  1.00  0.00    -0.292 OA 
HETATM    6  N   UNL     1     -10.407   4.866  70.854  1.00  0.00    -0.195 N  
HETATM    7  O   UNL     1     -10.281   4.122  72.039  1.00  0.00    -0.179 OA 
HETATM    8  C   UNL     1      -9.811   4.387  69.708  1.00  0.00    -0.214 C  
HETATM    9  C   UNL     1      -9.961   5.135  68.588  1.00  0.00    -0.227 C  
ENDROOT
BRANCH   8  10
HETATM   10  C   UNL     1      -8.980   3.097  69.668  1.00  0.00    -0.169 C  
HETATM   11  C   UNL     1      -9.456   1.914  68.784  1.00  0.00    -0.199 C  
HETATM   12  C   UNL     1      -8.744   1.719  67.438  1.00  0.00    -0.123 C  
HETATM   13  C   UNL     1      -7.240   1.916  67.529  1.00  0.00    -0.054 C  
HETATM   14  C   UNL     1      -6.917   3.273  68.137  1.00  0.00    -0.050 C  
HETATM   15  C   UNL     1      -7.466   3.369  69.553  1.00  0.00    -0.048 C  
ENDBRANCH   8  10
TORSDOF 1
ENDMDL
MODEL      155
REMARK 921   NORMALIZED FREE ENERGY PREDICTED BY IDOCK:   -3.02 KCAL/MOL
REMARK 922        TOTAL FREE ENERGY PREDICTED BY IDOCK:   -3.50 KCAL/MOL
REMARK 923 INTER-LIGAND FREE ENERGY PREDICTED BY IDOCK:   -3.09 KCAL/MOL
REMARK 924 INTRA-LIGAND FREE ENERGY PREDICTED BY IDOCK:   -0.41 KCAL/MOL
REMARK 927      BINDING AFFINITY PREDICTED BY RF-SCORE:    0.00 PKD
ROOT
HETATM    1  C   UNL     1      -6.721  16.262  68.612  1.00  0.00    -0.138 C  
HETATM    2  C   UNL     1      -7.041  14.799  68.560  1.00  0.00    -0.110 C  
HETATM    3  C   UNL     1      -6.177  13.871  69.006  1.00  0.00    -0.094 C  
HETATM    4  C   UNL     1      -6.548  12.440  68.954  1.00  0.00    -0.095 C  
HETATM    5  O   UNL     1      -5.767  11.571  69.337  1.00  0.00    -0.052 OA 
HETATM    6  N   UNL     1      -7.805  12.167  68.450  1.00  0.00    -0.146 N  
HETATM    7  O   UNL     1      -8.153  10.806  68.421  1.00  0.00    -0.114 OA 
HETATM    8  C   UNL     1      -8.698  13.087  67.948  1.00  0.00    -0.189 C  
HETATM    9  C   UNL     1      -8.323  14.388  68.002  1.00  0.00    -0.157 C  
ENDROOT
BRANCH   8  10
HETATM   10  C   UNL     1     -10.044  12.698  67.320  1.00  0.00    -0.215 C  
HETATM   11  C   UNL     1     -11.340  13.401  67.805  1.00  0.00    -0.325 C  
HETATM   12  C   UNL     1     -11.908  14.508  66.907  1.00  0.00    -0.399 C  
HETATM   13  C   UNL     1     -11.855  14.161  65.429  1.00  0.00    -0.362 C  
HETATM   14  C   UNL     1     -10.437  13.789  65.022  1.00  0.00    -0.418 C  
HETATM   15  C   UNL     1      -9.965  12.561  65.786  1.00  0.00    -0.272 C  
ENDBRANCH   8  10
TORSDOF 1
ENDMDL
MODEL      156
REMARK 921   NORMALIZED FREE ENERGY PREDICTED BY IDOCK:   -3.00 KCAL/MOL
REMARK 922        TOTAL FREE ENERGY PREDICTED BY IDOCK:   -3.47 KCAL/MOL
REMARK 923 INTER-LIGAND FREE ENERGY PREDICTED BY IDOCK:   -3.12 KCAL/MOL
REMARK 924 INTRA-LIGAND FREE ENERGY PREDICTED BY IDOCK:   -0.35 KCAL/MOL
REMARK 927      BINDING AFFINITY PREDICTED BY RF-SCORE:    0.00 PKD
ROOT
HETATM    1  C   UNL     1      -5.811  11.702  69.724  1.00  0.00    -0.111 C  
HETATM    2  C   UNL     1      -6.879  12.376  68.917  1.00  0.00    -0.099 C  
HETATM    3  C   UNL     1      -6.877  13.703  68.712  1.00  0.00    -0.107 C  
HETATM    4  C   UNL     1      -7.940  14.319  67.889  1.00  0.00    -0.153 C  
HETATM    5  O   UNL     1      -7.972  15.534  67.703  1.00  0.00    -0.132 OA 
HETATM    6  N   UNL     1      -8.872  13.444  67.366  1.00  0.00    -0.203 N  
HETATM    7  O   UNL     1      -9.869  14.038  66.572  1.00  0.00    -0.272 OA 
HETATM    8  C   UNL     1      -8.928  12.086  67.588  1.00  0.00    -0.172 C  
HETATM    9  C   UNL     1      -7.944  11.556  68.355  1.00  0.00    -0.143 C  
ENDROOT
BRANCH   8  10
HETATM   10  C   UNL     1     -10.049  11.189  67.044  1.00  0.00    -0.235 C  
HETATM   11  C   UNL     1      -9.748  10.227  65.865  1.00  0.00    -0.283 C  
HETATM   12  C   UNL     1      -9.533   8.747  66.211  1.00  0.00    -0.300 C  
HETATM   13  C   UNL     1     -10.512   8.233  67.254  1.00  0.00    -0.373 C  
HETATM   14  C   UNL     1     -10.470   9.107  68.498  1.00  0.00    -0.238 C  
HETATM   15  C   UNL     1     -10.881  10.533  68.165  1.00  0.00    -0.300 C  
ENDBRANCH   8  10
TORSDOF 1
ENDMDL
MODEL      157
REMARK 921   NORMALIZED FREE ENERGY PREDICTED BY IDOCK:   -2.99 KCAL/MOL
REMARK 922        TOTAL FREE ENERGY PREDICTED BY IDOCK:   -3.46 KCAL/MOL
REMARK 923 INTER-LIGAND FREE ENERGY PREDICTED BY IDOCK:   -4.09 KCAL/MOL
REMARK 924 INTRA-LIGAND FREE ENERGY PREDICTED BY IDOCK:    0.62 KCAL/MOL
REMARK 927      BINDING AFFINITY PREDICTED BY RF-SCORE:    0.00 PKD
ROOT
HETATM    1  C   UNL     1      -7.649   8.518  70.574  1.00  0.00    -0.074 C  
HETATM    2  C   UNL     1      -8.944   9.188  70.229  1.00  0.00    -0.245 C  
HETATM    3  C   UNL     1     -10.049   9.018  70.975  1.00  0.00    -0.352 C  
HETATM    4  C   UNL     1     -11.298   9.718  70.605  1.00  0.00    -0.330 C  
HETATM    5  O   UNL     1     -12.327   9.563  71.260  1.00  0.00    -0.310 OA 
HETATM    6  N   UNL     1     -11.218  10.534  69.493  1.00  0.00    -0.253 N  
HETATM    7  O   UNL     1     -12.406  11.207  69.161  1.00  0.00    -0.438 OA 
HETATM    8  C   UNL     1     -10.116  10.701  68.683  1.00  0.00    -0.183 C  
HETATM    9  C   UNL     1      -8.992  10.036  69.045  1.00  0.00    -0.163 C  
ENDROOT
BRANCH   8  10
HETATM   10  C   UNL     1     -10.130  11.557  67.409  1.00  0.00    -0.213 C  
HETATM   11  C   UNL     1     -11.483  11.864  66.715  1.00  0.00    -0.384 C  
HETATM   12  C   UNL     1     -12.087  13.255  66.951  1.00  0.00    -0.389 C  
HETATM   13  C   UNL     1     -11.052  14.367  66.908  1.00  0.00    -0.325 C  
HETATM   14  C   UNL     1      -9.922  14.078  67.886  1.00  0.00    -0.237 C  
HETATM   15  C   UNL     1      -9.207  12.788  67.511  1.00  0.00    -0.191 C  
ENDBRANCH   8  10
TORSDOF 1
ENDMDL
MODEL      158
REMARK 921   NORMALIZED FREE ENERGY PREDICTED BY IDOCK:   -2.99 KCAL/MOL
REMARK 922        TOTAL FREE ENERGY PREDICTED BY IDOCK:   -3.46 KCAL/MOL
REMARK 923 INTER-LIGAND FREE ENERGY PREDICTED BY IDOCK:   -4.41 KCAL/MOL
REMARK 924 INTRA-LIGAND FREE ENERGY PREDICTED BY IDOCK:    0.95 KCAL/MOL
REMARK 927      BINDING AFFINITY PREDICTED BY RF-SCORE:    0.00 PKD
ROOT
HETATM    1  C   UNL     1     -12.382  15.377  71.212  1.00  0.00    -0.446 C  
HETATM    2  C   UNL     1     -12.225  14.050  70.533  1.00  0.00    -0.435 C  
HETATM    3  C   UNL     1     -12.538  12.899  71.151  1.00  0.00    -0.373 C  
HETATM    4  C   UNL     1     -12.385  11.616  70.431  1.00  0.00    -0.288 C  
HETATM    5  O   UNL     1     -12.645  10.548  70.981  1.00  0.00    -0.333 OA 
HETATM    6  N   UNL     1     -11.934  11.712  69.128  1.00  0.00    -0.327 N  
HETATM    7  O   UNL     1     -11.809  10.489  68.448  1.00  0.00    -0.380 OA 
HETATM    8  C   UNL     1     -11.567  12.869  68.477  1.00  0.00    -0.323 C  
HETATM    9  C   UNL     1     -11.709  14.026  69.170  1.00  0.00    -0.375 C  
ENDROOT
BRANCH   8  10
HETATM   10  C   UNL     1     -10.988  12.888  67.056  1.00  0.00    -0.290 C  
HETATM   11  C   UNL     1      -9.451  12.806  66.860  1.00  0.00    -0.235 C  
HETATM   12  C   UNL     1      -8.874  11.446  66.446  1.00  0.00    -0.193 C  
HETATM   13  C   UNL     1      -9.715  10.739  65.396  1.00  0.00    -0.297 C  
HETATM   14  C   UNL     1     -11.155  10.610  65.869  1.00  0.00     0.201 C  
HETATM   15  C   UNL     1     -11.772  11.984  66.083  1.00  0.00    -0.313 C  
ENDBRANCH   8  10
TORSDOF 1
ENDMDL
MODEL      159
REMARK 921   NORMALIZED FREE ENERGY PREDICTED BY IDOCK:   -2.99 KCAL/MOL
REMARK 922        TOTAL FREE ENERGY PREDICTED BY IDOCK:   -3.46 KCAL/MOL
REMARK 923 INTER-LIGAND FREE ENERGY PREDICTED BY IDOCK:   -3.06 KCAL/MOL
REMARK 924 INTRA-LIGAND FREE ENERGY PREDICTED BY IDOCK:   -0.39 KCAL/MOL
REMARK 927      BINDING AFFINITY PREDICTED BY RF-SCORE:    0.00 PKD
ROOT
HETATM    1  C   UNL     1      -7.683   2.487  70.387  1.00  0.00    -0.043 C  
HETATM    2  C   UNL     1      -8.772   3.175  71.153  1.00  0.00    -0.123 C  
HETATM    3  C   UNL     1      -9.326   2.622  72.244  1.00  0.00    -0.159 C  
HETATM    4  C   UNL     1     -10.383   3.350  72.979  1.00  0.00    -0.165 C  
HETATM    5  O   UNL     1     -10.919   2.856  73.969  1.00  0.00    -0.191 OA 
HETATM    6  N   UNL     1     -10.713   4.593  72.474  1.00  0.00    -0.182 N  
HETATM    7  O   UNL     1     -11.706   5.283  73.189  1.00  0.00    -0.268 OA 
HETATM    8  C   UNL     1     -10.196   5.173  71.337  1.00  0.00    -0.213 C  
HETATM    9  C   UNL     1      -9.237   4.474  70.682  1.00  0.00    -0.199 C  
ENDROOT
BRANCH   8  10
HETATM   10  C   UNL     1     -10.678   6.522  70.786  1.00  0.00    -0.290 C  
HETATM   11  C   UNL     1      -9.672   7.696  70.663  1.00  0.00    -0.174 C  
HETATM   12  C   UNL     1      -9.112   7.991  69.265  1.00  0.00    -0.148 C  
HETATM   13  C   UNL     1     -10.165   7.903  68.173  1.00  0.00    -0.248 C  
HETATM   14  C   UNL     1     -10.866   6.553  68.218  1.00  0.00    -0.359 C  
HETATM   15  C   UNL     1     -11.584   6.367  69.547  1.00  0.00    -0.303 C  
ENDBRANCH   8  10
TORSDOF 1
ENDMDL
MODEL      160
REMARK 921   NORMALIZED FREE ENERGY PREDICTED BY IDOCK:   -2.98 KCAL/MOL
REMARK 922        TOTAL FREE ENERGY PREDICTED BY IDOCK:   -3.45 KCAL/MOL
REMARK 923 INTER-LIGAND FREE ENERGY PREDICTED BY IDOCK:   -3.04 KCAL/MOL
REMARK 924 INTRA-LIGAND FREE ENERGY PREDICTED BY IDOCK:   -0.41 KCAL/MOL
REMARK 927      BINDING AFFINITY PREDICTED BY RF-SCORE:    0.00 PKD
ROOT
HETATM    1  C   UNL     1     -12.095  10.319  71.623  1.00  0.00    -0.318 C  
HETATM    2  C   UNL     1     -10.761   9.927  71.062  1.00  0.00    -0.241 C  
HETATM    3  C   UNL     1      -9.962   9.049  71.689  1.00  0.00    -0.383 C  
HETATM    4  C   UNL     1      -8.664   8.678  71.083  1.00  0.00    -0.197 C  
HETATM    5  O   UNL     1      -7.905   7.892  71.647  1.00  0.00    -0.083 OA 
HETATM    6  N   UNL     1      -8.379   9.274  69.870  1.00  0.00    -0.139 N  
HETATM    7  O   UNL     1      -7.151   8.903  69.296  1.00  0.00    -0.056 OA 
HETATM    8  C   UNL     1      -9.155  10.208  69.219  1.00  0.00    -0.198 C  
HETATM    9  C   UNL     1     -10.333  10.532  69.807  1.00  0.00    -0.211 C  
ENDROOT
BRANCH   8  10
HETATM   10  C   UNL     1      -8.729  10.895  67.915  1.00  0.00    -0.131 C  
HETATM   11  C   UNL     1      -9.744  11.001  66.746  1.00  0.00    -0.222 C  
HETATM   12  C   UNL     1     -10.436  12.356  66.545  1.00  0.00    -0.254 C  
HETATM   13  C   UNL     1      -9.494  13.535  66.714  1.00  0.00    -0.272 C  
HETATM   14  C   UNL     1      -8.791  13.464  68.062  1.00  0.00    -0.183 C  
HETATM   15  C   UNL     1      -7.948  12.202  68.160  1.00  0.00    -0.151 C  
ENDBRANCH   8  10
TORSDOF 1
ENDMDL
MODEL      161
REMARK 921   NORMALIZED FREE ENERGY PREDICTED BY IDOCK:   -2.97 KCAL/MOL
REMARK 922        TOTAL FREE ENERGY PREDICTED BY IDOCK:   -3.44 KCAL/MOL
REMARK 923 INTER-LIGAND FREE ENERGY PREDICTED BY IDOCK:   -3.19 KCAL/MOL
REMARK 924 INTRA-LIGAND FREE ENERGY PREDICTED BY IDOCK:   -0.25 KCAL/MOL
REMARK 927      BINDING AFFINITY PREDICTED BY RF-SCORE:    0.00 PKD
ROOT
HETATM    1  C   UNL     1     -11.025   4.045  73.307  1.00  0.00    -0.313 C  
HETATM    2  C   UNL     1     -11.051   5.472  72.849  1.00  0.00    -0.349 C  
HETATM    3  C   UNL     1     -12.154   6.022  72.317  1.00  0.00    -0.196 C  
HETATM    4  C   UNL     1     -12.137   7.441  71.900  1.00  0.00    -0.307 C  
HETATM    5  O   UNL     1     -13.128   7.963  71.392  1.00  0.00    -0.313 OA 
HETATM    6  N   UNL     1     -10.949   8.112  72.116  1.00  0.00    -0.282 N  
HETATM    7  O   UNL     1     -10.948   9.464  71.731  1.00  0.00    -0.363 OA 
HETATM    8  C   UNL     1      -9.788   7.570  72.621  1.00  0.00    -0.191 C  
HETATM    9  C   UNL     1      -9.836   6.265  72.983  1.00  0.00    -0.175 C  
ENDROOT
BRANCH   8  10
HETATM   10  C   UNL     1      -8.477   8.358  72.748  1.00  0.00    -0.224 C  
HETATM   11  C   UNL     1      -7.429   7.923  73.807  1.00  0.00    -0.186 C  
HETATM   12  C   UNL     1      -6.217   7.128  73.302  1.00  0.00    -0.057 C  
HETATM   13  C   UNL     1      -5.657   7.666  71.996  1.00  0.00    -0.036 C  
HETATM   14  C   UNL     1      -6.750   7.742  70.941  1.00  0.00    -0.038 C  
HETATM   15  C   UNL     1      -7.851   8.696  71.379  1.00  0.00    -0.162 C  
ENDBRANCH   8  10
TORSDOF 1
ENDMDL
MODEL      162
REMARK 921   NORMALIZED FREE ENERGY PREDICTED BY IDOCK:   -2.91 KCAL/MOL
REMARK 922        TOTAL FREE ENERGY PREDICTED BY IDOCK:   -3.38 KCAL/MOL
REMARK 923 INTER-LIGAND FREE ENERGY PREDICTED BY IDOCK:   -2.99 KCAL/MOL
REMARK 924 INTRA-LIGAND FREE ENERGY PREDICTED BY IDOCK:   -0.39 KCAL/MOL
REMARK 927      BINDING AFFINITY PREDICTED BY RF-SCORE:    0.00 PKD
ROOT
HETATM    1  C   UNL     1     -10.864   9.933  67.602  1.00  0.00    -0.318 C  
HETATM    2  C   UNL     1     -10.006   9.421  66.484  1.00  0.00    -0.339 C  
HETATM    3  C   UNL     1      -9.739  10.167  65.400  1.00  0.00    -0.355 C  
HETATM    4  C   UNL     1      -8.868   9.625  64.334  1.00  0.00    -0.230 C  
HETATM    5  O   UNL     1      -8.625  10.280  63.323  1.00  0.00    -0.167 OA 
HETATM    6  N   UNL     1      -8.371   8.356  64.558  1.00  0.00    -0.150 N  
HETATM    7  O   UNL     1      -7.532   7.857  63.546  1.00  0.00    -0.103 OA 
HETATM    8  C   UNL     1      -8.655   7.548  65.636  1.00  0.00    -0.114 C  
HETATM    9  C   UNL     1      -9.464   8.072  66.590  1.00  0.00    -0.273 C  
ENDROOT
BRANCH   8  10
HETATM   10  C   UNL     1      -8.135   6.111  65.772  1.00  0.00    -0.124 C  
HETATM   11  C   UNL     1      -7.675   5.598  67.162  1.00  0.00    -0.101 C  
HETATM   12  C   UNL     1      -8.650   4.692  67.927  1.00  0.00    -0.106 C  
HETATM   13  C   UNL     1      -9.335   3.670  67.036  1.00  0.00    -0.223 C  
HETATM   14  C   UNL     1     -10.020   4.360  65.865  1.00  0.00    -0.255 C  
HETATM   15  C   UNL     1      -9.000   5.090  65.004  1.00  0.00    -0.131 C  
ENDBRANCH   8  10
TORSDOF 1
ENDMDL
MODEL      163
REMARK 921   NORMALIZED FREE ENERGY PREDICTED BY IDOCK:   -2.90 KCAL/MOL
REMARK 922        TOTAL FREE ENERGY PREDICTED BY IDOCK:   -3.37 KCAL/MOL
REMARK 923 INTER-LIGAND FREE ENERGY PREDICTED BY IDOCK:   -3.04 KCAL/MOL
REMARK 924 INTRA-LIGAND FREE ENERGY PREDICTED BY IDOCK:   -0.32 KCAL/MOL
REMARK 927      BINDING AFFINITY PREDICTED BY RF-SCORE:    0.00 PKD
ROOT
HETATM    1  C   UNL     1     -11.189  14.909  69.608  1.00  0.00    -0.300 C  
HETATM    2  C   UNL     1     -10.683  14.221  68.377  1.00  0.00    -0.257 C  
HETATM    3  C   UNL     1     -10.776  14.788  67.163  1.00  0.00    -0.299 C  
HETATM    4  C   UNL     1     -10.242  14.079  65.980  1.00  0.00    -0.304 C  
HETATM    5  O   UNL     1     -10.334  14.567  64.855  1.00  0.00    -0.417 OA 
HETATM    6  N   UNL     1      -9.655  12.854  66.233  1.00  0.00    -0.263 N  
HETATM    7  O   UNL     1      -9.136  12.196  65.105  1.00  0.00     0.181 OA 
HETATM    8  C   UNL     1      -9.577  12.226  67.456  1.00  0.00    -0.184 C  
HETATM    9  C   UNL     1     -10.085  12.899  68.517  1.00  0.00    -0.193 C  
ENDROOT
BRANCH   8  10
HETATM   10  C   UNL     1      -8.988  10.821  67.646  1.00  0.00    -0.140 C  
HETATM   11  C   UNL     1      -7.522  10.672  68.133  1.00  0.00    -0.090 C  
HETATM   12  C   UNL     1      -7.313  10.320  69.612  1.00  0.00    -0.150 C  
HETATM   13  C   UNL     1      -8.290   9.272  70.117  1.00  0.00    -0.189 C  
HETATM   14  C   UNL     1      -9.723   9.708  69.847  1.00  0.00    -0.262 C  
HETATM   15  C   UNL     1      -9.963   9.858  68.352  1.00  0.00    -0.177 C  
ENDBRANCH   8  10
TORSDOF 1
ENDMDL
MODEL      164
REMARK 921   NORMALIZED FREE ENERGY PREDICTED BY IDOCK:   -2.90 KCAL/MOL
REMARK 922        TOTAL FREE ENERGY PREDICTED BY IDOCK:   -3.36 KCAL/MOL
REMARK 923 INTER-LIGAND FREE ENERGY PREDICTED BY IDOCK:   -3.36 KCAL/MOL
REMARK 924 INTRA-LIGAND FREE ENERGY PREDICTED BY IDOCK:   -0.00 KCAL/MOL
REMARK 927      BINDING AFFINITY PREDICTED BY RF-SCORE:    0.00 PKD
ROOT
HETATM    1  C   UNL     1     -11.308   8.209  72.398  1.00  0.00    -0.456 C  
HETATM    2  C   UNL     1     -11.115   8.876  71.069  1.00  0.00    -0.340 C  
HETATM    3  C   UNL     1     -11.927   9.860  70.648  1.00  0.00    -0.361 C  
HETATM    4  C   UNL     1     -11.682  10.502  69.338  1.00  0.00    -0.223 C  
HETATM    5  O   UNL     1     -12.422  11.390  68.921  1.00  0.00    -0.386 OA 
HETATM    6  N   UNL     1     -10.588  10.031  68.638  1.00  0.00    -0.203 N  
HETATM    7  O   UNL     1     -10.355  10.658  67.403  1.00  0.00    -0.196 OA 
HETATM    8  C   UNL     1      -9.760   8.998  69.020  1.00  0.00    -0.167 C  
HETATM    9  C   UNL     1     -10.019   8.426  70.221  1.00  0.00    -0.193 C  
ENDROOT
BRANCH   8  10
HETATM   10  C   UNL     1      -8.615   8.470  68.145  1.00  0.00    -0.138 C  
HETATM   11  C   UNL     1      -7.604   7.458  68.746  1.00  0.00    -0.107 C  
HETATM   12  C   UNL     1      -7.790   5.981  68.369  1.00  0.00    -0.106 C  
HETATM   13  C   UNL     1      -8.136   5.782  66.903  1.00  0.00    -0.102 C  
HETATM   14  C   UNL     1      -9.358   6.608  66.529  1.00  0.00    -0.191 C  
HETATM   15  C   UNL     1      -9.080   8.092  66.724  1.00  0.00    -0.189 C  
ENDBRANCH   8  10
TORSDOF 1
ENDMDL
MODEL      165
REMARK 921   NORMALIZED FREE ENERGY PREDICTED BY IDOCK:   -2.88 KCAL/MOL
REMARK 922        TOTAL FREE ENERGY PREDICTED BY IDOCK:   -3.35 KCAL/MOL
REMARK 923 INTER-LIGAND FREE ENERGY PREDICTED BY IDOCK:   -3.13 KCAL/MOL
REMARK 924 INTRA-LIGAND FREE ENERGY PREDICTED BY IDOCK:   -0.22 KCAL/MOL
REMARK 927      BINDING AFFINITY PREDICTED BY RF-SCORE:    0.00 PKD
ROOT
HETATM    1  C   UNL     1     -10.563  15.206  64.580  1.00  0.00    -0.167 C  
HETATM    2  C   UNL     1     -10.559  15.449  66.059  1.00  0.00    -0.330 C  
HETATM    3  C   UNL     1     -10.549  16.692  66.570  1.00  0.00    -0.203 C  
HETATM    4  C   UNL     1     -10.567  16.881  68.037  1.00  0.00    -0.367 C  
HETATM    5  O   UNL     1     -10.537  18.007  68.529  1.00  0.00    -0.313 OA 
HETATM    6  N   UNL     1     -10.611  15.722  68.788  1.00  0.00    -0.229 N  
HETATM    7  O   UNL     1     -10.645  15.913  70.179  1.00  0.00    -0.308 OA 
HETATM    8  C   UNL     1     -10.583  14.434  68.300  1.00  0.00    -0.243 C  
HETATM    9  C   UNL     1     -10.556  14.297  66.951  1.00  0.00    -0.273 C  
ENDROOT
BRANCH   8  10
HETATM   10  C   UNL     1     -10.545  13.193  69.201  1.00  0.00    -0.004 C  
HETATM   11  C   UNL     1     -11.811  12.800  70.007  1.00  0.00    -0.352 C  
HETATM   12  C   UNL     1     -12.660  11.648  69.452  1.00  0.00     0.257 C  
HETATM   13  C   UNL     1     -11.823  10.493  68.927  1.00  0.00    -0.136 C  
HETATM   14  C   UNL     1     -10.819  10.990  67.897  1.00  0.00    -0.285 C  
HETATM   15  C   UNL     1      -9.858  11.988  68.525  1.00  0.00    -0.177 C  
ENDBRANCH   8  10
TORSDOF 1
ENDMDL
MODEL      166
REMARK 921   NORMALIZED FREE ENERGY PREDICTED BY IDOCK:   -2.87 KCAL/MOL
REMARK 922        TOTAL FREE ENERGY PREDICTED BY IDOCK:   -3.33 KCAL/MOL
REMARK 923 INTER-LIGAND FREE ENERGY PREDICTED BY IDOCK:   -3.11 KCAL/MOL
REMARK 924 INTRA-LIGAND FREE ENERGY PREDICTED BY IDOCK:   -0.22 KCAL/MOL
REMARK 927      BINDING AFFINITY PREDICTED BY RF-SCORE:    0.00 PKD
ROOT
HETATM    1  C   UNL     1      -9.519   9.180  69.573  1.00  0.00    -0.170 C  
HETATM    2  C   UNL     1      -9.876   9.777  68.246  1.00  0.00    -0.167 C  
HETATM    3  C   UNL     1     -10.830  10.716  68.128  1.00  0.00    -0.291 C  
HETATM    4  C   UNL     1     -11.132  11.291  66.800  1.00  0.00    -0.250 C  
HETATM    5  O   UNL     1     -12.014  12.136  66.663  1.00  0.00    -0.616 OA 
HETATM    6  N   UNL     1     -10.368  10.811  65.754  1.00  0.00    -0.248 N  
HETATM    7  O   UNL     1     -10.652  11.377  64.499  1.00  0.00    -0.294 OA 
HETATM    8  C   UNL     1      -9.411   9.823  65.831  1.00  0.00    -0.226 C  
HETATM    9  C   UNL     1      -9.167   9.311  67.061  1.00  0.00    -0.169 C  
ENDROOT
BRANCH   8  10
HETATM   10  C   UNL     1      -8.664   9.277  64.606  1.00  0.00    -0.223 C  
HETATM   11  C   UNL     1      -7.603  10.166  63.905  1.00  0.00    -0.128 C  
HETATM   12  C   UNL     1      -6.130   9.860  64.208  1.00  0.00    -0.122 C  
HETATM   13  C   UNL     1      -5.828   8.372  64.245  1.00  0.00    -0.065 C  
HETATM   14  C   UNL     1      -6.754   7.667  65.226  1.00  0.00    -0.044 C  
HETATM   15  C   UNL     1      -8.205   7.817  64.794  1.00  0.00    -0.100 C  
ENDBRANCH   8  10
TORSDOF 1
ENDMDL
MODEL      167
REMARK 921   NORMALIZED FREE ENERGY PREDICTED BY IDOCK:   -2.86 KCAL/MOL
REMARK 922        TOTAL FREE ENERGY PREDICTED BY IDOCK:   -3.33 KCAL/MOL
REMARK 923 INTER-LIGAND FREE ENERGY PREDICTED BY IDOCK:   -2.96 KCAL/MOL
REMARK 924 INTRA-LIGAND FREE ENERGY PREDICTED BY IDOCK:   -0.37 KCAL/MOL
REMARK 927      BINDING AFFINITY PREDICTED BY RF-SCORE:    0.00 PKD
ROOT
HETATM    1  C   UNL     1     -12.252   7.940  71.813  1.00  0.00    -0.344 C  
HETATM    2  C   UNL     1     -11.138   7.546  70.891  1.00  0.00    -0.279 C  
HETATM    3  C   UNL     1     -10.404   6.441  71.102  1.00  0.00    -0.244 C  
HETATM    4  C   UNL     1      -9.329   6.082  70.152  1.00  0.00    -0.154 C  
HETATM    5  O   UNL     1      -8.630   5.087  70.334  1.00  0.00    -0.104 OA 
HETATM    6  N   UNL     1      -9.175   6.935  69.076  1.00  0.00    -0.138 N  
HETATM    7  O   UNL     1      -8.162   6.576  68.170  1.00  0.00    -0.115 OA 
HETATM    8  C   UNL     1      -9.881   8.096  68.849  1.00  0.00    -0.176 C  
HETATM    9  C   UNL     1     -10.852   8.400  69.745  1.00  0.00    -0.184 C  
ENDROOT
BRANCH   8  10
HETATM   10  C   UNL     1      -9.592   9.042  67.676  1.00  0.00    -0.183 C  
HETATM   11  C   UNL     1     -10.773   9.753  66.964  1.00  0.00    -0.236 C  
HETATM   12  C   UNL     1     -11.018  11.225  67.325  1.00  0.00    -0.342 C  
HETATM   13  C   UNL     1      -9.734  12.029  67.445  1.00  0.00    -0.185 C  
HETATM   14  C   UNL     1      -8.783  11.366  68.431  1.00  0.00    -0.157 C  
HETATM   15  C   UNL     1      -8.395   9.976  67.948  1.00  0.00    -0.117 C  
ENDBRANCH   8  10
TORSDOF 1
ENDMDL
MODEL      168
REMARK 921   NORMALIZED FREE ENERGY PREDICTED BY IDOCK:   -2.82 KCAL/MOL
REMARK 922        TOTAL FREE ENERGY PREDICTED BY IDOCK:   -3.28 KCAL/MOL
REMARK 923 INTER-LIGAND FREE ENERGY PREDICTED BY IDOCK:   -2.87 KCAL/MOL
REMARK 924 INTRA-LIGAND FREE ENERGY PREDICTED BY IDOCK:   -0.41 KCAL/MOL
REMARK 927      BINDING AFFINITY PREDICTED BY RF-SCORE:    0.00 PKD
ROOT
HETATM    1  C   UNL     1     -11.324  10.767  69.081  1.00  0.00    -0.348 C  
HETATM    2  C   UNL     1     -10.856   9.645  69.958  1.00  0.00    -0.302 C  
HETATM    3  C   UNL     1     -11.421   9.398  71.151  1.00  0.00    -0.422 C  
HETATM    4  C   UNL     1     -10.939   8.265  71.970  1.00  0.00    -0.306 C  
HETATM    5  O   UNL     1     -11.426   8.031  73.075  1.00  0.00    -0.370 OA 
HETATM    6  N   UNL     1      -9.921   7.516  71.413  1.00  0.00    -0.185 N  
HETATM    7  O   UNL     1      -9.482   6.432  72.192  1.00  0.00    -0.151 OA 
HETATM    8  C   UNL     1      -9.292   7.763  70.212  1.00  0.00    -0.156 C  
HETATM    9  C   UNL     1      -9.752   8.815  69.492  1.00  0.00    -0.172 C  
ENDROOT
BRANCH   8  10
HETATM   10  C   UNL     1      -8.105   6.937  69.698  1.00  0.00    -0.126 C  
HETATM   11  C   UNL     1      -8.082   6.481  68.216  1.00  0.00    -0.110 C  
HETATM   12  C   UNL     1      -7.187   7.277  67.256  1.00  0.00    -0.093 C  
HETATM   13  C   UNL     1      -5.840   7.637  67.860  1.00  0.00    -0.036 C  
HETATM   14  C   UNL     1      -6.029   8.369  69.180  1.00  0.00    -0.042 C  
HETATM   15  C   UNL     1      -6.747   7.482  70.187  1.00  0.00    -0.050 C  
ENDBRANCH   8  10
TORSDOF 1
ENDMDL
MODEL      169
REMARK 921   NORMALIZED FREE ENERGY PREDICTED BY IDOCK:   -2.81 KCAL/MOL
REMARK 922        TOTAL FREE ENERGY PREDICTED BY IDOCK:   -3.27 KCAL/MOL
REMARK 923 INTER-LIGAND FREE ENERGY PREDICTED BY IDOCK:   -2.94 KCAL/MOL
REMARK 924 INTRA-LIGAND FREE ENERGY PREDICTED BY IDOCK:   -0.33 KCAL/MOL
REMARK 927      BINDING AFFINITY PREDICTED BY RF-SCORE:    0.00 PKD
ROOT
HETATM    1  C   UNL     1      -6.393   6.138  71.763  1.00  0.00    -0.046 C  
HETATM    2  C   UNL     1      -7.796   6.569  72.064  1.00  0.00    -0.099 C  
HETATM    3  C   UNL     1      -8.382   6.296  73.241  1.00  0.00    -0.115 C  
HETATM    4  C   UNL     1      -9.762   6.762  73.499  1.00  0.00    -0.203 C  
HETATM    5  O   UNL     1     -10.327   6.508  74.561  1.00  0.00    -0.341 OA 
HETATM    6  N   UNL     1     -10.350   7.481  72.476  1.00  0.00    -0.221 N  
HETATM    7  O   UNL     1     -11.654   7.933  72.738  1.00  0.00    -0.383 OA 
HETATM    8  C   UNL     1      -9.795   7.745  71.243  1.00  0.00    -0.171 C  
HETATM    9  C   UNL     1      -8.534   7.295  71.037  1.00  0.00    -0.127 C  
ENDROOT
BRANCH   8  10
HETATM   10  C   UNL     1     -10.546   8.475  70.121  1.00  0.00    -0.238 C  
HETATM   11  C   UNL     1     -10.289   9.989  69.895  1.00  0.00    -0.315 C  
HETATM   12  C   UNL     1      -9.369  10.371  68.728  1.00  0.00    -0.175 C  
HETATM   13  C   UNL     1      -9.622   9.547  67.477  1.00  0.00    -0.176 C  
HETATM   14  C   UNL     1      -9.530   8.061  67.792  1.00  0.00    -0.166 C  
HETATM   15  C   UNL     1     -10.589   7.664  68.810  1.00  0.00    -0.169 C  
ENDBRANCH   8  10
TORSDOF 1
ENDMDL
MODEL      170
REMARK 921   NORMALIZED FREE ENERGY PREDICTED BY IDOCK:   -2.80 KCAL/MOL
REMARK 922        TOTAL FREE ENERGY PREDICTED BY IDOCK:   -3.26 KCAL/MOL
REMARK 923 INTER-LIGAND FREE ENERGY PREDICTED BY IDOCK:   -2.85 KCAL/MOL
REMARK 924 INTRA-LIGAND FREE ENERGY PREDICTED BY IDOCK:   -0.41 KCAL/MOL
REMARK 927      BINDING AFFINITY PREDICTED BY RF-SCORE:    0.00 PKD
ROOT
HETATM    1  C   UNL     1      -5.655  10.938  70.769  1.00  0.00    -0.113 C  
HETATM    2  C   UNL     1      -6.448  10.309  69.664  1.00  0.00    -0.069 C  
HETATM    3  C   UNL     1      -5.931  10.131  68.437  1.00  0.00    -0.041 C  
HETATM    4  C   UNL     1      -6.745   9.485  67.385  1.00  0.00    -0.071 C  
HETATM    5  O   UNL     1      -6.302   9.329  66.249  1.00  0.00    -0.063 OA 
HETATM    6  N   UNL     1      -8.011   9.086  67.770  1.00  0.00    -0.101 N  
HETATM    7  O   UNL     1      -8.770   8.459  66.768  1.00  0.00    -0.121 OA 
HETATM    8  C   UNL     1      -8.587   9.288  69.005  1.00  0.00    -0.134 C  
HETATM    9  C   UNL     1      -7.816   9.892  69.942  1.00  0.00    -0.182 C  
ENDROOT
BRANCH   8  10
HETATM   10  C   UNL     1     -10.034   8.896  69.333  1.00  0.00    -0.192 C  
HETATM   11  C   UNL     1     -10.337   8.146  70.657  1.00  0.00    -0.214 C  
HETATM   12  C   UNL     1     -10.921   8.975  71.809  1.00  0.00    -0.443 C  
HETATM   13  C   UNL     1     -11.978   9.967  71.351  1.00  0.00    -0.489 C  
HETATM   14  C   UNL     1     -11.427  10.859  70.249  1.00  0.00    -0.391 C  
HETATM   15  C   UNL     1     -11.038  10.029  69.034  1.00  0.00    -0.221 C  
ENDBRANCH   8  10
TORSDOF 1
ENDMDL
MODEL      171
REMARK 921   NORMALIZED FREE ENERGY PREDICTED BY IDOCK:   -2.79 KCAL/MOL
REMARK 922        TOTAL FREE ENERGY PREDICTED BY IDOCK:   -3.25 KCAL/MOL
REMARK 923 INTER-LIGAND FREE ENERGY PREDICTED BY IDOCK:   -3.50 KCAL/MOL
REMARK 924 INTRA-LIGAND FREE ENERGY PREDICTED BY IDOCK:    0.25 KCAL/MOL
REMARK 927      BINDING AFFINITY PREDICTED BY RF-SCORE:    0.00 PKD
ROOT
HETATM    1  C   UNL     1     -11.562  12.723  65.850  1.00  0.00    -0.428 C  
HETATM    2  C   UNL     1     -10.266  13.209  66.424  1.00  0.00    -0.286 C  
HETATM    3  C   UNL     1      -9.300  12.358  66.806  1.00  0.00    -0.220 C  
HETATM    4  C   UNL     1      -8.029  12.887  67.346  1.00  0.00    -0.178 C  
HETATM    5  O   UNL     1      -7.137  12.128  67.722  1.00  0.00    -0.090 OA 
HETATM    6  N   UNL     1      -7.929  14.264  67.398  1.00  0.00    -0.191 N  
HETATM    7  O   UNL     1      -6.711  14.756  67.897  1.00  0.00    -0.131 OA 
HETATM    8  C   UNL     1      -8.912  15.165  67.053  1.00  0.00    -0.234 C  
HETATM    9  C   UNL     1     -10.068  14.646  66.571  1.00  0.00    -0.286 C  
ENDROOT
BRANCH   8  10
HETATM   10  C   UNL     1      -8.761  16.682  67.223  1.00  0.00    -0.207 C  
HETATM   11  C   UNL     1      -8.507  17.267  68.637  1.00  0.00    -0.260 C  
HETATM   12  C   UNL     1      -7.067  17.677  68.973  1.00  0.00    -0.227 C  
HETATM   13  C   UNL     1      -6.369  18.389  67.827  1.00  0.00    -0.190 C  
HETATM   14  C   UNL     1      -6.425  17.543  66.563  1.00  0.00    -0.269 C  
HETATM   15  C   UNL     1      -7.868  17.315  66.136  1.00  0.00    -0.305 C  
ENDBRANCH   8  10
TORSDOF 1
ENDMDL
MODEL      172
REMARK 921   NORMALIZED FREE ENERGY PREDICTED BY IDOCK:   -2.79 KCAL/MOL
REMARK 922        TOTAL FREE ENERGY PREDICTED BY IDOCK:   -3.25 KCAL/MOL
REMARK 923 INTER-LIGAND FREE ENERGY PREDICTED BY IDOCK:   -2.84 KCAL/MOL
REMARK 924 INTRA-LIGAND FREE ENERGY PREDICTED BY IDOCK:   -0.41 KCAL/MOL
REMARK 927      BINDING AFFINITY PREDICTED BY RF-SCORE:    0.00 PKD
ROOT
HETATM    1  C   UNL     1      -6.011  11.269  70.096  1.00  0.00    -0.141 C  
HETATM    2  C   UNL     1      -6.694  11.118  68.770  1.00  0.00    -0.067 C  
HETATM    3  C   UNL     1      -6.031  10.701  67.679  1.00  0.00    -0.044 C  
HETATM    4  C   UNL     1      -6.754  10.547  66.398  1.00  0.00    -0.114 C  
HETATM    5  O   UNL     1      -6.166  10.187  65.380  1.00  0.00    -0.097 OA 
HETATM    6  N   UNL     1      -8.104  10.838  66.435  1.00  0.00    -0.148 N  
HETATM    7  O   UNL     1      -8.784  10.673  65.217  1.00  0.00    -0.183 OA 
HETATM    8  C   UNL     1      -8.806  11.305  67.524  1.00  0.00    -0.140 C  
HETATM    9  C   UNL     1      -8.111  11.445  68.679  1.00  0.00    -0.141 C  
ENDROOT
BRANCH   8  10
HETATM   10  C   UNL     1     -10.290  11.694  67.466  1.00  0.00    -0.220 C  
HETATM   11  C   UNL     1     -11.237  11.248  68.611  1.00  0.00    -0.310 C  
HETATM   12  C   UNL     1     -11.607  12.306  69.659  1.00  0.00    -0.348 C  
HETATM   13  C   UNL     1     -11.895  13.669  69.052  1.00  0.00    -0.393 C  
HETATM   14  C   UNL     1     -10.726  14.125  68.192  1.00  0.00    -0.251 C  
HETATM   15  C   UNL     1     -10.504  13.160  67.037  1.00  0.00    -0.248 C  
ENDBRANCH   8  10
TORSDOF 1
ENDMDL
MODEL      173
REMARK 921   NORMALIZED FREE ENERGY PREDICTED BY IDOCK:   -2.79 KCAL/MOL
REMARK 922        TOTAL FREE ENERGY PREDICTED BY IDOCK:   -3.25 KCAL/MOL
REMARK 923 INTER-LIGAND FREE ENERGY PREDICTED BY IDOCK:   -3.09 KCAL/MOL
REMARK 924 INTRA-LIGAND FREE ENERGY PREDICTED BY IDOCK:   -0.16 KCAL/MOL
REMARK 927      BINDING AFFINITY PREDICTED BY RF-SCORE:    0.00 PKD
ROOT
HETATM    1  C   UNL     1      -8.365   8.144  64.737  1.00  0.00    -0.113 C  
HETATM    2  C   UNL     1      -8.922   8.873  65.922  1.00  0.00    -0.244 C  
HETATM    3  C   UNL     1      -9.317  10.155  65.840  1.00  0.00    -0.224 C  
HETATM    4  C   UNL     1      -9.881  10.825  67.032  1.00  0.00    -0.187 C  
HETATM    5  O   UNL     1     -10.230  12.002  66.989  1.00  0.00    -0.202 OA 
HETATM    6  N   UNL     1      -9.974  10.044  68.168  1.00  0.00    -0.149 N  
HETATM    7  O   UNL     1     -10.526  10.685  69.290  1.00  0.00    -0.207 OA 
HETATM    8  C   UNL     1      -9.542   8.742  68.299  1.00  0.00    -0.146 C  
HETATM    9  C   UNL     1      -9.022   8.162  67.190  1.00  0.00    -0.154 C  
ENDROOT
BRANCH   8  10
HETATM   10  C   UNL     1      -9.597   7.965  69.621  1.00  0.00    -0.164 C  
HETATM   11  C   UNL     1     -10.975   7.649  70.260  1.00  0.00    -0.261 C  
HETATM   12  C   UNL     1     -11.515   6.223  70.079  1.00  0.00    -0.460 C  
HETATM   13  C   UNL     1     -10.445   5.157  70.247  1.00  0.00    -0.296 C  
HETATM   14  C   UNL     1      -9.273   5.430  69.316  1.00  0.00    -0.149 C  
HETATM   15  C   UNL     1      -8.627   6.767  69.647  1.00  0.00    -0.133 C  
ENDBRANCH   8  10
TORSDOF 1
ENDMDL
MODEL      174
REMARK 921   NORMALIZED FREE ENERGY PREDICTED BY IDOCK:   -2.78 KCAL/MOL
REMARK 922        TOTAL FREE ENERGY PREDICTED BY IDOCK:   -3.24 KCAL/MOL
REMARK 923 INTER-LIGAND FREE ENERGY PREDICTED BY IDOCK:   -2.83 KCAL/MOL
REMARK 924 INTRA-LIGAND FREE ENERGY PREDICTED BY IDOCK:   -0.41 KCAL/MOL
REMARK 927      BINDING AFFINITY PREDICTED BY RF-SCORE:    0.00 PKD
ROOT
HETATM    1  C   UNL     1      -5.458   7.302  67.604  1.00  0.00    -0.021 C  
HETATM    2  C   UNL     1      -6.662   8.034  67.092  1.00  0.00    -0.065 C  
HETATM    3  C   UNL     1      -6.563   8.978  66.142  1.00  0.00    -0.066 C  
HETATM    4  C   UNL     1      -7.783   9.657  65.654  1.00  0.00    -0.107 C  
HETATM    5  O   UNL     1      -7.717  10.539  64.800  1.00  0.00    -0.109 OA 
HETATM    6  N   UNL     1      -8.970   9.235  66.223  1.00  0.00    -0.150 N  
HETATM    7  O   UNL     1     -10.124   9.874  65.740  1.00  0.00    -0.284 OA 
HETATM    8  C   UNL     1      -9.104   8.300  67.225  1.00  0.00    -0.137 C  
HETATM    9  C   UNL     1      -7.965   7.705  67.657  1.00  0.00    -0.121 C  
ENDROOT
BRANCH   8  10
HETATM   10  C   UNL     1     -10.451   7.947  67.872  1.00  0.00    -0.261 C  
HETATM   11  C   UNL     1     -10.866   6.457  67.998  1.00  0.00    -0.396 C  
HETATM   12  C   UNL     1     -10.699   5.802  69.376  1.00  0.00    -0.397 C  
HETATM   13  C   UNL     1     -11.123   6.708  70.520  1.00  0.00    -0.359 C  
HETATM   14  C   UNL     1     -10.388   8.038  70.444  1.00  0.00    -0.206 C  
HETATM   15  C   UNL     1     -10.727   8.764  69.151  1.00  0.00    -0.150 C  
ENDBRANCH   8  10
TORSDOF 1
ENDMDL
MODEL      175
REMARK 921   NORMALIZED FREE ENERGY PREDICTED BY IDOCK:   -2.74 KCAL/MOL
REMARK 922        TOTAL FREE ENERGY PREDICTED BY IDOCK:   -3.20 KCAL/MOL
REMARK 923 INTER-LIGAND FREE ENERGY PREDICTED BY IDOCK:   -2.89 KCAL/MOL
REMARK 924 INTRA-LIGAND FREE ENERGY PREDICTED BY IDOCK:   -0.31 KCAL/MOL
REMARK 927      BINDING AFFINITY PREDICTED BY RF-SCORE:    0.00 PKD
ROOT
HETATM    1  C   UNL     1      -7.088   7.910  73.576  1.00  0.00    -0.133 C  
HETATM    2  C   UNL     1      -8.475   7.433  73.268  1.00  0.00    -0.173 C  
HETATM    3  C   UNL     1      -9.491   8.291  73.079  1.00  0.00    -0.298 C  
HETATM    4  C   UNL     1     -10.838   7.772  72.755  1.00  0.00    -0.379 C  
HETATM    5  O   UNL     1     -11.789   8.536  72.598  1.00  0.00    -0.369 OA 
HETATM    6  N   UNL     1     -10.940   6.398  72.653  1.00  0.00    -0.242 N  
HETATM    7  O   UNL     1     -12.220   5.917  72.330  1.00  0.00    -0.245 OA 
HETATM    8  C   UNL     1      -9.931   5.488  72.879  1.00  0.00    -0.169 C  
HETATM    9  C   UNL     1      -8.712   5.997  73.183  1.00  0.00    -0.121 C  
ENDROOT
BRANCH   8  10
HETATM   10  C   UNL     1     -10.142   3.969  72.834  1.00  0.00    -0.214 C  
HETATM   11  C   UNL     1      -9.892   3.206  71.507  1.00  0.00    -0.200 C  
HETATM   12  C   UNL     1      -8.570   2.435  71.385  1.00  0.00    -0.099 C  
HETATM   13  C   UNL     1      -8.197   1.693  72.657  1.00  0.00    -0.053 C  
HETATM   14  C   UNL     1      -8.176   2.647  73.842  1.00  0.00    -0.067 C  
HETATM   15  C   UNL     1      -9.554   3.251  74.067  1.00  0.00    -0.127 C  
ENDBRANCH   8  10
TORSDOF 1
ENDMDL
MODEL      176
REMARK 921   NORMALIZED FREE ENERGY PREDICTED BY IDOCK:   -2.72 KCAL/MOL
REMARK 922        TOTAL FREE ENERGY PREDICTED BY IDOCK:   -3.18 KCAL/MOL
REMARK 923 INTER-LIGAND FREE ENERGY PREDICTED BY IDOCK:   -2.87 KCAL/MOL
REMARK 924 INTRA-LIGAND FREE ENERGY PREDICTED BY IDOCK:   -0.30 KCAL/MOL
REMARK 927      BINDING AFFINITY PREDICTED BY RF-SCORE:    0.00 PKD
ROOT
HETATM    1  C   UNL     1      -5.672   6.572  65.965  1.00  0.00    -0.021 C  
HETATM    2  C   UNL     1      -7.038   5.989  65.764  1.00  0.00    -0.073 C  
HETATM    3  C   UNL     1      -7.252   4.970  64.915  1.00  0.00    -0.063 C  
HETATM    4  C   UNL     1      -8.615   4.414  64.767  1.00  0.00    -0.132 C  
HETATM    5  O   UNL     1      -8.841   3.496  63.982  1.00  0.00    -0.096 OA 
HETATM    6  N   UNL     1      -9.587   4.999  65.555  1.00  0.00    -0.130 N  
HETATM    7  O   UNL     1     -10.875   4.453  65.419  1.00  0.00    -0.252 OA 
HETATM    8  C   UNL     1      -9.412   6.069  66.405  1.00  0.00    -0.150 C  
HETATM    9  C   UNL     1      -8.153   6.560  66.509  1.00  0.00    -0.111 C  
ENDROOT
BRANCH   8  10
HETATM   10  C   UNL     1     -10.561   6.724  67.183  1.00  0.00    -0.401 C  
HETATM   11  C   UNL     1     -10.928   6.186  68.591  1.00  0.00    -0.415 C  
HETATM   12  C   UNL     1     -10.432   6.996  69.797  1.00  0.00    -0.235 C  
HETATM   13  C   UNL     1     -10.572   8.496  69.603  1.00  0.00    -0.221 C  
HETATM   14  C   UNL     1      -9.881   8.932  68.318  1.00  0.00    -0.187 C  
HETATM   15  C   UNL     1     -10.525   8.264  67.112  1.00  0.00    -0.386 C  
ENDBRANCH   8  10
TORSDOF 1
ENDMDL
MODEL      177
REMARK 921   NORMALIZED FREE ENERGY PREDICTED BY IDOCK:   -2.69 KCAL/MOL
REMARK 922        TOTAL FREE ENERGY PREDICTED BY IDOCK:   -3.14 KCAL/MOL
REMARK 923 INTER-LIGAND FREE ENERGY PREDICTED BY IDOCK:   -3.54 KCAL/MOL
REMARK 924 INTRA-LIGAND FREE ENERGY PREDICTED BY IDOCK:    0.40 KCAL/MOL
REMARK 927      BINDING AFFINITY PREDICTED BY RF-SCORE:    0.00 PKD
ROOT
HETATM    1  C   UNL     1     -11.377  11.430  66.830  1.00  0.00    -0.284 C  
HETATM    2  C   UNL     1     -10.987  12.695  67.533  1.00  0.00    -0.280 C  
HETATM    3  C   UNL     1     -11.673  13.154  68.593  1.00  0.00    -0.362 C  
HETATM    4  C   UNL     1     -11.236  14.396  69.267  1.00  0.00    -0.275 C  
HETATM    5  O   UNL     1     -11.859  14.847  70.226  1.00  0.00    -0.270 OA 
HETATM    6  N   UNL     1     -10.107  14.994  68.743  1.00  0.00    -0.224 N  
HETATM    7  O   UNL     1      -9.691  16.164  69.400  1.00  0.00    -0.245 OA 
HETATM    8  C   UNL     1      -9.403  14.574  67.635  1.00  0.00    -0.202 C  
HETATM    9  C   UNL     1      -9.837  13.438  67.036  1.00  0.00    -0.250 C  
ENDROOT
BRANCH   8  10
HETATM   10  C   UNL     1      -8.207  15.343  67.056  1.00  0.00    -0.270 C  
HETATM   11  C   UNL     1      -8.241  16.894  67.031  1.00  0.00    -0.228 C  
HETATM   12  C   UNL     1      -7.436  17.625  68.115  1.00  0.00    -0.231 C  
HETATM   13  C   UNL     1      -6.078  16.995  68.372  1.00  0.00    -0.144 C  
HETATM   14  C   UNL     1      -6.231  15.517  68.697  1.00  0.00    -0.096 C  
HETATM   15  C   UNL     1      -6.852  14.773  67.524  1.00  0.00    -0.181 C  
ENDBRANCH   8  10
TORSDOF 1
ENDMDL
MODEL      178
REMARK 921   NORMALIZED FREE ENERGY PREDICTED BY IDOCK:   -2.68 KCAL/MOL
REMARK 922        TOTAL FREE ENERGY PREDICTED BY IDOCK:   -3.13 KCAL/MOL
REMARK 923 INTER-LIGAND FREE ENERGY PREDICTED BY IDOCK:   -3.37 KCAL/MOL
REMARK 924 INTRA-LIGAND FREE ENERGY PREDICTED BY IDOCK:    0.24 KCAL/MOL
REMARK 927      BINDING AFFINITY PREDICTED BY RF-SCORE:    0.00 PKD
ROOT
HETATM    1  C   UNL     1      -8.652   2.422  70.319  1.00  0.00    -0.103 C  
HETATM    2  C   UNL     1      -9.395   3.623  69.817  1.00  0.00    -0.243 C  
HETATM    3  C   UNL     1      -9.618   3.818  68.507  1.00  0.00    -0.174 C  
HETATM    4  C   UNL     1     -10.376   5.008  68.062  1.00  0.00    -0.027 C  
HETATM    5  O   UNL     1     -10.576   5.220  66.868  1.00  0.00    -0.260 OA 
HETATM    6  N   UNL     1     -10.824   5.841  69.069  1.00  0.00    -0.290 N  
HETATM    7  O   UNL     1     -11.557   6.959  68.637  1.00  0.00     0.115 OA 
HETATM    8  C   UNL     1     -10.580   5.693  70.417  1.00  0.00    -0.294 C  
HETATM    9  C   UNL     1      -9.874   4.598  70.789  1.00  0.00    -0.284 C  
ENDROOT
BRANCH   8  10
HETATM   10  C   UNL     1     -11.036   6.711  71.472  1.00  0.00    -0.287 C  
HETATM   11  C   UNL     1     -10.668   8.208  71.292  1.00  0.00    -0.270 C  
HETATM   12  C   UNL     1     -11.772   9.138  70.769  1.00  0.00    -0.308 C  
HETATM   13  C   UNL     1     -13.128   8.858  71.393  1.00  0.00    -0.315 C  
HETATM   14  C   UNL     1     -13.504   7.395  71.214  1.00  0.00    -0.339 C  
HETATM   15  C   UNL     1     -12.497   6.495  71.914  1.00  0.00    -0.291 C  
ENDBRANCH   8  10
TORSDOF 1
ENDMDL
MODEL      179
REMARK 921   NORMALIZED FREE ENERGY PREDICTED BY IDOCK:   -2.67 KCAL/MOL
REMARK 922        TOTAL FREE ENERGY PREDICTED BY IDOCK:   -3.12 KCAL/MOL
REMARK 923 INTER-LIGAND FREE ENERGY PREDICTED BY IDOCK:   -3.39 KCAL/MOL
REMARK 924 INTRA-LIGAND FREE ENERGY PREDICTED BY IDOCK:    0.26 KCAL/MOL
REMARK 927      BINDING AFFINITY PREDICTED BY RF-SCORE:    0.00 PKD
ROOT
HETATM    1  C   UNL     1     -12.581  14.122  69.987  1.00  0.00    -0.268 C  
HETATM    2  C   UNL     1     -11.506  13.455  69.183  1.00  0.00    -0.351 C  
HETATM    3  C   UNL     1     -10.589  14.164  68.505  1.00  0.00    -0.257 C  
HETATM    4  C   UNL     1      -9.534  13.460  67.743  1.00  0.00    -0.210 C  
HETATM    5  O   UNL     1      -8.696  14.086  67.098  1.00  0.00    -0.209 OA 
HETATM    6  N   UNL     1      -9.571  12.081  67.809  1.00  0.00    -0.187 N  
HETATM    7  O   UNL     1      -8.555  11.422  67.095  1.00  0.00    -0.142 OA 
HETATM    8  C   UNL     1     -10.518  11.321  68.460  1.00  0.00    -0.197 C  
HETATM    9  C   UNL     1     -11.476  11.999  69.139  1.00  0.00    -0.357 C  
ENDROOT
BRANCH   8  10
HETATM   10  C   UNL     1     -10.545   9.788  68.413  1.00  0.00    -0.264 C  
HETATM   11  C   UNL     1     -10.418   9.067  67.045  1.00  0.00    -0.316 C  
HETATM   12  C   UNL     1      -9.048   8.468  66.699  1.00  0.00    -0.203 C  
HETATM   13  C   UNL     1      -8.388   7.774  67.878  1.00  0.00    -0.123 C  
HETATM   14  C   UNL     1      -8.296   8.719  69.067  1.00  0.00    -0.129 C  
HETATM   15  C   UNL     1      -9.685   9.145  69.520  1.00  0.00    -0.176 C  
ENDBRANCH   8  10
TORSDOF 1
ENDMDL
MODEL      180
REMARK 921   NORMALIZED FREE ENERGY PREDICTED BY IDOCK:   -2.66 KCAL/MOL
REMARK 922        TOTAL FREE ENERGY PREDICTED BY IDOCK:   -3.12 KCAL/MOL
REMARK 923 INTER-LIGAND FREE ENERGY PREDICTED BY IDOCK:   -3.71 KCAL/MOL
REMARK 924 INTRA-LIGAND FREE ENERGY PREDICTED BY IDOCK:    0.59 KCAL/MOL
REMARK 927      BINDING AFFINITY PREDICTED BY RF-SCORE:    0.00 PKD
ROOT
HETATM    1  C   UNL     1     -10.622   9.782  67.281  1.00  0.00    -0.320 C  
HETATM    2  C   UNL     1     -10.632   8.529  68.102  1.00  0.00    -0.181 C  
HETATM    3  C   UNL     1     -10.436   7.320  67.549  1.00  0.00    -0.337 C  
HETATM    4  C   UNL     1     -10.433   6.114  68.406  1.00  0.00    -0.231 C  
HETATM    5  O   UNL     1     -10.277   4.995  67.921  1.00  0.00    -0.148 OA 
HETATM    6  N   UNL     1     -10.622   6.340  69.755  1.00  0.00    -0.235 N  
HETATM    7  O   UNL     1     -10.601   5.190  70.562  1.00  0.00    -0.242 OA 
HETATM    8  C   UNL     1     -10.865   7.558  70.351  1.00  0.00    -0.244 C  
HETATM    9  C   UNL     1     -10.870   8.641  69.536  1.00  0.00    -0.138 C  
ENDROOT
BRANCH   8  10
HETATM   10  C   UNL     1     -11.154   7.720  71.850  1.00  0.00    -0.302 C  
HETATM   11  C   UNL     1     -11.758   6.529  72.640  1.00  0.00    -0.126 C  
HETATM   12  C   UNL     1     -10.795   5.713  73.513  1.00  0.00    -0.295 C  
HETATM   13  C   UNL     1      -9.804   6.579  74.273  1.00  0.00    -0.337 C  
HETATM   14  C   UNL     1      -9.049   7.488  73.314  1.00  0.00    -0.242 C  
HETATM   15  C   UNL     1     -10.009   8.430  72.602  1.00  0.00    -0.329 C  
ENDBRANCH   8  10
TORSDOF 1
ENDMDL
MODEL      181
REMARK 921   NORMALIZED FREE ENERGY PREDICTED BY IDOCK:   -2.66 KCAL/MOL
REMARK 922        TOTAL FREE ENERGY PREDICTED BY IDOCK:   -3.11 KCAL/MOL
REMARK 923 INTER-LIGAND FREE ENERGY PREDICTED BY IDOCK:   -2.81 KCAL/MOL
REMARK 924 INTRA-LIGAND FREE ENERGY PREDICTED BY IDOCK:   -0.30 KCAL/MOL
REMARK 927      BINDING AFFINITY PREDICTED BY RF-SCORE:    0.00 PKD
ROOT
HETATM    1  C   UNL     1     -11.393   4.697  73.450  1.00  0.00    -0.394 C  
HETATM    2  C   UNL     1     -11.305   5.840  72.484  1.00  0.00    -0.358 C  
HETATM    3  C   UNL     1     -12.247   6.796  72.434  1.00  0.00    -0.068 C  
HETATM    4  C   UNL     1     -12.105   7.916  71.478  1.00  0.00    -0.306 C  
HETATM    5  O   UNL     1     -12.963   8.792  71.399  1.00  0.00    -0.320 OA 
HETATM    6  N   UNL     1     -10.964   7.894  70.700  1.00  0.00    -0.242 N  
HETATM    7  O   UNL     1     -10.830   8.971  69.807  1.00  0.00    -0.231 OA 
HETATM    8  C   UNL     1      -9.999   6.911  70.696  1.00  0.00    -0.186 C  
HETATM    9  C   UNL     1     -10.166   5.895  71.577  1.00  0.00    -0.254 C  
ENDROOT
BRANCH   8  10
HETATM   10  C   UNL     1      -8.801   6.911  69.737  1.00  0.00    -0.141 C  
HETATM   11  C   UNL     1      -7.508   7.671  70.135  1.00  0.00    -0.084 C  
HETATM   12  C   UNL     1      -6.338   6.827  70.660  1.00  0.00    -0.043 C  
HETATM   13  C   UNL     1      -6.137   5.540  69.879  1.00  0.00    -0.022 C  
HETATM   14  C   UNL     1      -7.428   4.735  69.839  1.00  0.00    -0.055 C  
HETATM   15  C   UNL     1      -8.525   5.519  69.133  1.00  0.00    -0.104 C  
ENDBRANCH   8  10
TORSDOF 1
ENDMDL
MODEL      182
REMARK 921   NORMALIZED FREE ENERGY PREDICTED BY IDOCK:   -2.59 KCAL/MOL
REMARK 922        TOTAL FREE ENERGY PREDICTED BY IDOCK:   -3.04 KCAL/MOL
REMARK 923 INTER-LIGAND FREE ENERGY PREDICTED BY IDOCK:   -2.94 KCAL/MOL
REMARK 924 INTRA-LIGAND FREE ENERGY PREDICTED BY IDOCK:   -0.10 KCAL/MOL
REMARK 927      BINDING AFFINITY PREDICTED BY RF-SCORE:    0.00 PKD
ROOT
HETATM    1  C   UNL     1     -10.968   6.548  67.607  1.00  0.00    -0.426 C  
HETATM    2  C   UNL     1      -9.844   7.272  66.932  1.00  0.00    -0.279 C  
HETATM    3  C   UNL     1      -8.711   6.643  66.576  1.00  0.00    -0.137 C  
HETATM    4  C   UNL     1      -7.638   7.397  65.892  1.00  0.00    -0.089 C  
HETATM    5  O   UNL     1      -6.585   6.849  65.574  1.00  0.00    -0.048 OA 
HETATM    6  N   UNL     1      -7.906   8.730  65.650  1.00  0.00    -0.094 N  
HETATM    7  O   UNL     1      -6.887   9.433  64.985  1.00  0.00    -0.083 OA 
HETATM    8  C   UNL     1      -9.037   9.417  66.036  1.00  0.00    -0.183 C  
HETATM    9  C   UNL     1      -9.995   8.698  66.669  1.00  0.00    -0.357 C  
ENDROOT
BRANCH   8  10
HETATM   10  C   UNL     1      -9.225  10.923  65.811  1.00  0.00    -0.224 C  
HETATM   11  C   UNL     1      -9.169  11.489  64.367  1.00  0.00     0.074 C  
HETATM   12  C   UNL     1     -10.509  11.817  63.695  1.00  0.00    -0.490 C  
HETATM   13  C   UNL     1     -11.494  12.492  64.634  1.00  0.00    -0.377 C  
HETATM   14  C   UNL     1     -11.692  11.654  65.889  1.00  0.00     0.035 C  
HETATM   15  C   UNL     1     -10.381  11.508  66.647  1.00  0.00    -0.262 C  
ENDBRANCH   8  10
TORSDOF 1
ENDMDL
MODEL      183
REMARK 921   NORMALIZED FREE ENERGY PREDICTED BY IDOCK:   -2.55 KCAL/MOL
REMARK 922        TOTAL FREE ENERGY PREDICTED BY IDOCK:   -2.99 KCAL/MOL
REMARK 923 INTER-LIGAND FREE ENERGY PREDICTED BY IDOCK:   -3.29 KCAL/MOL
REMARK 924 INTRA-LIGAND FREE ENERGY PREDICTED BY IDOCK:    0.30 KCAL/MOL
REMARK 927      BINDING AFFINITY PREDICTED BY RF-SCORE:    0.00 PKD
ROOT
HETATM    1  C   UNL     1     -10.013   9.057  66.087  1.00  0.00    -0.311 C  
HETATM    2  C   UNL     1      -9.444   8.569  67.385  1.00  0.00    -0.188 C  
HETATM    3  C   UNL     1      -8.119   8.452  67.576  1.00  0.00    -0.110 C  
HETATM    4  C   UNL     1      -7.606   7.988  68.882  1.00  0.00    -0.099 C  
HETATM    5  O   UNL     1      -6.399   7.852  69.075  1.00  0.00    -0.035 OA 
HETATM    6  N   UNL     1      -8.565   7.719  69.840  1.00  0.00    -0.136 N  
HETATM    7  O   UNL     1      -8.065   7.294  71.082  1.00  0.00    -0.101 OA 
HETATM    8  C   UNL     1      -9.930   7.790  69.667  1.00  0.00    -0.190 C  
HETATM    9  C   UNL     1     -10.366   8.209  68.454  1.00  0.00    -0.236 C  
ENDROOT
BRANCH   8  10
HETATM   10  C   UNL     1     -10.938   7.389  70.753  1.00  0.00    -0.272 C  
HETATM   11  C   UNL     1     -11.020   5.906  71.203  1.00  0.00    -0.327 C  
HETATM   12  C   UNL     1     -10.337   5.543  72.529  1.00  0.00    -0.246 C  
HETATM   13  C   UNL     1     -10.562   6.580  73.617  1.00  0.00    -0.306 C  
HETATM   14  C   UNL     1     -10.136   7.958  73.132  1.00  0.00    -0.362 C  
HETATM   15  C   UNL     1     -10.968   8.383  71.931  1.00  0.00    -0.375 C  
ENDBRANCH   8  10
TORSDOF 1
ENDMDL
MODEL      184
REMARK 921   NORMALIZED FREE ENERGY PREDICTED BY IDOCK:   -2.54 KCAL/MOL
REMARK 922        TOTAL FREE ENERGY PREDICTED BY IDOCK:   -2.99 KCAL/MOL
REMARK 923 INTER-LIGAND FREE ENERGY PREDICTED BY IDOCK:   -2.58 KCAL/MOL
REMARK 924 INTRA-LIGAND FREE ENERGY PREDICTED BY IDOCK:   -0.41 KCAL/MOL
REMARK 927      BINDING AFFINITY PREDICTED BY RF-SCORE:    0.00 PKD
ROOT
HETATM    1  C   UNL     1      -9.445   8.169  66.449  1.00  0.00    -0.285 C  
HETATM    2  C   UNL     1      -9.764   8.127  67.912  1.00  0.00    -0.191 C  
HETATM    3  C   UNL     1     -10.396   9.141  68.527  1.00  0.00    -0.236 C  
HETATM    4  C   UNL     1     -10.709   9.044  69.969  1.00  0.00    -0.229 C  
HETATM    5  O   UNL     1     -11.268   9.966  70.558  1.00  0.00    -0.279 OA 
HETATM    6  N   UNL     1     -10.327   7.867  70.584  1.00  0.00    -0.201 N  
HETATM    7  O   UNL     1     -10.644   7.778  71.950  1.00  0.00    -0.211 OA 
HETATM    8  C   UNL     1      -9.644   6.825  69.996  1.00  0.00    -0.157 C  
HETATM    9  C   UNL     1      -9.364   6.952  68.676  1.00  0.00    -0.135 C  
ENDROOT
BRANCH   8  10
HETATM   10  C   UNL     1      -9.173   5.585  70.768  1.00  0.00    -0.179 C  
HETATM   11  C   UNL     1      -9.376   4.179  70.143  1.00  0.00    -0.234 C  
HETATM   12  C   UNL     1      -8.149   3.520  69.499  1.00  0.00    -0.064 C  
HETATM   13  C   UNL     1      -6.879   3.708  70.312  1.00  0.00    -0.034 C  
HETATM   14  C   UNL     1      -6.637   5.185  70.585  1.00  0.00    -0.035 C  
HETATM   15  C   UNL     1      -7.779   5.772  71.400  1.00  0.00    -0.107 C  
ENDBRANCH   8  10
TORSDOF 1
ENDMDL
MODEL      185
REMARK 921   NORMALIZED FREE ENERGY PREDICTED BY IDOCK:   -2.54 KCAL/MOL
REMARK 922        TOTAL FREE ENERGY PREDICTED BY IDOCK:   -2.98 KCAL/MOL
REMARK 923 INTER-LIGAND FREE ENERGY PREDICTED BY IDOCK:   -3.04 KCAL/MOL
REMARK 924 INTRA-LIGAND FREE ENERGY PREDICTED BY IDOCK:    0.06 KCAL/MOL
REMARK 927      BINDING AFFINITY PREDICTED BY RF-SCORE:    0.00 PKD
ROOT
HETATM    1  C   UNL     1     -11.423  11.867  66.160  1.00  0.00    -0.352 C  
HETATM    2  C   UNL     1     -10.807  13.079  66.791  1.00  0.00    -0.285 C  
HETATM    3  C   UNL     1     -11.538  14.163  67.101  1.00  0.00    -0.400 C  
HETATM    4  C   UNL     1     -10.889  15.326  67.743  1.00  0.00    -0.295 C  
HETATM    5  O   UNL     1     -11.532  16.337  68.018  1.00  0.00    -0.272 OA 
HETATM    6  N   UNL     1      -9.537  15.191  67.996  1.00  0.00    -0.202 N  
HETATM    7  O   UNL     1      -8.933  16.295  68.621  1.00  0.00    -0.211 OA 
HETATM    8  C   UNL     1      -8.749  14.113  67.657  1.00  0.00    -0.187 C  
HETATM    9  C   UNL     1      -9.374  13.069  67.061  1.00  0.00    -0.236 C  
ENDROOT
BRANCH   8  10
HETATM   10  C   UNL     1      -7.233  14.072  67.890  1.00  0.00    -0.164 C  
HETATM   11  C   UNL     1      -6.661  14.541  69.254  1.00  0.00    -0.127 C  
HETATM   12  C   UNL     1      -6.252  13.447  70.250  1.00  0.00    -0.034 C  
HETATM   13  C   UNL     1      -5.528  12.285  69.592  1.00  0.00    -0.084 C  
HETATM   14  C   UNL     1      -6.363  11.716  68.454  1.00  0.00    -0.051 C  
HETATM   15  C   UNL     1      -6.588  12.768  67.378  1.00  0.00    -0.140 C  
ENDBRANCH   8  10
TORSDOF 1
ENDMDL
MODEL      186
REMARK 921   NORMALIZED FREE ENERGY PREDICTED BY IDOCK:   -2.53 KCAL/MOL
REMARK 922        TOTAL FREE ENERGY PREDICTED BY IDOCK:   -2.98 KCAL/MOL
REMARK 923 INTER-LIGAND FREE ENERGY PREDICTED BY IDOCK:   -2.57 KCAL/MOL
REMARK 924 INTRA-LIGAND FREE ENERGY PREDICTED BY IDOCK:   -0.41 KCAL/MOL
REMARK 927      BINDING AFFINITY PREDICTED BY RF-SCORE:    0.00 PKD
ROOT
HETATM    1  C   UNL     1      -8.500   9.997  64.561  1.00  0.00    -0.180 C  
HETATM    2  C   UNL     1      -9.232   9.662  65.825  1.00  0.00    -0.264 C  
HETATM    3  C   UNL     1     -10.095  10.523  66.390  1.00  0.00    -0.285 C  
HETATM    4  C   UNL     1     -10.810  10.138  67.626  1.00  0.00    -0.290 C  
HETATM    5  O   UNL     1     -11.589  10.915  68.174  1.00  0.00    -0.431 OA 
HETATM    6  N   UNL     1     -10.534   8.871  68.105  1.00  0.00    -0.219 N  
HETATM    7  O   UNL     1     -11.231   8.510  69.271  1.00  0.00     0.059 OA 
HETATM    8  C   UNL     1      -9.628   7.980  67.576  1.00  0.00    -0.153 C  
HETATM    9  C   UNL     1      -8.983   8.369  66.449  1.00  0.00    -0.207 C  
ENDROOT
BRANCH   8  10
HETATM   10  C   UNL     1      -9.309   6.622  68.217  1.00  0.00    -0.119 C  
HETATM   11  C   UNL     1      -9.421   5.333  67.361  1.00  0.00    -0.137 C  
HETATM   12  C   UNL     1      -8.111   4.731  66.834  1.00  0.00    -0.107 C  
HETATM   13  C   UNL     1      -6.994   4.749  67.864  1.00  0.00    -0.061 C  
HETATM   14  C   UNL     1      -6.783   6.159  68.394  1.00  0.00    -0.064 C  
HETATM   15  C   UNL     1      -8.039   6.662  69.090  1.00  0.00    -0.116 C  
ENDBRANCH   8  10
TORSDOF 1
ENDMDL
MODEL      187
REMARK 921   NORMALIZED FREE ENERGY PREDICTED BY IDOCK:   -2.53 KCAL/MOL
REMARK 922        TOTAL FREE ENERGY PREDICTED BY IDOCK:   -2.97 KCAL/MOL
REMARK 923 INTER-LIGAND FREE ENERGY PREDICTED BY IDOCK:   -3.47 KCAL/MOL
REMARK 924 INTRA-LIGAND FREE ENERGY PREDICTED BY IDOCK:    0.50 KCAL/MOL
REMARK 927      BINDING AFFINITY PREDICTED BY RF-SCORE:    0.00 PKD
ROOT
HETATM    1  C   UNL     1      -6.238  10.708  68.806  1.00  0.00    -0.043 C  
HETATM    2  C   UNL     1      -7.736  10.662  68.845  1.00  0.00    -0.121 C  
HETATM    3  C   UNL     1      -8.485  11.240  67.891  1.00  0.00    -0.133 C  
HETATM    4  C   UNL     1      -9.959  11.149  67.961  1.00  0.00    -0.176 C  
HETATM    5  O   UNL     1     -10.667  11.687  67.112  1.00  0.00    -0.225 OA 
HETATM    6  N   UNL     1     -10.463  10.435  69.032  1.00  0.00    -0.205 N  
HETATM    7  O   UNL     1     -11.864  10.341  69.080  1.00  0.00    -0.101 OA 
HETATM    8  C   UNL     1      -9.728   9.865  70.048  1.00  0.00    -0.227 C  
HETATM    9  C   UNL     1      -8.380   9.976  69.957  1.00  0.00    -0.137 C  
ENDROOT
BRANCH   8  10
HETATM   10  C   UNL     1     -10.364   9.163  71.255  1.00  0.00    -0.405 C  
HETATM   11  C   UNL     1     -11.727   9.670  71.798  1.00  0.00    -0.356 C  
HETATM   12  C   UNL     1     -12.973   8.861  71.414  1.00  0.00    -0.323 C  
HETATM   13  C   UNL     1     -12.751   7.360  71.479  1.00  0.00    -0.409 C  
HETATM   14  C   UNL     1     -11.550   6.964  70.633  1.00  0.00    -0.402 C  
HETATM   15  C   UNL     1     -10.284   7.625  71.158  1.00  0.00    -0.207 C  
ENDBRANCH   8  10
TORSDOF 1
ENDMDL
MODEL      188
REMARK 921   NORMALIZED FREE ENERGY PREDICTED BY IDOCK:   -2.52 KCAL/MOL
REMARK 922        TOTAL FREE ENERGY PREDICTED BY IDOCK:   -2.97 KCAL/MOL
REMARK 923 INTER-LIGAND FREE ENERGY PREDICTED BY IDOCK:   -2.56 KCAL/MOL
REMARK 924 INTRA-LIGAND FREE ENERGY PREDICTED BY IDOCK:   -0.40 KCAL/MOL
REMARK 927      BINDING AFFINITY PREDICTED BY RF-SCORE:    0.00 PKD
ROOT
HETATM    1  C   UNL     1     -10.764   9.959  69.225  1.00  0.00    -0.247 C  
HETATM    2  C   UNL     1     -10.594   8.491  69.476  1.00  0.00    -0.215 C  
HETATM    3  C   UNL     1     -11.106   7.897  70.567  1.00  0.00    -0.260 C  
HETATM    4  C   UNL     1     -10.931   6.441  70.759  1.00  0.00    -0.290 C  
HETATM    5  O   UNL     1     -11.371   5.878  71.759  1.00  0.00    -0.273 OA 
HETATM    6  N   UNL     1     -10.246   5.785  69.755  1.00  0.00    -0.213 N  
HETATM    7  O   UNL     1     -10.099   4.400  69.939  1.00  0.00    -0.222 OA 
HETATM    8  C   UNL     1      -9.674   6.366  68.644  1.00  0.00    -0.123 C  
HETATM    9  C   UNL     1      -9.845   7.704  68.505  1.00  0.00    -0.174 C  
ENDROOT
BRANCH   8  10
HETATM   10  C   UNL     1      -8.849   5.583  67.614  1.00  0.00    -0.105 C  
HETATM   11  C   UNL     1      -9.060   5.860  66.102  1.00  0.00    -0.160 C  
HETATM   12  C   UNL     1      -8.013   6.738  65.403  1.00  0.00    -0.121 C  
HETATM   13  C   UNL     1      -6.589   6.415  65.826  1.00  0.00    -0.047 C  
HETATM   14  C   UNL     1      -6.455   6.490  67.340  1.00  0.00    -0.038 C  
HETATM   15  C   UNL     1      -7.362   5.468  68.008  1.00  0.00    -0.073 C  
ENDBRANCH   8  10
TORSDOF 1
ENDMDL
MODEL      189
REMARK 921   NORMALIZED FREE ENERGY PREDICTED BY IDOCK:   -2.52 KCAL/MOL
REMARK 922        TOTAL FREE ENERGY PREDICTED BY IDOCK:   -2.96 KCAL/MOL
REMARK 923 INTER-LIGAND FREE ENERGY PREDICTED BY IDOCK:   -2.71 KCAL/MOL
REMARK 924 INTRA-LIGAND FREE ENERGY PREDICTED BY IDOCK:   -0.25 KCAL/MOL
REMARK 927      BINDING AFFINITY PREDICTED BY RF-SCORE:    0.00 PKD
ROOT
HETATM    1  C   UNL     1     -10.340   8.741  67.471  1.00  0.00    -0.334 C  
HETATM    2  C   UNL     1      -9.486   8.883  68.694  1.00  0.00    -0.153 C  
HETATM    3  C   UNL     1      -8.632   9.909  68.844  1.00  0.00    -0.135 C  
HETATM    4  C   UNL     1      -7.826  10.018  70.079  1.00  0.00    -0.158 C  
HETATM    5  O   UNL     1      -7.023  10.936  70.232  1.00  0.00    -0.213 OA 
HETATM    6  N   UNL     1      -8.039   9.028  71.019  1.00  0.00    -0.163 N  
HETATM    7  O   UNL     1      -7.280   9.149  72.196  1.00  0.00    -0.328 OA 
HETATM    8  C   UNL     1      -8.874   7.941  70.883  1.00  0.00    -0.138 C  
HETATM    9  C   UNL     1      -9.590   7.867  69.734  1.00  0.00    -0.167 C  
ENDROOT
BRANCH   8  10
HETATM   10  C   UNL     1      -8.991   6.831  71.936  1.00  0.00    -0.135 C  
HETATM   11  C   UNL     1     -10.296   5.996  72.019  1.00  0.00    -0.241 C  
HETATM   12  C   UNL     1     -10.266   4.594  71.397  1.00  0.00    -0.212 C  
HETATM   13  C   UNL     1      -8.978   3.842  71.689  1.00  0.00    -0.155 C  
HETATM   14  C   UNL     1      -7.774   4.666  71.259  1.00  0.00    -0.081 C  
HETATM   15  C   UNL     1      -7.714   5.972  72.038  1.00  0.00    -0.098 C  
ENDBRANCH   8  10
TORSDOF 1
ENDMDL
MODEL      190
REMARK 921   NORMALIZED FREE ENERGY PREDICTED BY IDOCK:   -2.50 KCAL/MOL
REMARK 922        TOTAL FREE ENERGY PREDICTED BY IDOCK:   -2.94 KCAL/MOL
REMARK 923 INTER-LIGAND FREE ENERGY PREDICTED BY IDOCK:   -2.68 KCAL/MOL
REMARK 924 INTRA-LIGAND FREE ENERGY PREDICTED BY IDOCK:   -0.27 KCAL/MOL
REMARK 927      BINDING AFFINITY PREDICTED BY RF-SCORE:    0.00 PKD
ROOT
HETATM    1  C   UNL     1      -8.078   8.342  71.745  1.00  0.00    -0.179 C  
HETATM    2  C   UNL     1      -8.736   8.185  70.408  1.00  0.00    -0.136 C  
HETATM    3  C   UNL     1      -9.349   7.044  70.053  1.00  0.00    -0.158 C  
HETATM    4  C   UNL     1     -10.004   6.945  68.731  1.00  0.00    -0.153 C  
HETATM    5  O   UNL     1     -10.554   5.905  68.374  1.00  0.00    -0.216 OA 
HETATM    6  N   UNL     1      -9.945   8.082  67.948  1.00  0.00    -0.171 N  
HETATM    7  O   UNL     1     -10.584   7.983  66.701  1.00  0.00    -0.277 OA 
HETATM    8  C   UNL     1      -9.292   9.254  68.263  1.00  0.00    -0.134 C  
HETATM    9  C   UNL     1      -8.694   9.306  69.479  1.00  0.00    -0.146 C  
ENDROOT
BRANCH   8  10
HETATM   10  C   UNL     1      -9.193  10.447  67.303  1.00  0.00    -0.157 C  
HETATM   11  C   UNL     1     -10.408  11.399  67.147  1.00  0.00    -0.247 C  
HETATM   12  C   UNL     1     -10.339  12.742  67.887  1.00  0.00    -0.228 C  
HETATM   13  C   UNL     1      -8.969  13.395  67.807  1.00  0.00    -0.205 C  
HETATM   14  C   UNL     1      -7.894  12.435  68.296  1.00  0.00    -0.150 C  
HETATM   15  C   UNL     1      -7.848  11.193  67.420  1.00  0.00    -0.121 C  
ENDBRANCH   8  10
TORSDOF 1
ENDMDL
MODEL      191
REMARK 921   NORMALIZED FREE ENERGY PREDICTED BY IDOCK:   -2.50 KCAL/MOL
REMARK 922        TOTAL FREE ENERGY PREDICTED BY IDOCK:   -2.94 KCAL/MOL
REMARK 923 INTER-LIGAND FREE ENERGY PREDICTED BY IDOCK:   -2.53 KCAL/MOL
REMARK 924 INTRA-LIGAND FREE ENERGY PREDICTED BY IDOCK:   -0.41 KCAL/MOL
REMARK 927      BINDING AFFINITY PREDICTED BY RF-SCORE:    0.00 PKD
ROOT
HETATM    1  C   UNL     1      -6.478   6.315  64.142  1.00  0.00    -0.030 C  
HETATM    2  C   UNL     1      -7.716   6.282  64.986  1.00  0.00    -0.101 C  
HETATM    3  C   UNL     1      -8.432   5.157  65.145  1.00  0.00    -0.147 C  
HETATM    4  C   UNL     1      -9.635   5.170  66.006  1.00  0.00    -0.162 C  
HETATM    5  O   UNL     1     -10.319   4.159  66.152  1.00  0.00    -0.143 OA 
HETATM    6  N   UNL     1      -9.923   6.378  66.612  1.00  0.00    -0.168 N  
HETATM    7  O   UNL     1     -11.058   6.374  67.441  1.00  0.00    -0.363 OA 
HETATM    8  C   UNL     1      -9.235   7.559  66.440  1.00  0.00    -0.167 C  
HETATM    9  C   UNL     1      -8.144   7.514  65.637  1.00  0.00    -0.128 C  
ENDROOT
BRANCH   8  10
HETATM   10  C   UNL     1      -9.669   8.886  67.078  1.00  0.00    -0.249 C  
HETATM   11  C   UNL     1      -8.635   9.715  67.884  1.00  0.00    -0.122 C  
HETATM   12  C   UNL     1      -8.017  10.931  67.181  1.00  0.00    -0.127 C  
HETATM   13  C   UNL     1      -9.030  11.732  66.380  1.00  0.00    -0.201 C  
HETATM   14  C   UNL     1      -9.759  10.831  65.394  1.00  0.00    -0.297 C  
HETATM   15  C   UNL     1     -10.530   9.746  66.131  1.00  0.00    -0.128 C  
ENDBRANCH   8  10
TORSDOF 1
ENDMDL
MODEL      192
REMARK 921   NORMALIZED FREE ENERGY PREDICTED BY IDOCK:   -2.47 KCAL/MOL
REMARK 922        TOTAL FREE ENERGY PREDICTED BY IDOCK:   -2.91 KCAL/MOL
REMARK 923 INTER-LIGAND FREE ENERGY PREDICTED BY IDOCK:   -2.82 KCAL/MOL
REMARK 924 INTRA-LIGAND FREE ENERGY PREDICTED BY IDOCK:   -0.09 KCAL/MOL
REMARK 927      BINDING AFFINITY PREDICTED BY RF-SCORE:    0.00 PKD
ROOT
HETATM    1  C   UNL     1      -8.567  15.865  67.288  1.00  0.00    -0.205 C  
HETATM    2  C   UNL     1      -8.314  14.422  67.605  1.00  0.00    -0.186 C  
HETATM    3  C   UNL     1      -7.365  14.046  68.478  1.00  0.00    -0.114 C  
HETATM    4  C   UNL     1      -7.169  12.610  68.774  1.00  0.00    -0.083 C  
HETATM    5  O   UNL     1      -6.294  12.240  69.554  1.00  0.00    -0.114 OA 
HETATM    6  N   UNL     1      -8.021  11.744  68.117  1.00  0.00    -0.138 N  
HETATM    7  O   UNL     1      -7.837  10.383  68.418  1.00  0.00    -0.098 OA 
HETATM    8  C   UNL     1      -8.976  12.090  67.187  1.00  0.00    -0.185 C  
HETATM    9  C   UNL     1      -9.123  13.413  66.932  1.00  0.00    -0.237 C  
ENDROOT
BRANCH   8  10
HETATM   10  C   UNL     1      -9.827  11.060  66.431  1.00  0.00    -0.252 C  
HETATM   11  C   UNL     1     -11.090  11.534  65.664  1.00  0.00    -0.261 C  
HETATM   12  C   UNL     1     -10.966  11.679  64.141  1.00  0.00    -0.442 C  
HETATM   13  C   UNL     1     -10.186  10.545  63.498  1.00  0.00    -0.073 C  
HETATM   14  C   UNL     1      -8.821  10.399  64.155  1.00  0.00    -0.228 C  
HETATM   15  C   UNL     1      -8.971  10.057  65.630  1.00  0.00    -0.203 C  
ENDBRANCH   8  10
TORSDOF 1
ENDMDL
MODEL      193
REMARK 921   NORMALIZED FREE ENERGY PREDICTED BY IDOCK:   -2.44 KCAL/MOL
REMARK 922        TOTAL FREE ENERGY PREDICTED BY IDOCK:   -2.88 KCAL/MOL
REMARK 923 INTER-LIGAND FREE ENERGY PREDICTED BY IDOCK:   -2.54 KCAL/MOL
REMARK 924 INTRA-LIGAND FREE ENERGY PREDICTED BY IDOCK:   -0.34 KCAL/MOL
REMARK 927      BINDING AFFINITY PREDICTED BY RF-SCORE:    0.00 PKD
ROOT
HETATM    1  C   UNL     1     -10.444   8.604  69.539  1.00  0.00    -0.222 C  
HETATM    2  C   UNL     1     -10.163   7.627  70.640  1.00  0.00    -0.199 C  
HETATM    3  C   UNL     1     -10.447   7.909  71.923  1.00  0.00    -0.284 C  
HETATM    4  C   UNL     1     -10.172   6.904  72.972  1.00  0.00    -0.218 C  
HETATM    5  O   UNL     1     -10.403   7.145  74.155  1.00  0.00    -0.307 OA 
HETATM    6  N   UNL     1      -9.641   5.708  72.529  1.00  0.00    -0.151 N  
HETATM    7  O   UNL     1      -9.398   4.754  73.532  1.00  0.00    -0.125 OA 
HETATM    8  C   UNL     1      -9.301   5.400  71.230  1.00  0.00    -0.147 C  
HETATM    9  C   UNL     1      -9.557   6.348  70.295  1.00  0.00    -0.177 C  
ENDROOT
BRANCH   8  10
HETATM   10  C   UNL     1      -8.631   4.080  70.825  1.00  0.00    -0.106 C  
HETATM   11  C   UNL     1      -9.486   2.963  70.172  1.00  0.00    -0.198 C  
HETATM   12  C   UNL     1      -9.378   2.804  68.649  1.00  0.00    -0.240 C  
HETATM   13  C   UNL     1      -7.953   2.933  68.138  1.00  0.00    -0.066 C  
HETATM   14  C   UNL     1      -7.338   4.244  68.605  1.00  0.00    -0.056 C  
HETATM   15  C   UNL     1      -7.273   4.293  70.124  1.00  0.00    -0.045 C  
ENDBRANCH   8  10
TORSDOF 1
ENDMDL
MODEL      194
REMARK 921   NORMALIZED FREE ENERGY PREDICTED BY IDOCK:   -2.43 KCAL/MOL
REMARK 922        TOTAL FREE ENERGY PREDICTED BY IDOCK:   -2.86 KCAL/MOL
REMARK 923 INTER-LIGAND FREE ENERGY PREDICTED BY IDOCK:   -3.10 KCAL/MOL
REMARK 924 INTRA-LIGAND FREE ENERGY PREDICTED BY IDOCK:    0.24 KCAL/MOL
REMARK 927      BINDING AFFINITY PREDICTED BY RF-SCORE:    0.00 PKD
ROOT
HETATM    1  C   UNL     1      -9.578   4.643  70.235  1.00  0.00    -0.270 C  
HETATM    2  C   UNL     1     -10.147   6.027  70.156  1.00  0.00    -0.249 C  
HETATM    3  C   UNL     1     -10.994   6.497  71.086  1.00  0.00    -0.314 C  
HETATM    4  C   UNL     1     -11.512   7.878  70.976  1.00  0.00    -0.280 C  
HETATM    5  O   UNL     1     -12.304   8.325  71.803  1.00  0.00    -0.298 OA 
HETATM    6  N   UNL     1     -11.051   8.604  69.894  1.00  0.00    -0.175 N  
HETATM    7  O   UNL     1     -11.535   9.920  69.807  1.00  0.00    -0.221 OA 
HETATM    8  C   UNL     1     -10.215   8.142  68.901  1.00  0.00    -0.210 C  
HETATM    9  C   UNL     1      -9.768   6.869  69.028  1.00  0.00    -0.150 C  
ENDROOT
BRANCH   8  10
HETATM   10  C   UNL     1      -9.816   8.981  67.679  1.00  0.00    -0.220 C  
HETATM   11  C   UNL     1     -10.924   9.638  66.814  1.00  0.00     0.078 C  
HETATM   12  C   UNL     1     -11.175  11.138  67.027  1.00  0.00    -0.291 C  
HETATM   13  C   UNL     1      -9.893  11.938  67.183  1.00  0.00    -0.206 C  
HETATM   14  C   UNL     1      -9.036  11.355  68.296  1.00  0.00    -0.175 C  
HETATM   15  C   UNL     1      -8.632   9.925  67.968  1.00  0.00    -0.121 C  
ENDBRANCH   8  10
TORSDOF 1
ENDMDL
MODEL      195
REMARK 921   NORMALIZED FREE ENERGY PREDICTED BY IDOCK:   -2.39 KCAL/MOL
REMARK 922        TOTAL FREE ENERGY PREDICTED BY IDOCK:   -2.83 KCAL/MOL
REMARK 923 INTER-LIGAND FREE ENERGY PREDICTED BY IDOCK:   -3.43 KCAL/MOL
REMARK 924 INTRA-LIGAND FREE ENERGY PREDICTED BY IDOCK:    0.60 KCAL/MOL
REMARK 927      BINDING AFFINITY PREDICTED BY RF-SCORE:    0.00 PKD
ROOT
HETATM    1  C   UNL     1      -7.072   5.463  67.140  1.00  0.00    -0.070 C  
HETATM    2  C   UNL     1      -8.030   6.593  67.372  1.00  0.00    -0.114 C  
HETATM    3  C   UNL     1      -8.471   7.362  66.363  1.00  0.00    -0.129 C  
HETATM    4  C   UNL     1      -9.433   8.451  66.639  1.00  0.00    -0.205 C  
HETATM    5  O   UNL     1      -9.836   9.182  65.736  1.00  0.00    -0.286 OA 
HETATM    6  N   UNL     1      -9.826   8.581  67.957  1.00  0.00    -0.163 N  
HETATM    7  O   UNL     1     -10.752   9.608  68.205  1.00  0.00    -0.231 OA 
HETATM    8  C   UNL     1      -9.365   7.838  69.021  1.00  0.00    -0.150 C  
HETATM    9  C   UNL     1      -8.477   6.855  68.734  1.00  0.00    -0.121 C  
ENDROOT
BRANCH   8  10
HETATM   10  C   UNL     1      -9.781   8.100  70.475  1.00  0.00    -0.181 C  
HETATM   11  C   UNL     1     -10.276   9.513  70.880  1.00  0.00    -0.356 C  
HETATM   12  C   UNL     1     -11.792   9.704  71.029  1.00  0.00    -0.428 C  
HETATM   13  C   UNL     1     -12.472   8.537  71.726  1.00  0.00    -0.388 C  
HETATM   14  C   UNL     1     -12.143   7.231  71.019  1.00  0.00    -0.361 C  
HETATM   15  C   UNL     1     -10.646   6.963  71.058  1.00  0.00    -0.244 C  
ENDBRANCH   8  10
TORSDOF 1
ENDMDL
MODEL      196
REMARK 921   NORMALIZED FREE ENERGY PREDICTED BY IDOCK:   -2.37 KCAL/MOL
REMARK 922        TOTAL FREE ENERGY PREDICTED BY IDOCK:   -2.81 KCAL/MOL
REMARK 923 INTER-LIGAND FREE ENERGY PREDICTED BY IDOCK:   -3.04 KCAL/MOL
REMARK 924 INTRA-LIGAND FREE ENERGY PREDICTED BY IDOCK:    0.24 KCAL/MOL
REMARK 927      BINDING AFFINITY PREDICTED BY RF-SCORE:    0.00 PKD
ROOT
HETATM    1  C   UNL     1      -5.495   9.586  70.073  1.00  0.00    -0.032 C  
HETATM    2  C   UNL     1      -6.952   9.819  69.807  1.00  0.00    -0.087 C  
HETATM    3  C   UNL     1      -7.905   9.313  70.607  1.00  0.00    -0.181 C  
HETATM    4  C   UNL     1      -9.329   9.589  70.315  1.00  0.00    -0.259 C  
HETATM    5  O   UNL     1     -10.221   9.120  71.019  1.00  0.00    -0.251 OA 
HETATM    6  N   UNL     1      -9.568  10.389  69.214  1.00  0.00    -0.216 N  
HETATM    7  O   UNL     1     -10.923  10.659  68.956  1.00  0.00    -0.214 OA 
HETATM    8  C   UNL     1      -8.620  10.891  68.351  1.00  0.00    -0.146 C  
HETATM    9  C   UNL     1      -7.326  10.611  68.642  1.00  0.00    -0.094 C  
ENDROOT
BRANCH   8  10
HETATM   10  C   UNL     1      -8.969  11.700  67.094  1.00  0.00    -0.173 C  
HETATM   11  C   UNL     1      -9.950  11.100  66.053  1.00  0.00    -0.280 C  
HETATM   12  C   UNL     1     -11.394  11.621  66.075  1.00  0.00    -0.261 C  
HETATM   13  C   UNL     1     -11.479  13.125  66.278  1.00  0.00    -0.372 C  
HETATM   14  C   UNL     1     -10.721  13.535  67.531  1.00  0.00    -0.266 C  
HETATM   15  C   UNL     1      -9.246  13.186  67.403  1.00  0.00    -0.213 C  
ENDBRANCH   8  10
TORSDOF 1
ENDMDL
MODEL      197
REMARK 921   NORMALIZED FREE ENERGY PREDICTED BY IDOCK:   -2.31 KCAL/MOL
REMARK 922        TOTAL FREE ENERGY PREDICTED BY IDOCK:   -2.74 KCAL/MOL
REMARK 923 INTER-LIGAND FREE ENERGY PREDICTED BY IDOCK:   -3.01 KCAL/MOL
REMARK 924 INTRA-LIGAND FREE ENERGY PREDICTED BY IDOCK:    0.27 KCAL/MOL
REMARK 927      BINDING AFFINITY PREDICTED BY RF-SCORE:    0.00 PKD
ROOT
HETATM    1  C   UNL     1     -11.393   4.697  73.450  1.00  0.00    -0.394 C  
HETATM    2  C   UNL     1     -11.307   5.840  72.484  1.00  0.00    -0.358 C  
HETATM    3  C   UNL     1     -12.249   6.796  72.435  1.00  0.00    -0.068 C  
HETATM    4  C   UNL     1     -12.108   7.915  71.479  1.00  0.00    -0.306 C  
HETATM    5  O   UNL     1     -12.967   8.791  71.400  1.00  0.00    -0.320 OA 
HETATM    6  N   UNL     1     -10.968   7.894  70.699  1.00  0.00    -0.242 N  
HETATM    7  O   UNL     1     -10.835   8.971  69.806  1.00  0.00    -0.231 OA 
HETATM    8  C   UNL     1     -10.002   6.912  70.695  1.00  0.00    -0.186 C  
HETATM    9  C   UNL     1     -10.168   5.895  71.576  1.00  0.00    -0.254 C  
ENDROOT
BRANCH   8  10
HETATM   10  C   UNL     1      -8.805   6.911  69.734  1.00  0.00    -0.141 C  
HETATM   11  C   UNL     1      -9.044   7.172  68.223  1.00  0.00    -0.134 C  
HETATM   12  C   UNL     1      -8.715   8.576  67.698  1.00  0.00    -0.136 C  
HETATM   13  C   UNL     1      -7.425   9.138  68.273  1.00  0.00    -0.083 C  
HETATM   14  C   UNL     1      -7.464   9.108  69.794  1.00  0.00    -0.069 C  
HETATM   15  C   UNL     1      -7.591   7.678  70.298  1.00  0.00    -0.089 C  
ENDBRANCH   8  10
TORSDOF 1
ENDMDL
MODEL      198
REMARK 921   NORMALIZED FREE ENERGY PREDICTED BY IDOCK:   -2.31 KCAL/MOL
REMARK 922        TOTAL FREE ENERGY PREDICTED BY IDOCK:   -2.74 KCAL/MOL
REMARK 923 INTER-LIGAND FREE ENERGY PREDICTED BY IDOCK:   -2.99 KCAL/MOL
REMARK 924 INTRA-LIGAND FREE ENERGY PREDICTED BY IDOCK:    0.25 KCAL/MOL
REMARK 927      BINDING AFFINITY PREDICTED BY RF-SCORE:    0.00 PKD
ROOT
HETATM    1  C   UNL     1      -7.838   9.207  71.033  1.00  0.00    -0.152 C  
HETATM    2  C   UNL     1      -8.921   8.264  71.460  1.00  0.00    -0.223 C  
HETATM    3  C   UNL     1     -10.221   8.589  71.358  1.00  0.00    -0.303 C  
HETATM    4  C   UNL     1     -11.254   7.615  71.771  1.00  0.00    -0.247 C  
HETATM    5  O   UNL     1     -12.449   7.896  71.707  1.00  0.00    -0.304 OA 
HETATM    6  N   UNL     1     -10.781   6.400  72.229  1.00  0.00    -0.214 N  
HETATM    7  O   UNL     1     -11.771   5.477  72.604  1.00  0.00    -0.293 OA 
HETATM    8  C   UNL     1      -9.458   6.048  72.385  1.00  0.00    -0.145 C  
HETATM    9  C   UNL     1      -8.537   6.968  72.005  1.00  0.00    -0.123 C  
ENDROOT
BRANCH   8  10
HETATM   10  C   UNL     1      -9.008   4.710  72.986  1.00  0.00    -0.122 C  
HETATM   11  C   UNL     1      -9.610   4.243  74.337  1.00  0.00    -0.137 C  
HETATM   12  C   UNL     1     -10.711   3.175  74.277  1.00  0.00    -0.209 C  
HETATM   13  C   UNL     1     -10.420   2.078  73.267  1.00  0.00    -0.215 C  
HETATM   14  C   UNL     1     -10.153   2.679  71.894  1.00  0.00    -0.154 C  
HETATM   15  C   UNL     1      -8.931   3.583  71.934  1.00  0.00    -0.150 C  
ENDBRANCH   8  10
TORSDOF 1
ENDMDL
MODEL      199
REMARK 921   NORMALIZED FREE ENERGY PREDICTED BY IDOCK:   -2.27 KCAL/MOL
REMARK 922        TOTAL FREE ENERGY PREDICTED BY IDOCK:   -2.69 KCAL/MOL
REMARK 923 INTER-LIGAND FREE ENERGY PREDICTED BY IDOCK:   -2.94 KCAL/MOL
REMARK 924 INTRA-LIGAND FREE ENERGY PREDICTED BY IDOCK:    0.24 KCAL/MOL
REMARK 927      BINDING AFFINITY PREDICTED BY RF-SCORE:    0.00 PKD
ROOT
HETATM    1  C   UNL     1     -13.588   7.609  71.146  1.00  0.00    -0.205 C  
HETATM    2  C   UNL     1     -12.306   6.836  71.080  1.00  0.00    -0.386 C  
HETATM    3  C   UNL     1     -11.653   6.648  69.921  1.00  0.00    -0.393 C  
HETATM    4  C   UNL     1     -10.379   5.897  69.912  1.00  0.00    -0.242 C  
HETATM    5  O   UNL     1      -9.773   5.694  68.861  1.00  0.00    -0.124 OA 
HETATM    6  N   UNL     1      -9.941   5.448  71.143  1.00  0.00    -0.187 N  
HETATM    7  O   UNL     1      -8.722   4.750  71.124  1.00  0.00    -0.113 OA 
HETATM    8  C   UNL     1     -10.603   5.587  72.343  1.00  0.00    -0.223 C  
HETATM    9  C   UNL     1     -11.772   6.272  72.314  1.00  0.00    -0.344 C  
ENDROOT
BRANCH   8  10
HETATM   10  C   UNL     1     -10.096   4.982  73.659  1.00  0.00    -0.207 C  
HETATM   11  C   UNL     1      -9.738   3.474  73.713  1.00  0.00    -0.141 C  
HETATM   12  C   UNL     1      -8.248   3.110  73.655  1.00  0.00    -0.074 C  
HETATM   13  C   UNL     1      -7.378   4.029  74.496  1.00  0.00    -0.070 C  
HETATM   14  C   UNL     1      -7.611   5.482  74.107  1.00  0.00    -0.093 C  
HETATM   15  C   UNL     1      -9.057   5.879  74.363  1.00  0.00    -0.133 C  
ENDBRANCH   8  10
TORSDOF 1
ENDMDL
MODEL      200
REMARK 921   NORMALIZED FREE ENERGY PREDICTED BY IDOCK:   -2.26 KCAL/MOL
REMARK 922        TOTAL FREE ENERGY PREDICTED BY IDOCK:   -2.68 KCAL/MOL
REMARK 923 INTER-LIGAND FREE ENERGY PREDICTED BY IDOCK:   -2.48 KCAL/MOL
REMARK 924 INTRA-LIGAND FREE ENERGY PREDICTED BY IDOCK:   -0.21 KCAL/MOL
REMARK 927      BINDING AFFINITY PREDICTED BY RF-SCORE:    0.00 PKD
ROOT
HETATM    1  C   UNL     1     -10.633   9.584  67.252  1.00  0.00    -0.317 C  
HETATM    2  C   UNL     1     -10.450   8.198  67.791  1.00  0.00    -0.279 C  
HETATM    3  C   UNL     1     -10.744   7.110  67.059  1.00  0.00    -0.420 C  
HETATM    4  C   UNL     1     -10.525   5.763  67.628  1.00  0.00    -0.235 C  
HETATM    5  O   UNL     1     -10.806   4.753  66.987  1.00  0.00     0.070 OA 
HETATM    6  N   UNL     1     -10.000   5.732  68.906  1.00  0.00    -0.149 N  
HETATM    7  O   UNL     1      -9.780   4.447  69.430  1.00  0.00    -0.186 OA 
HETATM    8  C   UNL     1      -9.724   6.824  69.699  1.00  0.00    -0.155 C  
HETATM    9  C   UNL     1      -9.946   8.044  69.150  1.00  0.00    -0.188 C  
ENDROOT
BRANCH   8  10
HETATM   10  C   UNL     1      -9.224   6.710  71.146  1.00  0.00    -0.159 C  
HETATM   11  C   UNL     1      -7.789   6.184  71.414  1.00  0.00    -0.108 C  
HETATM   12  C   UNL     1      -6.716   7.229  71.747  1.00  0.00    -0.051 C  
HETATM   13  C   UNL     1      -7.213   8.311  72.690  1.00  0.00    -0.133 C  
HETATM   14  C   UNL     1      -8.470   8.964  72.134  1.00  0.00     0.074 C  
HETATM   15  C   UNL     1      -9.589   7.942  71.999  1.00  0.00    -0.242 C  
ENDBRANCH   8  10
TORSDOF 1
ENDMDL
MODEL      201
REMARK 921   NORMALIZED FREE ENERGY PREDICTED BY IDOCK:   -2.23 KCAL/MOL
REMARK 922        TOTAL FREE ENERGY PREDICTED BY IDOCK:   -2.66 KCAL/MOL
REMARK 923 INTER-LIGAND FREE ENERGY PREDICTED BY IDOCK:   -2.27 KCAL/MOL
REMARK 924 INTRA-LIGAND FREE ENERGY PREDICTED BY IDOCK:   -0.39 KCAL/MOL
REMARK 927      BINDING AFFINITY PREDICTED BY RF-SCORE:    0.00 PKD
ROOT
HETATM    1  C   UNL     1     -10.098   6.751  68.835  1.00  0.00    -0.170 C  
HETATM    2  C   UNL     1      -9.740   7.492  67.582  1.00  0.00    -0.182 C  
HETATM    3  C   UNL     1     -10.270   8.692  67.296  1.00  0.00    -0.337 C  
HETATM    4  C   UNL     1      -9.868   9.394  66.057  1.00  0.00    -0.296 C  
HETATM    5  O   UNL     1     -10.354  10.483  65.762  1.00  0.00    -0.249 OA 
HETATM    6  N   UNL     1      -8.933   8.740  65.278  1.00  0.00    -0.173 N  
HETATM    7  O   UNL     1      -8.546   9.423  64.112  1.00  0.00    -0.179 OA 
HETATM    8  C   UNL     1      -8.399   7.494  65.520  1.00  0.00    -0.133 C  
HETATM    9  C   UNL     1      -8.796   6.875  66.658  1.00  0.00    -0.140 C  
ENDROOT
BRANCH   8  10
HETATM   10  C   UNL     1      -7.429   6.792  64.559  1.00  0.00    -0.099 C  
HETATM   11  C   UNL     1      -6.238   5.984  65.138  1.00  0.00    -0.037 C  
HETATM   12  C   UNL     1      -6.384   4.457  65.172  1.00  0.00    -0.035 C  
HETATM   13  C   UNL     1      -7.018   3.892  63.912  1.00  0.00    -0.045 C  
HETATM   14  C   UNL     1      -8.352   4.571  63.640  1.00  0.00    -0.109 C  
HETATM   15  C   UNL     1      -8.156   6.063  63.410  1.00  0.00    -0.084 C  
ENDBRANCH   8  10
TORSDOF 1
ENDMDL
MODEL      202
REMARK 921   NORMALIZED FREE ENERGY PREDICTED BY IDOCK:   -2.22 KCAL/MOL
REMARK 922        TOTAL FREE ENERGY PREDICTED BY IDOCK:   -2.65 KCAL/MOL
REMARK 923 INTER-LIGAND FREE ENERGY PREDICTED BY IDOCK:   -2.28 KCAL/MOL
REMARK 924 INTRA-LIGAND FREE ENERGY PREDICTED BY IDOCK:   -0.37 KCAL/MOL
REMARK 927      BINDING AFFINITY PREDICTED BY RF-SCORE:    0.00 PKD
ROOT
HETATM    1  C   UNL     1     -10.518   7.960  70.565  1.00  0.00    -0.214 C  
HETATM    2  C   UNL     1     -10.222   8.614  69.249  1.00  0.00    -0.215 C  
HETATM    3  C   UNL     1     -10.896   9.699  68.832  1.00  0.00    -0.201 C  
HETATM    4  C   UNL     1     -10.553  10.321  67.535  1.00  0.00    -0.268 C  
HETATM    5  O   UNL     1     -11.168  11.302  67.122  1.00  0.00    -0.293 OA 
HETATM    6  N   UNL     1      -9.518   9.724  66.841  1.00  0.00    -0.155 N  
HETATM    7  O   UNL     1      -9.190  10.333  65.618  1.00  0.00    -0.165 OA 
HETATM    8  C   UNL     1      -8.834   8.590  67.218  1.00  0.00    -0.130 C  
HETATM    9  C   UNL     1      -9.180   8.039  68.407  1.00  0.00    -0.135 C  
ENDROOT
BRANCH   8  10
HETATM   10  C   UNL     1      -7.753   7.931  66.350  1.00  0.00    -0.096 C  
HETATM   11  C   UNL     1      -6.507   7.307  67.031  1.00  0.00    -0.055 C  
HETATM   12  C   UNL     1      -6.487   5.779  67.181  1.00  0.00    -0.047 C  
HETATM   13  C   UNL     1      -7.001   5.055  65.948  1.00  0.00    -0.066 C  
HETATM   14  C   UNL     1      -8.389   5.558  65.577  1.00  0.00    -0.136 C  
HETATM   15  C   UNL     1      -8.346   7.041  65.238  1.00  0.00    -0.100 C  
ENDBRANCH   8  10
TORSDOF 1
ENDMDL
MODEL      203
REMARK 921   NORMALIZED FREE ENERGY PREDICTED BY IDOCK:   -2.22 KCAL/MOL
REMARK 922        TOTAL FREE ENERGY PREDICTED BY IDOCK:   -2.64 KCAL/MOL
REMARK 923 INTER-LIGAND FREE ENERGY PREDICTED BY IDOCK:   -2.23 KCAL/MOL
REMARK 924 INTRA-LIGAND FREE ENERGY PREDICTED BY IDOCK:   -0.41 KCAL/MOL
REMARK 927      BINDING AFFINITY PREDICTED BY RF-SCORE:    0.00 PKD
ROOT
HETATM    1  C   UNL     1     -10.618  10.378  66.953  1.00  0.00    -0.293 C  
HETATM    2  C   UNL     1      -9.415   9.500  66.788  1.00  0.00    -0.217 C  
HETATM    3  C   UNL     1      -8.534   9.691  65.792  1.00  0.00    -0.142 C  
HETATM    4  C   UNL     1      -7.349   8.812  65.684  1.00  0.00    -0.085 C  
HETATM    5  O   UNL     1      -6.539   8.952  64.770  1.00  0.00    -0.066 OA 
HETATM    6  N   UNL     1      -7.233   7.843  66.662  1.00  0.00    -0.082 N  
HETATM    7  O   UNL     1      -6.096   7.024  66.560  1.00  0.00    -0.033 OA 
HETATM    8  C   UNL     1      -8.136   7.594  67.673  1.00  0.00    -0.121 C  
HETATM    9  C   UNL     1      -9.215   8.412  67.737  1.00  0.00    -0.142 C  
ENDROOT
BRANCH   8  10
HETATM   10  C   UNL     1      -7.983   6.439  68.672  1.00  0.00    -0.106 C  
HETATM   11  C   UNL     1      -8.091   6.731  70.192  1.00  0.00    -0.128 C  
HETATM   12  C   UNL     1      -9.416   6.373  70.878  1.00  0.00    -0.185 C  
HETATM   13  C   UNL     1      -9.982   5.040  70.417  1.00  0.00    -0.317 C  
HETATM   14  C   UNL     1     -10.117   5.017  68.901  1.00  0.00    -0.215 C  
HETATM   15  C   UNL     1      -8.755   5.175  68.241  1.00  0.00    -0.104 C  
ENDBRANCH   8  10
TORSDOF 1
ENDMDL
MODEL      204
REMARK 921   NORMALIZED FREE ENERGY PREDICTED BY IDOCK:   -2.20 KCAL/MOL
REMARK 922        TOTAL FREE ENERGY PREDICTED BY IDOCK:   -2.62 KCAL/MOL
REMARK 923 INTER-LIGAND FREE ENERGY PREDICTED BY IDOCK:   -2.43 KCAL/MOL
REMARK 924 INTRA-LIGAND FREE ENERGY PREDICTED BY IDOCK:   -0.20 KCAL/MOL
REMARK 927      BINDING AFFINITY PREDICTED BY RF-SCORE:    0.00 PKD
ROOT
HETATM    1  C   UNL     1     -10.657   9.971  67.770  1.00  0.00    -0.311 C  
HETATM    2  C   UNL     1     -10.261   9.931  66.325  1.00  0.00    -0.282 C  
HETATM    3  C   UNL     1     -10.738  10.819  65.438  1.00  0.00    -0.149 C  
HETATM    4  C   UNL     1     -10.301  10.752  64.027  1.00  0.00    -0.286 C  
HETATM    5  O   UNL     1     -10.739  11.541  63.191  1.00  0.00    -0.317 OA 
HETATM    6  N   UNL     1      -9.391   9.756  63.730  1.00  0.00    -0.209 N  
HETATM    7  O   UNL     1      -8.969   9.712  62.391  1.00  0.00    -0.235 OA 
HETATM    8  C   UNL     1      -8.911   8.805  64.604  1.00  0.00     0.084 C  
HETATM    9  C   UNL     1      -9.340   8.889  65.887  1.00  0.00    -0.301 C  
ENDROOT
BRANCH   8  10
HETATM   10  C   UNL     1      -7.968   7.671  64.180  1.00  0.00    -0.105 C  
HETATM   11  C   UNL     1      -6.514   8.011  63.758  1.00  0.00    -0.067 C  
HETATM   12  C   UNL     1      -5.410   7.750  64.792  1.00  0.00    -0.029 C  
HETATM   13  C   UNL     1      -5.595   6.441  65.541  1.00  0.00    -0.018 C  
HETATM   14  C   UNL     1      -6.977   6.384  66.177  1.00  0.00    -0.066 C  
HETATM   15  C   UNL     1      -8.059   6.444  65.109  1.00  0.00    -0.136 C  
ENDBRANCH   8  10
TORSDOF 1
ENDMDL
MODEL      205
REMARK 921   NORMALIZED FREE ENERGY PREDICTED BY IDOCK:   -2.19 KCAL/MOL
REMARK 922        TOTAL FREE ENERGY PREDICTED BY IDOCK:   -2.62 KCAL/MOL
REMARK 923 INTER-LIGAND FREE ENERGY PREDICTED BY IDOCK:   -3.01 KCAL/MOL
REMARK 924 INTRA-LIGAND FREE ENERGY PREDICTED BY IDOCK:    0.39 KCAL/MOL
REMARK 927      BINDING AFFINITY PREDICTED BY RF-SCORE:    0.00 PKD
ROOT
HETATM    1  C   UNL     1     -11.085   9.350  69.878  1.00  0.00    -0.223 C  
HETATM    2  C   UNL     1     -10.482   8.564  71.003  1.00  0.00    -0.264 C  
HETATM    3  C   UNL     1      -9.676   9.138  71.913  1.00  0.00    -0.076 C  
HETATM    4  C   UNL     1      -9.123   8.325  73.017  1.00  0.00    -0.249 C  
HETATM    5  O   UNL     1      -8.367   8.822  73.850  1.00  0.00    -0.306 OA 
HETATM    6  N   UNL     1      -9.508   6.999  73.033  1.00  0.00    -0.144 N  
HETATM    7  O   UNL     1      -8.990   6.240  74.096  1.00  0.00    -0.129 OA 
HETATM    8  C   UNL     1     -10.298   6.369  72.097  1.00  0.00    -0.189 C  
HETATM    9  C   UNL     1     -10.780   7.140  71.093  1.00  0.00    -0.252 C  
ENDROOT
BRANCH   8  10
HETATM   10  C   UNL     1     -10.610   4.866  72.133  1.00  0.00    -0.232 C  
HETATM   11  C   UNL     1      -9.489   3.849  71.792  1.00  0.00    -0.210 C  
HETATM   12  C   UNL     1      -8.812   3.138  72.973  1.00  0.00    -0.091 C  
HETATM   13  C   UNL     1      -9.794   2.708  74.049  1.00  0.00    -0.141 C  
HETATM   14  C   UNL     1     -10.623   3.895  74.517  1.00  0.00    -0.209 C  
HETATM   15  C   UNL     1     -11.442   4.462  73.367  1.00  0.00    -0.297 C  
ENDBRANCH   8  10
TORSDOF 1
ENDMDL
MODEL      206
REMARK 921   NORMALIZED FREE ENERGY PREDICTED BY IDOCK:   -2.16 KCAL/MOL
REMARK 922        TOTAL FREE ENERGY PREDICTED BY IDOCK:   -2.58 KCAL/MOL
REMARK 923 INTER-LIGAND FREE ENERGY PREDICTED BY IDOCK:   -3.01 KCAL/MOL
REMARK 924 INTRA-LIGAND FREE ENERGY PREDICTED BY IDOCK:    0.43 KCAL/MOL
REMARK 927      BINDING AFFINITY PREDICTED BY RF-SCORE:    0.00 PKD
ROOT
HETATM    1  C   UNL     1     -13.695   7.476  71.956  1.00  0.00    -0.232 C  
HETATM    2  C   UNL     1     -12.796   8.508  71.347  1.00  0.00    -0.277 C  
HETATM    3  C   UNL     1     -13.123   9.811  71.336  1.00  0.00    -0.489 C  
HETATM    4  C   UNL     1     -12.192  10.795  70.742  1.00  0.00    -0.381 C  
HETATM    5  O   UNL     1     -12.477  11.991  70.702  1.00  0.00    -0.315 OA 
HETATM    6  N   UNL     1     -11.013  10.277  70.245  1.00  0.00    -0.303 N  
HETATM    7  O   UNL     1     -10.128  11.222  69.698  1.00  0.00     0.103 OA 
HETATM    8  C   UNL     1     -10.663   8.945  70.202  1.00  0.00    -0.225 C  
HETATM    9  C   UNL     1     -11.543   8.069  70.746  1.00  0.00    -0.251 C  
ENDROOT
BRANCH   8  10
HETATM   10  C   UNL     1      -9.370   8.434  69.551  1.00  0.00    -0.158 C  
HETATM   11  C   UNL     1      -8.241   9.443  69.210  1.00  0.00    -0.111 C  
HETATM   12  C   UNL     1      -7.043   9.495  70.168  1.00  0.00    -0.099 C  
HETATM   13  C   UNL     1      -6.588   8.120  70.626  1.00  0.00    -0.037 C  
HETATM   14  C   UNL     1      -7.752   7.351  71.235  1.00  0.00    -0.087 C  
HETATM   15  C   UNL     1      -8.849   7.137  70.203  1.00  0.00    -0.145 C  
ENDBRANCH   8  10
TORSDOF 1
ENDMDL
MODEL      207
REMARK 921   NORMALIZED FREE ENERGY PREDICTED BY IDOCK:   -2.16 KCAL/MOL
REMARK 922        TOTAL FREE ENERGY PREDICTED BY IDOCK:   -2.58 KCAL/MOL
REMARK 923 INTER-LIGAND FREE ENERGY PREDICTED BY IDOCK:   -2.83 KCAL/MOL
REMARK 924 INTRA-LIGAND FREE ENERGY PREDICTED BY IDOCK:    0.25 KCAL/MOL
REMARK 927      BINDING AFFINITY PREDICTED BY RF-SCORE:    0.00 PKD
ROOT
HETATM    1  C   UNL     1     -11.857  12.026  68.145  1.00  0.00    -0.352 C  
HETATM    2  C   UNL     1     -11.386  10.897  69.011  1.00  0.00    -0.348 C  
HETATM    3  C   UNL     1     -12.149  10.398  69.998  1.00  0.00    -0.297 C  
HETATM    4  C   UNL     1     -11.649   9.268  70.811  1.00  0.00    -0.285 C  
HETATM    5  O   UNL     1     -12.319   8.807  71.732  1.00  0.00    -0.309 OA 
HETATM    6  N   UNL     1     -10.399   8.791  70.464  1.00  0.00    -0.195 N  
HETATM    7  O   UNL     1      -9.941   7.707  71.232  1.00  0.00    -0.179 OA 
HETATM    8  C   UNL     1      -9.574   9.302  69.487  1.00  0.00    -0.173 C  
HETATM    9  C   UNL     1     -10.060  10.343  68.768  1.00  0.00    -0.198 C  
ENDROOT
BRANCH   8  10
HETATM   10  C   UNL     1      -8.159   8.774  69.219  1.00  0.00    -0.110 C  
HETATM   11  C   UNL     1      -7.102   8.823  70.354  1.00  0.00    -0.048 C  
HETATM   12  C   UNL     1      -6.817   7.510  71.097  1.00  0.00    -0.050 C  
HETATM   13  C   UNL     1      -6.741   6.308  70.171  1.00  0.00    -0.050 C  
HETATM   14  C   UNL     1      -8.003   6.206  69.328  1.00  0.00    -0.108 C  
HETATM   15  C   UNL     1      -8.160   7.438  68.448  1.00  0.00    -0.125 C  
ENDBRANCH   8  10
TORSDOF 1
ENDMDL
MODEL      208
REMARK 921   NORMALIZED FREE ENERGY PREDICTED BY IDOCK:   -2.15 KCAL/MOL
REMARK 922        TOTAL FREE ENERGY PREDICTED BY IDOCK:   -2.58 KCAL/MOL
REMARK 923 INTER-LIGAND FREE ENERGY PREDICTED BY IDOCK:   -2.43 KCAL/MOL
REMARK 924 INTRA-LIGAND FREE ENERGY PREDICTED BY IDOCK:   -0.15 KCAL/MOL
REMARK 927      BINDING AFFINITY PREDICTED BY RF-SCORE:    0.00 PKD
ROOT
HETATM    1  C   UNL     1     -10.431   6.996  67.885  1.00  0.00    -0.267 C  
HETATM    2  C   UNL     1     -10.733   6.845  69.346  1.00  0.00    -0.275 C  
HETATM    3  C   UNL     1     -11.962   7.067  69.840  1.00  0.00     0.039 C  
HETATM    4  C   UNL     1     -12.215   6.883  71.285  1.00  0.00    -0.380 C  
HETATM    5  O   UNL     1     -13.326   7.100  71.765  1.00  0.00    -0.353 OA 
HETATM    6  N   UNL     1     -11.131   6.465  72.032  1.00  0.00    -0.252 N  
HETATM    7  O   UNL     1     -11.387   6.277  73.401  1.00  0.00    -0.038 OA 
HETATM    8  C   UNL     1      -9.850   6.266  71.568  1.00  0.00    -0.173 C  
HETATM    9  C   UNL     1      -9.650   6.453  70.240  1.00  0.00    -0.177 C  
ENDROOT
BRANCH   8  10
HETATM   10  C   UNL     1      -8.673   5.887  72.478  1.00  0.00    -0.123 C  
HETATM   11  C   UNL     1      -7.388   5.287  71.848  1.00  0.00    -0.087 C  
HETATM   12  C   UNL     1      -6.190   6.232  71.679  1.00  0.00    -0.041 C  
HETATM   13  C   UNL     1      -5.979   7.143  72.876  1.00  0.00    -0.048 C  
HETATM   14  C   UNL     1      -7.254   7.914  73.188  1.00  0.00    -0.121 C  
HETATM   15  C   UNL     1      -8.382   6.958  73.548  1.00  0.00    -0.134 C  
ENDBRANCH   8  10
TORSDOF 1
ENDMDL
MODEL      209
REMARK 921   NORMALIZED FREE ENERGY PREDICTED BY IDOCK:   -2.14 KCAL/MOL
REMARK 922        TOTAL FREE ENERGY PREDICTED BY IDOCK:   -2.57 KCAL/MOL
REMARK 923 INTER-LIGAND FREE ENERGY PREDICTED BY IDOCK:   -2.25 KCAL/MOL
REMARK 924 INTRA-LIGAND FREE ENERGY PREDICTED BY IDOCK:   -0.31 KCAL/MOL
REMARK 927      BINDING AFFINITY PREDICTED BY RF-SCORE:    0.00 PKD
ROOT
HETATM    1  C   UNL     1      -6.679   6.227  66.380  1.00  0.00    -0.056 C  
HETATM    2  C   UNL     1      -7.991   6.282  67.102  1.00  0.00    -0.109 C  
HETATM    3  C   UNL     1      -9.158   6.368  66.442  1.00  0.00    -0.168 C  
HETATM    4  C   UNL     1     -10.428   6.398  67.199  1.00  0.00    -0.277 C  
HETATM    5  O   UNL     1     -11.508   6.497  66.619  1.00  0.00    -0.046 OA 
HETATM    6  N   UNL     1     -10.307   6.314  68.573  1.00  0.00    -0.181 N  
HETATM    7  O   UNL     1     -11.520   6.326  69.281  1.00  0.00    -0.411 OA 
HETATM    8  C   UNL     1      -9.128   6.265  69.284  1.00  0.00    -0.134 C  
HETATM    9  C   UNL     1      -7.983   6.250  68.559  1.00  0.00    -0.105 C  
ENDROOT
BRANCH   8  10
HETATM   10  C   UNL     1      -9.070   6.264  70.818  1.00  0.00    -0.150 C  
HETATM   11  C   UNL     1      -7.901   5.536  71.533  1.00  0.00    -0.111 C  
HETATM   12  C   UNL     1      -6.764   6.413  72.076  1.00  0.00    -0.067 C  
HETATM   13  C   UNL     1      -7.261   7.685  72.743  1.00  0.00    -0.087 C  
HETATM   14  C   UNL     1      -8.159   8.465  71.794  1.00  0.00    -0.192 C  
HETATM   15  C   UNL     1      -9.387   7.646  71.425  1.00  0.00    -0.157 C  
ENDBRANCH   8  10
TORSDOF 1
ENDMDL
MODEL      210
REMARK 921   NORMALIZED FREE ENERGY PREDICTED BY IDOCK:   -2.14 KCAL/MOL
REMARK 922        TOTAL FREE ENERGY PREDICTED BY IDOCK:   -2.56 KCAL/MOL
REMARK 923 INTER-LIGAND FREE ENERGY PREDICTED BY IDOCK:   -2.79 KCAL/MOL
REMARK 924 INTRA-LIGAND FREE ENERGY PREDICTED BY IDOCK:    0.24 KCAL/MOL
REMARK 927      BINDING AFFINITY PREDICTED BY RF-SCORE:    0.00 PKD
ROOT
HETATM    1  C   UNL     1      -7.493   8.889  68.693  1.00  0.00    -0.088 C  
HETATM    2  C   UNL     1      -7.649  10.376  68.578  1.00  0.00    -0.095 C  
HETATM    3  C   UNL     1      -6.705  11.221  69.025  1.00  0.00    -0.089 C  
HETATM    4  C   UNL     1      -6.895  12.679  68.870  1.00  0.00    -0.097 C  
HETATM    5  O   UNL     1      -6.056  13.474  69.288  1.00  0.00    -0.086 OA 
HETATM    6  N   UNL     1      -8.062  13.066  68.239  1.00  0.00    -0.149 N  
HETATM    7  O   UNL     1      -8.225  14.452  68.082  1.00  0.00    -0.133 OA 
HETATM    8  C   UNL     1      -9.068  12.230  67.806  1.00  0.00    -0.191 C  
HETATM    9  C   UNL     1      -8.866  10.900  67.973  1.00  0.00    -0.135 C  
ENDROOT
BRANCH   8  10
HETATM   10  C   UNL     1     -10.380  12.739  67.194  1.00  0.00    -0.237 C  
HETATM   11  C   UNL     1     -11.242  13.759  67.985  1.00  0.00    -0.293 C  
HETATM   12  C   UNL     1     -11.154  15.229  67.552  1.00  0.00    -0.324 C  
HETATM   13  C   UNL     1     -11.138  15.403  66.042  1.00  0.00    -0.233 C  
HETATM   14  C   UNL     1     -10.022  14.574  65.424  1.00  0.00    -0.352 C  
HETATM   15  C   UNL     1     -10.240  13.094  65.699  1.00  0.00    -0.294 C  
ENDBRANCH   8  10
TORSDOF 1
ENDMDL
MODEL      211
REMARK 921   NORMALIZED FREE ENERGY PREDICTED BY IDOCK:   -1.99 KCAL/MOL
REMARK 922        TOTAL FREE ENERGY PREDICTED BY IDOCK:   -2.41 KCAL/MOL
REMARK 923 INTER-LIGAND FREE ENERGY PREDICTED BY IDOCK:   -2.67 KCAL/MOL
REMARK 924 INTRA-LIGAND FREE ENERGY PREDICTED BY IDOCK:    0.26 KCAL/MOL
REMARK 927      BINDING AFFINITY PREDICTED BY RF-SCORE:    0.00 PKD
ROOT
HETATM    1  C   UNL     1     -10.553   7.949  67.166  1.00  0.00    -0.383 C  
HETATM    2  C   UNL     1     -10.118   9.343  67.500  1.00  0.00    -0.268 C  
HETATM    3  C   UNL     1     -11.003  10.344  67.640  1.00  0.00    -0.374 C  
HETATM    4  C   UNL     1     -10.527  11.700  67.992  1.00  0.00    -0.194 C  
HETATM    5  O   UNL     1     -11.314  12.637  68.106  1.00  0.00    -0.249 OA 
HETATM    6  N   UNL     1      -9.162  11.825  68.171  1.00  0.00    -0.181 N  
HETATM    7  O   UNL     1      -8.722  13.113  68.521  1.00  0.00    -0.146 OA 
HETATM    8  C   UNL     1      -8.224  10.832  67.996  1.00  0.00    -0.115 C  
HETATM    9  C   UNL     1      -8.694   9.605  67.665  1.00  0.00    -0.126 C  
ENDROOT
BRANCH   8  10
HETATM   10  C   UNL     1      -6.713  11.070  68.126  1.00  0.00    -0.062 C  
HETATM   11  C   UNL     1      -6.016  12.070  67.166  1.00  0.00    -0.153 C  
HETATM   12  C   UNL     1      -5.688  13.461  67.727  1.00  0.00    -0.112 C  
HETATM   13  C   UNL     1      -5.147  13.416  69.146  1.00  0.00    -0.073 C  
HETATM   14  C   UNL     1      -6.104  12.661  70.057  1.00  0.00    -0.115 C  
HETATM   15  C   UNL     1      -6.259  11.220  69.593  1.00  0.00    -0.113 C  
ENDBRANCH   8  10
TORSDOF 1
ENDMDL
MODEL      212
REMARK 921   NORMALIZED FREE ENERGY PREDICTED BY IDOCK:   -1.97 KCAL/MOL
REMARK 922        TOTAL FREE ENERGY PREDICTED BY IDOCK:   -2.38 KCAL/MOL
REMARK 923 INTER-LIGAND FREE ENERGY PREDICTED BY IDOCK:   -1.98 KCAL/MOL
REMARK 924 INTRA-LIGAND FREE ENERGY PREDICTED BY IDOCK:   -0.40 KCAL/MOL
REMARK 927      BINDING AFFINITY PREDICTED BY RF-SCORE:    0.00 PKD
ROOT
HETATM    1  C   UNL     1      -7.010   5.501  69.809  1.00  0.00    -0.062 C  
HETATM    2  C   UNL     1      -7.962   6.649  69.956  1.00  0.00    -0.116 C  
HETATM    3  C   UNL     1      -9.045   6.571  70.748  1.00  0.00    -0.154 C  
HETATM    4  C   UNL     1      -9.943   7.739  70.877  1.00  0.00    -0.183 C  
HETATM    5  O   UNL     1     -10.951   7.686  71.579  1.00  0.00    -0.231 OA 
HETATM    6  N   UNL     1      -9.571   8.860  70.161  1.00  0.00    -0.171 N  
HETATM    7  O   UNL     1     -10.422   9.969  70.304  1.00  0.00    -0.274 OA 
HETATM    8  C   UNL     1      -8.493   8.963  69.311  1.00  0.00    -0.121 C  
HETATM    9  C   UNL     1      -7.696   7.871  69.208  1.00  0.00    -0.099 C  
ENDROOT
BRANCH   8  10
HETATM   10  C   UNL     1      -8.193  10.216  68.477  1.00  0.00    -0.111 C  
HETATM   11  C   UNL     1      -6.828  10.934  68.648  1.00  0.00    -0.062 C  
HETATM   12  C   UNL     1      -5.767  10.679  67.569  1.00  0.00    -0.044 C  
HETATM   13  C   UNL     1      -6.342  10.672  66.162  1.00  0.00    -0.128 C  
HETATM   14  C   UNL     1      -7.488   9.676  66.061  1.00  0.00    -0.099 C  
HETATM   15  C   UNL     1      -8.618  10.064  67.002  1.00  0.00    -0.126 C  
ENDBRANCH   8  10
TORSDOF 1
ENDMDL
MODEL      213
REMARK 921   NORMALIZED FREE ENERGY PREDICTED BY IDOCK:   -1.94 KCAL/MOL
REMARK 922        TOTAL FREE ENERGY PREDICTED BY IDOCK:   -2.35 KCAL/MOL
REMARK 923 INTER-LIGAND FREE ENERGY PREDICTED BY IDOCK:   -2.02 KCAL/MOL
REMARK 924 INTRA-LIGAND FREE ENERGY PREDICTED BY IDOCK:   -0.33 KCAL/MOL
REMARK 927      BINDING AFFINITY PREDICTED BY RF-SCORE:    0.00 PKD
ROOT
HETATM    1  C   UNL     1      -7.554   6.819  70.348  1.00  0.00    -0.095 C  
HETATM    2  C   UNL     1      -7.135   8.246  70.169  1.00  0.00    -0.040 C  
HETATM    3  C   UNL     1      -6.441   8.902  71.114  1.00  0.00    -0.066 C  
HETATM    4  C   UNL     1      -6.032  10.304  70.882  1.00  0.00    -0.054 C  
HETATM    5  O   UNL     1      -5.414  10.933  71.739  1.00  0.00    -0.326 OA 
HETATM    6  N   UNL     1      -6.395  10.838  69.660  1.00  0.00    -0.075 N  
HETATM    7  O   UNL     1      -5.987  12.165  69.443  1.00  0.00    -0.077 OA 
HETATM    8  C   UNL     1      -7.139  10.210  68.686  1.00  0.00    -0.074 C  
HETATM    9  C   UNL     1      -7.506   8.929  68.936  1.00  0.00    -0.082 C  
ENDROOT
BRANCH   8  10
HETATM   10  C   UNL     1      -7.582  10.899  67.388  1.00  0.00    -0.100 C  
HETATM   11  C   UNL     1      -7.727  10.058  66.093  1.00  0.00    -0.108 C  
HETATM   12  C   UNL     1      -9.150   9.663  65.676  1.00  0.00    -0.236 C  
HETATM   13  C   UNL     1     -10.155  10.789  65.853  1.00  0.00    -0.314 C  
HETATM   14  C   UNL     1     -10.120  11.312  67.281  1.00  0.00    -0.214 C  
HETATM   15  C   UNL     1      -8.749  11.884  67.607  1.00  0.00    -0.162 C  
ENDBRANCH   8  10
TORSDOF 1
ENDMDL
MODEL      214
REMARK 921   NORMALIZED FREE ENERGY PREDICTED BY IDOCK:   -1.91 KCAL/MOL
REMARK 922        TOTAL FREE ENERGY PREDICTED BY IDOCK:   -2.32 KCAL/MOL
REMARK 923 INTER-LIGAND FREE ENERGY PREDICTED BY IDOCK:   -2.84 KCAL/MOL
REMARK 924 INTRA-LIGAND FREE ENERGY PREDICTED BY IDOCK:    0.51 KCAL/MOL
REMARK 927      BINDING AFFINITY PREDICTED BY RF-SCORE:    0.00 PKD
ROOT
HETATM    1  C   UNL     1      -9.077  14.681  67.673  1.00  0.00    -0.193 C  
HETATM    2  C   UNL     1      -9.436  13.336  67.118  1.00  0.00    -0.240 C  
HETATM    3  C   UNL     1      -9.608  13.139  65.801  1.00  0.00    -0.075 C  
HETATM    4  C   UNL     1      -9.940  11.788  65.299  1.00  0.00    -0.253 C  
HETATM    5  O   UNL     1     -10.122  11.586  64.100  1.00  0.00    -0.262 OA 
HETATM    6  N   UNL     1     -10.032  10.800  66.261  1.00  0.00    -0.215 N  
HETATM    7  O   UNL     1     -10.332   9.517  65.772  1.00  0.00    -0.182 OA 
HETATM    8  C   UNL     1      -9.902  10.973  67.621  1.00  0.00    -0.172 C  
HETATM    9  C   UNL     1      -9.608  12.226  68.047  1.00  0.00    -0.206 C  
ENDROOT
BRANCH   8  10
HETATM   10  C   UNL     1     -10.108   9.842  68.637  1.00  0.00    -0.186 C  
HETATM   11  C   UNL     1     -10.327   8.393  68.127  1.00  0.00    -0.255 C  
HETATM   12  C   UNL     1      -9.125   7.442  68.194  1.00  0.00    -0.131 C  
HETATM   13  C   UNL     1      -8.330   7.578  69.482  1.00  0.00    -0.131 C  
HETATM   14  C   UNL     1      -7.907   9.024  69.694  1.00  0.00    -0.088 C  
HETATM   15  C   UNL     1      -9.126   9.925  69.825  1.00  0.00    -0.249 C  
ENDBRANCH   8  10
TORSDOF 1
ENDMDL
MODEL      215
REMARK 921   NORMALIZED FREE ENERGY PREDICTED BY IDOCK:   -1.87 KCAL/MOL
REMARK 922        TOTAL FREE ENERGY PREDICTED BY IDOCK:   -2.27 KCAL/MOL
REMARK 923 INTER-LIGAND FREE ENERGY PREDICTED BY IDOCK:   -1.99 KCAL/MOL
REMARK 924 INTRA-LIGAND FREE ENERGY PREDICTED BY IDOCK:   -0.29 KCAL/MOL
REMARK 927      BINDING AFFINITY PREDICTED BY RF-SCORE:    0.00 PKD
ROOT
HETATM    1  C   UNL     1      -6.210   5.320  65.791  1.00  0.00    -0.034 C  
HETATM    2  C   UNL     1      -7.652   5.621  66.067  1.00  0.00    -0.087 C  
HETATM    3  C   UNL     1      -8.639   4.837  65.601  1.00  0.00    -0.127 C  
HETATM    4  C   UNL     1     -10.046   5.164  65.919  1.00  0.00    -0.123 C  
HETATM    5  O   UNL     1     -10.968   4.475  65.488  1.00  0.00    -0.247 OA 
HETATM    6  N   UNL     1     -10.235   6.279  66.713  1.00  0.00    -0.199 N  
HETATM    7  O   UNL     1     -11.575   6.571  67.022  1.00  0.00    -0.036 OA 
HETATM    8  C   UNL     1      -9.252   7.126  67.174  1.00  0.00    -0.134 C  
HETATM    9  C   UNL     1      -7.975   6.803  66.856  1.00  0.00    -0.109 C  
ENDROOT
BRANCH   8  10
HETATM   10  C   UNL     1      -9.548   8.400  67.979  1.00  0.00    -0.168 C  
HETATM   11  C   UNL     1      -9.767   8.296  69.511  1.00  0.00    -0.174 C  
HETATM   12  C   UNL     1      -8.592   8.705  70.411  1.00  0.00    -0.160 C  
HETATM   13  C   UNL     1      -7.880   9.956  69.925  1.00  0.00    -0.182 C  
HETATM   14  C   UNL     1      -7.439   9.788  68.479  1.00  0.00    -0.079 C  
HETATM   15  C   UNL     1      -8.643   9.581  67.573  1.00  0.00    -0.126 C  
ENDBRANCH   8  10
TORSDOF 1
ENDMDL
MODEL      216
REMARK 921   NORMALIZED FREE ENERGY PREDICTED BY IDOCK:   -1.79 KCAL/MOL
REMARK 922        TOTAL FREE ENERGY PREDICTED BY IDOCK:   -2.19 KCAL/MOL
REMARK 923 INTER-LIGAND FREE ENERGY PREDICTED BY IDOCK:   -1.87 KCAL/MOL
REMARK 924 INTRA-LIGAND FREE ENERGY PREDICTED BY IDOCK:   -0.31 KCAL/MOL
REMARK 927      BINDING AFFINITY PREDICTED BY RF-SCORE:    0.00 PKD
ROOT
HETATM    1  C   UNL     1     -10.135   9.032  68.860  1.00  0.00    -0.207 C  
HETATM    2  C   UNL     1      -9.454   7.736  69.179  1.00  0.00    -0.151 C  
HETATM    3  C   UNL     1      -9.218   7.355  70.446  1.00  0.00    -0.158 C  
HETATM    4  C   UNL     1      -8.563   6.056  70.711  1.00  0.00    -0.135 C  
HETATM    5  O   UNL     1      -8.317   5.695  71.860  1.00  0.00    -0.118 OA 
HETATM    6  N   UNL     1      -8.252   5.305  69.593  1.00  0.00    -0.093 N  
HETATM    7  O   UNL     1      -7.646   4.066  69.857  1.00  0.00    -0.051 OA 
HETATM    8  C   UNL     1      -8.443   5.681  68.282  1.00  0.00    -0.105 C  
HETATM    9  C   UNL     1      -9.037   6.882  68.075  1.00  0.00    -0.120 C  
ENDROOT
BRANCH   8  10
HETATM   10  C   UNL     1      -7.990   4.829  67.088  1.00  0.00    -0.102 C  
HETATM   11  C   UNL     1      -9.000   3.861  66.418  1.00  0.00    -0.133 C  
HETATM   12  C   UNL     1      -9.634   4.321  65.097  1.00  0.00    -0.185 C  
HETATM   13  C   UNL     1      -8.640   4.993  64.164  1.00  0.00    -0.125 C  
HETATM   14  C   UNL     1      -7.940   6.142  64.874  1.00  0.00    -0.123 C  
HETATM   15  C   UNL     1      -7.152   5.631  66.071  1.00  0.00    -0.068 C  
ENDBRANCH   8  10
TORSDOF 1
ENDMDL
MODEL      217
REMARK 921   NORMALIZED FREE ENERGY PREDICTED BY IDOCK:   -1.76 KCAL/MOL
REMARK 922        TOTAL FREE ENERGY PREDICTED BY IDOCK:   -2.16 KCAL/MOL
REMARK 923 INTER-LIGAND FREE ENERGY PREDICTED BY IDOCK:   -2.40 KCAL/MOL
REMARK 924 INTRA-LIGAND FREE ENERGY PREDICTED BY IDOCK:    0.24 KCAL/MOL
REMARK 927      BINDING AFFINITY PREDICTED BY RF-SCORE:    0.00 PKD
ROOT
HETATM    1  C   UNL     1      -6.413   6.902  64.895  1.00  0.00    -0.043 C  
HETATM    2  C   UNL     1      -7.632   6.467  65.649  1.00  0.00    -0.086 C  
HETATM    3  C   UNL     1      -8.532   5.626  65.113  1.00  0.00    -0.144 C  
HETATM    4  C   UNL     1      -9.709   5.208  65.906  1.00  0.00    -0.140 C  
HETATM    5  O   UNL     1     -10.557   4.456  65.431  1.00  0.00    -0.268 OA 
HETATM    6  N   UNL     1      -9.779   5.723  67.186  1.00  0.00    -0.128 N  
HETATM    7  O   UNL     1     -10.891   5.306  67.937  1.00  0.00    -0.034 OA 
HETATM    8  C   UNL     1      -8.898   6.616  67.754  1.00  0.00    -0.114 C  
HETATM    9  C   UNL     1      -7.836   6.986  66.996  1.00  0.00    -0.108 C  
ENDROOT
BRANCH   8  10
HETATM   10  C   UNL     1      -9.090   7.215  69.154  1.00  0.00    -0.137 C  
HETATM   11  C   UNL     1     -10.432   7.908  69.506  1.00  0.00    -0.226 C  
HETATM   12  C   UNL     1     -11.430   7.106  70.353  1.00  0.00    -0.317 C  
HETATM   13  C   UNL     1     -10.766   6.335  71.481  1.00  0.00    -0.292 C  
HETATM   14  C   UNL     1      -9.658   5.446  70.937  1.00  0.00    -0.226 C  
HETATM   15  C   UNL     1      -8.576   6.285  70.273  1.00  0.00    -0.138 C  
ENDBRANCH   8  10
TORSDOF 1
ENDMDL
MODEL      218
REMARK 921   NORMALIZED FREE ENERGY PREDICTED BY IDOCK:   -1.69 KCAL/MOL
REMARK 922        TOTAL FREE ENERGY PREDICTED BY IDOCK:   -2.09 KCAL/MOL
REMARK 923 INTER-LIGAND FREE ENERGY PREDICTED BY IDOCK:   -2.32 KCAL/MOL
REMARK 924 INTRA-LIGAND FREE ENERGY PREDICTED BY IDOCK:    0.24 KCAL/MOL
REMARK 927      BINDING AFFINITY PREDICTED BY RF-SCORE:    0.00 PKD
ROOT
HETATM    1  C   UNL     1      -6.697   6.210  66.288  1.00  0.00    -0.060 C  
HETATM    2  C   UNL     1      -7.967   6.151  67.080  1.00  0.00    -0.102 C  
HETATM    3  C   UNL     1      -9.166   6.350  66.508  1.00  0.00    -0.174 C  
HETATM    4  C   UNL     1     -10.394   6.259  67.328  1.00  0.00    -0.216 C  
HETATM    5  O   UNL     1     -11.501   6.457  66.832  1.00  0.00    -0.188 OA 
HETATM    6  N   UNL     1     -10.200   5.950  68.660  1.00  0.00    -0.174 N  
HETATM    7  O   UNL     1     -11.374   5.850  69.427  1.00  0.00    -0.346 OA 
HETATM    8  C   UNL     1      -8.986   5.779  69.289  1.00  0.00    -0.119 C  
HETATM    9  C   UNL     1      -7.881   5.879  68.510  1.00  0.00    -0.102 C  
ENDROOT
BRANCH   8  10
HETATM   10  C   UNL     1      -8.846   5.525  70.796  1.00  0.00    -0.143 C  
HETATM   11  C   UNL     1      -9.481   6.525  71.797  1.00  0.00    -0.155 C  
HETATM   12  C   UNL     1     -10.809   6.112  72.446  1.00  0.00    -0.281 C  
HETATM   13  C   UNL     1     -10.839   4.650  72.860  1.00  0.00    -0.295 C  
HETATM   14  C   UNL     1     -10.497   3.756  71.677  1.00  0.00     0.213 C  
HETATM   15  C   UNL     1      -9.091   4.049  71.174  1.00  0.00    -0.180 C  
ENDBRANCH   8  10
TORSDOF 1
ENDMDL
MODEL      219
REMARK 921   NORMALIZED FREE ENERGY PREDICTED BY IDOCK:   -1.67 KCAL/MOL
REMARK 922        TOTAL FREE ENERGY PREDICTED BY IDOCK:   -2.06 KCAL/MOL
REMARK 923 INTER-LIGAND FREE ENERGY PREDICTED BY IDOCK:   -3.06 KCAL/MOL
REMARK 924 INTRA-LIGAND FREE ENERGY PREDICTED BY IDOCK:    0.99 KCAL/MOL
REMARK 927      BINDING AFFINITY PREDICTED BY RF-SCORE:    0.00 PKD
ROOT
HETATM    1  C   UNL     1      -6.761   9.240  67.720  1.00  0.00    -0.068 C  
HETATM    2  C   UNL     1      -7.327   9.728  66.421  1.00  0.00    -0.095 C  
HETATM    3  C   UNL     1      -6.551   9.920  65.341  1.00  0.00    -0.099 C  
HETATM    4  C   UNL     1      -7.160  10.381  64.075  1.00  0.00     0.025 C  
HETATM    5  O   UNL     1      -6.469  10.584  63.078  1.00  0.00    -0.132 OA 
HETATM    6  N   UNL     1      -8.528  10.568  64.103  1.00  0.00    -0.155 N  
HETATM    7  O   UNL     1      -9.099  10.991  62.890  1.00  0.00    -0.272 OA 
HETATM    8  C   UNL     1      -9.348  10.420  65.201  1.00  0.00    -0.222 C  
HETATM    9  C   UNL     1      -8.756  10.005  66.347  1.00  0.00    -0.140 C  
ENDROOT
BRANCH   8  10
HETATM   10  C   UNL     1     -10.850  10.732  65.178  1.00  0.00    -0.057 C  
HETATM   11  C   UNL     1     -11.509  11.385  66.422  1.00  0.00    -0.058 C  
HETATM   12  C   UNL     1     -11.792  12.891  66.349  1.00  0.00    -0.478 C  
HETATM   13  C   UNL     1     -12.341  13.329  65.002  1.00  0.00    -0.499 C  
HETATM   14  C   UNL     1     -11.413  12.883  63.881  1.00  0.00    -0.504 C  
HETATM   15  C   UNL     1     -11.305  11.366  63.847  1.00  0.00    -0.302 C  
ENDBRANCH   8  10
TORSDOF 1
ENDMDL
MODEL      220
REMARK 921   NORMALIZED FREE ENERGY PREDICTED BY IDOCK:   -1.66 KCAL/MOL
REMARK 922        TOTAL FREE ENERGY PREDICTED BY IDOCK:   -2.06 KCAL/MOL
REMARK 923 INTER-LIGAND FREE ENERGY PREDICTED BY IDOCK:   -2.31 KCAL/MOL
REMARK 924 INTRA-LIGAND FREE ENERGY PREDICTED BY IDOCK:    0.25 KCAL/MOL
REMARK 927      BINDING AFFINITY PREDICTED BY RF-SCORE:    0.00 PKD
ROOT
HETATM    1  C   UNL     1     -11.035   4.513  74.035  1.00  0.00    -0.269 C  
HETATM    2  C   UNL     1     -10.587   5.752  73.320  1.00  0.00    -0.279 C  
HETATM    3  C   UNL     1     -11.393   6.818  73.181  1.00  0.00    -0.028 C  
HETATM    4  C   UNL     1     -10.897   8.026  72.486  1.00  0.00    -0.349 C  
HETATM    5  O   UNL     1     -11.622   9.006  72.329  1.00  0.00    -0.328 OA 
HETATM    6  N   UNL     1      -9.593   7.962  72.035  1.00  0.00    -0.173 N  
HETATM    7  O   UNL     1      -9.127   9.120  71.391  1.00  0.00    -0.266 OA 
HETATM    8  C   UNL     1      -8.753   6.874  72.124  1.00  0.00    -0.127 C  
HETATM    9  C   UNL     1      -9.243   5.780  72.758  1.00  0.00    -0.136 C  
ENDROOT
BRANCH   8  10
HETATM   10  C   UNL     1      -7.343   6.847  71.518  1.00  0.00    -0.081 C  
HETATM   11  C   UNL     1      -7.169   7.052  69.990  1.00  0.00    -0.079 C  
HETATM   12  C   UNL     1      -6.706   8.439  69.523  1.00  0.00    -0.041 C  
HETATM   13  C   UNL     1      -5.614   9.028  70.400  1.00  0.00    -0.033 C  
HETATM   14  C   UNL     1      -6.058   9.052  71.856  1.00  0.00    -0.065 C  
HETATM   15  C   UNL     1      -6.321   7.640  72.358  1.00  0.00    -0.051 C  
ENDBRANCH   8  10
TORSDOF 1
ENDMDL
MODEL      221
REMARK 921   NORMALIZED FREE ENERGY PREDICTED BY IDOCK:   -1.60 KCAL/MOL
REMARK 922        TOTAL FREE ENERGY PREDICTED BY IDOCK:   -1.99 KCAL/MOL
REMARK 923 INTER-LIGAND FREE ENERGY PREDICTED BY IDOCK:   -1.71 KCAL/MOL
REMARK 924 INTRA-LIGAND FREE ENERGY PREDICTED BY IDOCK:   -0.28 KCAL/MOL
REMARK 927      BINDING AFFINITY PREDICTED BY RF-SCORE:    0.00 PKD
ROOT
HETATM    1  C   UNL     1     -10.756   4.114  72.713  1.00  0.00    -0.197 C  
HETATM    2  C   UNL     1      -9.926   4.755  71.643  1.00  0.00    -0.257 C  
HETATM    3  C   UNL     1     -10.336   4.804  70.365  1.00  0.00    -0.183 C  
HETATM    4  C   UNL     1      -9.490   5.468  69.349  1.00  0.00    -0.133 C  
HETATM    5  O   UNL     1      -9.833   5.508  68.169  1.00  0.00    -0.129 OA 
HETATM    6  N   UNL     1      -8.313   6.019  69.819  1.00  0.00    -0.124 N  
HETATM    7  O   UNL     1      -7.526   6.661  68.849  1.00  0.00    -0.091 OA 
HETATM    8  C   UNL     1      -7.843   5.953  71.112  1.00  0.00    -0.111 C  
HETATM    9  C   UNL     1      -8.638   5.329  72.015  1.00  0.00    -0.130 C  
ENDROOT
BRANCH   8  10
HETATM   10  C   UNL     1      -6.480   6.512  71.542  1.00  0.00    -0.046 C  
HETATM   11  C   UNL     1      -6.344   8.026  71.855  1.00  0.00    -0.045 C  
HETATM   12  C   UNL     1      -6.319   8.430  73.336  1.00  0.00    -0.124 C  
HETATM   13  C   UNL     1      -5.479   7.498  74.192  1.00  0.00    -0.053 C  
HETATM   14  C   UNL     1      -5.939   6.058  74.018  1.00  0.00    -0.063 C  
HETATM   15  C   UNL     1      -5.768   5.613  72.573  1.00  0.00    -0.026 C  
ENDBRANCH   8  10
TORSDOF 1
ENDMDL
MODEL      222
REMARK 921   NORMALIZED FREE ENERGY PREDICTED BY IDOCK:   -1.59 KCAL/MOL
REMARK 922        TOTAL FREE ENERGY PREDICTED BY IDOCK:   -1.98 KCAL/MOL
REMARK 923 INTER-LIGAND FREE ENERGY PREDICTED BY IDOCK:   -3.33 KCAL/MOL
REMARK 924 INTRA-LIGAND FREE ENERGY PREDICTED BY IDOCK:    1.35 KCAL/MOL
REMARK 927      BINDING AFFINITY PREDICTED BY RF-SCORE:    0.00 PKD
ROOT
HETATM    1  C   UNL     1     -10.660  19.991  65.181  1.00  0.00     0.243 C  
HETATM    2  C   UNL     1     -10.494  19.128  66.395  1.00  0.00    -0.548 C  
HETATM    3  C   UNL     1     -10.142  19.644  67.585  1.00  0.00    -0.544 C  
HETATM    4  C   UNL     1     -10.012  18.755  68.759  1.00  0.00    -0.391 C  
HETATM    5  O   UNL     1      -9.672  19.199  69.854  1.00  0.00     0.231 OA 
HETATM    6  N   UNL     1     -10.290  17.421  68.532  1.00  0.00    -0.360 N  
HETATM    7  O   UNL     1     -10.179  16.587  69.658  1.00  0.00    -0.238 OA 
HETATM    8  C   UNL     1     -10.613  16.852  67.320  1.00  0.00    -0.270 C  
HETATM    9  C   UNL     1     -10.714  17.694  66.262  1.00  0.00    -0.096 C  
ENDROOT
BRANCH   8  10
HETATM   10  C   UNL     1     -10.821  15.343  67.126  1.00  0.00    -0.321 C  
HETATM   11  C   UNL     1      -9.769  14.528  66.329  1.00  0.00    -0.330 C  
HETATM   12  C   UNL     1      -8.773  13.691  67.144  1.00  0.00    -0.224 C  
HETATM   13  C   UNL     1      -9.421  12.972  68.316  1.00  0.00    -0.208 C  
HETATM   14  C   UNL     1     -10.168  13.962  69.198  1.00  0.00     0.019 C  
HETATM   15  C   UNL     1     -11.285  14.638  68.417  1.00  0.00    -0.290 C  
ENDBRANCH   8  10
TORSDOF 1
ENDMDL
MODEL      223
REMARK 921   NORMALIZED FREE ENERGY PREDICTED BY IDOCK:   -1.48 KCAL/MOL
REMARK 922        TOTAL FREE ENERGY PREDICTED BY IDOCK:   -1.87 KCAL/MOL
REMARK 923 INTER-LIGAND FREE ENERGY PREDICTED BY IDOCK:   -2.17 KCAL/MOL
REMARK 924 INTRA-LIGAND FREE ENERGY PREDICTED BY IDOCK:    0.30 KCAL/MOL
REMARK 927      BINDING AFFINITY PREDICTED BY RF-SCORE:    0.00 PKD
ROOT
HETATM    1  C   UNL     1     -10.927   7.129  68.477  1.00  0.00    -0.080 C  
HETATM    2  C   UNL     1     -10.518   6.767  69.872  1.00  0.00    -0.242 C  
HETATM    3  C   UNL     1     -11.372   6.183  70.729  1.00  0.00    -0.364 C  
HETATM    4  C   UNL     1     -10.914   5.824  72.089  1.00  0.00    -0.257 C  
HETATM    5  O   UNL     1     -11.682   5.308  72.899  1.00  0.00    -0.295 OA 
HETATM    6  N   UNL     1      -9.593   6.113  72.370  1.00  0.00    -0.152 N  
HETATM    7  O   UNL     1      -9.164   5.753  73.659  1.00  0.00    -0.131 OA 
HETATM    8  C   UNL     1      -8.702   6.746  71.531  1.00  0.00    -0.127 C  
HETATM    9  C   UNL     1      -9.157   7.070  70.297  1.00  0.00    -0.156 C  
ENDROOT
BRANCH   8  10
HETATM   10  C   UNL     1      -7.271   7.115  71.947  1.00  0.00    -0.080 C  
HETATM   11  C   UNL     1      -7.026   7.761  73.336  1.00  0.00    -0.106 C  
HETATM   12  C   UNL     1      -6.484   6.847  74.443  1.00  0.00    -0.083 C  
HETATM   13  C   UNL     1      -5.404   5.897  73.954  1.00  0.00    -0.032 C  
HETATM   14  C   UNL     1      -5.905   5.092  72.764  1.00  0.00    -0.025 C  
HETATM   15  C   UNL     1      -6.249   6.012  71.602  1.00  0.00    -0.044 C  
ENDBRANCH   8  10
TORSDOF 1
ENDMDL
MODEL      224
REMARK 921   NORMALIZED FREE ENERGY PREDICTED BY IDOCK:   -1.48 KCAL/MOL
REMARK 922        TOTAL FREE ENERGY PREDICTED BY IDOCK:   -1.86 KCAL/MOL
REMARK 923 INTER-LIGAND FREE ENERGY PREDICTED BY IDOCK:   -1.46 KCAL/MOL
REMARK 924 INTRA-LIGAND FREE ENERGY PREDICTED BY IDOCK:   -0.40 KCAL/MOL
REMARK 927      BINDING AFFINITY PREDICTED BY RF-SCORE:    0.00 PKD
ROOT
HETATM    1  C   UNL     1     -10.955   7.429  67.165  1.00  0.00    -0.225 C  
HETATM    2  C   UNL     1      -9.784   7.691  68.064  1.00  0.00    -0.173 C  
HETATM    3  C   UNL     1      -9.898   8.444  69.170  1.00  0.00    -0.183 C  
HETATM    4  C   UNL     1      -8.719   8.655  70.037  1.00  0.00    -0.141 C  
HETATM    5  O   UNL     1      -8.792   9.357  71.044  1.00  0.00    -0.250 OA 
HETATM    6  N   UNL     1      -7.559   8.023  69.632  1.00  0.00    -0.094 N  
HETATM    7  O   UNL     1      -6.449   8.217  70.472  1.00  0.00    -0.035 OA 
HETATM    8  C   UNL     1      -7.396   7.278  68.486  1.00  0.00    -0.100 C  
HETATM    9  C   UNL     1      -8.494   7.113  67.709  1.00  0.00    -0.120 C  
ENDROOT
BRANCH   8  10
HETATM   10  C   UNL     1      -6.050   6.679  68.055  1.00  0.00    -0.028 C  
HETATM   11  C   UNL     1      -5.934   5.146  67.842  1.00  0.00    -0.022 C  
HETATM   12  C   UNL     1      -5.955   4.642  66.392  1.00  0.00    -0.027 C  
HETATM   13  C   UNL     1      -5.135   5.507  65.450  1.00  0.00    -0.009 C  
HETATM   14  C   UNL     1      -5.581   6.959  65.539  1.00  0.00    -0.031 C  
HETATM   15  C   UNL     1      -5.363   7.500  66.945  1.00  0.00    -0.023 C  
ENDBRANCH   8  10
TORSDOF 1
ENDMDL
MODEL      225
REMARK 921   NORMALIZED FREE ENERGY PREDICTED BY IDOCK:   -1.41 KCAL/MOL
REMARK 922        TOTAL FREE ENERGY PREDICTED BY IDOCK:   -1.79 KCAL/MOL
REMARK 923 INTER-LIGAND FREE ENERGY PREDICTED BY IDOCK:   -2.03 KCAL/MOL
REMARK 924 INTRA-LIGAND FREE ENERGY PREDICTED BY IDOCK:    0.25 KCAL/MOL
REMARK 927      BINDING AFFINITY PREDICTED BY RF-SCORE:    0.00 PKD
ROOT
HETATM    1  C   UNL     1     -11.041   6.545  67.402  1.00  0.00    -0.411 C  
HETATM    2  C   UNL     1      -9.896   6.647  66.441  1.00  0.00    -0.101 C  
HETATM    3  C   UNL     1      -9.299   5.555  65.935  1.00  0.00    -0.140 C  
HETATM    4  C   UNL     1      -8.187   5.708  64.972  1.00  0.00    -0.137 C  
HETATM    5  O   UNL     1      -7.610   4.725  64.511  1.00  0.00    -0.070 OA 
HETATM    6  N   UNL     1      -7.853   7.009  64.648  1.00  0.00    -0.119 N  
HETATM    7  O   UNL     1      -6.806   7.143  63.720  1.00  0.00    -0.046 OA 
HETATM    8  C   UNL     1      -8.415   8.150  65.176  1.00  0.00    -0.116 C  
HETATM    9  C   UNL     1      -9.425   7.974  66.063  1.00  0.00    -0.123 C  
ENDROOT
BRANCH   8  10
HETATM   10  C   UNL     1      -7.929   9.565  64.833  1.00  0.00    -0.121 C  
HETATM   11  C   UNL     1      -6.461   9.960  65.144  1.00  0.00    -0.103 C  
HETATM   12  C   UNL     1      -5.479   9.972  63.964  1.00  0.00    -0.105 C  
HETATM   13  C   UNL     1      -6.075  10.571  62.701  1.00  0.00    -0.145 C  
HETATM   14  C   UNL     1      -7.371   9.862  62.338  1.00  0.00    -0.127 C  
HETATM   15  C   UNL     1      -8.403  10.034  63.442  1.00  0.00    -0.170 C  
ENDBRANCH   8  10
TORSDOF 1
ENDMDL
MODEL      226
REMARK 921   NORMALIZED FREE ENERGY PREDICTED BY IDOCK:   -1.34 KCAL/MOL
REMARK 922        TOTAL FREE ENERGY PREDICTED BY IDOCK:   -1.71 KCAL/MOL
REMARK 923 INTER-LIGAND FREE ENERGY PREDICTED BY IDOCK:   -1.30 KCAL/MOL
REMARK 924 INTRA-LIGAND FREE ENERGY PREDICTED BY IDOCK:   -0.41 KCAL/MOL
REMARK 927      BINDING AFFINITY PREDICTED BY RF-SCORE:    0.00 PKD
ROOT
HETATM    1  C   UNL     1      -6.851   5.324  69.710  1.00  0.00    -0.056 C  
HETATM    2  C   UNL     1      -7.252   6.633  69.100  1.00  0.00    -0.091 C  
HETATM    3  C   UNL     1      -7.829   7.604  69.828  1.00  0.00    -0.110 C  
HETATM    4  C   UNL     1      -8.186   8.887  69.185  1.00  0.00    -0.118 C  
HETATM    5  O   UNL     1      -8.733   9.783  69.824  1.00  0.00    -0.181 OA 
HETATM    6  N   UNL     1      -7.870   8.991  67.844  1.00  0.00    -0.100 N  
HETATM    7  O   UNL     1      -8.199  10.220  67.247  1.00  0.00    -0.120 OA 
HETATM    8  C   UNL     1      -7.316   8.004  67.059  1.00  0.00    -0.091 C  
HETATM    9  C   UNL     1      -7.010   6.837  67.677  1.00  0.00    -0.083 C  
ENDROOT
BRANCH   8  10
HETATM   10  C   UNL     1      -7.075   8.163  65.551  1.00  0.00    -0.067 C  
HETATM   11  C   UNL     1      -5.680   7.821  64.964  1.00  0.00    -0.037 C  
HETATM   12  C   UNL     1      -5.538   6.470  64.249  1.00  0.00    -0.030 C  
HETATM   13  C   UNL     1      -6.729   6.138  63.366  1.00  0.00    -0.036 C  
HETATM   14  C   UNL     1      -8.021   6.209  64.167  1.00  0.00    -0.114 C  
HETATM   15  C   UNL     1      -8.241   7.616  64.703  1.00  0.00    -0.067 C  
ENDBRANCH   8  10
TORSDOF 1
ENDMDL
MODEL      227
REMARK 921   NORMALIZED FREE ENERGY PREDICTED BY IDOCK:   -1.30 KCAL/MOL
REMARK 922        TOTAL FREE ENERGY PREDICTED BY IDOCK:   -1.67 KCAL/MOL
REMARK 923 INTER-LIGAND FREE ENERGY PREDICTED BY IDOCK:   -2.29 KCAL/MOL
REMARK 924 INTRA-LIGAND FREE ENERGY PREDICTED BY IDOCK:    0.62 KCAL/MOL
REMARK 927      BINDING AFFINITY PREDICTED BY RF-SCORE:    0.00 PKD
ROOT
HETATM    1  C   UNL     1      -8.678   3.643  69.056  1.00  0.00    -0.136 C  
HETATM    2  C   UNL     1      -9.284   5.008  68.937  1.00  0.00    -0.155 C  
HETATM    3  C   UNL     1      -9.959   5.572  69.952  1.00  0.00    -0.282 C  
HETATM    4  C   UNL     1     -10.520   6.931  69.793  1.00  0.00    -0.217 C  
HETATM    5  O   UNL     1     -11.160   7.461  70.700  1.00  0.00    -0.255 OA 
HETATM    6  N   UNL     1     -10.278   7.539  68.576  1.00  0.00    -0.192 N  
HETATM    7  O   UNL     1     -10.801   8.836  68.442  1.00  0.00    -0.110 OA 
HETATM    8  C   UNL     1      -9.626   6.977  67.501  1.00  0.00    -0.130 C  
HETATM    9  C   UNL     1      -9.134   5.726  67.677  1.00  0.00    -0.106 C  
ENDROOT
BRANCH   8  10
HETATM   10  C   UNL     1      -9.474   7.681  66.146  1.00  0.00    -0.117 C  
HETATM   11  C   UNL     1     -10.155   9.057  65.925  1.00  0.00    -0.041 C  
HETATM   12  C   UNL     1      -9.258  10.300  66.009  1.00  0.00    -0.200 C  
HETATM   13  C   UNL     1      -7.913  10.109  65.329  1.00  0.00    -0.145 C  
HETATM   14  C   UNL     1      -7.209   8.877  65.880  1.00  0.00    -0.089 C  
HETATM   15  C   UNL     1      -8.030   7.625  65.607  1.00  0.00    -0.116 C  
ENDBRANCH   8  10
TORSDOF 1
ENDMDL
MODEL      228
REMARK 921   NORMALIZED FREE ENERGY PREDICTED BY IDOCK:   -1.19 KCAL/MOL
REMARK 922        TOTAL FREE ENERGY PREDICTED BY IDOCK:   -1.56 KCAL/MOL
REMARK 923 INTER-LIGAND FREE ENERGY PREDICTED BY IDOCK:   -1.84 KCAL/MOL
REMARK 924 INTRA-LIGAND FREE ENERGY PREDICTED BY IDOCK:    0.28 KCAL/MOL
REMARK 927      BINDING AFFINITY PREDICTED BY RF-SCORE:    0.00 PKD
ROOT
HETATM    1  C   UNL     1     -10.777   4.150  72.710  1.00  0.00    -0.197 C  
HETATM    2  C   UNL     1     -10.103   4.941  71.631  1.00  0.00    -0.266 C  
HETATM    3  C   UNL     1     -10.496   4.864  70.348  1.00  0.00    -0.164 C  
HETATM    4  C   UNL     1      -9.814   5.681  69.322  1.00  0.00    -0.174 C  
HETATM    5  O   UNL     1     -10.141   5.613  68.139  1.00  0.00    -0.145 OA 
HETATM    6  N   UNL     1      -8.803   6.500  69.787  1.00  0.00    -0.142 N  
HETATM    7  O   UNL     1      -8.172   7.285  68.806  1.00  0.00    -0.126 OA 
HETATM    8  C   UNL     1      -8.348   6.576  71.085  1.00  0.00    -0.122 C  
HETATM    9  C   UNL     1      -8.989   5.806  71.998  1.00  0.00    -0.140 C  
ENDROOT
BRANCH   8  10
HETATM   10  C   UNL     1      -7.157   7.446  71.510  1.00  0.00    -0.066 C  
HETATM   11  C   UNL     1      -5.747   7.134  70.942  1.00  0.00    -0.027 C  
HETATM   12  C   UNL     1      -5.242   8.032  69.804  1.00  0.00    -0.023 C  
HETATM   13  C   UNL     1      -5.560   9.501  70.021  1.00  0.00    -0.035 C  
HETATM   14  C   UNL     1      -7.051   9.692  70.258  1.00  0.00    -0.127 C  
HETATM   15  C   UNL     1      -7.492   8.951  71.512  1.00  0.00    -0.084 C  
ENDBRANCH   8  10
TORSDOF 1
ENDMDL
MODEL      229
REMARK 921   NORMALIZED FREE ENERGY PREDICTED BY IDOCK:   -1.19 KCAL/MOL
REMARK 922        TOTAL FREE ENERGY PREDICTED BY IDOCK:   -1.55 KCAL/MOL
REMARK 923 INTER-LIGAND FREE ENERGY PREDICTED BY IDOCK:   -2.93 KCAL/MOL
REMARK 924 INTRA-LIGAND FREE ENERGY PREDICTED BY IDOCK:    1.38 KCAL/MOL
REMARK 927      BINDING AFFINITY PREDICTED BY RF-SCORE:    0.00 PKD
ROOT
HETATM    1  C   UNL     1     -12.464  13.603  65.269  1.00  0.00    -0.517 C  
HETATM    2  C   UNL     1     -11.161  13.567  66.008  1.00  0.00    -0.300 C  
HETATM    3  C   UNL     1     -10.437  14.679  66.217  1.00  0.00    -0.302 C  
HETATM    4  C   UNL     1      -9.167  14.595  66.971  1.00  0.00    -0.239 C  
HETATM    5  O   UNL     1      -8.476  15.594  67.159  1.00  0.00    -0.175 OA 
HETATM    6  N   UNL     1      -8.827  13.337  67.430  1.00  0.00    -0.194 N  
HETATM    7  O   UNL     1      -7.628  13.272  68.159  1.00  0.00    -0.116 OA 
HETATM    8  C   UNL     1      -9.523  12.171  67.200  1.00  0.00    -0.190 C  
HETATM    9  C   UNL     1     -10.677  12.282  66.497  1.00  0.00    -0.279 C  
ENDROOT
BRANCH   8  10
HETATM   10  C   UNL     1      -9.035  10.793  67.666  1.00  0.00    -0.140 C  
HETATM   11  C   UNL     1      -8.612   9.738  66.609  1.00  0.00    -0.134 C  
HETATM   12  C   UNL     1      -7.106   9.544  66.384  1.00  0.00    -0.088 C  
HETATM   13  C   UNL     1      -6.307   9.545  67.676  1.00  0.00    -0.058 C  
HETATM   14  C   UNL     1      -6.590  10.809  68.474  1.00  0.00    -0.055 C  
HETATM   15  C   UNL     1      -8.060  10.881  68.859  1.00  0.00    -0.144 C  
ENDBRANCH   8  10
TORSDOF 1
ENDMDL
MODEL      230
REMARK 921   NORMALIZED FREE ENERGY PREDICTED BY IDOCK:   -0.97 KCAL/MOL
REMARK 922        TOTAL FREE ENERGY PREDICTED BY IDOCK:   -1.33 KCAL/MOL
REMARK 923 INTER-LIGAND FREE ENERGY PREDICTED BY IDOCK:   -1.89 KCAL/MOL
REMARK 924 INTRA-LIGAND FREE ENERGY PREDICTED BY IDOCK:    0.57 KCAL/MOL
REMARK 927      BINDING AFFINITY PREDICTED BY RF-SCORE:    0.00 PKD
ROOT
HETATM    1  C   UNL     1     -11.242   6.931  67.238  1.00  0.00    -0.231 C  
HETATM    2  C   UNL     1      -9.834   7.417  67.408  1.00  0.00    -0.219 C  
HETATM    3  C   UNL     1      -8.787   6.727  66.928  1.00  0.00    -0.120 C  
HETATM    4  C   UNL     1      -7.417   7.259  67.101  1.00  0.00    -0.105 C  
HETATM    5  O   UNL     1      -6.441   6.637  66.689  1.00  0.00    -0.040 OA 
HETATM    6  N   UNL     1      -7.327   8.475  67.752  1.00  0.00    -0.091 N  
HETATM    7  O   UNL     1      -6.024   8.979  67.897  1.00  0.00    -0.048 OA 
HETATM    8  C   UNL     1      -8.374   9.189  68.291  1.00  0.00    -0.120 C  
HETATM    9  C   UNL     1      -9.614   8.667  68.123  1.00  0.00    -0.162 C  
ENDROOT
BRANCH   8  10
HETATM   10  C   UNL     1      -8.187  10.492  69.081  1.00  0.00    -0.152 C  
HETATM   11  C   UNL     1      -6.857  10.733  69.843  1.00  0.00    -0.146 C  
HETATM   12  C   UNL     1      -5.839  11.674  69.185  1.00  0.00    -0.060 C  
HETATM   13  C   UNL     1      -6.480  12.904  68.565  1.00  0.00    -0.083 C  
HETATM   14  C   UNL     1      -7.572  12.496  67.587  1.00  0.00    -0.145 C  
HETATM   15  C   UNL     1      -8.675  11.732  68.304  1.00  0.00    -0.167 C  
ENDBRANCH   8  10
TORSDOF 1
ENDMDL
MODEL      231
REMARK 921   NORMALIZED FREE ENERGY PREDICTED BY IDOCK:   -0.70 KCAL/MOL
REMARK 922        TOTAL FREE ENERGY PREDICTED BY IDOCK:   -1.04 KCAL/MOL
REMARK 923 INTER-LIGAND FREE ENERGY PREDICTED BY IDOCK:   -2.35 KCAL/MOL
REMARK 924 INTRA-LIGAND FREE ENERGY PREDICTED BY IDOCK:    1.32 KCAL/MOL
REMARK 927      BINDING AFFINITY PREDICTED BY RF-SCORE:    0.00 PKD
ROOT
HETATM    1  C   UNL     1      -5.236  20.261  70.564  1.00  0.00    -0.298 C  
HETATM    2  C   UNL     1      -6.302  19.522  69.813  1.00  0.00    -0.345 C  
HETATM    3  C   UNL     1      -7.562  19.981  69.741  1.00  0.00     0.337 C  
HETATM    4  C   UNL     1      -8.574  19.227  68.969  1.00  0.00    -0.221 C  
HETATM    5  O   UNL     1      -9.738  19.615  68.906  1.00  0.00    -0.401 OA 
HETATM    6  N   UNL     1      -8.118  18.080  68.348  1.00  0.00    -0.291 N  
HETATM    7  O   UNL     1      -9.083  17.381  67.604  1.00  0.00    -0.230 OA 
HETATM    8  C   UNL     1      -6.845  17.560  68.433  1.00  0.00    -0.197 C  
HETATM    9  C   UNL     1      -5.946  18.270  69.156  1.00  0.00    -0.225 C  
ENDROOT
BRANCH   8  10
HETATM   10  C   UNL     1      -6.435  16.229  67.786  1.00  0.00    -0.161 C  
HETATM   11  C   UNL     1      -6.209  14.985  68.686  1.00  0.00    -0.085 C  
HETATM   12  C   UNL     1      -7.335  13.943  68.728  1.00  0.00    -0.118 C  
HETATM   13  C   UNL     1      -7.946  13.672  67.364  1.00  0.00    -0.177 C  
HETATM   14  C   UNL     1      -8.415  14.971  66.725  1.00  0.00    -0.239 C  
HETATM   15  C   UNL     1      -7.242  15.916  66.509  1.00  0.00     0.299 C  
ENDBRANCH   8  10
TORSDOF 1
ENDMDL
MODEL      232
REMARK 921   NORMALIZED FREE ENERGY PREDICTED BY IDOCK:    3.00 KCAL/MOL
REMARK 922        TOTAL FREE ENERGY PREDICTED BY IDOCK:    2.88 KCAL/MOL
REMARK 923 INTER-LIGAND FREE ENERGY PREDICTED BY IDOCK:    1.51 KCAL/MOL
REMARK 924 INTRA-LIGAND FREE ENERGY PREDICTED BY IDOCK:    1.38 KCAL/MOL
REMARK 927      BINDING AFFINITY PREDICTED BY RF-SCORE:    0.00 PKD
ROOT
HETATM    1  C   UNL     1      -5.296  20.690  70.981  1.00  0.00    -0.210 C  
HETATM    2  C   UNL     1      -6.623  20.300  70.403  1.00  0.00    -0.060 C  
HETATM    3  C   UNL     1      -7.753  20.359  71.127  1.00  0.00     1.724 C  
HETATM    4  C   UNL     1      -9.041  19.985  70.506  1.00  0.00     1.546 C  
HETATM    5  O   UNL     1     -10.087  20.011  71.152  1.00  0.00     1.195 OA 
HETATM    6  N   UNL     1      -8.977  19.607  69.178  1.00  0.00    -0.173 N  
HETATM    7  O   UNL     1     -10.209  19.269  68.593  1.00  0.00    -0.411 OA 
HETATM    8  C   UNL     1      -7.833  19.496  68.418  1.00  0.00    -0.339 C  
HETATM    9  C   UNL     1      -6.669  19.838  69.022  1.00  0.00    -0.372 C  
ENDROOT
BRANCH   8  10
HETATM   10  C   UNL     1      -7.830  18.983  66.972  1.00  0.00    -0.255 C  
HETATM   11  C   UNL     1      -7.158  17.622  66.650  1.00  0.00    -0.258 C  
HETATM   12  C   UNL     1      -8.087  16.416  66.456  1.00  0.00    -0.345 C  
HETATM   13  C   UNL     1      -9.331  16.748  65.649  1.00  0.00     0.151 C  
HETATM   14  C   UNL     1     -10.070  17.923  66.273  1.00  0.00    -0.351 C  
HETATM   15  C   UNL     1      -9.193  19.167  66.273  1.00  0.00    -0.335 C  
ENDBRANCH   8  10
TORSDOF 1
ENDMDL
MODEL      233
REMARK 921   NORMALIZED FREE ENERGY PREDICTED BY IDOCK:    3.71 KCAL/MOL
REMARK 922        TOTAL FREE ENERGY PREDICTED BY IDOCK:    3.63 KCAL/MOL
REMARK 923 INTER-LIGAND FREE ENERGY PREDICTED BY IDOCK:    3.15 KCAL/MOL
REMARK 924 INTRA-LIGAND FREE ENERGY PREDICTED BY IDOCK:    0.48 KCAL/MOL
REMARK 927      BINDING AFFINITY PREDICTED BY RF-SCORE:    0.00 PKD
ROOT
HETATM    1  C   UNL     1     -12.518  14.058  71.507  1.00  0.00    -0.407 C  
HETATM    2  C   UNL     1     -11.678  14.204  70.275  1.00  0.00    -0.328 C  
HETATM    3  C   UNL     1     -10.422  13.731  70.216  1.00  0.00     1.392 C  
HETATM    4  C   UNL     1      -9.641  13.880  68.969  1.00  0.00     0.139 C  
HETATM    5  O   UNL     1      -8.483  13.475  68.896  1.00  0.00     0.017 OA 
HETATM    6  N   UNL     1     -10.298  14.500  67.923  1.00  0.00    -0.229 N  
HETATM    7  O   UNL     1      -9.553  14.622  66.738  1.00  0.00    -0.232 OA 
HETATM    8  C   UNL     1     -11.569  15.031  67.960  1.00  0.00    -0.338 C  
HETATM    9  C   UNL     1     -12.253  14.886  69.122  1.00  0.00    -0.194 C  
ENDROOT
BRANCH   8  10
HETATM   10  C   UNL     1     -12.200  15.786  66.783  1.00  0.00     1.317 C  
HETATM   11  C   UNL     1     -11.298  16.647  65.861  1.00  0.00     0.603 C  
HETATM   12  C   UNL     1     -10.912  16.043  64.503  1.00  0.00    -0.179 C  
HETATM   13  C   UNL     1     -12.067  15.328  63.822  1.00  0.00     0.349 C  
HETATM   14  C   UNL     1     -12.662  14.278  64.748  1.00  0.00    -0.191 C  
HETATM   15  C   UNL     1     -13.220  14.929  66.006  1.00  0.00     1.427 C  
ENDBRANCH   8  10
TORSDOF 1
ENDMDL
MODEL      234
REMARK 921   NORMALIZED FREE ENERGY PREDICTED BY IDOCK:    5.58 KCAL/MOL
REMARK 922        TOTAL FREE ENERGY PREDICTED BY IDOCK:    5.61 KCAL/MOL
REMARK 923 INTER-LIGAND FREE ENERGY PREDICTED BY IDOCK:    5.96 KCAL/MOL
REMARK 924 INTRA-LIGAND FREE ENERGY PREDICTED BY IDOCK:   -0.35 KCAL/MOL
REMARK 927      BINDING AFFINITY PREDICTED BY RF-SCORE:    0.00 PKD
ROOT
HETATM    1  C   UNL     1     -11.589  20.532  64.956  1.00  0.00     1.976 C  
HETATM    2  C   UNL     1     -10.868  20.471  66.268  1.00  0.00     0.582 C  
HETATM    3  C   UNL     1     -11.450  20.865  67.413  1.00  0.00     3.462 C  
HETATM    4  C   UNL     1     -10.705  20.764  68.686  1.00  0.00     0.802 C  
HETATM    5  O   UNL     1     -11.208  21.137  69.744  1.00  0.00     1.000 OA 
HETATM    6  N   UNL     1      -9.432  20.237  68.593  1.00  0.00     0.035 N  
HETATM    7  O   UNL     1      -8.739  20.131  69.811  1.00  0.00     0.506 OA 
HETATM    8  C   UNL     1      -8.789  19.861  67.434  1.00  0.00    -0.336 C  
HETATM    9  C   UNL     1      -9.497  19.976  66.284  1.00  0.00    -0.485 C  
ENDROOT
BRANCH   8  10
HETATM   10  C   UNL     1      -7.337  19.366  67.399  1.00  0.00    -0.252 C  
HETATM   11  C   UNL     1      -6.929  18.279  66.370  1.00  0.00    -0.270 C  
HETATM   12  C   UNL     1      -6.180  18.752  65.117  1.00  0.00    -0.302 C  
HETATM   13  C   UNL     1      -5.131  19.809  65.416  1.00  0.00    -0.180 C  
HETATM   14  C   UNL     1      -5.753  20.978  66.165  1.00  0.00    -0.282 C  
HETATM   15  C   UNL     1      -6.315  20.517  67.502  1.00  0.00    -0.295 C  
ENDBRANCH   8  10
TORSDOF 1
ENDMDL
MODEL      235
REMARK 921   NORMALIZED FREE ENERGY PREDICTED BY IDOCK:   16.46 KCAL/MOL
REMARK 922        TOTAL FREE ENERGY PREDICTED BY IDOCK:   17.13 KCAL/MOL
REMARK 923 INTER-LIGAND FREE ENERGY PREDICTED BY IDOCK:   15.79 KCAL/MOL
REMARK 924 INTRA-LIGAND FREE ENERGY PREDICTED BY IDOCK:    1.34 KCAL/MOL
REMARK 927      BINDING AFFINITY PREDICTED BY RF-SCORE:    0.00 PKD
ROOT
HETATM    1  C   UNL     1     -12.380  18.244  69.620  1.00  0.00    10.169 C  
HETATM    2  C   UNL     1     -11.282  17.270  69.315  1.00  0.00     0.615 C  
HETATM    3  C   UNL     1     -10.904  16.333  70.200  1.00  0.00    -0.299 C  
HETATM    4  C   UNL     1      -9.830  15.380  69.844  1.00  0.00    -0.179 C  
HETATM    5  O   UNL     1      -9.452  14.527  70.644  1.00  0.00     1.418 OA 
HETATM    6  N   UNL     1      -9.298  15.526  68.578  1.00  0.00    -0.191 N  
HETATM    7  O   UNL     1      -8.291  14.605  68.244  1.00  0.00    -0.135 OA 
HETATM    8  C   UNL     1      -9.634  16.498  67.661  1.00  0.00    -0.235 C  
HETATM    9  C   UNL     1     -10.614  17.361  68.023  1.00  0.00    -0.389 C  
ENDROOT
BRANCH   8  10
HETATM   10  C   UNL     1      -8.934  16.652  66.304  1.00  0.00    -0.340 C  
HETATM   11  C   UNL     1      -8.289  18.014  65.932  1.00  0.00     0.071 C  
HETATM   12  C   UNL     1      -6.764  18.123  66.069  1.00  0.00    -0.312 C  
HETATM   13  C   UNL     1      -6.034  16.886  65.574  1.00  0.00     1.827 C  
HETATM   14  C   UNL     1      -6.566  15.641  66.269  1.00  0.00     2.298 C  
HETATM   15  C   UNL     1      -8.042  15.443  65.955  1.00  0.00     1.467 C  
ENDBRANCH   8  10
TORSDOF 1
ENDMDL
MODEL      236
REMARK 921   NORMALIZED FREE ENERGY PREDICTED BY IDOCK:   21.44 KCAL/MOL
REMARK 922        TOTAL FREE ENERGY PREDICTED BY IDOCK:   22.40 KCAL/MOL
REMARK 923 INTER-LIGAND FREE ENERGY PREDICTED BY IDOCK:   21.61 KCAL/MOL
REMARK 924 INTRA-LIGAND FREE ENERGY PREDICTED BY IDOCK:    0.79 KCAL/MOL
REMARK 927      BINDING AFFINITY PREDICTED BY RF-SCORE:    0.00 PKD
ROOT
HETATM    1  C   UNL     1     -13.554  12.645  67.748  1.00  0.00     7.835 C  
HETATM    2  C   UNL     1     -12.140  12.703  68.241  1.00  0.00    -0.135 C  
HETATM    3  C   UNL     1     -11.853  12.881  69.541  1.00  0.00    -0.383 C  
HETATM    4  C   UNL     1     -10.442  12.910  69.982  1.00  0.00     1.597 C  
HETATM    5  O   UNL     1     -10.152  13.092  71.163  1.00  0.00     6.093 OA 
HETATM    6  N   UNL     1      -9.501  12.727  68.987  1.00  0.00     0.303 N  
HETATM    7  O   UNL     1      -8.164  12.740  69.419  1.00  0.00     0.640 OA 
HETATM    8  C   UNL     1      -9.758  12.583  67.641  1.00  0.00    -0.196 C  
HETATM    9  C   UNL     1     -11.061  12.571  67.270  1.00  0.00    -0.319 C  
ENDROOT
BRANCH   8  10
HETATM   10  C   UNL     1      -8.653  12.474  66.581  1.00  0.00    -0.057 C  
HETATM   11  C   UNL     1      -8.046  13.769  65.980  1.00  0.00     2.050 C  
HETATM   12  C   UNL     1      -6.676  14.208  66.515  1.00  0.00     2.803 C  
HETATM   13  C   UNL     1      -5.712  13.048  66.703  1.00  0.00     1.632 C  
HETATM   14  C   UNL     1      -6.336  11.977  67.585  1.00  0.00    -0.099 C  
HETATM   15  C   UNL     1      -7.591  11.413  66.936  1.00  0.00    -0.151 C  
ENDBRANCH   8  10
TORSDOF 1
ENDMDL
MODEL      237
REMARK 921   NORMALIZED FREE ENERGY PREDICTED BY IDOCK:   23.06 KCAL/MOL
REMARK 922        TOTAL FREE ENERGY PREDICTED BY IDOCK:   24.11 KCAL/MOL
REMARK 923 INTER-LIGAND FREE ENERGY PREDICTED BY IDOCK:   22.74 KCAL/MOL
REMARK 924 INTRA-LIGAND FREE ENERGY PREDICTED BY IDOCK:    1.37 KCAL/MOL
REMARK 927      BINDING AFFINITY PREDICTED BY RF-SCORE:    0.00 PKD
ROOT
HETATM    1  C   UNL     1     -11.845  17.368  69.183  1.00  0.00     2.318 C  
HETATM    2  C   UNL     1     -11.151  16.218  69.848  1.00  0.00    -0.347 C  
HETATM    3  C   UNL     1     -11.417  15.871  71.118  1.00  0.00    -0.471 C  
HETATM    4  C   UNL     1     -10.722  14.714  71.722  1.00  0.00     1.575 C  
HETATM    5  O   UNL     1     -10.933  14.388  72.889  1.00  0.00     1.494 OA 
HETATM    6  N   UNL     1      -9.835  14.052  70.895  1.00  0.00     3.365 N  
HETATM    7  O   UNL     1      -9.192  12.945  71.475  1.00  0.00    12.970 OA 
HETATM    8  C   UNL     1      -9.508  14.403  69.604  1.00  0.00     0.530 C  
HETATM    9  C   UNL     1     -10.156  15.474  69.085  1.00  0.00    -0.239 C  
ENDROOT
BRANCH   8  10
HETATM   10  C   UNL     1      -8.444  13.670  68.776  1.00  0.00     0.056 C  
HETATM   11  C   UNL     1      -7.216  14.459  68.247  1.00  0.00    -0.122 C  
HETATM   12  C   UNL     1      -5.896  14.286  69.012  1.00  0.00    -0.089 C  
HETATM   13  C   UNL     1      -5.633  12.848  69.425  1.00  0.00    -0.084 C  
HETATM   14  C   UNL     1      -6.810  12.300  70.218  1.00  0.00     0.947 C  
HETATM   15  C   UNL     1      -8.073  12.296  69.369  1.00  0.00     0.834 C  
ENDBRANCH   8  10
TORSDOF 1
ENDMDL
MODEL      238
REMARK 921   NORMALIZED FREE ENERGY PREDICTED BY IDOCK:   23.55 KCAL/MOL
REMARK 922        TOTAL FREE ENERGY PREDICTED BY IDOCK:   24.63 KCAL/MOL
REMARK 923 INTER-LIGAND FREE ENERGY PREDICTED BY IDOCK:   24.95 KCAL/MOL
REMARK 924 INTRA-LIGAND FREE ENERGY PREDICTED BY IDOCK:   -0.32 KCAL/MOL
REMARK 927      BINDING AFFINITY PREDICTED BY RF-SCORE:    0.00 PKD
ROOT
HETATM    1  C   UNL     1     -11.845  17.368  69.183  1.00  0.00     2.318 C  
HETATM    2  C   UNL     1     -11.151  16.218  69.848  1.00  0.00    -0.347 C  
HETATM    3  C   UNL     1     -11.417  15.871  71.118  1.00  0.00    -0.471 C  
HETATM    4  C   UNL     1     -10.722  14.714  71.722  1.00  0.00     1.575 C  
HETATM    5  O   UNL     1     -10.933  14.388  72.889  1.00  0.00     1.494 OA 
HETATM    6  N   UNL     1      -9.835  14.052  70.895  1.00  0.00     3.365 N  
HETATM    7  O   UNL     1      -9.192  12.945  71.475  1.00  0.00    12.970 OA 
HETATM    8  C   UNL     1      -9.508  14.403  69.604  1.00  0.00     0.530 C  
HETATM    9  C   UNL     1     -10.156  15.474  69.085  1.00  0.00    -0.239 C  
ENDROOT
BRANCH   8  10
HETATM   10  C   UNL     1      -8.444  13.670  68.776  1.00  0.00     0.056 C  
HETATM   11  C   UNL     1      -8.887  12.585  67.760  1.00  0.00    -0.178 C  
HETATM   12  C   UNL     1      -8.918  12.989  66.279  1.00  0.00     0.080 C  
HETATM   13  C   UNL     1      -7.723  13.833  65.869  1.00  0.00     3.643 C  
HETATM   14  C   UNL     1      -7.598  15.050  66.774  1.00  0.00     0.274 C  
HETATM   15  C   UNL     1      -7.367  14.623  68.216  1.00  0.00    -0.117 C  
ENDBRANCH   8  10
TORSDOF 1
ENDMDL
MODEL      239
REMARK 921   NORMALIZED FREE ENERGY PREDICTED BY IDOCK:   29.41 KCAL/MOL
REMARK 922        TOTAL FREE ENERGY PREDICTED BY IDOCK:   30.84 KCAL/MOL
REMARK 923 INTER-LIGAND FREE ENERGY PREDICTED BY IDOCK:   29.72 KCAL/MOL
REMARK 924 INTRA-LIGAND FREE ENERGY PREDICTED BY IDOCK:    1.12 KCAL/MOL
REMARK 927      BINDING AFFINITY PREDICTED BY RF-SCORE:    0.00 PKD
ROOT
HETATM    1  C   UNL     1      -7.448  17.835  73.485  1.00  0.00    11.533 C  
HETATM    2  C   UNL     1      -7.622  18.570  72.190  1.00  0.00     8.098 C  
HETATM    3  C   UNL     1      -8.595  19.480  72.021  1.00  0.00     4.644 C  
HETATM    4  C   UNL     1      -8.714  20.195  70.732  1.00  0.00     1.880 C  
HETATM    5  O   UNL     1      -9.608  21.018  70.545  1.00  0.00     1.681 OA 
HETATM    6  N   UNL     1      -7.768  19.869  69.779  1.00  0.00     0.201 N  
HETATM    7  O   UNL     1      -7.879  20.566  68.564  1.00  0.00     0.098 OA 
HETATM    8  C   UNL     1      -6.783  18.914  69.904  1.00  0.00     0.062 C  
HETATM    9  C   UNL     1      -6.710  18.270  71.094  1.00  0.00     2.667 C  
ENDROOT
BRANCH   8  10
HETATM   10  C   UNL     1      -5.822  18.542  68.766  1.00  0.00    -0.206 C  
HETATM   11  C   UNL     1      -5.502  17.047  68.500  1.00  0.00    -0.132 C  
HETATM   12  C   UNL     1      -6.222  16.380  67.321  1.00  0.00    -0.212 C  
HETATM   13  C   UNL     1      -6.300  17.270  66.092  1.00  0.00    -0.140 C  
HETATM   14  C   UNL     1      -6.934  18.608  66.445  1.00  0.00    -0.254 C  
HETATM   15  C   UNL     1      -6.091  19.344  67.476  1.00  0.00    -0.206 C  
ENDBRANCH   8  10
TORSDOF 1
ENDMDL
