MODEL        1
REMARK 921   NORMALIZED FREE ENERGY PREDICTED BY IDOCK:   -8.71 KCAL/MOL
REMARK 922        TOTAL FREE ENERGY PREDICTED BY IDOCK:  -11.58 KCAL/MOL
REMARK 923 INTER-LIGAND FREE ENERGY PREDICTED BY IDOCK:  -11.25 KCAL/MOL
REMARK 924 INTRA-LIGAND FREE ENERGY PREDICTED BY IDOCK:   -0.32 KCAL/MOL
REMARK 927      BINDING AFFINITY PREDICTED BY RF-SCORE:    0.00 PKD
ROOT
HETATM    1  C   UNL     1     -11.149  15.283  66.584  1.00  0.00    -0.276 C  
HETATM    2  C   UNL     1     -12.345  14.083  66.226  1.00  0.00    -0.482 C  
HETATM    3  C   UNL     1     -11.603  12.650  66.542  1.00  0.00    -0.441 C  
HETATM    4  C   UNL     1     -11.605  11.237  67.362  1.00  0.00    -0.214 C  
HETATM    5  C   UNL     1     -12.025  11.502  68.856  1.00  0.00    -0.364 C  
HETATM    6  C   UNL     1     -11.510  10.612  69.955  1.00  0.00    -0.393 C  
HETATM    7  C   UNL     1     -10.028  10.236  69.756  1.00  0.00    -0.222 C  
HETATM    8  C   UNL     1      -9.301   9.835  70.814  1.00  0.00     0.082 C  
HETATM    9  C   UNL     1     -10.016   8.589  71.249  1.00  0.00    -0.221 C  
HETATM   10  C   UNL     1     -10.627   7.740  70.129  1.00  0.00    -0.237 C  
HETATM   11  O   UNL     1     -10.134   8.317  72.438  1.00  0.00    -0.262 OA 
HETATM   12  C   UNL     1     -10.582   8.161  68.826  1.00  0.00    -0.149 C  
HETATM   13  C   UNL     1      -9.824   9.435  68.451  1.00  0.00    -0.177 C  
HETATM   14  C   UNL     1      -8.400   8.871  68.150  1.00  0.00    -0.125 C  
HETATM   15  C   UNL     1     -10.159  10.600  67.421  1.00  0.00    -0.231 C  
HETATM   16  C   UNL     1      -9.407  10.681  66.090  1.00  0.00    -0.177 C  
HETATM   17  O   UNL     1     -10.145  10.181  64.990  1.00  0.00    -0.330 OA 
HETATM   18  C   UNL     1      -9.037  12.169  65.973  1.00  0.00    -0.057 C  
HETATM   19  C   UNL     1     -10.250  13.112  66.104  1.00  0.00    -0.291 C  
HETATM   20  H   UNL     1      -9.679  10.231  64.164  1.00  0.00     0.000 HD 
HETATM   21  C   UNL     1     -10.552  13.398  64.507  1.00  0.00    -0.441 C  
HETATM   22  C   UNL     1     -10.223  14.370  67.353  1.00  0.00    -0.247 C  
HETATM   23  O   UNL     1      -8.948  14.879  67.396  1.00  0.00    -0.175 OA 
HETATM   24  O   UNL     1     -10.172  15.937  65.710  1.00  0.00    -0.318 OA 
HETATM   25  C   UNL     1      -8.829  15.593  66.177  1.00  0.00    -0.276 C  
ENDROOT
BRANCH  22  26
HETATM   26  C   UNL     1     -11.058  14.568  68.861  1.00  0.00    -0.256 C  
HETATM   27  O   UNL     1     -10.927  13.741  69.788  1.00  0.00    -0.060 OA 
BRANCH  26  28
HETATM   28  C   UNL     1     -12.033  15.725  69.158  1.00  0.00    -0.296 C  
BRANCH  28  29
HETATM   29  O   UNL     1     -12.886  15.462  70.360  1.00  0.00    -0.390 OA 
BRANCH  29  30
HETATM   30  C   UNL     1     -12.423  15.807  71.597  1.00  0.00    -0.463 C  
HETATM   31  C   UNL     1     -12.399  15.374  74.138  1.00  0.00    -0.800 C  
HETATM   32  C   UNL     1     -13.568  13.747  72.698  1.00  0.00    -0.617 C  
HETATM   33  O   UNL     1     -11.465  16.574  71.740  1.00  0.00    -0.337 OA 
HETATM   34  C   UNL     1     -13.191  15.222  72.816  1.00  0.00    -0.583 C  
ENDBRANCH  29  30
ENDBRANCH  28  29
ENDBRANCH  26  28
ENDBRANCH  22  26
BRANCH  25  35
HETATM   35  C   UNL     1      -7.764  16.653  66.531  1.00  0.00    -0.337 C  
HETATM   36  C   UNL     1      -8.396  18.079  66.378  1.00  0.00    -0.275 C  
HETATM   37  C   UNL     1      -7.183  16.525  67.933  1.00  0.00    -0.153 C  
HETATM   38  C   UNL     1      -7.413  19.205  66.659  1.00  0.00    -0.246 C  
HETATM   39  C   UNL     1      -6.751  19.038  68.023  1.00  0.00    -0.251 C  
HETATM   40  C   UNL     1      -6.162  17.638  68.197  1.00  0.00    -0.167 C  
ENDBRANCH  25  35
TORSDOF 5
ENDMDL
MODEL        2
REMARK 921   NORMALIZED FREE ENERGY PREDICTED BY IDOCK:   -8.38 KCAL/MOL
REMARK 922        TOTAL FREE ENERGY PREDICTED BY IDOCK:  -11.15 KCAL/MOL
REMARK 923 INTER-LIGAND FREE ENERGY PREDICTED BY IDOCK:  -10.24 KCAL/MOL
REMARK 924 INTRA-LIGAND FREE ENERGY PREDICTED BY IDOCK:   -0.90 KCAL/MOL
REMARK 927      BINDING AFFINITY PREDICTED BY RF-SCORE:    0.00 PKD
ROOT
HETATM    1  C   UNL     1     -11.547  14.651  67.301  1.00  0.00    -0.387 C  
HETATM    2  C   UNL     1     -10.591  14.254  65.911  1.00  0.00    -0.306 C  
HETATM    3  C   UNL     1      -9.264  13.498  66.522  1.00  0.00    -0.187 C  
HETATM    4  C   UNL     1      -8.311  12.172  66.545  1.00  0.00     0.019 C  
HETATM    5  C   UNL     1      -9.212  10.881  66.547  1.00  0.00    -0.189 C  
HETATM    6  C   UNL     1      -8.722   9.618  67.202  1.00  0.00    -0.137 C  
HETATM    7  C   UNL     1      -7.987   9.895  68.529  1.00  0.00    -0.086 C  
HETATM    8  C   UNL     1      -7.875   8.912  69.439  1.00  0.00    -0.098 C  
HETATM    9  C   UNL     1      -7.078   7.874  68.703  1.00  0.00    -0.076 C  
HETATM   10  C   UNL     1      -6.019   8.406  67.732  1.00  0.00    -0.047 C  
HETATM   11  O   UNL     1      -7.315   6.681  68.851  1.00  0.00    -0.088 OA 
HETATM   12  C   UNL     1      -5.888   9.751  67.504  1.00  0.00    -0.050 C  
HETATM   13  C   UNL     1      -6.723  10.755  68.300  1.00  0.00    -0.063 C  
HETATM   14  C   UNL     1      -5.793  11.033  69.521  1.00  0.00    -0.051 C  
HETATM   15  C   UNL     1      -7.447  12.103  67.869  1.00  0.00    -0.117 C  
HETATM   16  C   UNL     1      -6.847  13.453  68.271  1.00  0.00    -0.106 C  
HETATM   17  O   UNL     1      -6.136  14.092  67.225  1.00  0.00    -0.330 OA 
HETATM   18  C   UNL     1      -8.058  14.250  68.785  1.00  0.00    -0.109 C  
HETATM   19  C   UNL     1      -9.218  14.319  67.771  1.00  0.00    -0.194 C  
HETATM   20  H   UNL     1      -5.764  14.930  67.474  1.00  0.00     0.000 HD 
HETATM   21  C   UNL     1      -8.928  15.808  67.121  1.00  0.00    -0.233 C  
HETATM   22  C   UNL     1     -10.820  13.744  68.265  1.00  0.00    -0.250 C  
HETATM   23  O   UNL     1     -11.017  14.143  69.565  1.00  0.00    -0.224 OA 
HETATM   24  O   UNL     1     -11.586  15.875  68.104  1.00  0.00    -0.329 OA 
HETATM   25  C   UNL     1     -11.165  15.549  69.467  1.00  0.00    -0.299 C  
ENDROOT
BRANCH  22  26
HETATM   26  C   UNL     1     -11.757  12.340  67.864  1.00  0.00    -0.347 C  
HETATM   27  O   UNL     1     -12.410  12.278  66.800  1.00  0.00    -0.438 OA 
BRANCH  26  28
HETATM   28  C   UNL     1     -11.890  11.104  68.777  1.00  0.00    -0.320 C  
BRANCH  28  29
HETATM   29  O   UNL     1     -11.731  11.443  70.227  1.00  0.00    -0.322 OA 
BRANCH  29  30
HETATM   30  C   UNL     1     -12.632  10.956  71.130  1.00  0.00    -0.428 C  
HETATM   31  C   UNL     1     -13.440   8.995  72.595  1.00  0.00    -0.400 C  
HETATM   32  C   UNL     1     -11.287   8.747  71.415  1.00  0.00    -0.364 C  
HETATM   33  O   UNL     1     -13.409  11.701  71.735  1.00  0.00    -0.399 OA 
HETATM   34  C   UNL     1     -12.658   9.413  71.325  1.00  0.00    -0.403 C  
ENDBRANCH  29  30
ENDBRANCH  28  29
ENDBRANCH  26  28
ENDBRANCH  22  26
BRANCH  25  35
HETATM   35  C   UNL     1     -12.021  15.867  70.711  1.00  0.00    -0.413 C  
HETATM   36  C   UNL     1     -13.309  14.974  70.684  1.00  0.00    -0.279 C  
HETATM   37  C   UNL     1     -11.310  15.658  72.041  1.00  0.00    -0.404 C  
HETATM   38  C   UNL     1     -14.252  15.243  71.847  1.00  0.00    -0.681 C  
HETATM   39  C   UNL     1     -13.529  15.130  73.186  1.00  0.00    -0.478 C  
HETATM   40  C   UNL     1     -12.251  15.971  73.210  1.00  0.00    -0.632 C  
ENDBRANCH  25  35
TORSDOF 5
ENDMDL
MODEL        3
REMARK 921   NORMALIZED FREE ENERGY PREDICTED BY IDOCK:   -8.14 KCAL/MOL
REMARK 922        TOTAL FREE ENERGY PREDICTED BY IDOCK:  -10.85 KCAL/MOL
REMARK 923 INTER-LIGAND FREE ENERGY PREDICTED BY IDOCK:   -9.83 KCAL/MOL
REMARK 924 INTRA-LIGAND FREE ENERGY PREDICTED BY IDOCK:   -1.02 KCAL/MOL
REMARK 927      BINDING AFFINITY PREDICTED BY RF-SCORE:    0.00 PKD
ROOT
HETATM    1  C   UNL     1     -11.893  13.203  67.732  1.00  0.00    -0.348 C  
HETATM    2  C   UNL     1     -11.042  12.424  66.440  1.00  0.00    -0.343 C  
HETATM    3  C   UNL     1      -9.548  12.116  67.054  1.00  0.00    -0.207 C  
HETATM    4  C   UNL     1      -8.386  11.019  67.394  1.00  0.00    -0.126 C  
HETATM    5  C   UNL     1      -9.050   9.729  68.007  1.00  0.00    -0.127 C  
HETATM    6  C   UNL     1      -8.284   8.876  68.982  1.00  0.00    -0.116 C  
HETATM    7  C   UNL     1      -7.466   9.719  69.981  1.00  0.00    -0.158 C  
HETATM    8  C   UNL     1      -7.090   9.175  71.151  1.00  0.00    -0.088 C  
HETATM    9  C   UNL     1      -6.214   8.036  70.716  1.00  0.00    -0.033 C  
HETATM   10  C   UNL     1      -5.373   8.279  69.459  1.00  0.00    -0.030 C  
HETATM   11  O   UNL     1      -6.228   6.969  71.319  1.00  0.00    -0.036 OA 
HETATM   12  C   UNL     1      -5.498   9.443  68.745  1.00  0.00    -0.037 C  
HETATM   13  C   UNL     1      -6.399  10.568  69.254  1.00  0.00    -0.051 C  
HETATM   14  C   UNL     1      -5.402  11.395  70.123  1.00  0.00    -0.090 C  
HETATM   15  C   UNL     1      -7.384  11.558  68.493  1.00  0.00    -0.104 C  
HETATM   16  C   UNL     1      -6.981  13.019  68.279  1.00  0.00    -0.101 C  
HETATM   17  O   UNL     1      -6.508  13.292  66.972  1.00  0.00    -0.460 OA 
HETATM   18  C   UNL     1      -8.246  13.805  68.665  1.00  0.00    -0.077 C  
HETATM   19  C   UNL     1      -9.505  13.348  67.900  1.00  0.00    -0.216 C  
HETATM   20  H   UNL     1      -6.258  14.199  66.839  1.00  0.00     0.000 HD 
HETATM   21  C   UNL     1      -9.545  14.502  66.720  1.00  0.00    -0.274 C  
HETATM   22  C   UNL     1     -10.922  12.821  68.824  1.00  0.00    -0.250 C  
HETATM   23  O   UNL     1     -11.041  13.657  69.908  1.00  0.00    -0.045 OA 
HETATM   24  O   UNL     1     -12.052  14.627  68.037  1.00  0.00    -0.286 OA 
HETATM   25  C   UNL     1     -11.435  14.894  69.337  1.00  0.00    -0.299 C  
ENDROOT
BRANCH  22  26
HETATM   26  C   UNL     1     -11.646  11.271  69.113  1.00  0.00    -0.319 C  
HETATM   27  O   UNL     1     -12.375  10.726  68.257  1.00  0.00    -0.296 OA 
BRANCH  26  28
HETATM   28  C   UNL     1     -11.486  10.479  70.427  1.00  0.00    -0.341 C  
BRANCH  28  29
HETATM   29  O   UNL     1     -11.648   9.004  70.230  1.00  0.00    -0.195 OA 
BRANCH  29  30
HETATM   30  C   UNL     1     -11.424   8.160  71.281  1.00  0.00    -0.266 C  
HETATM   31  C   UNL     1     -11.095   5.752  72.138  1.00  0.00    -0.327 C  
HETATM   32  C   UNL     1     -11.196   6.107  69.699  1.00  0.00    -0.488 C  
HETATM   33  O   UNL     1     -11.052   8.581  72.381  1.00  0.00    -0.361 OA 
HETATM   34  C   UNL     1     -11.703   6.651  71.033  1.00  0.00    -0.415 C  
ENDBRANCH  29  30
ENDBRANCH  28  29
ENDBRANCH  26  28
ENDBRANCH  22  26
BRANCH  25  35
HETATM   35  C   UNL     1     -12.192  15.558  70.507  1.00  0.00    -0.444 C  
HETATM   36  C   UNL     1     -13.293  14.571  71.026  1.00  0.00    -0.384 C  
HETATM   37  C   UNL     1     -11.312  15.968  71.680  1.00  0.00    -0.311 C  
HETATM   38  C   UNL     1     -14.134  15.149  72.154  1.00  0.00    -0.654 C  
HETATM   39  C   UNL     1     -13.259  15.651  73.299  1.00  0.00    -0.666 C  
HETATM   40  C   UNL     1     -12.159  16.588  72.798  1.00  0.00    -0.457 C  
ENDBRANCH  25  35
TORSDOF 5
ENDMDL
MODEL        4
REMARK 921   NORMALIZED FREE ENERGY PREDICTED BY IDOCK:   -8.01 KCAL/MOL
REMARK 922        TOTAL FREE ENERGY PREDICTED BY IDOCK:  -10.67 KCAL/MOL
REMARK 923 INTER-LIGAND FREE ENERGY PREDICTED BY IDOCK:   -9.67 KCAL/MOL
REMARK 924 INTRA-LIGAND FREE ENERGY PREDICTED BY IDOCK:   -1.00 KCAL/MOL
REMARK 927      BINDING AFFINITY PREDICTED BY RF-SCORE:    0.00 PKD
ROOT
HETATM    1  C   UNL     1     -11.502  14.332  67.042  1.00  0.00    -0.361 C  
HETATM    2  C   UNL     1     -10.410  14.175  65.706  1.00  0.00    -0.338 C  
HETATM    3  C   UNL     1      -9.046  13.528  66.360  1.00  0.00    -0.064 C  
HETATM    4  C   UNL     1      -7.940  12.327  66.353  1.00  0.00     0.333 C  
HETATM    5  C   UNL     1      -8.672  10.944  66.179  1.00  0.00    -0.189 C  
HETATM    6  C   UNL     1      -8.077   9.694  66.768  1.00  0.00    -0.113 C  
HETATM    7  C   UNL     1      -7.477   9.936  68.168  1.00  0.00    -0.080 C  
HETATM    8  C   UNL     1      -7.308   8.895  69.003  1.00  0.00    -0.073 C  
HETATM    9  C   UNL     1      -6.339   8.028  68.253  1.00  0.00    -0.050 C  
HETATM   10  C   UNL     1      -5.289   8.765  67.415  1.00  0.00    -0.034 C  
HETATM   11  O   UNL     1      -6.437   6.807  68.285  1.00  0.00    -0.048 OA 
HETATM   12  C   UNL     1      -5.309  10.131  67.307  1.00  0.00    -0.041 C  
HETATM   13  C   UNL     1      -6.316  10.955  68.111  1.00  0.00    -0.057 C  
HETATM   14  C   UNL     1      -5.516  11.230  69.421  1.00  0.00    -0.045 C  
HETATM   15  C   UNL     1      -7.170  12.242  67.732  1.00  0.00    -0.114 C  
HETATM   16  C   UNL     1      -6.770  13.611  68.288  1.00  0.00    -0.108 C  
HETATM   17  O   UNL     1      -6.073  14.420  67.357  1.00  0.00    -0.341 OA 
HETATM   18  C   UNL     1      -8.104  14.212  68.765  1.00  0.00    -0.088 C  
HETATM   19  C   UNL     1      -9.189  14.234  67.670  1.00  0.00    -0.194 C  
HETATM   20  H   UNL     1      -5.825  15.270  67.701  1.00  0.00     0.000 HD 
HETATM   21  C   UNL     1      -9.041  15.799  67.166  1.00  0.00    -0.228 C  
HETATM   22  C   UNL     1     -10.739  13.434  67.986  1.00  0.00    -0.248 C  
HETATM   23  O   UNL     1     -11.075  13.689  69.294  1.00  0.00    -0.248 OA 
HETATM   24  O   UNL     1     -11.749  15.466  67.934  1.00  0.00    -0.319 OA 
HETATM   25  C   UNL     1     -11.388  15.072  69.296  1.00  0.00    -0.296 C  
ENDROOT
BRANCH  22  26
HETATM   26  C   UNL     1     -11.464  11.971  67.399  1.00  0.00    -0.336 C  
HETATM   27  O   UNL     1     -12.277  11.985  66.450  1.00  0.00    -0.551 OA 
BRANCH  26  28
HETATM   28  C   UNL     1     -11.205  10.578  68.009  1.00  0.00    -0.294 C  
BRANCH  28  29
HETATM   29  O   UNL     1     -11.331  10.572  69.500  1.00  0.00    -0.243 OA 
BRANCH  29  30
HETATM   30  C   UNL     1     -11.222   9.390  70.176  1.00  0.00    -0.219 C  
HETATM   31  C   UNL     1     -11.854   7.960  72.225  1.00  0.00    -0.404 C  
HETATM   32  C   UNL     1     -12.994  10.129  71.932  1.00  0.00    -0.549 C  
HETATM   33  O   UNL     1     -10.748   8.381  69.644  1.00  0.00    -0.232 OA 
HETATM   34  C   UNL     1     -11.684   9.392  71.661  1.00  0.00    -0.468 C  
ENDBRANCH  29  30
ENDBRANCH  28  29
ENDBRANCH  26  28
ENDBRANCH  22  26
BRANCH  25  35
HETATM   35  C   UNL     1     -12.362  15.175  70.489  1.00  0.00    -0.408 C  
HETATM   36  C   UNL     1     -12.631  13.738  71.052  1.00  0.00    -0.446 C  
HETATM   37  C   UNL     1     -11.878  16.063  71.628  1.00  0.00    -0.582 C  
HETATM   38  C   UNL     1     -13.621  13.720  72.207  1.00  0.00    -0.656 C  
HETATM   39  C   UNL     1     -13.198  14.678  73.317  1.00  0.00    -0.411 C  
HETATM   40  C   UNL     1     -12.899  16.075  72.772  1.00  0.00    -0.527 C  
ENDBRANCH  25  35
TORSDOF 5
ENDMDL
MODEL        5
REMARK 921   NORMALIZED FREE ENERGY PREDICTED BY IDOCK:   -7.99 KCAL/MOL
REMARK 922        TOTAL FREE ENERGY PREDICTED BY IDOCK:  -10.65 KCAL/MOL
REMARK 923 INTER-LIGAND FREE ENERGY PREDICTED BY IDOCK:   -9.50 KCAL/MOL
REMARK 924 INTRA-LIGAND FREE ENERGY PREDICTED BY IDOCK:   -1.16 KCAL/MOL
REMARK 927      BINDING AFFINITY PREDICTED BY RF-SCORE:    0.00 PKD
ROOT
HETATM    1  C   UNL     1     -11.293  14.129  67.950  1.00  0.00    -0.294 C  
HETATM    2  C   UNL     1     -12.089  12.615  67.680  1.00  0.00    -0.166 C  
HETATM    3  C   UNL     1     -11.335  11.978  66.365  1.00  0.00    -0.411 C  
HETATM    4  C   UNL     1     -10.507  10.732  65.708  1.00  0.00    -0.256 C  
HETATM    5  C   UNL     1      -9.435  10.216  66.739  1.00  0.00    -0.205 C  
HETATM    6  C   UNL     1      -8.156   9.592  66.250  1.00  0.00    -0.112 C  
HETATM    7  C   UNL     1      -7.574  10.330  65.027  1.00  0.00    -0.124 C  
HETATM    8  C   UNL     1      -6.267  10.202  64.738  1.00  0.00    -0.130 C  
HETATM    9  C   UNL     1      -6.136   8.731  64.468  1.00  0.00    -0.066 C  
HETATM   10  C   UNL     1      -7.337   8.063  63.791  1.00  0.00    -0.102 C  
HETATM   11  O   UNL     1      -5.138   8.115  64.823  1.00  0.00    -0.034 OA 
HETATM   12  C   UNL     1      -8.483   8.772  63.537  1.00  0.00    -0.111 C  
HETATM   13  C   UNL     1      -8.544  10.272  63.826  1.00  0.00    -0.190 C  
HETATM   14  C   UNL     1      -8.065  10.869  62.466  1.00  0.00    -0.179 C  
HETATM   15  C   UNL     1      -9.698  11.186  64.427  1.00  0.00    -0.312 C  
HETATM   16  C   UNL     1     -10.495  12.113  63.504  1.00  0.00    -0.454 C  
HETATM   17  O   UNL     1     -11.770  11.606  63.155  1.00  0.00    -0.822 OA 
HETATM   18  C   UNL     1     -10.538  13.443  64.276  1.00  0.00    -0.358 C  
HETATM   19  C   UNL     1     -11.093  13.299  65.708  1.00  0.00    -0.296 C  
HETATM   20  H   UNL     1     -12.265  12.180  62.583  1.00  0.00     0.000 HD 
HETATM   21  C   UNL     1     -12.652  13.776  65.449  1.00  0.00    -0.534 C  
HETATM   22  C   UNL     1     -10.099  13.847  67.069  1.00  0.00    -0.256 C  
HETATM   23  O   UNL     1      -9.481  15.012  66.684  1.00  0.00    -0.236 OA 
HETATM   24  O   UNL     1     -11.630  15.474  67.476  1.00  0.00    -0.253 OA 
HETATM   25  C   UNL     1     -10.541  15.952  66.624  1.00  0.00    -0.305 C  
ENDROOT
BRANCH  22  26
HETATM   26  C   UNL     1      -9.211  13.015  68.306  1.00  0.00    -0.191 C  
HETATM   27  O   UNL     1      -9.793  12.480  69.274  1.00  0.00     0.339 OA 
BRANCH  26  28
HETATM   28  C   UNL     1      -7.673  12.904  68.334  1.00  0.00    -0.133 C  
BRANCH  28  29
HETATM   29  O   UNL     1      -7.026  14.071  69.013  1.00  0.00    -0.106 OA 
BRANCH  29  30
HETATM   30  C   UNL     1      -6.488  15.072  68.256  1.00  0.00    -0.116 C  
HETATM   31  C   UNL     1      -5.468  17.436  68.136  1.00  0.00    -0.133 C  
HETATM   32  C   UNL     1      -5.900  16.474  70.367  1.00  0.00    -0.042 C  
HETATM   33  O   UNL     1      -6.130  14.880  67.089  1.00  0.00    -0.243 OA 
HETATM   34  C   UNL     1      -6.393  16.474  68.922  1.00  0.00    -0.157 C  
ENDBRANCH  29  30
ENDBRANCH  28  29
ENDBRANCH  26  28
ENDBRANCH  22  26
BRANCH  25  35
HETATM   35  C   UNL     1      -9.801  17.283  66.873  1.00  0.00    -0.287 C  
HETATM   36  C   UNL     1     -10.488  18.411  66.028  1.00  0.00    -0.400 C  
HETATM   37  C   UNL     1      -9.758  17.723  68.330  1.00  0.00    -0.333 C  
HETATM   38  C   UNL     1      -9.804  19.764  66.164  1.00  0.00    -0.544 C  
HETATM   39  C   UNL     1      -9.668  20.174  67.627  1.00  0.00    -0.551 C  
HETATM   40  C   UNL     1      -9.031  19.066  68.466  1.00  0.00    -0.394 C  
ENDBRANCH  25  35
TORSDOF 5
ENDMDL
MODEL        6
REMARK 921   NORMALIZED FREE ENERGY PREDICTED BY IDOCK:   -7.83 KCAL/MOL
REMARK 922        TOTAL FREE ENERGY PREDICTED BY IDOCK:  -10.44 KCAL/MOL
REMARK 923 INTER-LIGAND FREE ENERGY PREDICTED BY IDOCK:   -9.21 KCAL/MOL
REMARK 924 INTRA-LIGAND FREE ENERGY PREDICTED BY IDOCK:   -1.24 KCAL/MOL
REMARK 927      BINDING AFFINITY PREDICTED BY RF-SCORE:    0.00 PKD
ROOT
HETATM    1  C   UNL     1     -11.331  14.105  67.919  1.00  0.00    -0.294 C  
HETATM    2  C   UNL     1     -12.150  12.605  67.636  1.00  0.00    -0.166 C  
HETATM    3  C   UNL     1     -11.421  11.979  66.302  1.00  0.00    -0.408 C  
HETATM    4  C   UNL     1     -10.619  10.733  65.615  1.00  0.00    -0.199 C  
HETATM    5  C   UNL     1      -9.540  10.188  66.623  1.00  0.00    -0.230 C  
HETATM    6  C   UNL     1      -8.275   9.555  66.108  1.00  0.00    -0.115 C  
HETATM    7  C   UNL     1      -7.701  10.305  64.889  1.00  0.00    -0.124 C  
HETATM    8  C   UNL     1      -6.399  10.164  64.580  1.00  0.00    -0.130 C  
HETATM    9  C   UNL     1      -6.291   8.696  64.285  1.00  0.00    -0.071 C  
HETATM   10  C   UNL     1      -7.509   8.054  63.614  1.00  0.00    -0.118 C  
HETATM   11  O   UNL     1      -5.296   8.063  64.618  1.00  0.00    -0.035 OA 
HETATM   12  C   UNL     1      -8.649   8.781  63.387  1.00  0.00    -0.063 C  
HETATM   13  C   UNL     1      -8.687  10.278  63.700  1.00  0.00    -0.211 C  
HETATM   14  C   UNL     1      -8.218  10.889  62.343  1.00  0.00    -0.264 C  
HETATM   15  C   UNL     1      -9.820  11.197  64.330  1.00  0.00    -0.334 C  
HETATM   16  C   UNL     1     -10.618  12.147  63.433  1.00  0.00    -0.410 C  
HETATM   17  O   UNL     1     -11.904  11.662  63.093  1.00  0.00    -0.844 OA 
HETATM   18  C   UNL     1     -10.634  13.466  64.226  1.00  0.00    -0.358 C  
HETATM   19  C   UNL     1     -11.171  13.307  65.662  1.00  0.00    -0.304 C  
HETATM   20  H   UNL     1     -12.399  12.252  62.536  1.00  0.00     0.000 HD 
HETATM   21  C   UNL     1     -12.728  13.807  65.432  1.00  0.00    -0.513 C  
HETATM   22  C   UNL     1     -10.152  13.822  67.018  1.00  0.00    -0.256 C  
HETATM   23  O   UNL     1      -9.524  14.985  66.642  1.00  0.00    -0.236 OA 
HETATM   24  O   UNL     1     -11.657  15.461  67.470  1.00  0.00    -0.294 OA 
HETATM   25  C   UNL     1     -10.573  15.938  66.611  1.00  0.00    -0.305 C  
ENDROOT
BRANCH  22  26
HETATM   26  C   UNL     1      -9.259  12.959  68.230  1.00  0.00    -0.187 C  
HETATM   27  O   UNL     1      -9.833  12.429  69.205  1.00  0.00     0.172 OA 
BRANCH  26  28
HETATM   28  C   UNL     1      -7.723  12.814  68.226  1.00  0.00    -0.136 C  
BRANCH  28  29
HETATM   29  O   UNL     1      -7.225  11.961  69.350  1.00  0.00    -0.024 OA 
BRANCH  29  30
HETATM   30  C   UNL     1      -6.620  10.769  69.069  1.00  0.00    -0.058 C  
HETATM   31  C   UNL     1      -6.636   8.198  69.245  1.00  0.00    -0.036 C  
HETATM   32  C   UNL     1      -8.632   9.422  70.022  1.00  0.00    -0.218 C  
HETATM   33  O   UNL     1      -5.702  10.687  68.247  1.00  0.00    -0.044 OA 
HETATM   34  C   UNL     1      -7.117   9.531  69.869  1.00  0.00    -0.084 C  
ENDBRANCH  29  30
ENDBRANCH  28  29
ENDBRANCH  26  28
ENDBRANCH  22  26
BRANCH  25  35
HETATM   35  C   UNL     1      -9.813  17.256  66.870  1.00  0.00    -0.287 C  
HETATM   36  C   UNL     1     -10.388  18.368  65.927  1.00  0.00    -0.322 C  
HETATM   37  C   UNL     1      -9.878  17.754  68.308  1.00  0.00    -0.340 C  
HETATM   38  C   UNL     1      -9.673  19.704  66.067  1.00  0.00    -0.421 C  
HETATM   39  C   UNL     1      -9.648  20.171  67.520  1.00  0.00    -0.547 C  
HETATM   40  C   UNL     1      -9.121  19.080  68.453  1.00  0.00    -0.391 C  
ENDBRANCH  25  35
TORSDOF 5
ENDMDL
MODEL        7
REMARK 921   NORMALIZED FREE ENERGY PREDICTED BY IDOCK:   -7.60 KCAL/MOL
REMARK 922        TOTAL FREE ENERGY PREDICTED BY IDOCK:  -10.15 KCAL/MOL
REMARK 923 INTER-LIGAND FREE ENERGY PREDICTED BY IDOCK:   -9.29 KCAL/MOL
REMARK 924 INTRA-LIGAND FREE ENERGY PREDICTED BY IDOCK:   -0.86 KCAL/MOL
REMARK 927      BINDING AFFINITY PREDICTED BY RF-SCORE:    0.00 PKD
ROOT
HETATM    1  C   UNL     1     -10.184  12.777  66.701  1.00  0.00    -0.238 C  
HETATM    2  C   UNL     1     -10.056  11.174  66.056  1.00  0.00    -0.292 C  
HETATM    3  C   UNL     1      -9.249  10.325  67.210  1.00  0.00    -0.157 C  
HETATM    4  C   UNL     1      -9.217   9.044  68.221  1.00  0.00    -0.139 C  
HETATM    5  C   UNL     1     -10.629   8.878  68.898  1.00  0.00    -0.188 C  
HETATM    6  C   UNL     1     -10.742   8.279  70.274  1.00  0.00    -0.237 C  
HETATM    7  C   UNL     1      -9.625   8.767  71.219  1.00  0.00    -0.323 C  
HETATM    8  C   UNL     1      -9.808   8.696  72.549  1.00  0.00    -0.268 C  
HETATM    9  C   UNL     1      -9.964   7.221  72.779  1.00  0.00    -0.194 C  
HETATM   10  C   UNL     1      -9.126   6.309  71.876  1.00  0.00    -0.143 C  
HETATM   11  O   UNL     1     -10.758   6.797  73.611  1.00  0.00    -0.316 OA 
HETATM   12  C   UNL     1      -8.356   6.832  70.871  1.00  0.00    -0.128 C  
HETATM   13  C   UNL     1      -8.231   8.347  70.701  1.00  0.00    -0.117 C  
HETATM   14  C   UNL     1      -6.992   8.658  71.597  1.00  0.00    -0.093 C  
HETATM   15  C   UNL     1      -8.190   9.265  69.404  1.00  0.00    -0.114 C  
HETATM   16  C   UNL     1      -6.864   9.878  68.946  1.00  0.00    -0.057 C  
HETATM   17  O   UNL     1      -6.263   9.190  67.864  1.00  0.00    -0.050 OA 
HETATM   18  C   UNL     1      -7.229  11.340  68.635  1.00  0.00    -0.098 C  
HETATM   19  C   UNL     1      -8.399  11.478  67.640  1.00  0.00    -0.135 C  
HETATM   20  H   UNL     1      -5.441   9.571  67.580  1.00  0.00     0.000 HD 
HETATM   21  C   UNL     1      -7.549  11.738  66.249  1.00  0.00     0.257 C  
HETATM   22  C   UNL     1      -9.826  12.412  68.122  1.00  0.00    -0.213 C  
HETATM   23  O   UNL     1      -9.383  13.509  68.820  1.00  0.00    -0.086 OA 
HETATM   24  O   UNL     1      -9.312  13.941  66.524  1.00  0.00    -0.277 OA 
HETATM   25  C   UNL     1      -8.761  14.309  67.829  1.00  0.00    -0.179 C  
ENDROOT
BRANCH  22  26
HETATM   26  C   UNL     1     -11.446  11.969  68.561  1.00  0.00    -0.293 C  
HETATM   27  O   UNL     1     -12.264  11.573  67.704  1.00  0.00    -0.513 OA 
BRANCH  26  28
HETATM   28  C   UNL     1     -12.005  12.065  69.995  1.00  0.00    -0.324 C  
BRANCH  28  29
HETATM   29  O   UNL     1     -12.518  13.433  70.320  1.00  0.00    -0.290 OA 
BRANCH  29  30
HETATM   30  C   UNL     1     -12.876  13.725  71.606  1.00  0.00    -0.352 C  
HETATM   31  C   UNL     1     -12.727  15.323  73.622  1.00  0.00    -0.703 C  
HETATM   32  C   UNL     1     -11.727  16.056  71.489  1.00  0.00    -0.554 C  
HETATM   33  O   UNL     1     -13.792  13.124  72.175  1.00  0.00    -0.486 OA 
HETATM   34  C   UNL     1     -12.040  14.820  72.329  1.00  0.00    -0.355 C  
ENDBRANCH  29  30
ENDBRANCH  28  29
ENDBRANCH  26  28
ENDBRANCH  22  26
BRANCH  25  35
HETATM   35  C   UNL     1      -8.895  15.724  68.430  1.00  0.00    -0.185 C  
HETATM   36  C   UNL     1      -7.634  16.566  68.035  1.00  0.00    -0.166 C  
HETATM   37  C   UNL     1     -10.143  16.481  67.996  1.00  0.00    -0.255 C  
HETATM   38  C   UNL     1      -7.642  17.971  68.619  1.00  0.00    -0.297 C  
HETATM   39  C   UNL     1      -8.930  18.710  68.271  1.00  0.00    -0.344 C  
HETATM   40  C   UNL     1     -10.167  17.882  68.621  1.00  0.00    -0.387 C  
ENDBRANCH  25  35
TORSDOF 5
ENDMDL
MODEL        8
REMARK 921   NORMALIZED FREE ENERGY PREDICTED BY IDOCK:   -7.45 KCAL/MOL
REMARK 922        TOTAL FREE ENERGY PREDICTED BY IDOCK:   -9.95 KCAL/MOL
REMARK 923 INTER-LIGAND FREE ENERGY PREDICTED BY IDOCK:   -9.32 KCAL/MOL
REMARK 924 INTRA-LIGAND FREE ENERGY PREDICTED BY IDOCK:   -0.62 KCAL/MOL
REMARK 927      BINDING AFFINITY PREDICTED BY RF-SCORE:    0.00 PKD
ROOT
HETATM    1  C   UNL     1     -11.891  14.690  66.402  1.00  0.00    -0.293 C  
HETATM    2  C   UNL     1     -12.858  13.305  66.015  1.00  0.00     0.068 C  
HETATM    3  C   UNL     1     -11.774  12.160  65.547  1.00  0.00    -0.384 C  
HETATM    4  C   UNL     1     -11.163  10.661  65.756  1.00  0.00     0.397 C  
HETATM    5  C   UNL     1     -11.002  10.372  67.296  1.00  0.00    -0.306 C  
HETATM    6  C   UNL     1      -9.924   9.442  67.782  1.00  0.00    -0.228 C  
HETATM    7  C   UNL     1      -8.598   9.633  67.018  1.00  0.00    -0.131 C  
HETATM    8  C   UNL     1      -7.447   9.226  67.582  1.00  0.00    -0.088 C  
HETATM    9  C   UNL     1      -7.660   7.748  67.731  1.00  0.00    -0.113 C  
HETATM   10  C   UNL     1      -8.475   7.073  66.623  1.00  0.00    -0.121 C  
HETATM   11  O   UNL     1      -7.240   7.150  68.715  1.00  0.00    -0.088 OA 
HETATM   12  C   UNL     1      -9.037   7.812  65.615  1.00  0.00     0.010 C  
HETATM   13  C   UNL     1      -8.767   9.314  65.516  1.00  0.00    -0.204 C  
HETATM   14  C   UNL     1      -7.496   9.342  64.612  1.00  0.00    -0.102 C  
HETATM   15  C   UNL     1      -9.713  10.534  65.135  1.00  0.00    -0.341 C  
HETATM   16  C   UNL     1      -9.582  11.201  63.763  1.00  0.00    -0.271 C  
HETATM   17  O   UNL     1     -10.576  10.796  62.838  1.00  0.00    -0.745 OA 
HETATM   18  C   UNL     1      -9.602  12.705  64.088  1.00  0.00     0.272 C  
HETATM   19  C   UNL     1     -10.830  13.134  64.916  1.00  0.00    -0.348 C  
HETATM   20  H   UNL     1     -10.495  11.210  61.987  1.00  0.00     0.000 HD 
HETATM   21  C   UNL     1     -11.791  13.716  63.706  1.00  0.00    -0.373 C  
HETATM   22  C   UNL     1     -10.571  13.958  66.464  1.00  0.00    -0.279 C  
HETATM   23  O   UNL     1      -9.516  14.823  66.298  1.00  0.00    -0.283 OA 
HETATM   24  O   UNL     1     -11.496  15.830  65.571  1.00  0.00    -0.053 OA 
HETATM   25  C   UNL     1     -10.038  15.830  65.448  1.00  0.00    -0.302 C  
ENDROOT
BRANCH  22  26
HETATM   26  C   UNL     1     -10.763  13.472  68.118  1.00  0.00    -0.252 C  
HETATM   27  O   UNL     1      -9.888  12.797  68.702  1.00  0.00    -0.173 OA 
BRANCH  26  28
HETATM   28  C   UNL     1     -12.011  13.787  68.968  1.00  0.00    -0.360 C  
BRANCH  28  29
HETATM   29  O   UNL     1     -11.703  13.872  70.430  1.00  0.00    -0.275 OA 
BRANCH  29  30
HETATM   30  C   UNL     1     -12.181  14.926  71.154  1.00  0.00    -0.320 C  
HETATM   31  C   UNL     1     -13.893  15.833  72.854  1.00  0.00    -0.565 C  
HETATM   32  C   UNL     1     -13.853  13.402  72.438  1.00  0.00    -0.665 C  
HETATM   33  O   UNL     1     -11.538  15.974  71.273  1.00  0.00    -0.408 OA 
HETATM   34  C   UNL     1     -13.593  14.756  71.783  1.00  0.00    -0.485 C  
ENDBRANCH  29  30
ENDBRANCH  28  29
ENDBRANCH  26  28
ENDBRANCH  22  26
BRANCH  25  35
HETATM   35  C   UNL     1      -9.162  17.045  65.819  1.00  0.00     0.074 C  
HETATM   36  C   UNL     1     -10.094  18.242  66.214  1.00  0.00    -0.389 C  
HETATM   37  C   UNL     1      -8.181  16.796  66.957  1.00  0.00    -0.224 C  
HETATM   38  C   UNL     1      -9.330  19.513  66.554  1.00  0.00    -0.437 C  
HETATM   39  C   UNL     1      -8.276  19.257  67.627  1.00  0.00    -0.327 C  
HETATM   40  C   UNL     1      -7.383  18.068  67.268  1.00  0.00    -0.212 C  
ENDBRANCH  25  35
TORSDOF 5
ENDMDL
MODEL        9
REMARK 921   NORMALIZED FREE ENERGY PREDICTED BY IDOCK:   -7.45 KCAL/MOL
REMARK 922        TOTAL FREE ENERGY PREDICTED BY IDOCK:   -9.95 KCAL/MOL
REMARK 923 INTER-LIGAND FREE ENERGY PREDICTED BY IDOCK:   -9.18 KCAL/MOL
REMARK 924 INTRA-LIGAND FREE ENERGY PREDICTED BY IDOCK:   -0.76 KCAL/MOL
REMARK 927      BINDING AFFINITY PREDICTED BY RF-SCORE:    0.00 PKD
ROOT
HETATM    1  C   UNL     1     -11.566  14.055  66.660  1.00  0.00    -0.382 C  
HETATM    2  C   UNL     1     -12.388  12.559  66.362  1.00  0.00     0.135 C  
HETATM    3  C   UNL     1     -11.280  11.626  65.583  1.00  0.00    -0.275 C  
HETATM    4  C   UNL     1     -10.432  10.232  65.531  1.00  0.00    -0.139 C  
HETATM    5  C   UNL     1      -9.903   9.888  66.974  1.00  0.00    -0.241 C  
HETATM    6  C   UNL     1      -8.625   9.113  67.146  1.00  0.00    -0.122 C  
HETATM    7  C   UNL     1      -7.536   9.551  66.145  1.00  0.00    -0.100 C  
HETATM    8  C   UNL     1      -6.245   9.299  66.423  1.00  0.00    -0.065 C  
HETATM    9  C   UNL     1      -6.209   7.800  66.484  1.00  0.00    -0.046 C  
HETATM   10  C   UNL     1      -7.141   7.067  65.512  1.00  0.00    -0.068 C  
HETATM   11  O   UNL     1      -5.506   7.222  67.304  1.00  0.00    -0.026 OA 
HETATM   12  C   UNL     1      -8.006   7.764  64.709  1.00  0.00    -0.142 C  
HETATM   13  C   UNL     1      -7.979   9.293  64.688  1.00  0.00    -0.125 C  
HETATM   14  C   UNL     1      -6.950   9.569  63.548  1.00  0.00    -0.103 C  
HETATM   15  C   UNL     1      -9.148  10.368  64.617  1.00  0.00    -0.255 C  
HETATM   16  C   UNL     1      -9.413  11.121  63.311  1.00  0.00    -0.332 C  
HETATM   17  O   UNL     1     -10.515  10.617  62.578  1.00  0.00    -0.719 OA 
HETATM   18  C   UNL     1      -9.575  12.583  63.762  1.00  0.00     0.346 C  
HETATM   19  C   UNL     1     -10.642  12.768  64.859  1.00  0.00    -0.336 C  
HETATM   20  H   UNL     1     -10.680  11.085  61.768  1.00  0.00     0.000 HD 
HETATM   21  C   UNL     1     -11.914  13.258  63.927  1.00  0.00    -0.541 C  
HETATM   22  C   UNL     1     -10.174  13.537  66.386  1.00  0.00    -0.291 C  
HETATM   23  O   UNL     1      -9.314  14.564  66.083  1.00  0.00    -0.277 OA 
HETATM   24  O   UNL     1     -11.526  15.287  65.868  1.00  0.00    -0.243 OA 
HETATM   25  C   UNL     1     -10.144  15.523  65.449  1.00  0.00    -0.352 C  
ENDROOT
BRANCH  22  26
HETATM   26  C   UNL     1      -9.933  12.937  67.996  1.00  0.00    -0.236 C  
HETATM   27  O   UNL     1      -8.831  12.471  68.356  1.00  0.00    -0.181 OA 
BRANCH  26  28
HETATM   28  C   UNL     1     -11.038  12.892  69.071  1.00  0.00    -0.233 C  
BRANCH  28  29
HETATM   29  O   UNL     1     -11.178  11.538  69.693  1.00  0.00    -0.251 OA 
BRANCH  29  30
HETATM   30  C   UNL     1     -12.198  11.307  70.572  1.00  0.00    -0.383 C  
HETATM   31  C   UNL     1     -13.403   9.681  72.168  1.00  0.00    -0.545 C  
HETATM   32  C   UNL     1     -11.256   8.961  71.188  1.00  0.00    -0.352 C  
HETATM   33  O   UNL     1     -12.875  12.231  71.034  1.00  0.00    -0.275 OA 
HETATM   34  C   UNL     1     -12.491   9.821  70.924  1.00  0.00    -0.366 C  
ENDBRANCH  29  30
ENDBRANCH  28  29
ENDBRANCH  26  28
ENDBRANCH  22  26
BRANCH  25  35
HETATM   35  C   UNL     1      -9.390  16.838  65.736  1.00  0.00    -0.032 C  
HETATM   36  C   UNL     1     -10.409  17.903  66.267  1.00  0.00    -0.364 C  
HETATM   37  C   UNL     1      -8.251  16.710  66.740  1.00  0.00    -0.274 C  
HETATM   38  C   UNL     1      -9.775  19.259  66.538  1.00  0.00    -0.432 C  
HETATM   39  C   UNL     1      -8.573  19.134  67.469  1.00  0.00    -0.317 C  
HETATM   40  C   UNL     1      -7.588  18.072  66.979  1.00  0.00    -0.237 C  
ENDBRANCH  25  35
TORSDOF 5
ENDMDL
MODEL       10
REMARK 921   NORMALIZED FREE ENERGY PREDICTED BY IDOCK:   -7.39 KCAL/MOL
REMARK 922        TOTAL FREE ENERGY PREDICTED BY IDOCK:   -9.88 KCAL/MOL
REMARK 923 INTER-LIGAND FREE ENERGY PREDICTED BY IDOCK:   -8.62 KCAL/MOL
REMARK 924 INTRA-LIGAND FREE ENERGY PREDICTED BY IDOCK:   -1.25 KCAL/MOL
REMARK 927      BINDING AFFINITY PREDICTED BY RF-SCORE:    0.00 PKD
ROOT
HETATM    1  C   UNL     1      -7.390  11.030  66.363  1.00  0.00    -0.128 C  
HETATM    2  C   UNL     1      -7.077   9.326  66.379  1.00  0.00    -0.088 C  
HETATM    3  C   UNL     1      -7.498   8.841  67.893  1.00  0.00    -0.093 C  
HETATM    4  C   UNL     1      -8.402   7.859  68.833  1.00  0.00    -0.127 C  
HETATM    5  C   UNL     1      -9.867   7.790  68.260  1.00  0.00    -0.185 C  
HETATM    6  C   UNL     1     -11.029   7.550  69.185  1.00  0.00    -0.024 C  
HETATM    7  C   UNL     1     -10.889   8.322  70.513  1.00  0.00    -0.245 C  
HETATM    8  C   UNL     1     -11.987   8.578  71.247  1.00  0.00    -0.334 C  
HETATM    9  C   UNL     1     -12.480   7.201  71.588  1.00  0.00    -0.370 C  
HETATM   10  C   UNL     1     -11.399   6.140  71.817  1.00  0.00    -0.346 C  
HETATM   11  O   UNL     1     -13.680   6.957  71.624  1.00  0.00    -0.306 OA 
HETATM   12  C   UNL     1     -10.074   6.435  71.632  1.00  0.00    -0.209 C  
HETATM   13  C   UNL     1      -9.640   7.863  71.298  1.00  0.00    -0.186 C  
HETATM   14  C   UNL     1      -9.409   8.458  72.722  1.00  0.00    -0.312 C  
HETATM   15  C   UNL     1      -8.534   8.427  70.304  1.00  0.00    -0.126 C  
HETATM   16  C   UNL     1      -7.219   8.978  70.861  1.00  0.00    -0.103 C  
HETATM   17  O   UNL     1      -6.134   8.074  70.753  1.00  0.00    -0.033 OA 
HETATM   18  C   UNL     1      -7.020  10.292  70.085  1.00  0.00    -0.159 C  
HETATM   19  C   UNL     1      -7.065  10.110  68.555  1.00  0.00    -0.074 C  
HETATM   20  H   UNL     1      -5.318   8.416  71.099  1.00  0.00     0.000 HD 
HETATM   21  C   UNL     1      -5.446  10.058  68.235  1.00  0.00    -0.038 C  
HETATM   22  C   UNL     1      -8.234  11.054  67.616  1.00  0.00    -0.117 C  
HETATM   23  O   UNL     1      -8.277  12.315  68.160  1.00  0.00    -0.152 OA 
HETATM   24  O   UNL     1      -6.501  12.158  66.650  1.00  0.00    -0.057 OA 
HETATM   25  C   UNL     1      -7.020  12.873  67.817  1.00  0.00    -0.138 C  
ENDROOT
BRANCH  22  26
HETATM   26  C   UNL     1      -9.707  10.647  66.794  1.00  0.00    -0.185 C  
HETATM   27  O   UNL     1      -9.694  10.122  65.660  1.00  0.00    -0.220 OA 
BRANCH  26  28
HETATM   28  C   UNL     1     -11.114  10.929  67.360  1.00  0.00    -0.307 C  
BRANCH  28  29
HETATM   29  O   UNL     1     -12.011  11.594  66.364  1.00  0.00    -0.433 OA 
BRANCH  29  30
HETATM   30  C   UNL     1     -11.913  12.942  66.170  1.00  0.00    -0.429 C  
HETATM   31  C   UNL     1     -11.719  14.921  64.531  1.00  0.00    -0.388 C  
HETATM   32  C   UNL     1     -12.117  12.676  63.590  1.00  0.00    -0.632 C  
HETATM   33  O   UNL     1     -12.136  13.745  67.081  1.00  0.00    -0.398 OA 
HETATM   34  C   UNL     1     -11.463  13.411  64.757  1.00  0.00    -0.359 C  
ENDBRANCH  29  30
ENDBRANCH  28  29
ENDBRANCH  26  28
ENDBRANCH  22  26
BRANCH  25  35
HETATM   35  C   UNL     1      -7.334  14.384  67.807  1.00  0.00    -0.186 C  
HETATM   36  C   UNL     1      -8.547  14.645  66.849  1.00  0.00    -0.233 C  
HETATM   37  C   UNL     1      -7.657  14.973  69.174  1.00  0.00    -0.176 C  
HETATM   38  C   UNL     1      -8.911  16.117  66.728  1.00  0.00    -0.275 C  
HETATM   39  C   UNL     1      -9.145  16.746  68.098  1.00  0.00    -0.227 C  
HETATM   40  C   UNL     1      -7.983  16.467  69.052  1.00  0.00    -0.227 C  
ENDBRANCH  25  35
TORSDOF 5
ENDMDL
MODEL       11
REMARK 921   NORMALIZED FREE ENERGY PREDICTED BY IDOCK:   -7.24 KCAL/MOL
REMARK 922        TOTAL FREE ENERGY PREDICTED BY IDOCK:   -9.68 KCAL/MOL
REMARK 923 INTER-LIGAND FREE ENERGY PREDICTED BY IDOCK:   -8.52 KCAL/MOL
REMARK 924 INTRA-LIGAND FREE ENERGY PREDICTED BY IDOCK:   -1.16 KCAL/MOL
REMARK 927      BINDING AFFINITY PREDICTED BY RF-SCORE:    0.00 PKD
ROOT
HETATM    1  C   UNL     1      -8.163   8.444  69.852  1.00  0.00    -0.122 C  
HETATM    2  C   UNL     1      -7.413  10.006  69.838  1.00  0.00    -0.171 C  
HETATM    3  C   UNL     1      -7.833  10.655  68.386  1.00  0.00    -0.113 C  
HETATM    4  C   UNL     1      -8.530  11.882  67.565  1.00  0.00    -0.161 C  
HETATM    5  C   UNL     1      -9.863  12.304  68.290  1.00  0.00    -0.217 C  
HETATM    6  C   UNL     1     -11.003  12.883  67.497  1.00  0.00    -0.283 C  
HETATM    7  C   UNL     1     -11.201  12.165  66.147  1.00  0.00    -0.386 C  
HETATM    8  C   UNL     1     -12.392  12.240  65.527  1.00  0.00    -0.101 C  
HETATM    9  C   UNL     1     -12.533  13.711  65.267  1.00  0.00    -0.479 C  
HETATM   10  C   UNL     1     -11.237  14.463  64.946  1.00  0.00    -0.392 C  
HETATM   11  O   UNL     1     -13.623  14.263  65.362  1.00  0.00    -0.516 OA 
HETATM   12  C   UNL     1     -10.026  13.823  64.986  1.00  0.00    -0.211 C  
HETATM   13  C   UNL     1      -9.956  12.317  65.245  1.00  0.00    -0.250 C  
HETATM   14  C   UNL     1     -10.028  11.750  63.792  1.00  0.00    -0.379 C  
HETATM   15  C   UNL     1      -8.949  11.438  66.106  1.00  0.00    -0.207 C  
HETATM   16  C   UNL     1      -7.886  10.589  65.403  1.00  0.00    -0.119 C  
HETATM   17  O   UNL     1      -6.595  11.171  65.414  1.00  0.00    -0.360 OA 
HETATM   18  C   UNL     1      -7.969   9.234  66.127  1.00  0.00    -0.107 C  
HETATM   19  C   UNL     1      -7.817   9.349  67.657  1.00  0.00    -0.095 C  
HETATM   20  H   UNL     1      -5.936  10.644  64.979  1.00  0.00     0.000 HD 
HETATM   21  C   UNL     1      -6.220   8.961  67.807  1.00  0.00    -0.055 C  
HETATM   22  C   UNL     1      -9.100   8.701  68.695  1.00  0.00    -0.138 C  
HETATM   23  O   UNL     1      -9.527   7.522  68.133  1.00  0.00    -0.143 OA 
HETATM   24  O   UNL     1      -7.636   7.138  69.451  1.00  0.00    -0.094 OA 
HETATM   25  C   UNL     1      -8.436   6.639  68.331  1.00  0.00    -0.125 C  
ENDROOT
BRANCH  22  26
HETATM   26  C   UNL     1     -10.326   9.440  69.674  1.00  0.00    -0.216 C  
HETATM   27  O   UNL     1     -11.407   9.825  69.179  1.00  0.00    -0.124 OA 
BRANCH  26  28
HETATM   28  C   UNL     1     -10.173   9.712  71.185  1.00  0.00    -0.109 C  
BRANCH  28  29
HETATM   29  O   UNL     1     -11.138   8.922  72.011  1.00  0.00    -0.356 OA 
BRANCH  29  30
HETATM   30  C   UNL     1     -10.710   7.786  72.636  1.00  0.00    -0.343 C  
HETATM   31  C   UNL     1     -10.623   5.211  72.704  1.00  0.00    -0.280 C  
HETATM   32  C   UNL     1     -11.608   6.283  70.712  1.00  0.00    -0.347 C  
HETATM   33  O   UNL     1      -9.844   7.818  73.517  1.00  0.00    -0.300 OA 
HETATM   34  C   UNL     1     -11.400   6.457  72.215  1.00  0.00    -0.330 C  
ENDBRANCH  29  30
ENDBRANCH  28  29
ENDBRANCH  26  28
ENDBRANCH  22  26
BRANCH  25  35
HETATM   35  C   UNL     1      -9.136   5.264  68.344  1.00  0.00    -0.125 C  
HETATM   36  C   UNL     1      -8.751   4.486  67.040  1.00  0.00    -0.104 C  
HETATM   37  C   UNL     1      -8.804   4.394  69.548  1.00  0.00    -0.133 C  
HETATM   38  C   UNL     1      -9.429   3.128  66.927  1.00  0.00    -0.110 C  
HETATM   39  C   UNL     1      -9.182   2.279  68.171  1.00  0.00    -0.247 C  
HETATM   40  C   UNL     1      -9.522   3.043  69.451  1.00  0.00    -0.176 C  
ENDBRANCH  25  35
TORSDOF 5
ENDMDL
MODEL       12
REMARK 921   NORMALIZED FREE ENERGY PREDICTED BY IDOCK:   -7.19 KCAL/MOL
REMARK 922        TOTAL FREE ENERGY PREDICTED BY IDOCK:   -9.62 KCAL/MOL
REMARK 923 INTER-LIGAND FREE ENERGY PREDICTED BY IDOCK:   -8.54 KCAL/MOL
REMARK 924 INTRA-LIGAND FREE ENERGY PREDICTED BY IDOCK:   -1.07 KCAL/MOL
REMARK 927      BINDING AFFINITY PREDICTED BY RF-SCORE:    0.00 PKD
ROOT
HETATM    1  C   UNL     1      -6.930   8.338  67.267  1.00  0.00    -0.075 C  
HETATM    2  C   UNL     1      -6.225   9.779  66.612  1.00  0.00    -0.064 C  
HETATM    3  C   UNL     1      -7.510  10.717  66.194  1.00  0.00    -0.138 C  
HETATM    4  C   UNL     1      -8.293  12.142  66.341  1.00  0.00     0.102 C  
HETATM    5  C   UNL     1      -8.292  12.585  67.852  1.00  0.00    -0.167 C  
HETATM    6  C   UNL     1      -9.418  13.423  68.394  1.00  0.00    -0.176 C  
HETATM    7  C   UNL     1     -10.792  12.980  67.851  1.00  0.00    -0.260 C  
HETATM    8  C   UNL     1     -11.906  13.302  68.532  1.00  0.00    -0.384 C  
HETATM    9  C   UNL     1     -11.885  14.802  68.503  1.00  0.00    -0.306 C  
HETATM   10  C   UNL     1     -11.322  15.441  67.229  1.00  0.00    -0.220 C  
HETATM   11  O   UNL     1     -12.254  15.453  69.474  1.00  0.00    -0.313 OA 
HETATM   12  C   UNL     1     -10.798  14.665  66.228  1.00  0.00    -0.321 C  
HETATM   13  C   UNL     1     -10.864  13.140  66.316  1.00  0.00    -0.292 C  
HETATM   14  C   UNL     1     -12.225  12.848  65.611  1.00  0.00    -0.519 C  
HETATM   15  C   UNL     1      -9.814  12.012  65.925  1.00  0.00    -0.259 C  
HETATM   16  C   UNL     1     -10.026  11.180  64.658  1.00  0.00    -0.292 C  
HETATM   17  O   UNL     1      -9.227  11.595  63.565  1.00  0.00    -0.483 OA 
HETATM   18  C   UNL     1      -9.754   9.738  65.122  1.00  0.00    -0.338 C  
HETATM   19  C   UNL     1      -8.381   9.566  65.804  1.00  0.00    -0.132 C  
HETATM   20  H   UNL     1      -9.358  11.078  62.779  1.00  0.00     0.000 HD 
HETATM   21  C   UNL     1      -7.513   8.972  64.531  1.00  0.00    -0.104 C  
HETATM   22  C   UNL     1      -8.320   8.901  67.446  1.00  0.00    -0.108 C  
HETATM   23  O   UNL     1      -9.255   7.898  67.519  1.00  0.00    -0.135 OA 
HETATM   24  O   UNL     1      -7.265   7.069  66.618  1.00  0.00    -0.078 OA 
HETATM   25  C   UNL     1      -8.712   6.872  66.705  1.00  0.00    -0.122 C  
ENDROOT
BRANCH  22  26
HETATM   26  C   UNL     1      -7.986   9.597  69.000  1.00  0.00    -0.088 C  
HETATM   27  O   UNL     1      -6.827   9.616  69.467  1.00  0.00    -0.050 OA 
BRANCH  26  28
HETATM   28  C   UNL     1      -9.066  10.196  69.924  1.00  0.00    -0.073 C  
BRANCH  28  29
HETATM   29  O   UNL     1     -10.450   9.784  69.531  1.00  0.00    -0.204 OA 
BRANCH  29  30
HETATM   30  C   UNL     1     -11.177   8.991  70.373  1.00  0.00    -0.241 C  
HETATM   31  C   UNL     1     -12.927   8.803  72.255  1.00  0.00    -0.462 C  
HETATM   32  C   UNL     1     -12.546  11.023  71.248  1.00  0.00    -0.517 C  
HETATM   33  O   UNL     1     -11.255   7.770  70.206  1.00  0.00    -0.263 OA 
HETATM   34  C   UNL     1     -11.861   9.698  71.577  1.00  0.00    -0.483 C  
ENDBRANCH  29  30
ENDBRANCH  28  29
ENDBRANCH  26  28
ENDBRANCH  22  26
BRANCH  25  35
HETATM   35  C   UNL     1      -9.353   5.608  67.316  1.00  0.00    -0.113 C  
HETATM   36  C   UNL     1      -8.787   4.345  66.581  1.00  0.00    -0.114 C  
HETATM   37  C   UNL     1      -9.129   5.443  68.813  1.00  0.00    -0.135 C  
HETATM   38  C   UNL     1      -9.392   3.039  67.076  1.00  0.00    -0.159 C  
HETATM   39  C   UNL     1      -9.259   2.904  68.590  1.00  0.00    -0.233 C  
HETATM   40  C   UNL     1      -9.777   4.146  69.315  1.00  0.00    -0.219 C  
ENDBRANCH  25  35
TORSDOF 5
ENDMDL
MODEL       13
REMARK 921   NORMALIZED FREE ENERGY PREDICTED BY IDOCK:   -7.03 KCAL/MOL
REMARK 922        TOTAL FREE ENERGY PREDICTED BY IDOCK:   -9.41 KCAL/MOL
REMARK 923 INTER-LIGAND FREE ENERGY PREDICTED BY IDOCK:   -8.30 KCAL/MOL
REMARK 924 INTRA-LIGAND FREE ENERGY PREDICTED BY IDOCK:   -1.11 KCAL/MOL
REMARK 927      BINDING AFFINITY PREDICTED BY RF-SCORE:    0.00 PKD
ROOT
HETATM    1  C   UNL     1      -7.024   8.460  66.711  1.00  0.00    -0.073 C  
HETATM    2  C   UNL     1      -6.345   9.984  66.243  1.00  0.00    -0.079 C  
HETATM    3  C   UNL     1      -7.646  10.954  65.979  1.00  0.00    -0.094 C  
HETATM    4  C   UNL     1      -8.440  12.337  66.330  1.00  0.00     0.096 C  
HETATM    5  C   UNL     1      -8.414  12.573  67.887  1.00  0.00    -0.171 C  
HETATM    6  C   UNL     1      -9.536  13.317  68.557  1.00  0.00    -0.127 C  
HETATM    7  C   UNL     1     -10.916  12.935  67.984  1.00  0.00    -0.271 C  
HETATM    8  C   UNL     1     -12.020  13.150  68.722  1.00  0.00    -0.316 C  
HETATM    9  C   UNL     1     -12.013  14.641  68.895  1.00  0.00    -0.274 C  
HETATM   10  C   UNL     1     -11.481  15.451  67.708  1.00  0.00    -0.284 C  
HETATM   11  O   UNL     1     -12.369  15.150  69.951  1.00  0.00    -0.314 OA 
HETATM   12  C   UNL     1     -10.969  14.824  66.603  1.00  0.00    -0.326 C  
HETATM   13  C   UNL     1     -11.020  13.300  66.486  1.00  0.00    -0.299 C  
HETATM   14  C   UNL     1     -12.392  13.089  65.773  1.00  0.00    -0.477 C  
HETATM   15  C   UNL     1      -9.967  12.247  65.928  1.00  0.00    -0.272 C  
HETATM   16  C   UNL     1     -10.196  11.590  64.565  1.00  0.00    -0.288 C  
HETATM   17  O   UNL     1      -9.422  12.158  63.523  1.00  0.00    -0.619 OA 
HETATM   18  C   UNL     1      -9.901  10.103  64.825  1.00  0.00    -0.382 C  
HETATM   19  C   UNL     1      -8.514   9.856  65.453  1.00  0.00    -0.155 C  
HETATM   20  H   UNL     1      -9.564  11.750  62.677  1.00  0.00     0.000 HD 
HETATM   21  C   UNL     1      -7.666   9.449  64.096  1.00  0.00    -0.117 C  
HETATM   22  C   UNL     1      -8.415   8.978  66.989  1.00  0.00    -0.120 C  
HETATM   23  O   UNL     1      -9.340   7.962  66.943  1.00  0.00    -0.146 OA 
HETATM   24  O   UNL     1      -7.359   7.286  65.903  1.00  0.00    -0.071 OA 
HETATM   25  C   UNL     1      -8.803   7.061  65.989  1.00  0.00    -0.135 C  
ENDROOT
BRANCH  22  26
HETATM   26  C   UNL     1      -8.058   9.462  68.616  1.00  0.00    -0.104 C  
HETATM   27  O   UNL     1      -6.881   9.637  68.997  1.00  0.00    -0.049 OA 
BRANCH  26  28
HETATM   28  C   UNL     1      -9.129   9.671  69.706  1.00  0.00    -0.215 C  
BRANCH  28  29
HETATM   29  O   UNL     1      -9.734   8.383  70.170  1.00  0.00    -0.171 OA 
BRANCH  29  30
HETATM   30  C   UNL     1     -11.044   8.360  70.555  1.00  0.00    -0.252 C  
HETATM   31  C   UNL     1     -13.051   7.015  71.453  1.00  0.00    -0.375 C  
HETATM   32  C   UNL     1     -10.851   5.900  71.379  1.00  0.00    -0.332 C  
HETATM   33  O   UNL     1     -11.680   9.401  70.753  1.00  0.00    -0.276 OA 
HETATM   34  C   UNL     1     -11.707   6.959  70.687  1.00  0.00    -0.417 C  
ENDBRANCH  29  30
ENDBRANCH  28  29
ENDBRANCH  26  28
ENDBRANCH  22  26
BRANCH  25  35
HETATM   35  C   UNL     1      -9.421   5.720  66.435  1.00  0.00    -0.172 C  
HETATM   36  C   UNL     1      -8.760   4.558  65.615  1.00  0.00    -0.124 C  
HETATM   37  C   UNL     1      -9.271   5.415  67.920  1.00  0.00    -0.117 C  
HETATM   38  C   UNL     1      -9.334   3.188  65.944  1.00  0.00    -0.104 C  
HETATM   39  C   UNL     1      -9.277   2.907  67.443  1.00  0.00    -0.219 C  
HETATM   40  C   UNL     1      -9.888   4.051  68.254  1.00  0.00    -0.056 C  
ENDBRANCH  25  35
TORSDOF 5
ENDMDL
MODEL       14
REMARK 921   NORMALIZED FREE ENERGY PREDICTED BY IDOCK:   -6.95 KCAL/MOL
REMARK 922        TOTAL FREE ENERGY PREDICTED BY IDOCK:   -9.31 KCAL/MOL
REMARK 923 INTER-LIGAND FREE ENERGY PREDICTED BY IDOCK:   -8.64 KCAL/MOL
REMARK 924 INTRA-LIGAND FREE ENERGY PREDICTED BY IDOCK:   -0.67 KCAL/MOL
REMARK 927      BINDING AFFINITY PREDICTED BY RF-SCORE:    0.00 PKD
ROOT
HETATM    1  C   UNL     1      -8.930  16.186  68.784  1.00  0.00    -0.236 C  
HETATM    2  C   UNL     1      -9.922  15.006  69.573  1.00  0.00    -0.152 C  
HETATM    3  C   UNL     1     -10.179  13.850  68.431  1.00  0.00    -0.243 C  
HETATM    4  C   UNL     1     -10.070  12.279  67.998  1.00  0.00    -0.206 C  
HETATM    5  C   UNL     1      -8.675  11.708  68.452  1.00  0.00    -0.158 C  
HETATM    6  C   UNL     1      -8.025  10.595  67.677  1.00  0.00    -0.106 C  
HETATM    7  C   UNL     1      -8.187  10.771  66.153  1.00  0.00    -0.163 C  
HETATM    8  C   UNL     1      -7.332  10.148  65.322  1.00  0.00    -0.141 C  
HETATM    9  C   UNL     1      -7.579   8.699  65.625  1.00  0.00    -0.086 C  
HETATM   10  C   UNL     1      -9.023   8.323  65.973  1.00  0.00    -0.224 C  
HETATM   11  O   UNL     1      -6.654   7.895  65.637  1.00  0.00    -0.042 OA 
HETATM   12  C   UNL     1      -9.993   9.286  66.078  1.00  0.00    -0.325 C  
HETATM   13  C   UNL     1      -9.675  10.743  65.741  1.00  0.00    -0.278 C  
HETATM   14  C   UNL     1     -10.017  10.791  64.219  1.00  0.00    -0.403 C  
HETATM   15  C   UNL     1     -10.121  12.107  66.426  1.00  0.00    -0.242 C  
HETATM   16  C   UNL     1     -11.179  12.987  65.755  1.00  0.00    -0.289 C  
HETATM   17  O   UNL     1     -12.468  12.863  66.328  1.00  0.00    -0.453 OA 
HETATM   18  C   UNL     1     -10.585  14.403  65.848  1.00  0.00    -0.312 C  
HETATM   19  C   UNL     1     -10.201  14.810  67.285  1.00  0.00    -0.241 C  
HETATM   20  H   UNL     1     -13.124  13.409  65.912  1.00  0.00     0.000 HD 
HETATM   21  C   UNL     1     -11.534  15.698  67.685  1.00  0.00    -0.167 C  
HETATM   22  C   UNL     1      -8.535  15.315  67.615  1.00  0.00    -0.161 C  
HETATM   23  O   UNL     1      -8.117  16.076  66.549  1.00  0.00    -0.269 OA 
HETATM   24  O   UNL     1      -9.303  17.405  68.061  1.00  0.00    -0.262 OA 
HETATM   25  C   UNL     1      -8.874  17.268  66.669  1.00  0.00    -0.255 C  
ENDROOT
BRANCH  22  26
HETATM   26  C   UNL     1      -7.207  14.569  68.445  1.00  0.00    -0.116 C  
HETATM   27  O   UNL     1      -6.655  13.542  67.995  1.00  0.00    -0.103 OA 
BRANCH  26  28
HETATM   28  C   UNL     1      -6.640  15.071  69.789  1.00  0.00    -0.170 C  
BRANCH  28  29
HETATM   29  O   UNL     1      -5.673  16.201  69.617  1.00  0.00    -0.127 OA 
BRANCH  29  30
HETATM   30  C   UNL     1      -5.386  17.003  70.684  1.00  0.00    -0.205 C  
HETATM   31  C   UNL     1      -5.355  19.365  71.716  1.00  0.00    -0.384 C  
HETATM   32  C   UNL     1      -6.461  19.072  69.530  1.00  0.00    -0.297 C  
HETATM   33  O   UNL     1      -5.143  16.534  71.800  1.00  0.00    -0.305 OA 
HETATM   34  C   UNL     1      -5.335  18.533  70.410  1.00  0.00    -0.244 C  
ENDBRANCH  29  30
ENDBRANCH  28  29
ENDBRANCH  26  28
ENDBRANCH  22  26
BRANCH  25  35
HETATM   35  C   UNL     1      -7.964  18.296  65.964  1.00  0.00    -0.145 C  
HETATM   36  C   UNL     1      -8.047  19.660  66.732  1.00  0.00    -0.321 C  
HETATM   37  C   UNL     1      -6.502  17.883  65.860  1.00  0.00    -0.294 C  
HETATM   38  C   UNL     1      -7.220  20.763  66.089  1.00  0.00    -0.048 C  
HETATM   39  C   UNL     1      -5.771  20.328  65.892  1.00  0.00    -0.201 C  
HETATM   40  C   UNL     1      -5.679  18.980  65.174  1.00  0.00    -0.261 C  
ENDBRANCH  25  35
TORSDOF 5
ENDMDL
MODEL       15
REMARK 921   NORMALIZED FREE ENERGY PREDICTED BY IDOCK:   -6.93 KCAL/MOL
REMARK 922        TOTAL FREE ENERGY PREDICTED BY IDOCK:   -9.27 KCAL/MOL
REMARK 923 INTER-LIGAND FREE ENERGY PREDICTED BY IDOCK:   -8.55 KCAL/MOL
REMARK 924 INTRA-LIGAND FREE ENERGY PREDICTED BY IDOCK:   -0.72 KCAL/MOL
REMARK 927      BINDING AFFINITY PREDICTED BY RF-SCORE:    0.00 PKD
ROOT
HETATM    1  C   UNL     1     -11.448  13.359  68.271  1.00  0.00    -0.315 C  
HETATM    2  C   UNL     1     -12.285  11.948  67.714  1.00  0.00     0.349 C  
HETATM    3  C   UNL     1     -11.517  11.533  66.320  1.00  0.00    -0.124 C  
HETATM    4  C   UNL     1     -10.712  10.399  65.464  1.00  0.00     0.028 C  
HETATM    5  C   UNL     1      -9.684   9.666  66.406  1.00  0.00    -0.285 C  
HETATM    6  C   UNL     1      -8.413   9.096  65.837  1.00  0.00    -0.150 C  
HETATM    7  C   UNL     1      -7.777  10.022  64.780  1.00  0.00    -0.142 C  
HETATM    8  C   UNL     1      -6.467   9.901  64.499  1.00  0.00    -0.120 C  
HETATM    9  C   UNL     1      -6.375   8.500  63.968  1.00  0.00    -0.072 C  
HETATM   10  C   UNL     1      -7.579   8.009  63.157  1.00  0.00    -0.126 C  
HETATM   11  O   UNL     1      -5.407   7.795  64.225  1.00  0.00    -0.029 OA 
HETATM   12  C   UNL     1      -8.695   8.792  63.014  1.00  0.00    -0.016 C  
HETATM   13  C   UNL     1      -8.716  10.217  63.569  1.00  0.00    -0.221 C  
HETATM   14  C   UNL     1      -8.183  11.032  62.351  1.00  0.00    -0.246 C  
HETATM   15  C   UNL     1      -9.856  11.048  64.304  1.00  0.00    -0.355 C  
HETATM   16  C   UNL     1     -10.599  12.154  63.549  1.00  0.00    -0.458 C  
HETATM   17  O   UNL     1     -11.880  11.764  63.088  1.00  0.00    -0.786 OA 
HETATM   18  C   UNL     1     -10.620  13.322  64.549  1.00  0.00    -0.437 C  
HETATM   19  C   UNL     1     -11.217  12.942  65.920  1.00  0.00    -0.323 C  
HETATM   20  H   UNL     1     -12.341  12.450  62.620  1.00  0.00     0.000 HD 
HETATM   21  C   UNL     1     -12.753  13.513  65.721  1.00  0.00    -0.433 C  
HETATM   22  C   UNL     1     -10.241  13.199  67.377  1.00  0.00    -0.232 C  
HETATM   23  O   UNL     1      -9.577  14.392  67.223  1.00  0.00    -0.217 OA 
HETATM   24  O   UNL     1     -11.731  14.778  68.043  1.00  0.00    -0.333 OA 
HETATM   25  C   UNL     1     -10.605  15.364  67.314  1.00  0.00    -0.294 C  
ENDROOT
BRANCH  22  26
HETATM   26  C   UNL     1      -9.413  12.125  68.459  1.00  0.00    -0.122 C  
HETATM   27  O   UNL     1     -10.041  11.390  69.251  1.00  0.00    -0.090 OA 
BRANCH  26  28
HETATM   28  C   UNL     1      -7.877  12.021  68.560  1.00  0.00    -0.129 C  
BRANCH  28  29
HETATM   29  O   UNL     1      -7.412  10.621  68.813  1.00  0.00    -0.089 OA 
BRANCH  29  30
HETATM   30  C   UNL     1      -7.139  10.228  70.092  1.00  0.00    -0.148 C  
HETATM   31  C   UNL     1      -7.452   8.497  71.975  1.00  0.00    -0.120 C  
HETATM   32  C   UNL     1      -8.344   7.948  69.741  1.00  0.00    -0.127 C  
HETATM   33  O   UNL     1      -6.242  10.757  70.755  1.00  0.00    -0.316 OA 
HETATM   34  C   UNL     1      -8.046   9.112  70.685  1.00  0.00    -0.198 C  
ENDBRANCH  29  30
ENDBRANCH  28  29
ENDBRANCH  26  28
ENDBRANCH  22  26
BRANCH  25  35
HETATM   35  C   UNL     1      -9.830  16.601  67.815  1.00  0.00    -0.252 C  
HETATM   36  C   UNL     1      -8.601  16.846  66.874  1.00  0.00    -0.241 C  
HETATM   37  C   UNL     1     -10.654  17.880  67.884  1.00  0.00    -0.387 C  
HETATM   38  C   UNL     1      -7.737  18.021  67.308  1.00  0.00    -0.220 C  
HETATM   39  C   UNL     1      -8.567  19.290  67.474  1.00  0.00    -0.325 C  
HETATM   40  C   UNL     1      -9.789  19.052  68.362  1.00  0.00    -0.454 C  
ENDBRANCH  25  35
TORSDOF 5
ENDMDL
MODEL       16
REMARK 921   NORMALIZED FREE ENERGY PREDICTED BY IDOCK:   -6.80 KCAL/MOL
REMARK 922        TOTAL FREE ENERGY PREDICTED BY IDOCK:   -9.12 KCAL/MOL
REMARK 923 INTER-LIGAND FREE ENERGY PREDICTED BY IDOCK:   -8.49 KCAL/MOL
REMARK 924 INTRA-LIGAND FREE ENERGY PREDICTED BY IDOCK:   -0.62 KCAL/MOL
REMARK 927      BINDING AFFINITY PREDICTED BY RF-SCORE:    0.00 PKD
ROOT
HETATM    1  C   UNL     1     -10.197  13.351  67.349  1.00  0.00    -0.237 C  
HETATM    2  C   UNL     1      -9.337  13.841  65.928  1.00  0.00     0.032 C  
HETATM    3  C   UNL     1      -9.322  15.485  65.998  1.00  0.00    -0.379 C  
HETATM    4  C   UNL     1      -8.449  16.865  66.014  1.00  0.00    -0.186 C  
HETATM    5  C   UNL     1      -7.200  16.681  66.954  1.00  0.00    -0.261 C  
HETATM    6  C   UNL     1      -6.616  17.865  67.675  1.00  0.00    -0.191 C  
HETATM    7  C   UNL     1      -7.704  18.811  68.223  1.00  0.00    -0.326 C  
HETATM    8  C   UNL     1      -7.404  19.647  69.233  1.00  0.00    -0.294 C  
HETATM    9  C   UNL     1      -6.331  20.510  68.636  1.00  0.00    -0.292 C  
HETATM   10  C   UNL     1      -6.476  20.824  67.143  1.00  0.00    -0.353 C  
HETATM   11  O   UNL     1      -5.380  20.886  69.312  1.00  0.00    -0.328 OA 
HETATM   12  C   UNL     1      -7.486  20.267  66.404  1.00  0.00    -0.284 C  
HETATM   13  C   UNL     1      -8.555  19.407  67.080  1.00  0.00    -0.318 C  
HETATM   14  C   UNL     1      -9.629  20.478  67.445  1.00  0.00    -0.578 C  
HETATM   15  C   UNL     1      -9.279  18.067  66.621  1.00  0.00    -0.291 C  
HETATM   16  C   UNL     1     -10.727  18.114  66.126  1.00  0.00    -0.145 C  
HETATM   17  O   UNL     1     -10.847  18.066  64.716  1.00  0.00    -0.559 OA 
HETATM   18  C   UNL     1     -11.397  16.936  66.853  1.00  0.00     0.612 C  
HETATM   19  C   UNL     1     -10.669  15.593  66.639  1.00  0.00    -0.296 C  
HETATM   20  H   UNL     1     -11.745  18.095  64.408  1.00  0.00     0.000 HD 
HETATM   21  C   UNL     1     -11.606  14.959  65.437  1.00  0.00    -0.280 C  
HETATM   22  C   UNL     1     -10.120  14.683  68.057  1.00  0.00    -0.227 C  
HETATM   23  O   UNL     1     -11.095  14.791  69.019  1.00  0.00    -0.234 OA 
HETATM   24  O   UNL     1     -11.620  13.058  67.541  1.00  0.00    -0.313 OA 
HETATM   25  C   UNL     1     -12.165  14.019  68.500  1.00  0.00    -0.174 C  
ENDROOT
BRANCH  22  26
HETATM   26  C   UNL     1      -8.556  14.380  68.745  1.00  0.00    -0.125 C  
HETATM   27  O   UNL     1      -8.160  15.000  69.756  1.00  0.00    -0.140 OA 
BRANCH  26  28
HETATM   28  C   UNL     1      -7.538  13.380  68.159  1.00  0.00    -0.138 C  
BRANCH  28  29
HETATM   29  O   UNL     1      -7.632  12.027  68.793  1.00  0.00    -0.117 OA 
BRANCH  29  30
HETATM   30  C   UNL     1      -7.613  10.915  68.001  1.00  0.00    -0.092 C  
HETATM   31  C   UNL     1      -8.633   8.627  67.395  1.00  0.00    -0.134 C  
HETATM   32  C   UNL     1      -9.811  10.014  69.062  1.00  0.00    -0.203 C  
HETATM   33  O   UNL     1      -6.954  10.874  66.957  1.00  0.00    -0.091 OA 
HETATM   34  C   UNL     1      -8.428   9.689  68.503  1.00  0.00    -0.118 C  
ENDBRANCH  29  30
ENDBRANCH  28  29
ENDBRANCH  26  28
ENDBRANCH  22  26
BRANCH  25  35
HETATM   35  C   UNL     1     -12.905  13.596  69.786  1.00  0.00     0.354 C  
HETATM   36  C   UNL     1     -12.213  12.319  70.374  1.00  0.00    -0.371 C  
HETATM   37  C   UNL     1     -12.957  14.665  70.870  1.00  0.00    -0.425 C  
HETATM   38  C   UNL     1     -12.897  11.786  71.625  1.00  0.00    -0.433 C  
HETATM   39  C   UNL     1     -13.041  12.874  72.685  1.00  0.00     0.029 C  
HETATM   40  C   UNL     1     -13.684  14.138  72.113  1.00  0.00    -0.587 C  
ENDBRANCH  25  35
TORSDOF 5
ENDMDL
MODEL       17
REMARK 921   NORMALIZED FREE ENERGY PREDICTED BY IDOCK:   -6.78 KCAL/MOL
REMARK 922        TOTAL FREE ENERGY PREDICTED BY IDOCK:   -9.08 KCAL/MOL
REMARK 923 INTER-LIGAND FREE ENERGY PREDICTED BY IDOCK:   -8.69 KCAL/MOL
REMARK 924 INTRA-LIGAND FREE ENERGY PREDICTED BY IDOCK:   -0.39 KCAL/MOL
REMARK 927      BINDING AFFINITY PREDICTED BY RF-SCORE:    0.00 PKD
ROOT
HETATM    1  C   UNL     1     -10.836  14.338  66.735  1.00  0.00    -0.298 C  
HETATM    2  C   UNL     1     -12.006  13.143  66.284  1.00  0.00    -0.473 C  
HETATM    3  C   UNL     1     -11.354  11.716  66.781  1.00  0.00    -0.354 C  
HETATM    4  C   UNL     1     -11.508  10.356  67.671  1.00  0.00     0.020 C  
HETATM    5  C   UNL     1     -12.120  10.719  69.076  1.00  0.00    -0.170 C  
HETATM    6  C   UNL     1     -11.785   9.887  70.284  1.00  0.00    -0.286 C  
HETATM    7  C   UNL     1     -10.300   9.469  70.313  1.00  0.00    -0.321 C  
HETATM    8  C   UNL     1      -9.736   9.118  71.482  1.00  0.00    -0.313 C  
HETATM    9  C   UNL     1     -10.539   7.915  71.885  1.00  0.00    -0.231 C  
HETATM   10  C   UNL     1     -11.015   7.013  70.742  1.00  0.00    -0.285 C  
HETATM   11  O   UNL     1     -10.825   7.718  73.060  1.00  0.00    -0.373 OA 
HETATM   12  C   UNL     1     -10.781   7.354  69.435  1.00  0.00    -0.220 C  
HETATM   13  C   UNL     1      -9.943   8.587  69.096  1.00  0.00    -0.194 C  
HETATM   14  C   UNL     1      -8.508   7.978  69.027  1.00  0.00    -0.130 C  
HETATM   15  C   UNL     1     -10.102   9.694  67.966  1.00  0.00    -0.213 C  
HETATM   16  C   UNL     1      -9.174   9.679  66.748  1.00  0.00    -0.149 C  
HETATM   17  O   UNL     1      -9.769   9.129  65.587  1.00  0.00    -0.391 OA 
HETATM   18  C   UNL     1      -8.749  11.150  66.598  1.00  0.00    -0.166 C  
HETATM   19  C   UNL     1      -9.941  12.124  66.508  1.00  0.00    -0.230 C  
HETATM   20  H   UNL     1      -9.193   9.120  64.831  1.00  0.00     0.000 HD 
HETATM   21  C   UNL     1     -10.015  12.319  64.870  1.00  0.00    -0.219 C  
HETATM   22  C   UNL     1     -10.049  13.454  67.674  1.00  0.00    -0.229 C  
HETATM   23  O   UNL     1      -8.778  13.939  67.864  1.00  0.00    -0.164 OA 
HETATM   24  O   UNL     1      -9.731  14.918  65.967  1.00  0.00    -0.294 OA 
HETATM   25  C   UNL     1      -8.474  14.576  66.634  1.00  0.00     0.029 C  
ENDROOT
BRANCH  22  26
HETATM   26  C   UNL     1     -11.076  13.760  69.039  1.00  0.00    -0.259 C  
HETATM   27  O   UNL     1     -11.039  13.032  70.054  1.00  0.00     0.134 OA 
BRANCH  26  28
HETATM   28  C   UNL     1     -12.116  14.897  69.095  1.00  0.00    -0.231 C  
BRANCH  28  29
HETATM   29  O   UNL     1     -11.608  16.171  68.496  1.00  0.00    -0.377 OA 
BRANCH  29  30
HETATM   30  C   UNL     1     -10.913  17.048  69.279  1.00  0.00    -0.008 C  
HETATM   31  C   UNL     1      -9.617  19.266  69.483  1.00  0.00     0.000 C  
HETATM   32  C   UNL     1     -10.765  18.789  67.352  1.00  0.00    -0.487 C  
HETATM   33  O   UNL     1     -10.926  16.966  70.512  1.00  0.00    -0.046 OA 
HETATM   34  C   UNL     1     -10.071  18.125  68.539  1.00  0.00    -0.413 C  
ENDBRANCH  29  30
ENDBRANCH  28  29
ENDBRANCH  26  28
ENDBRANCH  22  26
BRANCH  25  35
HETATM   35  C   UNL     1      -7.438  15.633  67.070  1.00  0.00    -0.228 C  
HETATM   36  C   UNL     1      -7.667  16.942  66.239  1.00  0.00    -0.332 C  
HETATM   37  C   UNL     1      -7.474  15.983  68.552  1.00  0.00    -0.156 C  
HETATM   38  C   UNL     1      -6.663  18.040  66.558  1.00  0.00    -0.243 C  
HETATM   39  C   UNL     1      -6.620  18.336  68.054  1.00  0.00    -0.202 C  
HETATM   40  C   UNL     1      -6.432  17.060  68.876  1.00  0.00    -0.189 C  
ENDBRANCH  25  35
TORSDOF 5
ENDMDL
MODEL       18
REMARK 921   NORMALIZED FREE ENERGY PREDICTED BY IDOCK:   -6.71 KCAL/MOL
REMARK 922        TOTAL FREE ENERGY PREDICTED BY IDOCK:   -9.00 KCAL/MOL
REMARK 923 INTER-LIGAND FREE ENERGY PREDICTED BY IDOCK:   -8.37 KCAL/MOL
REMARK 924 INTRA-LIGAND FREE ENERGY PREDICTED BY IDOCK:   -0.63 KCAL/MOL
REMARK 927      BINDING AFFINITY PREDICTED BY RF-SCORE:    0.00 PKD
ROOT
HETATM    1  C   UNL     1      -7.493   8.499  69.364  1.00  0.00    -0.088 C  
HETATM    2  C   UNL     1      -6.669   9.965  68.946  1.00  0.00    -0.053 C  
HETATM    3  C   UNL     1      -7.391  10.464  67.555  1.00  0.00    -0.092 C  
HETATM    4  C   UNL     1      -8.188  11.640  66.750  1.00  0.00    -0.161 C  
HETATM    5  C   UNL     1      -9.270  12.280  67.698  1.00  0.00    -0.183 C  
HETATM    6  C   UNL     1     -10.531  12.863  67.119  1.00  0.00    -0.241 C  
HETATM    7  C   UNL     1     -11.101  12.003  65.973  1.00  0.00    -0.364 C  
HETATM    8  C   UNL     1     -12.401  12.117  65.647  1.00  0.00     0.149 C  
HETATM    9  C   UNL     1     -12.506  13.550  65.215  1.00  0.00    -0.482 C  
HETATM   10  C   UNL     1     -11.282  14.124  64.492  1.00  0.00    -0.345 C  
HETATM   11  O   UNL     1     -13.501  14.214  65.481  1.00  0.00    -0.643 OA 
HETATM   12  C   UNL     1     -10.143  13.378  64.340  1.00  0.00    -0.128 C  
HETATM   13  C   UNL     1     -10.110  11.917  64.792  1.00  0.00    -0.295 C  
HETATM   14  C   UNL     1     -10.574  11.182  63.496  1.00  0.00    -0.393 C  
HETATM   15  C   UNL     1      -8.981  11.059  65.511  1.00  0.00    -0.208 C  
HETATM   16  C   UNL     1      -8.182  10.028  64.711  1.00  0.00    -0.155 C  
HETATM   17  O   UNL     1      -6.892  10.477  64.333  1.00  0.00    -0.328 OA 
HETATM   18  C   UNL     1      -8.171   8.790  65.624  1.00  0.00    -0.121 C  
HETATM   19  C   UNL     1      -7.640   9.082  67.042  1.00  0.00    -0.091 C  
HETATM   20  H   UNL     1      -6.396   9.836  63.836  1.00  0.00     0.000 HD 
HETATM   21  C   UNL     1      -6.084   8.560  66.867  1.00  0.00    -0.054 C  
HETATM   22  C   UNL     1      -8.667   8.698  68.435  1.00  0.00    -0.142 C  
HETATM   23  O   UNL     1      -9.295   7.506  68.168  1.00  0.00    -0.137 OA 
HETATM   24  O   UNL     1      -7.167   7.107  69.047  1.00  0.00    -0.081 OA 
HETATM   25  C   UNL     1      -8.249   6.552  68.231  1.00  0.00    -0.114 C  
ENDROOT
BRANCH  22  26
HETATM   26  C   UNL     1      -9.564   9.672  69.556  1.00  0.00    -0.198 C  
HETATM   27  O   UNL     1      -9.023  10.154  70.575  1.00  0.00     0.118 OA 
BRANCH  26  28
HETATM   28  C   UNL     1     -11.068   9.982  69.415  1.00  0.00    -0.223 C  
BRANCH  28  29
HETATM   29  O   UNL     1     -11.414  11.368  69.862  1.00  0.00    -0.283 OA 
BRANCH  29  30
HETATM   30  C   UNL     1     -12.364  11.543  70.827  1.00  0.00    -0.375 C  
HETATM   31  C   UNL     1     -13.809  13.154  72.226  1.00  0.00    -0.586 C  
HETATM   32  C   UNL     1     -12.461  14.106  70.392  1.00  0.00    -0.424 C  
HETATM   33  O   UNL     1     -13.053  10.603  71.235  1.00  0.00    -0.375 OA 
HETATM   34  C   UNL     1     -12.501  12.975  71.417  1.00  0.00    -0.248 C  
ENDBRANCH  29  30
ENDBRANCH  28  29
ENDBRANCH  26  28
ENDBRANCH  22  26
BRANCH  25  35
HETATM   35  C   UNL     1      -9.012   5.266  68.609  1.00  0.00    -0.120 C  
HETATM   36  C   UNL     1      -8.592   4.118  67.627  1.00  0.00    -0.108 C  
HETATM   37  C   UNL     1      -8.788   4.791  70.039  1.00  0.00    -0.122 C  
HETATM   38  C   UNL     1      -9.326   2.810  67.883  1.00  0.00    -0.251 C  
HETATM   39  C   UNL     1      -9.189   2.371  69.337  1.00  0.00    -0.190 C  
HETATM   40  C   UNL     1      -9.563   3.495  70.304  1.00  0.00    -0.232 C  
ENDBRANCH  25  35
TORSDOF 5
ENDMDL
MODEL       19
REMARK 921   NORMALIZED FREE ENERGY PREDICTED BY IDOCK:   -6.65 KCAL/MOL
REMARK 922        TOTAL FREE ENERGY PREDICTED BY IDOCK:   -8.92 KCAL/MOL
REMARK 923 INTER-LIGAND FREE ENERGY PREDICTED BY IDOCK:   -7.60 KCAL/MOL
REMARK 924 INTRA-LIGAND FREE ENERGY PREDICTED BY IDOCK:   -1.32 KCAL/MOL
REMARK 927      BINDING AFFINITY PREDICTED BY RF-SCORE:    0.00 PKD
ROOT
HETATM    1  C   UNL     1     -10.009  11.368  68.152  1.00  0.00    -0.189 C  
HETATM    2  C   UNL     1     -11.159  10.412  67.279  1.00  0.00    -0.251 C  
HETATM    3  C   UNL     1     -10.406   8.968  67.046  1.00  0.00    -0.339 C  
HETATM    4  C   UNL     1     -10.426   7.346  67.239  1.00  0.00    -0.385 C  
HETATM    5  C   UNL     1     -10.933   6.999  68.689  1.00  0.00    -0.144 C  
HETATM    6  C   UNL     1     -10.461   5.746  69.374  1.00  0.00    -0.360 C  
HETATM    7  C   UNL     1      -8.963   5.474  69.131  1.00  0.00    -0.120 C  
HETATM    8  C   UNL     1      -8.288   4.684  69.985  1.00  0.00    -0.075 C  
HETATM    9  C   UNL     1      -9.001   3.370  69.850  1.00  0.00    -0.106 C  
HETATM   10  C   UNL     1      -9.531   3.036  68.451  1.00  0.00    -0.211 C  
HETATM   11  O   UNL     1      -9.179   2.651  70.825  1.00  0.00    -0.108 OA 
HETATM   12  C   UNL     1      -9.423   3.939  67.425  1.00  0.00    -0.236 C  
HETATM   13  C   UNL     1      -8.671   5.255  67.630  1.00  0.00    -0.106 C  
HETATM   14  C   UNL     1      -7.222   4.851  67.215  1.00  0.00    -0.074 C  
HETATM   15  C   UNL     1      -8.972   6.732  67.127  1.00  0.00    -0.116 C  
HETATM   16  C   UNL     1      -8.149   7.331  65.983  1.00  0.00    -0.121 C  
HETATM   17  O   UNL     1      -8.816   7.310  64.733  1.00  0.00    -0.330 OA 
HETATM   18  C   UNL     1      -7.803   8.743  66.485  1.00  0.00    -0.103 C  
HETATM   19  C   UNL     1      -9.041   9.561  66.907  1.00  0.00    -0.158 C  
HETATM   20  H   UNL     1      -8.305   7.681  64.023  1.00  0.00     0.000 HD 
HETATM   21  C   UNL     1      -9.260  10.457  65.538  1.00  0.00    -0.223 C  
HETATM   22  C   UNL     1      -9.109  10.222  68.550  1.00  0.00    -0.138 C  
HETATM   23  O   UNL     1      -7.848  10.668  68.866  1.00  0.00    -0.110 OA 
HETATM   24  O   UNL     1      -8.999  12.311  67.666  1.00  0.00    -0.166 OA 
HETATM   25  C   UNL     1      -7.676  11.806  68.038  1.00  0.00    -0.123 C  
ENDROOT
BRANCH  22  26
HETATM   26  C   UNL     1     -10.029   9.810  69.962  1.00  0.00    -0.254 C  
HETATM   27  O   UNL     1     -11.190  10.242  70.129  1.00  0.00    -0.272 OA 
BRANCH  26  28
HETATM   28  C   UNL     1      -9.492   8.936  71.114  1.00  0.00    -0.265 C  
BRANCH  28  29
HETATM   29  O   UNL     1     -10.496   8.749  72.208  1.00  0.00    -0.329 OA 
BRANCH  29  30
HETATM   30  C   UNL     1     -11.167   7.564  72.305  1.00  0.00    -0.283 C  
HETATM   31  C   UNL     1     -11.275   5.167  73.246  1.00  0.00    -0.389 C  
HETATM   32  C   UNL     1      -9.471   6.644  74.050  1.00  0.00    -0.231 C  
HETATM   33  O   UNL     1     -12.345   7.455  71.949  1.00  0.00    -0.305 OA 
HETATM   34  C   UNL     1     -10.359   6.349  72.844  1.00  0.00    -0.229 C  
ENDBRANCH  29  30
ENDBRANCH  28  29
ENDBRANCH  26  28
ENDBRANCH  22  26
BRANCH  25  35
HETATM   35  C   UNL     1      -6.655  12.636  68.844  1.00  0.00    -0.095 C  
HETATM   36  C   UNL     1      -7.277  14.038  69.162  1.00  0.00    -0.059 C  
HETATM   37  C   UNL     1      -6.204  11.993  70.149  1.00  0.00    -0.075 C  
HETATM   38  C   UNL     1      -6.330  14.959  69.917  1.00  0.00    -0.157 C  
HETATM   39  C   UNL     1      -5.796  14.292  71.181  1.00  0.00    -0.200 C  
HETATM   40  C   UNL     1      -5.218  12.907  70.886  1.00  0.00    -0.162 C  
ENDBRANCH  25  35
TORSDOF 5
ENDMDL
MODEL       20
REMARK 921   NORMALIZED FREE ENERGY PREDICTED BY IDOCK:   -6.65 KCAL/MOL
REMARK 922        TOTAL FREE ENERGY PREDICTED BY IDOCK:   -8.91 KCAL/MOL
REMARK 923 INTER-LIGAND FREE ENERGY PREDICTED BY IDOCK:   -7.70 KCAL/MOL
REMARK 924 INTRA-LIGAND FREE ENERGY PREDICTED BY IDOCK:   -1.21 KCAL/MOL
REMARK 927      BINDING AFFINITY PREDICTED BY RF-SCORE:    0.00 PKD
ROOT
HETATM    1  C   UNL     1      -6.650  12.006  67.294  1.00  0.00    -0.145 C  
HETATM    2  C   UNL     1      -5.594  10.735  67.816  1.00  0.00    -0.043 C  
HETATM    3  C   UNL     1      -6.603   9.553  68.355  1.00  0.00    -0.053 C  
HETATM    4  C   UNL     1      -7.095   7.999  68.259  1.00  0.00    -0.088 C  
HETATM    5  C   UNL     1      -7.191   7.575  66.745  1.00  0.00    -0.084 C  
HETATM    6  C   UNL     1      -8.183   6.528  66.315  1.00  0.00    -0.119 C  
HETATM    7  C   UNL     1      -9.540   6.679  67.032  1.00  0.00    -0.183 C  
HETATM    8  C   UNL     1     -10.642   6.141  66.479  1.00  0.00    -0.214 C  
HETATM    9  C   UNL     1     -10.316   4.676  66.459  1.00  0.00    -0.194 C  
HETATM   10  C   UNL     1      -9.484   4.158  67.637  1.00  0.00    -0.225 C  
HETATM   11  O   UNL     1     -10.663   3.970  65.519  1.00  0.00    -0.007 OA 
HETATM   12  C   UNL     1      -9.008   5.018  68.592  1.00  0.00    -0.127 C  
HETATM   13  C   UNL     1      -9.390   6.498  68.559  1.00  0.00    -0.123 C  
HETATM   14  C   UNL     1     -10.685   6.503  69.429  1.00  0.00    -0.328 C  
HETATM   15  C   UNL     1      -8.549   7.814  68.856  1.00  0.00    -0.132 C  
HETATM   16  C   UNL     1      -8.767   8.579  70.164  1.00  0.00    -0.137 C  
HETATM   17  O   UNL     1      -7.772   8.328  71.142  1.00  0.00    -0.079 OA 
HETATM   18  C   UNL     1      -8.849  10.048  69.716  1.00  0.00    -0.205 C  
HETATM   19  C   UNL     1      -7.634  10.500  68.881  1.00  0.00    -0.108 C  
HETATM   20  H   UNL     1      -7.907   8.803  71.953  1.00  0.00     0.000 HD 
HETATM   21  C   UNL     1      -6.753  11.251  70.059  1.00  0.00    -0.013 C  
HETATM   22  C   UNL     1      -7.909  11.173  67.265  1.00  0.00    -0.137 C  
HETATM   23  O   UNL     1      -9.030  11.965  67.335  1.00  0.00    -0.163 OA 
HETATM   24  O   UNL     1      -7.151  13.177  68.018  1.00  0.00    -0.086 OA 
HETATM   25  C   UNL     1      -8.608  13.076  68.109  1.00  0.00    -0.188 C  
ENDROOT
BRANCH  22  26
HETATM   26  C   UNL     1      -7.636  10.569  65.662  1.00  0.00    -0.134 C  
HETATM   27  O   UNL     1      -6.533  10.716  65.092  1.00  0.00    -0.087 OA 
BRANCH  26  28
HETATM   28  C   UNL     1      -8.711   9.857  64.816  1.00  0.00    -0.189 C  
BRANCH  28  29
HETATM   29  O   UNL     1     -10.051  10.518  64.915  1.00  0.00    -0.309 OA 
BRANCH  29  30
HETATM   30  C   UNL     1     -10.428  11.413  63.956  1.00  0.00    -0.378 C  
HETATM   31  C   UNL     1     -11.994  13.325  63.224  1.00  0.00    -0.376 C  
HETATM   32  C   UNL     1     -12.116  12.564  65.567  1.00  0.00    -0.481 C  
HETATM   33  O   UNL     1      -9.721  11.641  62.969  1.00  0.00    -0.396 OA 
HETATM   34  C   UNL     1     -11.813  12.094  64.146  1.00  0.00    -0.490 C  
ENDBRANCH  29  30
ENDBRANCH  28  29
ENDBRANCH  26  28
ENDBRANCH  22  26
BRANCH  25  35
HETATM   35  C   UNL     1      -9.561  14.186  67.618  1.00  0.00    -0.216 C  
HETATM   36  C   UNL     1      -9.483  15.397  68.610  1.00  0.00    -0.205 C  
HETATM   37  C   UNL     1      -9.275  14.690  66.209  1.00  0.00    -0.257 C  
HETATM   38  C   UNL     1     -10.424  16.536  68.243  1.00  0.00    -0.313 C  
HETATM   39  C   UNL     1     -10.214  16.988  66.802  1.00  0.00    -0.298 C  
HETATM   40  C   UNL     1     -10.253  15.809  65.829  1.00  0.00    -0.394 C  
ENDBRANCH  25  35
TORSDOF 5
ENDMDL
MODEL       21
REMARK 921   NORMALIZED FREE ENERGY PREDICTED BY IDOCK:   -6.60 KCAL/MOL
REMARK 922        TOTAL FREE ENERGY PREDICTED BY IDOCK:   -8.86 KCAL/MOL
REMARK 923 INTER-LIGAND FREE ENERGY PREDICTED BY IDOCK:   -8.23 KCAL/MOL
REMARK 924 INTRA-LIGAND FREE ENERGY PREDICTED BY IDOCK:   -0.63 KCAL/MOL
REMARK 927      BINDING AFFINITY PREDICTED BY RF-SCORE:    0.00 PKD
ROOT
HETATM    1  C   UNL     1      -8.818   9.517  69.375  1.00  0.00    -0.170 C  
HETATM    2  C   UNL     1      -7.274   9.514  68.589  1.00  0.00    -0.074 C  
HETATM    3  C   UNL     1      -7.069   7.963  68.082  1.00  0.00    -0.089 C  
HETATM    4  C   UNL     1      -6.791   6.933  66.847  1.00  0.00    -0.065 C  
HETATM    5  C   UNL     1      -7.651   7.366  65.601  1.00  0.00    -0.092 C  
HETATM    6  C   UNL     1      -8.120   6.335  64.611  1.00  0.00    -0.115 C  
HETATM    7  C   UNL     1      -8.584   5.034  65.296  1.00  0.00    -0.145 C  
HETATM    8  C   UNL     1      -9.415   4.204  64.642  1.00  0.00    -0.168 C  
HETATM    9  C   UNL     1      -8.604   3.805  63.443  1.00  0.00    -0.093 C  
HETATM   10  C   UNL     1      -7.095   3.666  63.671  1.00  0.00    -0.050 C  
HETATM   11  O   UNL     1      -9.135   3.655  62.349  1.00  0.00    -0.088 OA 
HETATM   12  C   UNL     1      -6.537   3.977  64.884  1.00  0.00    -0.043 C  
HETATM   13  C   UNL     1      -7.425   4.364  66.067  1.00  0.00    -0.085 C  
HETATM   14  C   UNL     1      -7.687   2.973  66.724  1.00  0.00    -0.076 C  
HETATM   15  C   UNL     1      -7.251   5.462  67.204  1.00  0.00    -0.075 C  
HETATM   16  C   UNL     1      -6.865   5.035  68.623  1.00  0.00    -0.052 C  
HETATM   17  O   UNL     1      -5.495   5.234  68.923  1.00  0.00    -0.004 OA 
HETATM   18  C   UNL     1      -7.826   5.839  69.516  1.00  0.00    -0.093 C  
HETATM   19  C   UNL     1      -7.783   7.357  69.248  1.00  0.00    -0.107 C  
HETATM   20  H   UNL     1      -5.256   4.970  69.804  1.00  0.00     0.000 HD 
HETATM   21  C   UNL     1      -6.778   7.825  70.471  1.00  0.00    -0.038 C  
HETATM   22  C   UNL     1      -9.287   8.192  68.822  1.00  0.00    -0.143 C  
HETATM   23  O   UNL     1     -10.288   7.658  69.597  1.00  0.00    -0.203 OA 
HETATM   24  O   UNL     1      -9.162   9.326  70.786  1.00  0.00    -0.240 OA 
HETATM   25  C   UNL     1      -9.987   8.123  70.902  1.00  0.00    -0.187 C  
ENDROOT
BRANCH  22  26
HETATM   26  C   UNL     1      -9.896   8.869  67.345  1.00  0.00    -0.193 C  
HETATM   27  O   UNL     1     -10.644   8.213  66.590  1.00  0.00    -0.272 OA 
BRANCH  26  28
HETATM   28  C   UNL     1      -9.541  10.281  66.836  1.00  0.00    -0.173 C  
BRANCH  28  29
HETATM   29  O   UNL     1     -10.579  10.835  65.911  1.00  0.00    -0.225 OA 
BRANCH  29  30
HETATM   30  C   UNL     1     -11.394  11.841  66.345  1.00  0.00    -0.297 C  
HETATM   31  C   UNL     1     -12.660  14.026  65.829  1.00  0.00    -0.512 C  
HETATM   32  C   UNL     1     -11.582  12.843  63.952  1.00  0.00    -0.515 C  
HETATM   33  O   UNL     1     -12.010  11.760  67.413  1.00  0.00    -0.617 OA 
HETATM   34  C   UNL     1     -11.470  13.111  65.451  1.00  0.00    -0.331 C  
ENDBRANCH  29  30
ENDBRANCH  28  29
ENDBRANCH  26  28
ENDBRANCH  22  26
BRANCH  25  35
HETATM   35  C   UNL     1     -11.378   8.118  71.571  1.00  0.00    -0.308 C  
HETATM   36  C   UNL     1     -11.981   9.563  71.500  1.00  0.00    -0.475 C  
HETATM   37  C   UNL     1     -12.374   7.143  70.958  1.00  0.00    -0.376 C  
HETATM   38  C   UNL     1     -13.339   9.682  72.176  1.00  0.00    -0.545 C  
HETATM   39  C   UNL     1     -14.321   8.646  71.638  1.00  0.00    -0.451 C  
HETATM   40  C   UNL     1     -13.728   7.236  71.670  1.00  0.00    -0.446 C  
ENDBRANCH  25  35
TORSDOF 5
ENDMDL
MODEL       22
REMARK 921   NORMALIZED FREE ENERGY PREDICTED BY IDOCK:   -6.60 KCAL/MOL
REMARK 922        TOTAL FREE ENERGY PREDICTED BY IDOCK:   -8.85 KCAL/MOL
REMARK 923 INTER-LIGAND FREE ENERGY PREDICTED BY IDOCK:   -7.91 KCAL/MOL
REMARK 924 INTRA-LIGAND FREE ENERGY PREDICTED BY IDOCK:   -0.94 KCAL/MOL
REMARK 927      BINDING AFFINITY PREDICTED BY RF-SCORE:    0.00 PKD
ROOT
HETATM    1  C   UNL     1      -8.587   8.287  66.001  1.00  0.00    -0.149 C  
HETATM    2  C   UNL     1      -7.312   7.410  66.781  1.00  0.00    -0.092 C  
HETATM    3  C   UNL     1      -7.650   7.528  68.387  1.00  0.00    -0.114 C  
HETATM    4  C   UNL     1      -7.938   6.769  69.803  1.00  0.00    -0.124 C  
HETATM    5  C   UNL     1      -8.901   5.548  69.555  1.00  0.00    -0.115 C  
HETATM    6  C   UNL     1      -9.836   5.090  70.641  1.00  0.00    -0.282 C  
HETATM    7  C   UNL     1     -10.471   6.270  71.403  1.00  0.00    -0.264 C  
HETATM    8  C   UNL     1     -11.618   6.080  72.078  1.00  0.00    -0.333 C  
HETATM    9  C   UNL     1     -11.228   5.054  73.103  1.00  0.00    -0.335 C  
HETATM   10  C   UNL     1      -9.801   5.162  73.650  1.00  0.00    -0.176 C  
HETATM   11  O   UNL     1     -12.006   4.165  73.427  1.00  0.00    -0.057 OA 
HETATM   12  C   UNL     1      -8.927   6.094  73.153  1.00  0.00    -0.130 C  
HETATM   13  C   UNL     1      -9.396   7.118  72.118  1.00  0.00    -0.148 C  
HETATM   14  C   UNL     1      -9.873   8.288  73.035  1.00  0.00    -0.248 C  
HETATM   15  C   UNL     1      -8.687   7.715  70.826  1.00  0.00    -0.139 C  
HETATM   16  C   UNL     1      -8.130   9.140  70.852  1.00  0.00    -0.162 C  
HETATM   17  O   UNL     1      -6.726   9.198  71.030  1.00  0.00    -0.078 OA 
HETATM   18  C   UNL     1      -8.618   9.744  69.524  1.00  0.00    -0.186 C  
HETATM   19  C   UNL     1      -8.227   8.904  68.291  1.00  0.00    -0.121 C  
HETATM   20  H   UNL     1      -6.380  10.082  71.046  1.00  0.00     0.000 HD 
HETATM   21  C   UNL     1      -6.890   9.739  67.801  1.00  0.00    -0.081 C  
HETATM   22  C   UNL     1      -9.506   8.344  67.199  1.00  0.00    -0.163 C  
HETATM   23  O   UNL     1     -10.418   9.363  67.075  1.00  0.00    -0.251 OA 
HETATM   24  O   UNL     1      -8.651   9.688  65.580  1.00  0.00    -0.126 OA 
HETATM   25  C   UNL     1      -9.724  10.347  66.326  1.00  0.00    -0.205 C  
ENDROOT
BRANCH  22  26
HETATM   26  C   UNL     1     -10.217   6.790  66.898  1.00  0.00    -0.231 C  
HETATM   27  O   UNL     1     -11.208   6.393  67.548  1.00  0.00    -0.347 OA 
BRANCH  26  28
HETATM   28  C   UNL     1      -9.678   5.783  65.861  1.00  0.00     0.057 C  
BRANCH  28  29
HETATM   29  O   UNL     1      -9.748   4.369  66.345  1.00  0.00    -0.180 OA 
BRANCH  29  30
HETATM   30  C   UNL     1      -8.619   3.601  66.333  1.00  0.00    -0.115 C  
HETATM   31  C   UNL     1      -7.220   1.728  67.418  1.00  0.00    -0.054 C  
HETATM   32  C   UNL     1      -9.488   2.135  68.299  1.00  0.00    -0.232 C  
HETATM   33  O   UNL     1      -7.875   3.558  65.348  1.00  0.00    -0.084 OA 
HETATM   34  C   UNL     1      -8.294   2.821  67.639  1.00  0.00    -0.094 C  
ENDBRANCH  29  30
ENDBRANCH  28  29
ENDBRANCH  26  28
ENDBRANCH  22  26
BRANCH  25  35
HETATM   35  C   UNL     1     -10.882  11.104  65.643  1.00  0.00    -0.206 C  
HETATM   36  C   UNL     1     -11.044  12.507  66.322  1.00  0.00    -0.336 C  
HETATM   37  C   UNL     1     -10.712  11.304  64.143  1.00  0.00    -0.436 C  
HETATM   38  C   UNL     1     -12.196  13.321  65.753  1.00  0.00    -0.510 C  
HETATM   39  C   UNL     1     -12.089  13.451  64.236  1.00  0.00    -0.479 C  
HETATM   40  C   UNL     1     -11.896  12.090  63.567  1.00  0.00    -0.587 C  
ENDBRANCH  25  35
TORSDOF 5
ENDMDL
MODEL       23
REMARK 921   NORMALIZED FREE ENERGY PREDICTED BY IDOCK:   -6.48 KCAL/MOL
REMARK 922        TOTAL FREE ENERGY PREDICTED BY IDOCK:   -8.69 KCAL/MOL
REMARK 923 INTER-LIGAND FREE ENERGY PREDICTED BY IDOCK:   -7.44 KCAL/MOL
REMARK 924 INTRA-LIGAND FREE ENERGY PREDICTED BY IDOCK:   -1.25 KCAL/MOL
REMARK 927      BINDING AFFINITY PREDICTED BY RF-SCORE:    0.00 PKD
ROOT
HETATM    1  C   UNL     1      -8.722   7.346  68.423  1.00  0.00    -0.123 C  
HETATM    2  C   UNL     1     -10.144   7.490  67.444  1.00  0.00    -0.282 C  
HETATM    3  C   UNL     1     -10.701   9.009  67.742  1.00  0.00    -0.217 C  
HETATM    4  C   UNL     1     -11.134  10.468  67.151  1.00  0.00    -0.232 C  
HETATM    5  C   UNL     1     -10.091  10.920  66.061  1.00  0.00    -0.303 C  
HETATM    6  C   UNL     1      -9.825  12.383  65.831  1.00  0.00    -0.265 C  
HETATM    7  C   UNL     1      -9.772  13.183  67.148  1.00  0.00    -0.235 C  
HETATM    8  C   UNL     1      -9.132  14.365  67.177  1.00  0.00    -0.238 C  
HETATM    9  C   UNL     1      -9.918  15.186  66.196  1.00  0.00    -0.295 C  
HETATM   10  C   UNL     1     -11.425  14.913  66.148  1.00  0.00    -0.272 C  
HETATM   11  O   UNL     1      -9.356  15.984  65.455  1.00  0.00    -0.380 OA 
HETATM   12  C   UNL     1     -11.981  13.914  66.904  1.00  0.00    -0.467 C  
HETATM   13  C   UNL     1     -11.124  13.124  67.894  1.00  0.00    -0.288 C  
HETATM   14  C   UNL     1     -11.284  13.977  69.191  1.00  0.00    -0.308 C  
HETATM   15  C   UNL     1     -11.100  11.581  68.275  1.00  0.00    -0.295 C  
HETATM   16  C   UNL     1     -11.698  11.115  69.605  1.00  0.00    -0.339 C  
HETATM   17  O   UNL     1     -12.990  10.548  69.480  1.00  0.00    -0.602 OA 
HETATM   18  C   UNL     1     -10.639  10.147  70.159  1.00  0.00    -0.337 C  
HETATM   19  C   UNL     1     -10.266   9.022  69.173  1.00  0.00    -0.213 C  
HETATM   20  H   UNL     1     -13.361  10.259  70.305  1.00  0.00     0.000 HD 
HETATM   21  C   UNL     1     -11.213   7.807  69.768  1.00  0.00    -0.017 C  
HETATM   22  C   UNL     1      -8.567   8.821  68.708  1.00  0.00    -0.137 C  
HETATM   23  O   UNL     1      -7.805   9.032  69.832  1.00  0.00    -0.077 OA 
HETATM   24  O   UNL     1      -8.556   6.819  69.780  1.00  0.00    -0.138 OA 
HETATM   25  C   UNL     1      -8.082   7.902  70.642  1.00  0.00    -0.102 C  
ENDROOT
BRANCH  22  26
HETATM   26  C   UNL     1      -7.686   9.149  67.250  1.00  0.00    -0.095 C  
HETATM   27  O   UNL     1      -7.502   8.262  66.389  1.00  0.00    -0.078 OA 
BRANCH  26  28
HETATM   28  C   UNL     1      -7.039  10.511  66.924  1.00  0.00    -0.101 C  
BRANCH  28  29
HETATM   29  O   UNL     1      -6.072  10.954  67.978  1.00  0.00    -0.050 OA 
BRANCH  29  30
HETATM   30  C   UNL     1      -5.994  12.279  68.299  1.00  0.00    -0.054 C  
HETATM   31  C   UNL     1      -5.753  14.092  70.115  1.00  0.00    -0.130 C  
HETATM   32  C   UNL     1      -5.488  11.735  70.793  1.00  0.00    -0.138 C  
HETATM   33  O   UNL     1      -5.803  13.144  67.439  1.00  0.00    -0.303 OA 
HETATM   34  C   UNL     1      -6.202  12.645  69.796  1.00  0.00    -0.111 C  
ENDBRANCH  29  30
ENDBRANCH  28  29
ENDBRANCH  26  28
ENDBRANCH  22  26
BRANCH  25  35
HETATM   35  C   UNL     1      -6.800   7.799  71.494  1.00  0.00    -0.050 C  
HETATM   36  C   UNL     1      -6.929   8.759  72.727  1.00  0.00     0.082 C  
HETATM   37  C   UNL     1      -6.484   6.397  71.999  1.00  0.00    -0.054 C  
HETATM   38  C   UNL     1      -5.692   8.771  73.612  1.00  0.00    -0.117 C  
HETATM   39  C   UNL     1      -5.308   7.360  74.049  1.00  0.00    -0.046 C  
HETATM   40  C   UNL     1      -5.213   6.407  72.857  1.00  0.00    -0.036 C  
ENDBRANCH  25  35
TORSDOF 5
ENDMDL
MODEL       24
REMARK 921   NORMALIZED FREE ENERGY PREDICTED BY IDOCK:   -6.47 KCAL/MOL
REMARK 922        TOTAL FREE ENERGY PREDICTED BY IDOCK:   -8.68 KCAL/MOL
REMARK 923 INTER-LIGAND FREE ENERGY PREDICTED BY IDOCK:   -7.67 KCAL/MOL
REMARK 924 INTRA-LIGAND FREE ENERGY PREDICTED BY IDOCK:   -1.01 KCAL/MOL
REMARK 927      BINDING AFFINITY PREDICTED BY RF-SCORE:    0.00 PKD
ROOT
HETATM    1  C   UNL     1      -8.966   7.380  69.720  1.00  0.00    -0.141 C  
HETATM    2  C   UNL     1     -10.134   7.502  68.446  1.00  0.00    -0.200 C  
HETATM    3  C   UNL     1     -10.808   8.989  68.642  1.00  0.00    -0.061 C  
HETATM    4  C   UNL     1     -11.158  10.449  67.999  1.00  0.00    -0.359 C  
HETATM    5  C   UNL     1      -9.915  10.973  67.185  1.00  0.00    -0.218 C  
HETATM    6  C   UNL     1      -9.667  12.451  67.053  1.00  0.00    -0.211 C  
HETATM    7  C   UNL     1      -9.948  13.211  68.365  1.00  0.00    -0.223 C  
HETATM    8  C   UNL     1      -9.383  14.415  68.564  1.00  0.00    -0.204 C  
HETATM    9  C   UNL     1      -9.960  15.236  67.448  1.00  0.00    -0.223 C  
HETATM   10  C   UNL     1     -11.404  14.909  67.052  1.00  0.00    -0.345 C  
HETATM   11  O   UNL     1      -9.280  16.077  66.872  1.00  0.00    -0.206 OA 
HETATM   12  C   UNL     1     -12.074  13.867  67.639  1.00  0.00    -0.342 C  
HETATM   13  C   UNL     1     -11.430  13.080  68.781  1.00  0.00    -0.340 C  
HETATM   14  C   UNL     1     -11.917  13.886  70.026  1.00  0.00    -0.404 C  
HETATM   15  C   UNL     1     -11.428  11.528  69.124  1.00  0.00    -0.362 C  
HETATM   16  C   UNL     1     -12.291  11.000  70.273  1.00  0.00    -0.328 C  
HETATM   17  O   UNL     1     -13.496  10.389  69.845  1.00  0.00    -0.422 OA 
HETATM   18  C   UNL     1     -11.345  10.054  71.033  1.00  0.00    -0.434 C  
HETATM   19  C   UNL     1     -10.710   8.975  70.134  1.00  0.00    -0.258 C  
HETATM   20  H   UNL     1     -14.031  10.062  70.558  1.00  0.00     0.000 HD 
HETATM   21  C   UNL     1     -11.714   7.709  70.471  1.00  0.00    -0.148 C  
HETATM   22  C   UNL     1      -8.943   8.851  70.064  1.00  0.00    -0.165 C  
HETATM   23  O   UNL     1      -8.466   9.055  71.336  1.00  0.00    -0.267 OA 
HETATM   24  O   UNL     1      -9.090   6.819  71.067  1.00  0.00    -0.154 OA 
HETATM   25  C   UNL     1      -8.871   7.892  72.038  1.00  0.00    -0.141 C  
ENDROOT
BRANCH  22  26
HETATM   26  C   UNL     1      -7.769   9.256  68.853  1.00  0.00    -0.079 C  
HETATM   27  O   UNL     1      -7.412  10.439  68.664  1.00  0.00    -0.080 OA 
BRANCH  26  28
HETATM   28  C   UNL     1      -7.116   8.225  67.909  1.00  0.00    -0.083 C  
BRANCH  28  29
HETATM   29  O   UNL     1      -6.780   8.805  66.571  1.00  0.00    -0.069 OA 
BRANCH  29  30
HETATM   30  C   UNL     1      -7.691   8.721  65.557  1.00  0.00    -0.092 C  
HETATM   31  C   UNL     1      -8.442   9.462  63.206  1.00  0.00    -0.202 C  
HETATM   32  C   UNL     1      -6.221  10.192  63.994  1.00  0.00    -0.132 C  
HETATM   33  O   UNL     1      -8.545   7.830  65.527  1.00  0.00    -0.148 OA 
HETATM   34  C   UNL     1      -7.626   9.831  64.469  1.00  0.00    -0.134 C  
ENDBRANCH  29  30
ENDBRANCH  28  29
ENDBRANCH  26  28
ENDBRANCH  22  26
BRANCH  25  35
HETATM   35  C   UNL     1      -7.812   7.810  73.157  1.00  0.00    -0.160 C  
HETATM   36  C   UNL     1      -7.387   6.313  73.347  1.00  0.00    -0.087 C  
HETATM   37  C   UNL     1      -6.561   8.644  72.910  1.00  0.00    -0.035 C  
HETATM   38  C   UNL     1      -6.375   6.113  74.466  1.00  0.00    -0.070 C  
HETATM   39  C   UNL     1      -5.157   7.013  74.282  1.00  0.00    -0.043 C  
HETATM   40  C   UNL     1      -5.562   8.471  74.060  1.00  0.00    -0.104 C  
ENDBRANCH  25  35
TORSDOF 5
ENDMDL
MODEL       25
REMARK 921   NORMALIZED FREE ENERGY PREDICTED BY IDOCK:   -6.47 KCAL/MOL
REMARK 922        TOTAL FREE ENERGY PREDICTED BY IDOCK:   -8.68 KCAL/MOL
REMARK 923 INTER-LIGAND FREE ENERGY PREDICTED BY IDOCK:   -8.20 KCAL/MOL
REMARK 924 INTRA-LIGAND FREE ENERGY PREDICTED BY IDOCK:   -0.48 KCAL/MOL
REMARK 927      BINDING AFFINITY PREDICTED BY RF-SCORE:    0.00 PKD
ROOT
HETATM    1  C   UNL     1      -9.833  11.533  66.362  1.00  0.00    -0.205 C  
HETATM    2  C   UNL     1     -10.263  10.203  65.338  1.00  0.00    -0.281 C  
HETATM    3  C   UNL     1      -9.468   8.913  65.979  1.00  0.00    -0.320 C  
HETATM    4  C   UNL     1      -9.546   7.405  66.599  1.00  0.00    -0.251 C  
HETATM    5  C   UNL     1     -10.772   7.307  67.583  1.00  0.00    -0.294 C  
HETATM    6  C   UNL     1     -10.732   6.354  68.746  1.00  0.00    -0.339 C  
HETATM    7  C   UNL     1      -9.350   6.322  69.430  1.00  0.00    -0.145 C  
HETATM    8  C   UNL     1      -9.252   5.890  70.699  1.00  0.00    -0.167 C  
HETATM    9  C   UNL     1      -9.726   4.469  70.599  1.00  0.00    -0.212 C  
HETATM   10  C   UNL     1      -9.366   3.732  69.305  1.00  0.00    -0.244 C  
HETATM   11  O   UNL     1     -10.401   3.970  71.491  1.00  0.00    -0.075 OA 
HETATM   12  C   UNL     1      -8.724   4.381  68.282  1.00  0.00    -0.116 C  
HETATM   13  C   UNL     1      -8.257   5.826  68.457  1.00  0.00    -0.108 C  
HETATM   14  C   UNL     1      -6.815   5.620  69.017  1.00  0.00    -0.062 C  
HETATM   15  C   UNL     1      -8.265   7.067  67.463  1.00  0.00    -0.116 C  
HETATM   16  C   UNL     1      -6.958   7.533  66.816  1.00  0.00    -0.078 C  
HETATM   17  O   UNL     1      -6.803   7.103  65.475  1.00  0.00    -0.050 OA 
HETATM   18  C   UNL     1      -6.997   9.062  66.983  1.00  0.00    -0.078 C  
HETATM   19  C   UNL     1      -8.280   9.706  66.420  1.00  0.00    -0.119 C  
HETATM   20  H   UNL     1      -5.993   7.393  65.073  1.00  0.00     0.000 HD 
HETATM   21  C   UNL     1      -7.715  10.209  64.952  1.00  0.00    -0.143 C  
HETATM   22  C   UNL     1      -9.281  10.699  67.494  1.00  0.00    -0.143 C  
HETATM   23  O   UNL     1      -8.431  11.435  68.284  1.00  0.00    -0.141 OA 
HETATM   24  O   UNL     1      -8.752  12.514  66.236  1.00  0.00    -0.031 OA 
HETATM   25  C   UNL     1      -7.855  12.365  67.383  1.00  0.00    -0.174 C  
ENDROOT
BRANCH  22  26
HETATM   26  C   UNL     1     -10.824  10.453  68.247  1.00  0.00    -0.254 C  
HETATM   27  O   UNL     1     -11.871  10.920  67.749  1.00  0.00    -0.579 OA 
BRANCH  26  28
HETATM   28  C   UNL     1     -11.022   9.693  69.575  1.00  0.00    -0.208 C  
BRANCH  28  29
HETATM   29  O   UNL     1     -11.363  10.605  70.712  1.00  0.00    -0.301 OA 
BRANCH  29  30
HETATM   30  C   UNL     1     -12.562  10.460  71.349  1.00  0.00    -0.434 C  
HETATM   31  C   UNL     1     -14.234   8.923  72.570  1.00  0.00    -0.386 C  
HETATM   32  C   UNL     1     -12.015   8.003  72.007  1.00  0.00    -0.375 C  
HETATM   33  O   UNL     1     -13.223  11.436  71.716  1.00  0.00    -0.458 OA 
HETATM   34  C   UNL     1     -13.072   9.004  71.548  1.00  0.00    -0.389 C  
ENDBRANCH  29  30
ENDBRANCH  28  29
ENDBRANCH  26  28
ENDBRANCH  22  26
BRANCH  25  35
HETATM   35  C   UNL     1      -7.490  13.534  68.322  1.00  0.00    -0.122 C  
HETATM   36  C   UNL     1      -6.090  14.103  67.905  1.00  0.00    -0.154 C  
HETATM   37  C   UNL     1      -8.497  14.677  68.334  1.00  0.00    -0.160 C  
HETATM   38  C   UNL     1      -5.610  15.235  68.801  1.00  0.00    -0.090 C  
HETATM   39  C   UNL     1      -6.650  16.346  68.899  1.00  0.00    -0.165 C  
HETATM   40  C   UNL     1      -8.028  15.797  69.271  1.00  0.00    -0.239 C  
ENDBRANCH  25  35
TORSDOF 5
ENDMDL
MODEL       26
REMARK 921   NORMALIZED FREE ENERGY PREDICTED BY IDOCK:   -6.43 KCAL/MOL
REMARK 922        TOTAL FREE ENERGY PREDICTED BY IDOCK:   -8.63 KCAL/MOL
REMARK 923 INTER-LIGAND FREE ENERGY PREDICTED BY IDOCK:   -7.37 KCAL/MOL
REMARK 924 INTRA-LIGAND FREE ENERGY PREDICTED BY IDOCK:   -1.26 KCAL/MOL
REMARK 927      BINDING AFFINITY PREDICTED BY RF-SCORE:    0.00 PKD
ROOT
HETATM    1  C   UNL     1      -7.706  12.208  67.154  1.00  0.00    -0.151 C  
HETATM    2  C   UNL     1      -6.346  11.137  67.087  1.00  0.00    -0.083 C  
HETATM    3  C   UNL     1      -6.922   9.699  67.639  1.00  0.00    -0.087 C  
HETATM    4  C   UNL     1      -7.158   8.105  67.375  1.00  0.00    -0.083 C  
HETATM    5  C   UNL     1      -7.659   7.890  65.898  1.00  0.00    -0.083 C  
HETATM    6  C   UNL     1      -8.551   6.724  65.565  1.00  0.00    -0.095 C  
HETATM    7  C   UNL     1      -9.615   6.473  66.652  1.00  0.00    -0.201 C  
HETATM    8  C   UNL     1     -10.732   5.792  66.338  1.00  0.00    -0.193 C  
HETATM    9  C   UNL     1     -10.194   4.451  65.930  1.00  0.00    -0.227 C  
HETATM   10  C   UNL     1      -8.958   3.965  66.694  1.00  0.00    -0.141 C  
HETATM   11  O   UNL     1     -10.701   3.827  65.006  1.00  0.00    -0.030 OA 
HETATM   12  C   UNL     1      -8.350   4.763  67.627  1.00  0.00    -0.104 C  
HETATM   13  C   UNL     1      -8.960   6.114  68.004  1.00  0.00    -0.113 C  
HETATM   14  C   UNL     1      -9.893   5.712  69.189  1.00  0.00    -0.216 C  
HETATM   15  C   UNL     1      -8.295   7.525  68.310  1.00  0.00    -0.125 C  
HETATM   16  C   UNL     1      -8.208   8.030  69.753  1.00  0.00    -0.120 C  
HETATM   17  O   UNL     1      -6.927   7.866  70.336  1.00  0.00    -0.045 OA 
HETATM   18  C   UNL     1      -8.668   9.494  69.652  1.00  0.00    -0.189 C  
HETATM   19  C   UNL     1      -7.873  10.314  68.617  1.00  0.00    -0.101 C  
HETATM   20  H   UNL     1      -6.873   8.179  71.231  1.00  0.00     0.000 HD 
HETATM   21  C   UNL     1      -6.799  11.063  69.622  1.00  0.00    -0.129 C  
HETATM   22  C   UNL     1      -8.755  11.134  67.316  1.00  0.00    -0.139 C  
HETATM   23  O   UNL     1      -9.908  11.645  67.859  1.00  0.00    -0.175 OA 
HETATM   24  O   UNL     1      -8.135  13.127  68.211  1.00  0.00    -0.142 OA 
HETATM   25  C   UNL     1      -9.451  12.699  68.689  1.00  0.00     0.005 C  
ENDROOT
BRANCH  22  26
HETATM   26  C   UNL     1      -8.910  10.838  65.613  1.00  0.00    -0.190 C  
HETATM   27  O   UNL     1      -7.936  10.965  64.841  1.00  0.00     0.034 OA 
BRANCH  26  28
HETATM   28  C   UNL     1     -10.234  10.445  64.926  1.00  0.00    -0.260 C  
BRANCH  28  29
HETATM   29  O   UNL     1     -10.721  11.494  63.976  1.00  0.00    -0.328 OA 
BRANCH  29  30
HETATM   30  C   UNL     1     -11.811  12.245  64.309  1.00  0.00    -0.403 C  
HETATM   31  C   UNL     1     -12.767  14.373  65.406  1.00  0.00    -0.297 C  
HETATM   32  C   UNL     1     -10.318  14.198  65.161  1.00  0.00    -0.429 C  
HETATM   33  O   UNL     1     -12.926  12.017  63.829  1.00  0.00    -0.709 OA 
HETATM   34  C   UNL     1     -11.587  13.372  65.358  1.00  0.00    -0.335 C  
ENDBRANCH  29  30
ENDBRANCH  28  29
ENDBRANCH  26  28
ENDBRANCH  22  26
BRANCH  25  35
HETATM   35  C   UNL     1     -10.678  13.634  68.724  1.00  0.00    -0.265 C  
HETATM   36  C   UNL     1     -11.494  13.353  70.033  1.00  0.00    -0.126 C  
HETATM   37  C   UNL     1     -10.346  15.119  68.665  1.00  0.00    -0.232 C  
HETATM   38  C   UNL     1     -12.758  14.192  70.145  1.00  0.00    -0.227 C  
HETATM   39  C   UNL     1     -12.453  15.679  69.992  1.00  0.00    -0.249 C  
HETATM   40  C   UNL     1     -11.627  15.960  68.736  1.00  0.00    -0.389 C  
ENDBRANCH  25  35
TORSDOF 5
ENDMDL
MODEL       27
REMARK 921   NORMALIZED FREE ENERGY PREDICTED BY IDOCK:   -6.42 KCAL/MOL
REMARK 922        TOTAL FREE ENERGY PREDICTED BY IDOCK:   -8.62 KCAL/MOL
REMARK 923 INTER-LIGAND FREE ENERGY PREDICTED BY IDOCK:   -7.81 KCAL/MOL
REMARK 924 INTRA-LIGAND FREE ENERGY PREDICTED BY IDOCK:   -0.81 KCAL/MOL
REMARK 927      BINDING AFFINITY PREDICTED BY RF-SCORE:    0.00 PKD
ROOT
HETATM    1  C   UNL     1     -11.090  13.425  66.833  1.00  0.00    -0.292 C  
HETATM    2  C   UNL     1     -12.037  12.119  66.202  1.00  0.00    -0.068 C  
HETATM    3  C   UNL     1     -10.937  10.970  65.786  1.00  0.00    -0.102 C  
HETATM    4  C   UNL     1     -10.407   9.434  65.945  1.00  0.00     0.027 C  
HETATM    5  C   UNL     1     -10.469   9.014  67.461  1.00  0.00    -0.338 C  
HETATM    6  C   UNL     1      -9.498   8.002  68.005  1.00  0.00    -0.157 C  
HETATM    7  C   UNL     1      -8.074   8.197  67.445  1.00  0.00    -0.122 C  
HETATM    8  C   UNL     1      -7.025   7.696  68.121  1.00  0.00    -0.075 C  
HETATM    9  C   UNL     1      -7.303   6.221  68.111  1.00  0.00    -0.089 C  
HETATM   10  C   UNL     1      -7.980   5.674  66.850  1.00  0.00    -0.102 C  
HETATM   11  O   UNL     1      -7.041   5.528  69.087  1.00  0.00    -0.061 OA 
HETATM   12  C   UNL     1      -8.374   6.517  65.843  1.00  0.00    -0.140 C  
HETATM   13  C   UNL     1      -8.046   8.009  65.912  1.00  0.00    -0.117 C  
HETATM   14  C   UNL     1      -6.662   8.055  65.192  1.00  0.00    -0.051 C  
HETATM   15  C   UNL     1      -8.891   9.296  65.515  1.00  0.00    -0.224 C  
HETATM   16  C   UNL     1      -8.552  10.066  64.236  1.00  0.00    -0.189 C  
HETATM   17  O   UNL     1      -9.422   9.781  63.154  1.00  0.00    -0.482 OA 
HETATM   18  C   UNL     1      -8.569  11.538  64.683  1.00  0.00     0.603 C  
HETATM   19  C   UNL     1      -9.885  11.950  65.374  1.00  0.00    -0.258 C  
HETATM   20  H   UNL     1      -9.212  10.259  62.361  1.00  0.00     0.000 HD 
HETATM   21  C   UNL     1     -10.651  12.670  64.101  1.00  0.00    -0.434 C  
HETATM   22  C   UNL     1      -9.814  12.634  67.008  1.00  0.00    -0.225 C  
HETATM   23  O   UNL     1      -8.720  13.463  67.060  1.00  0.00    -0.216 OA 
HETATM   24  O   UNL     1     -10.548  14.610  66.165  1.00  0.00    -0.296 OA 
HETATM   25  C   UNL     1      -9.088  14.558  66.239  1.00  0.00    -0.129 C  
ENDROOT
BRANCH  22  26
HETATM   26  C   UNL     1     -10.247  12.023  68.573  1.00  0.00    -0.212 C  
HETATM   27  O   UNL     1      -9.413  11.431  69.292  1.00  0.00     0.059 OA 
BRANCH  26  28
HETATM   28  C   UNL     1     -11.664  12.121  69.173  1.00  0.00    -0.328 C  
BRANCH  28  29
HETATM   29  O   UNL     1     -11.650  12.209  70.667  1.00  0.00     0.028 OA 
BRANCH  29  30
HETATM   30  C   UNL     1     -12.557  11.487  71.389  1.00  0.00    -0.314 C  
HETATM   31  C   UNL     1     -13.306   9.208  72.331  1.00  0.00    -0.527 C  
HETATM   32  C   UNL     1     -11.095   9.340  71.244  1.00  0.00    -0.427 C  
HETATM   33  O   UNL     1     -13.403  12.036  72.102  1.00  0.00    -0.510 OA 
HETATM   34  C   UNL     1     -12.499   9.941  71.231  1.00  0.00    -0.479 C  
ENDBRANCH  29  30
ENDBRANCH  28  29
ENDBRANCH  26  28
ENDBRANCH  22  26
BRANCH  25  35
HETATM   35  C   UNL     1      -8.233  15.700  66.828  1.00  0.00    -0.300 C  
HETATM   36  C   UNL     1      -8.705  17.060  66.207  1.00  0.00    -0.285 C  
HETATM   37  C   UNL     1      -8.284  15.812  68.346  1.00  0.00    -0.151 C  
HETATM   38  C   UNL     1      -7.892  18.253  66.687  1.00  0.00    -0.275 C  
HETATM   39  C   UNL     1      -7.856  18.324  68.211  1.00  0.00    -0.310 C  
HETATM   40  C   UNL     1      -7.430  16.991  68.828  1.00  0.00    -0.242 C  
ENDBRANCH  25  35
TORSDOF 5
ENDMDL
MODEL       28
REMARK 921   NORMALIZED FREE ENERGY PREDICTED BY IDOCK:   -6.36 KCAL/MOL
REMARK 922        TOTAL FREE ENERGY PREDICTED BY IDOCK:   -8.54 KCAL/MOL
REMARK 923 INTER-LIGAND FREE ENERGY PREDICTED BY IDOCK:   -8.05 KCAL/MOL
REMARK 924 INTRA-LIGAND FREE ENERGY PREDICTED BY IDOCK:   -0.49 KCAL/MOL
REMARK 927      BINDING AFFINITY PREDICTED BY RF-SCORE:    0.00 PKD
ROOT
HETATM    1  C   UNL     1      -8.537   8.401  66.010  1.00  0.00    -0.146 C  
HETATM    2  C   UNL     1      -7.257   7.549  66.810  1.00  0.00    -0.084 C  
HETATM    3  C   UNL     1      -7.641   7.631  68.407  1.00  0.00    -0.113 C  
HETATM    4  C   UNL     1      -7.942   6.839  69.803  1.00  0.00    -0.124 C  
HETATM    5  C   UNL     1      -8.861   5.595  69.510  1.00  0.00    -0.116 C  
HETATM    6  C   UNL     1      -9.810   5.091  70.563  1.00  0.00    -0.290 C  
HETATM    7  C   UNL     1     -10.501   6.239  71.326  1.00  0.00    -0.264 C  
HETATM    8  C   UNL     1     -11.659   6.003  71.967  1.00  0.00    -0.333 C  
HETATM    9  C   UNL     1     -11.265   4.973  72.986  1.00  0.00    -0.310 C  
HETATM   10  C   UNL     1      -9.857   5.114  73.572  1.00  0.00    -0.170 C  
HETATM   11  O   UNL     1     -12.024   4.056  73.275  1.00  0.00     0.004 OA 
HETATM   12  C   UNL     1      -8.999   6.080  73.114  1.00  0.00    -0.130 C  
HETATM   13  C   UNL     1      -9.471   7.107  72.084  1.00  0.00    -0.152 C  
HETATM   14  C   UNL     1     -10.007   8.246  73.005  1.00  0.00    -0.220 C  
HETATM   15  C   UNL     1      -8.747   7.745  70.820  1.00  0.00    -0.134 C  
HETATM   16  C   UNL     1      -8.233   9.186  70.884  1.00  0.00    -0.177 C  
HETATM   17  O   UNL     1      -6.837   9.283  71.101  1.00  0.00    -0.126 OA 
HETATM   18  C   UNL     1      -8.705   9.798  69.553  1.00  0.00    -0.193 C  
HETATM   19  C   UNL     1      -8.256   8.990  68.318  1.00  0.00    -0.116 C  
HETATM   20  H   UNL     1      -6.518  10.176  71.140  1.00  0.00     0.000 HD 
HETATM   21  C   UNL     1      -6.932   9.872  67.877  1.00  0.00    -0.081 C  
HETATM   22  C   UNL     1      -9.488   8.410  67.183  1.00  0.00    -0.163 C  
HETATM   23  O   UNL     1     -10.427   9.404  67.052  1.00  0.00    -0.251 OA 
HETATM   24  O   UNL     1      -8.632   9.807  65.610  1.00  0.00    -0.132 OA 
HETATM   25  C   UNL     1      -9.744  10.421  66.337  1.00  0.00    -0.201 C  
ENDROOT
BRANCH  22  26
HETATM   26  C   UNL     1     -10.144   6.842  66.838  1.00  0.00    -0.202 C  
HETATM   27  O   UNL     1     -11.167   6.423  67.423  1.00  0.00    -0.352 OA 
BRANCH  26  28
HETATM   28  C   UNL     1      -9.516   5.847  65.841  1.00  0.00    -0.005 C  
BRANCH  28  29
HETATM   29  O   UNL     1     -10.387   4.655  65.595  1.00  0.00    -0.254 OA 
BRANCH  29  30
HETATM   30  C   UNL     1      -9.835   3.518  65.078  1.00  0.00    -0.111 C  
HETATM   31  C   UNL     1      -9.507   1.951  63.058  1.00  0.00    -0.091 C  
HETATM   32  C   UNL     1     -10.655   4.102  62.679  1.00  0.00    -0.099 C  
HETATM   33  O   UNL     1      -8.946   2.901  65.674  1.00  0.00    -0.135 OA 
HETATM   34  C   UNL     1     -10.413   3.015  63.725  1.00  0.00    -0.198 C  
ENDBRANCH  29  30
ENDBRANCH  28  29
ENDBRANCH  26  28
ENDBRANCH  22  26
BRANCH  25  35
HETATM   35  C   UNL     1     -10.906  11.154  65.635  1.00  0.00    -0.206 C  
HETATM   36  C   UNL     1     -11.078  12.571  66.283  1.00  0.00    -0.336 C  
HETATM   37  C   UNL     1     -10.734  11.322  64.132  1.00  0.00    -0.436 C  
HETATM   38  C   UNL     1     -12.235  13.364  65.693  1.00  0.00    -0.510 C  
HETATM   39  C   UNL     1     -12.126  13.460  64.175  1.00  0.00    -0.491 C  
HETATM   40  C   UNL     1     -11.923  12.086  63.536  1.00  0.00    -0.605 C  
ENDBRANCH  25  35
TORSDOF 5
ENDMDL
MODEL       29
REMARK 921   NORMALIZED FREE ENERGY PREDICTED BY IDOCK:   -6.36 KCAL/MOL
REMARK 922        TOTAL FREE ENERGY PREDICTED BY IDOCK:   -8.54 KCAL/MOL
REMARK 923 INTER-LIGAND FREE ENERGY PREDICTED BY IDOCK:   -7.48 KCAL/MOL
REMARK 924 INTRA-LIGAND FREE ENERGY PREDICTED BY IDOCK:   -1.06 KCAL/MOL
REMARK 927      BINDING AFFINITY PREDICTED BY RF-SCORE:    0.00 PKD
ROOT
HETATM    1  C   UNL     1      -8.955   7.977  66.645  1.00  0.00    -0.150 C  
HETATM    2  C   UNL     1      -8.075   6.487  66.568  1.00  0.00    -0.111 C  
HETATM    3  C   UNL     1      -7.710   6.139  68.133  1.00  0.00    -0.103 C  
HETATM    4  C   UNL     1      -7.794   5.083  69.375  1.00  0.00    -0.075 C  
HETATM    5  C   UNL     1      -9.239   4.461  69.436  1.00  0.00    -0.200 C  
HETATM    6  C   UNL     1      -9.815   4.014  70.752  1.00  0.00    -0.233 C  
HETATM    7  C   UNL     1      -9.483   4.990  71.898  1.00  0.00    -0.189 C  
HETATM    8  C   UNL     1     -10.248   4.996  73.004  1.00  0.00    -0.214 C  
HETATM    9  C   UNL     1     -10.058   3.607  73.540  1.00  0.00    -0.130 C  
HETATM   10  C   UNL     1      -8.668   2.995  73.341  1.00  0.00    -0.077 C  
HETATM   11  O   UNL     1     -10.991   3.002  74.057  1.00  0.00    -0.194 OA 
HETATM   12  C   UNL     1      -7.701   3.664  72.636  1.00  0.00    -0.061 C  
HETATM   13  C   UNL     1      -7.958   5.084  72.129  1.00  0.00    -0.111 C  
HETATM   14  C   UNL     1      -7.448   5.939  73.330  1.00  0.00    -0.094 C  
HETATM   15  C   UNL     1      -7.571   5.804  70.765  1.00  0.00    -0.092 C  
HETATM   16  C   UNL     1      -6.432   6.827  70.740  1.00  0.00    -0.051 C  
HETATM   17  O   UNL     1      -5.216   6.311  70.227  1.00  0.00    -0.013 OA 
HETATM   18  C   UNL     1      -7.011   7.995  69.924  1.00  0.00    -0.045 C  
HETATM   19  C   UNL     1      -7.546   7.568  68.542  1.00  0.00    -0.114 C  
HETATM   20  H   UNL     1      -4.510   6.945  70.211  1.00  0.00     0.000 HD 
HETATM   21  C   UNL     1      -6.253   7.984  67.605  1.00  0.00    -0.052 C  
HETATM   22  C   UNL     1      -9.231   7.929  68.129  1.00  0.00    -0.136 C  
HETATM   23  O   UNL     1      -9.516   9.180  68.621  1.00  0.00    -0.142 OA 
HETATM   24  O   UNL     1      -8.486   9.360  66.531  1.00  0.00    -0.129 OA 
HETATM   25  C   UNL     1      -8.759  10.047  67.793  1.00  0.00    -0.125 C  
ENDROOT
BRANCH  22  26
HETATM   26  C   UNL     1     -10.654   6.949  67.971  1.00  0.00    -0.222 C  
HETATM   27  O   UNL     1     -11.042   6.543  66.855  1.00  0.00    -0.399 OA 
BRANCH  26  28
HETATM   28  C   UNL     1     -11.555   6.544  69.156  1.00  0.00    -0.036 C  
BRANCH  28  29
HETATM   29  O   UNL     1     -11.326   7.392  70.368  1.00  0.00    -0.276 OA 
BRANCH  29  30
HETATM   30  C   UNL     1     -12.344   7.576  71.259  1.00  0.00    -0.327 C  
HETATM   31  C   UNL     1     -13.885   9.200  72.536  1.00  0.00    -0.485 C  
HETATM   32  C   UNL     1     -12.402  10.136  70.800  1.00  0.00    -0.422 C  
HETATM   33  O   UNL     1     -13.064   6.640  71.621  1.00  0.00    -0.273 OA 
HETATM   34  C   UNL     1     -12.521   9.013  71.828  1.00  0.00    -0.438 C  
ENDBRANCH  29  30
ENDBRANCH  28  29
ENDBRANCH  26  28
ENDBRANCH  22  26
BRANCH  25  35
HETATM   35  C   UNL     1      -9.569  11.358  67.880  1.00  0.00    -0.180 C  
HETATM   36  C   UNL     1      -9.037  12.357  66.796  1.00  0.00    -0.212 C  
HETATM   37  C   UNL     1     -11.071  11.189  67.692  1.00  0.00    -0.348 C  
HETATM   38  C   UNL     1      -9.739  13.706  66.826  1.00  0.00    -0.275 C  
HETATM   39  C   UNL     1     -11.254  13.547  66.733  1.00  0.00    -0.327 C  
HETATM   40  C   UNL     1     -11.779  12.547  67.764  1.00  0.00    -0.419 C  
ENDBRANCH  25  35
TORSDOF 5
ENDMDL
MODEL       30
REMARK 921   NORMALIZED FREE ENERGY PREDICTED BY IDOCK:   -6.35 KCAL/MOL
REMARK 922        TOTAL FREE ENERGY PREDICTED BY IDOCK:   -8.53 KCAL/MOL
REMARK 923 INTER-LIGAND FREE ENERGY PREDICTED BY IDOCK:   -7.79 KCAL/MOL
REMARK 924 INTRA-LIGAND FREE ENERGY PREDICTED BY IDOCK:   -0.75 KCAL/MOL
REMARK 927      BINDING AFFINITY PREDICTED BY RF-SCORE:    0.00 PKD
ROOT
HETATM    1  C   UNL     1      -9.908  11.487  66.906  1.00  0.00    -0.197 C  
HETATM    2  C   UNL     1     -10.894  10.262  66.179  1.00  0.00     0.052 C  
HETATM    3  C   UNL     1     -10.138   8.848  66.547  1.00  0.00    -0.356 C  
HETATM    4  C   UNL     1     -10.223   7.366  67.227  1.00  0.00    -0.330 C  
HETATM    5  C   UNL     1     -10.996   7.462  68.595  1.00  0.00     0.009 C  
HETATM    6  C   UNL     1     -10.683   6.501  69.709  1.00  0.00    -0.322 C  
HETATM    7  C   UNL     1      -9.170   6.228  69.839  1.00  0.00    -0.155 C  
HETATM    8  C   UNL     1      -8.680   5.769  71.004  1.00  0.00    -0.135 C  
HETATM    9  C   UNL     1      -9.379   4.449  71.155  1.00  0.00    -0.148 C  
HETATM   10  C   UNL     1      -9.647   3.679  69.858  1.00  0.00    -0.238 C  
HETATM   11  O   UNL     1      -9.748   4.059  72.257  1.00  0.00    -0.140 OA 
HETATM   12  C   UNL     1      -9.334   4.225  68.641  1.00  0.00    -0.213 C  
HETATM   13  C   UNL     1      -8.609   5.569  68.559  1.00  0.00    -0.102 C  
HETATM   14  C   UNL     1      -7.116   5.116  68.561  1.00  0.00    -0.062 C  
HETATM   15  C   UNL     1      -8.785   6.806  67.577  1.00  0.00    -0.119 C  
HETATM   16  C   UNL     1      -7.754   7.055  66.473  1.00  0.00    -0.104 C  
HETATM   17  O   UNL     1      -8.177   6.623  65.192  1.00  0.00    -0.131 OA 
HETATM   18  C   UNL     1      -7.481   8.566  66.566  1.00  0.00    -0.088 C  
HETATM   19  C   UNL     1      -8.760   9.424  66.481  1.00  0.00    -0.148 C  
HETATM   20  H   UNL     1      -7.537   6.778  64.507  1.00  0.00     0.000 HD 
HETATM   21  C   UNL     1      -8.705   9.845  64.886  1.00  0.00    -0.198 C  
HETATM   22  C   UNL     1      -9.119  10.556  67.796  1.00  0.00    -0.138 C  
HETATM   23  O   UNL     1      -7.931  11.129  68.182  1.00  0.00    -0.113 OA 
HETATM   24  O   UNL     1      -8.808  12.274  66.344  1.00  0.00    -0.172 OA 
HETATM   25  C   UNL     1      -7.587  11.961  67.088  1.00  0.00    -0.154 C  
ENDROOT
BRANCH  22  26
HETATM   26  C   UNL     1     -10.292  10.563  69.074  1.00  0.00    -0.213 C  
HETATM   27  O   UNL     1     -10.059  10.013  70.172  1.00  0.00    -0.255 OA 
BRANCH  26  28
HETATM   28  C   UNL     1     -11.694  11.193  68.951  1.00  0.00    -0.337 C  
BRANCH  28  29
HETATM   29  O   UNL     1     -11.797  12.508  69.660  1.00  0.00    -0.309 OA 
BRANCH  29  30
HETATM   30  C   UNL     1     -12.481  12.580  70.840  1.00  0.00    -0.269 C  
HETATM   31  C   UNL     1     -13.602  14.035  72.648  1.00  0.00    -0.623 C  
HETATM   32  C   UNL     1     -12.804  15.150  70.597  1.00  0.00    -0.440 C  
HETATM   33  O   UNL     1     -13.002  11.582  71.349  1.00  0.00    -0.412 OA 
HETATM   34  C   UNL     1     -12.532  13.972  71.530  1.00  0.00    -0.407 C  
ENDBRANCH  29  30
ENDBRANCH  28  29
ENDBRANCH  26  28
ENDBRANCH  22  26
BRANCH  25  35
HETATM   35  C   UNL     1      -6.718  13.040  67.767  1.00  0.00    -0.143 C  
HETATM   36  C   UNL     1      -7.422  14.431  67.615  1.00  0.00    -0.191 C  
HETATM   37  C   UNL     1      -6.440  12.792  69.244  1.00  0.00    -0.105 C  
HETATM   38  C   UNL     1      -6.621  15.579  68.213  1.00  0.00    -0.127 C  
HETATM   39  C   UNL     1      -6.254  15.302  69.667  1.00  0.00    -0.147 C  
HETATM   40  C   UNL     1      -5.598  13.931  69.832  1.00  0.00    -0.108 C  
ENDBRANCH  25  35
TORSDOF 5
ENDMDL
MODEL       31
REMARK 921   NORMALIZED FREE ENERGY PREDICTED BY IDOCK:   -6.35 KCAL/MOL
REMARK 922        TOTAL FREE ENERGY PREDICTED BY IDOCK:   -8.53 KCAL/MOL
REMARK 923 INTER-LIGAND FREE ENERGY PREDICTED BY IDOCK:   -7.86 KCAL/MOL
REMARK 924 INTRA-LIGAND FREE ENERGY PREDICTED BY IDOCK:   -0.67 KCAL/MOL
REMARK 927      BINDING AFFINITY PREDICTED BY RF-SCORE:    0.00 PKD
ROOT
HETATM    1  C   UNL     1     -11.111  13.430  66.714  1.00  0.00    -0.292 C  
HETATM    2  C   UNL     1     -12.023  12.103  66.075  1.00  0.00    -0.236 C  
HETATM    3  C   UNL     1     -10.930  10.883  65.924  1.00  0.00    -0.054 C  
HETATM    4  C   UNL     1     -10.501   9.351  66.294  1.00  0.00    -0.112 C  
HETATM    5  C   UNL     1     -10.790   9.081  67.818  1.00  0.00    -0.125 C  
HETATM    6  C   UNL     1      -9.952   8.093  68.582  1.00  0.00    -0.201 C  
HETATM    7  C   UNL     1      -8.457   8.185  68.214  1.00  0.00    -0.130 C  
HETATM    8  C   UNL     1      -7.536   7.716  69.074  1.00  0.00    -0.095 C  
HETATM    9  C   UNL     1      -7.879   6.257  69.158  1.00  0.00    -0.105 C  
HETATM   10  C   UNL     1      -8.400   5.616  67.868  1.00  0.00    -0.100 C  
HETATM   11  O   UNL     1      -7.787   5.652  70.219  1.00  0.00    -0.093 OA 
HETATM   12  C   UNL     1      -8.612   6.371  66.744  1.00  0.00    -0.113 C  
HETATM   13  C   UNL     1      -8.227   7.851  66.723  1.00  0.00    -0.116 C  
HETATM   14  C   UNL     1      -6.757   7.781  66.206  1.00  0.00    -0.054 C  
HETATM   15  C   UNL     1      -8.948   9.122  66.097  1.00  0.00    -0.211 C  
HETATM   16  C   UNL     1      -8.401   9.754  64.814  1.00  0.00    -0.155 C  
HETATM   17  O   UNL     1      -9.126   9.397  63.651  1.00  0.00    -0.406 OA 
HETATM   18  C   UNL     1      -8.410  11.261  65.121  1.00  0.00     0.305 C  
HETATM   19  C   UNL     1      -9.787  11.782  65.578  1.00  0.00    -0.262 C  
HETATM   20  H   UNL     1      -8.787   9.789  62.855  1.00  0.00     0.000 HD 
HETATM   21  C   UNL     1     -10.336  12.403  64.150  1.00  0.00    -0.409 C  
HETATM   22  C   UNL     1      -9.910  12.617  67.138  1.00  0.00    -0.212 C  
HETATM   23  O   UNL     1      -8.796  13.409  67.269  1.00  0.00    -0.201 OA 
HETATM   24  O   UNL     1     -10.427  14.527  66.025  1.00  0.00    -0.288 OA 
HETATM   25  C   UNL     1      -8.995  14.432  66.309  1.00  0.00     0.004 C  
ENDROOT
BRANCH  22  26
HETATM   26  C   UNL     1     -10.582  12.173  68.675  1.00  0.00    -0.223 C  
HETATM   27  O   UNL     1      -9.988  11.384  69.439  1.00  0.00     0.019 OA 
BRANCH  26  28
HETATM   28  C   UNL     1     -11.947  12.671  69.192  1.00  0.00    -0.243 C  
BRANCH  28  29
HETATM   29  O   UNL     1     -11.828  13.903  70.034  1.00  0.00    -0.291 OA 
BRANCH  29  30
HETATM   30  C   UNL     1     -12.365  13.910  71.289  1.00  0.00    -0.335 C  
HETATM   31  C   UNL     1     -12.711  15.139  73.528  1.00  0.00    -0.678 C  
HETATM   32  C   UNL     1     -11.634  16.375  71.684  1.00  0.00    -0.335 C  
HETATM   33  O   UNL     1     -13.218  13.085  71.633  1.00  0.00    -0.386 OA 
HETATM   34  C   UNL     1     -11.815  14.979  72.276  1.00  0.00    -0.441 C  
ENDBRANCH  29  30
ENDBRANCH  28  29
ENDBRANCH  26  28
ENDBRANCH  22  26
BRANCH  25  35
HETATM   35  C   UNL     1      -8.177  15.596  66.907  1.00  0.00    -0.288 C  
HETATM   36  C   UNL     1      -9.016  16.275  68.044  1.00  0.00    -0.187 C  
HETATM   37  C   UNL     1      -6.823  15.192  67.476  1.00  0.00    -0.203 C  
HETATM   38  C   UNL     1      -8.318  17.471  68.673  1.00  0.00    -0.258 C  
HETATM   39  C   UNL     1      -6.920  17.105  69.162  1.00  0.00    -0.224 C  
HETATM   40  C   UNL     1      -6.105  16.409  68.072  1.00  0.00    -0.128 C  
ENDBRANCH  25  35
TORSDOF 5
ENDMDL
MODEL       32
REMARK 921   NORMALIZED FREE ENERGY PREDICTED BY IDOCK:   -6.35 KCAL/MOL
REMARK 922        TOTAL FREE ENERGY PREDICTED BY IDOCK:   -8.53 KCAL/MOL
REMARK 923 INTER-LIGAND FREE ENERGY PREDICTED BY IDOCK:   -7.97 KCAL/MOL
REMARK 924 INTRA-LIGAND FREE ENERGY PREDICTED BY IDOCK:   -0.56 KCAL/MOL
REMARK 927      BINDING AFFINITY PREDICTED BY RF-SCORE:    0.00 PKD
ROOT
HETATM    1  C   UNL     1      -7.826   7.108  68.035  1.00  0.00    -0.118 C  
HETATM    2  C   UNL     1      -7.079   8.624  68.414  1.00  0.00    -0.077 C  
HETATM    3  C   UNL     1      -7.528   9.626  67.190  1.00  0.00    -0.088 C  
HETATM    4  C   UNL     1      -8.244  11.020  66.730  1.00  0.00    -0.149 C  
HETATM    5  C   UNL     1      -9.563  11.229  67.564  1.00  0.00    -0.181 C  
HETATM    6  C   UNL     1     -10.720  11.986  66.970  1.00  0.00    -0.280 C  
HETATM    7  C   UNL     1     -10.942  11.643  65.483  1.00  0.00    -0.327 C  
HETATM    8  C   UNL     1     -12.145  11.869  64.926  1.00  0.00    -0.129 C  
HETATM    9  C   UNL     1     -12.294  13.357  65.061  1.00  0.00    -0.436 C  
HETATM   10  C   UNL     1     -11.006  14.175  64.924  1.00  0.00    -0.405 C  
HETATM   11  O   UNL     1     -13.384  13.856  65.316  1.00  0.00    -0.732 OA 
HETATM   12  C   UNL     1      -9.793  13.555  64.774  1.00  0.00    -0.003 C  
HETATM   13  C   UNL     1      -9.715  12.034  64.629  1.00  0.00    -0.107 C  
HETATM   14  C   UNL     1      -9.814  11.865  63.081  1.00  0.00    -0.279 C  
HETATM   15  C   UNL     1      -8.690  10.968  65.213  1.00  0.00    -0.099 C  
HETATM   16  C   UNL     1      -7.640  10.339  64.295  1.00  0.00    -0.089 C  
HETATM   17  O   UNL     1      -6.349  10.907  64.433  1.00  0.00    -0.355 OA 
HETATM   18  C   UNL     1      -7.706   8.842  64.642  1.00  0.00    -0.119 C  
HETATM   19  C   UNL     1      -7.524   8.555  66.146  1.00  0.00    -0.089 C  
HETATM   20  H   UNL     1      -5.698  10.516  63.864  1.00  0.00     0.000 HD 
HETATM   21  C   UNL     1      -5.923   8.153  66.160  1.00  0.00    -0.041 C  
HETATM   22  C   UNL     1      -8.785   7.650  67.002  1.00  0.00    -0.126 C  
HETATM   23  O   UNL     1      -9.221   6.655  66.160  1.00  0.00    -0.153 OA 
HETATM   24  O   UNL     1      -7.304   5.954  67.298  1.00  0.00    -0.074 OA 
HETATM   25  C   UNL     1      -8.124   5.759  66.102  1.00  0.00    -0.108 C  
ENDROOT
BRANCH  22  26
HETATM   26  C   UNL     1      -9.994   8.100  68.162  1.00  0.00    -0.186 C  
HETATM   27  O   UNL     1     -11.023   8.721  67.820  1.00  0.00    -0.093 OA 
BRANCH  26  28
HETATM   28  C   UNL     1      -9.883   7.815  69.674  1.00  0.00    -0.182 C  
BRANCH  28  29
HETATM   29  O   UNL     1      -9.974   9.059  70.501  1.00  0.00    -0.187 OA 
BRANCH  29  30
HETATM   30  C   UNL     1     -11.202   9.550  70.839  1.00  0.00    -0.341 C  
HETATM   31  C   UNL     1     -13.325   9.360  72.288  1.00  0.00    -0.539 C  
HETATM   32  C   UNL     1     -11.439   7.854  72.798  1.00  0.00    -0.428 C  
HETATM   33  O   UNL     1     -11.573  10.672  70.479  1.00  0.00    -0.315 OA 
HETATM   34  C   UNL     1     -12.126   8.607  71.661  1.00  0.00    -0.385 C  
ENDBRANCH  29  30
ENDBRANCH  28  29
ENDBRANCH  26  28
ENDBRANCH  22  26
BRANCH  25  35
HETATM   35  C   UNL     1      -8.822   4.423  65.768  1.00  0.00    -0.122 C  
HETATM   36  C   UNL     1      -9.306   4.461  64.278  1.00  0.00    -0.126 C  
HETATM   37  C   UNL     1      -7.954   3.188  65.968  1.00  0.00    -0.085 C  
HETATM   38  C   UNL     1     -10.054   3.204  63.857  1.00  0.00    -0.183 C  
HETATM   39  C   UNL     1      -9.233   1.949  64.139  1.00  0.00    -0.118 C  
HETATM   40  C   UNL     1      -8.726   1.920  65.582  1.00  0.00    -0.119 C  
ENDBRANCH  25  35
TORSDOF 5
ENDMDL
MODEL       33
REMARK 921   NORMALIZED FREE ENERGY PREDICTED BY IDOCK:   -6.27 KCAL/MOL
REMARK 922        TOTAL FREE ENERGY PREDICTED BY IDOCK:   -8.42 KCAL/MOL
REMARK 923 INTER-LIGAND FREE ENERGY PREDICTED BY IDOCK:   -7.58 KCAL/MOL
REMARK 924 INTRA-LIGAND FREE ENERGY PREDICTED BY IDOCK:   -0.85 KCAL/MOL
REMARK 927      BINDING AFFINITY PREDICTED BY RF-SCORE:    0.00 PKD
ROOT
HETATM    1  C   UNL     1      -9.499  10.347  67.365  1.00  0.00    -0.149 C  
HETATM    2  C   UNL     1     -10.301   8.914  66.816  1.00  0.00    -0.317 C  
HETATM    3  C   UNL     1      -9.701   7.712  67.765  1.00  0.00    -0.180 C  
HETATM    4  C   UNL     1      -9.994   6.495  68.813  1.00  0.00    -0.155 C  
HETATM    5  C   UNL     1     -11.085   6.953  69.853  1.00  0.00    -0.333 C  
HETATM    6  C   UNL     1     -11.090   6.381  71.244  1.00  0.00    -0.334 C  
HETATM    7  C   UNL     1      -9.667   6.235  71.822  1.00  0.00    -0.168 C  
HETATM    8  C   UNL     1      -9.500   6.166  73.154  1.00  0.00    -0.138 C  
HETATM    9  C   UNL     1     -10.250   4.917  73.514  1.00  0.00    -0.184 C  
HETATM   10  C   UNL     1     -10.202   3.785  72.482  1.00  0.00    -0.232 C  
HETATM   11  O   UNL     1     -10.895   4.851  74.554  1.00  0.00    -0.343 OA 
HETATM   12  C   UNL     1      -9.577   3.962  71.275  1.00  0.00    -0.241 C  
HETATM   13  C   UNL     1      -8.819   5.257  70.980  1.00  0.00    -0.148 C  
HETATM   14  C   UNL     1      -7.387   4.901  71.488  1.00  0.00    -0.070 C  
HETATM   15  C   UNL     1      -8.707   6.138  69.661  1.00  0.00    -0.135 C  
HETATM   16  C   UNL     1      -7.424   6.101  68.826  1.00  0.00    -0.087 C  
HETATM   17  O   UNL     1      -7.522   5.289  67.670  1.00  0.00    -0.081 OA 
HETATM   18  C   UNL     1      -7.144   7.584  68.529  1.00  0.00    -0.081 C  
HETATM   19  C   UNL     1      -8.336   8.312  67.876  1.00  0.00    -0.128 C  
HETATM   20  H   UNL     1      -6.726   5.266  67.152  1.00  0.00     0.000 HD 
HETATM   21  C   UNL     1      -7.868   8.245  66.294  1.00  0.00    -0.098 C  
HETATM   22  C   UNL     1      -8.985   9.763  68.660  1.00  0.00    -0.130 C  
HETATM   23  O   UNL     1      -7.918  10.484  69.140  1.00  0.00    -0.124 OA 
HETATM   24  O   UNL     1      -8.272  10.988  66.886  1.00  0.00    -0.129 OA 
HETATM   25  C   UNL     1      -7.287  10.972  67.968  1.00  0.00    -0.088 C  
ENDROOT
BRANCH  22  26
HETATM   26  C   UNL     1     -10.443  10.088  69.543  1.00  0.00    -0.240 C  
HETATM   27  O   UNL     1     -10.560   9.762  70.744  1.00  0.00    -0.304 OA 
BRANCH  26  28
HETATM   28  C   UNL     1     -11.693  10.749  68.927  1.00  0.00    -0.267 C  
BRANCH  28  29
HETATM   29  O   UNL     1     -12.088  12.005  69.639  1.00  0.00    -0.285 OA 
BRANCH  29  30
HETATM   30  C   UNL     1     -11.829  13.213  69.058  1.00  0.00    -0.313 C  
HETATM   31  C   UNL     1     -11.621  15.771  69.299  1.00  0.00    -0.380 C  
HETATM   32  C   UNL     1     -11.942  14.439  71.351  1.00  0.00    -0.337 C  
HETATM   33  O   UNL     1     -11.311  13.296  67.940  1.00  0.00    -0.255 OA 
HETATM   34  C   UNL     1     -12.260  14.476  69.858  1.00  0.00    -0.379 C  
ENDBRANCH  29  30
ENDBRANCH  28  29
ENDBRANCH  26  28
ENDBRANCH  22  26
BRANCH  25  35
HETATM   35  C   UNL     1      -6.589  12.245  68.489  1.00  0.00    -0.072 C  
HETATM   36  C   UNL     1      -7.618  13.427  68.485  1.00  0.00    -0.127 C  
HETATM   37  C   UNL     1      -5.997  12.118  69.887  1.00  0.00    -0.149 C  
HETATM   38  C   UNL     1      -7.017  14.749  68.939  1.00  0.00    -0.110 C  
HETATM   39  C   UNL     1      -6.337  14.614  70.297  1.00  0.00    -0.171 C  
HETATM   40  C   UNL     1      -5.356  13.441  70.323  1.00  0.00    -0.115 C  
ENDBRANCH  25  35
TORSDOF 5
ENDMDL
MODEL       34
REMARK 921   NORMALIZED FREE ENERGY PREDICTED BY IDOCK:   -6.26 KCAL/MOL
REMARK 922        TOTAL FREE ENERGY PREDICTED BY IDOCK:   -8.41 KCAL/MOL
REMARK 923 INTER-LIGAND FREE ENERGY PREDICTED BY IDOCK:   -8.63 KCAL/MOL
REMARK 924 INTRA-LIGAND FREE ENERGY PREDICTED BY IDOCK:    0.22 KCAL/MOL
REMARK 927      BINDING AFFINITY PREDICTED BY RF-SCORE:    0.00 PKD
ROOT
HETATM    1  C   UNL     1     -11.440  13.613  66.618  1.00  0.00    -0.343 C  
HETATM    2  C   UNL     1     -11.754  12.188  65.683  1.00  0.00    -0.385 C  
HETATM    3  C   UNL     1     -10.512  11.173  66.046  1.00  0.00    -0.312 C  
HETATM    4  C   UNL     1     -10.029   9.715  66.602  1.00  0.00    -0.301 C  
HETATM    5  C   UNL     1     -10.891   9.325  67.861  1.00  0.00    -0.181 C  
HETATM    6  C   UNL     1     -10.305   8.451  68.936  1.00  0.00    -0.231 C  
HETATM    7  C   UNL     1      -8.836   8.804  69.243  1.00  0.00    -0.140 C  
HETATM    8  C   UNL     1      -8.305   8.450  70.426  1.00  0.00    -0.121 C  
HETATM    9  C   UNL     1      -8.398   6.952  70.391  1.00  0.00    -0.130 C  
HETATM   10  C   UNL     1      -8.202   6.299  69.019  1.00  0.00    -0.114 C  
HETATM   11  O   UNL     1      -8.667   6.317  71.405  1.00  0.00    -0.134 OA 
HETATM   12  C   UNL     1      -8.038   7.066  67.894  1.00  0.00    -0.115 C  
HETATM   13  C   UNL     1      -7.938   8.588  68.004  1.00  0.00    -0.111 C  
HETATM   14  C   UNL     1      -6.399   8.785  68.169  1.00  0.00    -0.056 C  
HETATM   15  C   UNL     1      -8.527   9.753  67.097  1.00  0.00    -0.125 C  
HETATM   16  C   UNL     1      -7.600  10.530  66.158  1.00  0.00    -0.135 C  
HETATM   17  O   UNL     1      -7.687  10.118  64.805  1.00  0.00    -0.140 OA 
HETATM   18  C   UNL     1      -7.994  11.998  66.393  1.00  0.00     0.196 C  
HETATM   19  C   UNL     1      -9.501  12.263  66.202  1.00  0.00    -0.221 C  
HETATM   20  H   UNL     1      -7.112  10.600  64.222  1.00  0.00     0.000 HD 
HETATM   21  C   UNL     1      -9.485  12.856  64.661  1.00  0.00     0.469 C  
HETATM   22  C   UNL     1     -10.417  12.987  67.536  1.00  0.00    -0.227 C  
HETATM   23  O   UNL     1      -9.618  13.943  68.113  1.00  0.00    -0.206 OA 
HETATM   24  O   UNL     1     -10.725  14.840  66.261  1.00  0.00    -0.299 OA 
HETATM   25  C   UNL     1      -9.558  14.967  67.134  1.00  0.00    -0.225 C  
ENDROOT
BRANCH  22  26
HETATM   26  C   UNL     1     -11.595  12.363  68.647  1.00  0.00    -0.319 C  
HETATM   27  O   UNL     1     -12.519  11.615  68.261  1.00  0.00    -0.251 OA 
BRANCH  26  28
HETATM   28  C   UNL     1     -11.623  12.702  70.151  1.00  0.00    -0.062 C  
BRANCH  28  29
HETATM   29  O   UNL     1     -12.969  13.170  70.609  1.00  0.00    -0.086 OA 
BRANCH  29  30
HETATM   30  C   UNL     1     -13.068  13.901  71.758  1.00  0.00    -0.377 C  
HETATM   31  C   UNL     1     -12.416  16.011  73.087  1.00  0.00    -0.633 C  
HETATM   32  C   UNL     1     -11.734  15.879  70.720  1.00  0.00    -0.433 C  
HETATM   33  O   UNL     1     -13.926  13.654  72.611  1.00  0.00    -0.733 OA 
HETATM   34  C   UNL     1     -12.017  15.030  71.957  1.00  0.00    -0.464 C  
ENDBRANCH  29  30
ENDBRANCH  28  29
ENDBRANCH  26  28
ENDBRANCH  22  26
BRANCH  25  35
HETATM   35  C   UNL     1      -9.284  16.217  67.997  1.00  0.00    -0.195 C  
HETATM   36  C   UNL     1      -7.743  16.505  67.999  1.00  0.00    -0.163 C  
HETATM   37  C   UNL     1     -10.015  17.474  67.543  1.00  0.00    -0.315 C  
HETATM   38  C   UNL     1      -7.356  17.696  68.863  1.00  0.00    -0.239 C  
HETATM   39  C   UNL     1      -8.150  18.941  68.482  1.00  0.00    -0.383 C  
HETATM   40  C   UNL     1      -9.653  18.662  68.442  1.00  0.00    -0.396 C  
ENDBRANCH  25  35
TORSDOF 5
ENDMDL
MODEL       35
REMARK 921   NORMALIZED FREE ENERGY PREDICTED BY IDOCK:   -6.24 KCAL/MOL
REMARK 922        TOTAL FREE ENERGY PREDICTED BY IDOCK:   -8.39 KCAL/MOL
REMARK 923 INTER-LIGAND FREE ENERGY PREDICTED BY IDOCK:   -7.27 KCAL/MOL
REMARK 924 INTRA-LIGAND FREE ENERGY PREDICTED BY IDOCK:   -1.12 KCAL/MOL
REMARK 927      BINDING AFFINITY PREDICTED BY RF-SCORE:    0.00 PKD
ROOT
HETATM    1  C   UNL     1      -6.836  11.672  66.758  1.00  0.00    -0.086 C  
HETATM    2  C   UNL     1      -7.228  10.037  66.340  1.00  0.00    -0.103 C  
HETATM    3  C   UNL     1      -7.765   9.368  67.743  1.00  0.00    -0.088 C  
HETATM    4  C   UNL     1      -8.960   8.591  68.540  1.00  0.00    -0.139 C  
HETATM    5  C   UNL     1     -10.346   9.234  68.161  1.00  0.00    -0.261 C  
HETATM    6  C   UNL     1     -11.482   9.218  69.147  1.00  0.00     0.350 C  
HETATM    7  C   UNL     1     -11.010   9.502  70.588  1.00  0.00    -0.370 C  
HETATM    8  C   UNL     1     -11.894   9.951  71.496  1.00  0.00    -0.445 C  
HETATM    9  C   UNL     1     -12.885   8.826  71.572  1.00  0.00    -0.325 C  
HETATM   10  C   UNL     1     -12.311   7.415  71.409  1.00  0.00    -0.394 C  
HETATM   11  O   UNL     1     -14.082   9.053  71.705  1.00  0.00    -0.374 OA 
HETATM   12  C   UNL     1     -10.984   7.225  71.127  1.00  0.00    -0.267 C  
HETATM   13  C   UNL     1     -10.026   8.416  71.078  1.00  0.00    -0.235 C  
HETATM   14  C   UNL     1      -9.538   8.482  72.559  1.00  0.00    -0.324 C  
HETATM   15  C   UNL     1      -8.815   8.759  70.107  1.00  0.00    -0.160 C  
HETATM   16  C   UNL     1      -7.374   8.605  70.601  1.00  0.00    -0.064 C  
HETATM   17  O   UNL     1      -6.742   7.420  70.149  1.00  0.00    -0.048 OA 
HETATM   18  C   UNL     1      -6.689   9.899  70.130  1.00  0.00    -0.112 C  
HETATM   19  C   UNL     1      -6.845  10.157  68.618  1.00  0.00    -0.057 C  
HETATM   20  H   UNL     1      -5.848   7.324  70.456  1.00  0.00     0.000 HD 
HETATM   21  C   UNL     1      -5.390   9.583  68.089  1.00  0.00    -0.037 C  
HETATM   22  C   UNL     1      -7.566  11.684  68.081  1.00  0.00    -0.115 C  
HETATM   23  O   UNL     1      -7.088  12.676  68.902  1.00  0.00    -0.100 OA 
HETATM   24  O   UNL     1      -5.563  12.262  67.180  1.00  0.00    -0.183 OA 
HETATM   25  C   UNL     1      -5.723  12.787  68.537  1.00  0.00    -0.061 C  
ENDROOT
BRANCH  22  26
HETATM   26  C   UNL     1      -9.101  12.095  67.385  1.00  0.00    -0.181 C  
HETATM   27  O   UNL     1      -9.310  11.977  66.158  1.00  0.00    -0.229 OA 
BRANCH  26  28
HETATM   28  C   UNL     1     -10.287  12.663  68.191  1.00  0.00    -0.234 C  
BRANCH  28  29
HETATM   29  O   UNL     1     -10.941  13.824  67.509  1.00  0.00    -0.265 OA 
BRANCH  29  30
HETATM   30  C   UNL     1     -10.978  15.036  68.138  1.00  0.00    -0.279 C  
HETATM   31  C   UNL     1     -10.339  17.532  68.143  1.00  0.00    -0.375 C  
HETATM   32  C   UNL     1      -9.873  16.224  66.104  1.00  0.00    -0.358 C  
HETATM   33  O   UNL     1     -11.736  15.248  69.089  1.00  0.00    -0.302 OA 
HETATM   34  C   UNL     1      -9.986  16.117  67.623  1.00  0.00    -0.241 C  
ENDBRANCH  29  30
ENDBRANCH  28  29
ENDBRANCH  26  28
ENDBRANCH  22  26
BRANCH  25  35
HETATM   35  C   UNL     1      -5.409  14.249  68.916  1.00  0.00    -0.087 C  
HETATM   36  C   UNL     1      -5.914  15.191  67.770  1.00  0.00    -0.150 C  
HETATM   37  C   UNL     1      -6.022  14.709  70.232  1.00  0.00    -0.159 C  
HETATM   38  C   UNL     1      -5.610  16.661  68.022  1.00  0.00    -0.127 C  
HETATM   39  C   UNL     1      -6.136  17.112  69.381  1.00  0.00    -0.230 C  
HETATM   40  C   UNL     1      -5.678  16.179  70.502  1.00  0.00    -0.053 C  
ENDBRANCH  25  35
TORSDOF 5
ENDMDL
MODEL       36
REMARK 921   NORMALIZED FREE ENERGY PREDICTED BY IDOCK:   -6.16 KCAL/MOL
REMARK 922        TOTAL FREE ENERGY PREDICTED BY IDOCK:   -8.29 KCAL/MOL
REMARK 923 INTER-LIGAND FREE ENERGY PREDICTED BY IDOCK:   -6.99 KCAL/MOL
REMARK 924 INTRA-LIGAND FREE ENERGY PREDICTED BY IDOCK:   -1.30 KCAL/MOL
REMARK 927      BINDING AFFINITY PREDICTED BY RF-SCORE:    0.00 PKD
ROOT
HETATM    1  C   UNL     1     -10.390  12.490  67.723  1.00  0.00    -0.222 C  
HETATM    2  C   UNL     1     -11.519  11.388  67.007  1.00  0.00    -0.234 C  
HETATM    3  C   UNL     1     -10.583  10.211  66.339  1.00  0.00    -0.155 C  
HETATM    4  C   UNL     1     -10.213   8.624  66.237  1.00  0.00    -0.121 C  
HETATM    5  C   UNL     1     -10.205   7.996  67.681  1.00  0.00    -0.291 C  
HETATM    6  C   UNL     1      -9.311   6.826  67.991  1.00  0.00    -0.118 C  
HETATM    7  C   UNL     1      -7.921   6.963  67.337  1.00  0.00    -0.112 C  
HETATM    8  C   UNL     1      -6.883   6.270  67.840  1.00  0.00    -0.067 C  
HETATM    9  C   UNL     1      -7.319   4.846  67.653  1.00  0.00    -0.078 C  
HETATM   10  C   UNL     1      -8.144   4.557  66.395  1.00  0.00    -0.103 C  
HETATM   11  O   UNL     1      -7.061   3.996  68.497  1.00  0.00    -0.053 OA 
HETATM   12  C   UNL     1      -8.520   5.571  65.553  1.00  0.00    -0.144 C  
HETATM   13  C   UNL     1      -8.029   6.999  65.796  1.00  0.00    -0.116 C  
HETATM   14  C   UNL     1      -6.706   7.016  64.968  1.00  0.00    -0.047 C  
HETATM   15  C   UNL     1      -8.757   8.405  65.658  1.00  0.00    -0.204 C  
HETATM   16  C   UNL     1      -8.435   9.317  64.471  1.00  0.00    -0.181 C  
HETATM   17  O   UNL     1      -9.410   9.278  63.444  1.00  0.00    -0.439 OA 
HETATM   18  C   UNL     1      -8.259  10.702  65.116  1.00  0.00    -0.092 C  
HETATM   19  C   UNL     1      -9.466  11.135  65.972  1.00  0.00    -0.234 C  
HETATM   20  H   UNL     1      -9.210   9.844  62.707  1.00  0.00     0.000 HD 
HETATM   21  C   UNL     1     -10.244  12.103  64.885  1.00  0.00    -0.309 C  
HETATM   22  C   UNL     1      -9.199  11.563  67.672  1.00  0.00    -0.171 C  
HETATM   23  O   UNL     1      -8.020  12.266  67.738  1.00  0.00    -0.131 OA 
HETATM   24  O   UNL     1      -9.776  13.703  67.178  1.00  0.00    -0.232 OA 
HETATM   25  C   UNL     1      -8.328  13.499  67.111  1.00  0.00    -0.139 C  
ENDROOT
BRANCH  22  26
HETATM   26  C   UNL     1      -9.575  10.775  69.171  1.00  0.00    -0.151 C  
HETATM   27  O   UNL     1     -10.684  10.929  69.725  1.00  0.00    -0.225 OA 
BRANCH  26  28
HETATM   28  C   UNL     1      -8.586   9.877  69.943  1.00  0.00    -0.194 C  
BRANCH  28  29
HETATM   29  O   UNL     1      -9.173   9.331  71.206  1.00  0.00    -0.240 OA 
BRANCH  29  30
HETATM   30  C   UNL     1      -9.243   7.978  71.381  1.00  0.00    -0.144 C  
HETATM   31  C   UNL     1     -10.694   5.862  71.621  1.00  0.00    -0.308 C  
HETATM   32  C   UNL     1     -11.821   7.977  71.033  1.00  0.00    -0.280 C  
HETATM   33  O   UNL     1      -8.248   7.257  71.256  1.00  0.00    -0.105 OA 
HETATM   34  C   UNL     1     -10.627   7.400  71.791  1.00  0.00    -0.228 C  
ENDBRANCH  29  30
ENDBRANCH  28  29
ENDBRANCH  26  28
ENDBRANCH  22  26
BRANCH  25  35
HETATM   35  C   UNL     1      -7.313  14.456  67.772  1.00  0.00    -0.186 C  
HETATM   36  C   UNL     1      -7.399  15.853  67.068  1.00  0.00    -0.243 C  
HETATM   37  C   UNL     1      -7.508  14.651  69.270  1.00  0.00    -0.132 C  
HETATM   38  C   UNL     1      -6.400  16.863  67.614  1.00  0.00    -0.166 C  
HETATM   39  C   UNL     1      -6.520  17.000  69.129  1.00  0.00    -0.221 C  
HETATM   40  C   UNL     1      -6.473  15.638  69.823  1.00  0.00    -0.169 C  
ENDBRANCH  25  35
TORSDOF 5
ENDMDL
MODEL       37
REMARK 921   NORMALIZED FREE ENERGY PREDICTED BY IDOCK:   -6.14 KCAL/MOL
REMARK 922        TOTAL FREE ENERGY PREDICTED BY IDOCK:   -8.26 KCAL/MOL
REMARK 923 INTER-LIGAND FREE ENERGY PREDICTED BY IDOCK:   -7.34 KCAL/MOL
REMARK 924 INTRA-LIGAND FREE ENERGY PREDICTED BY IDOCK:   -0.92 KCAL/MOL
REMARK 927      BINDING AFFINITY PREDICTED BY RF-SCORE:    0.00 PKD
ROOT
HETATM    1  C   UNL     1      -8.841   7.430  69.760  1.00  0.00    -0.141 C  
HETATM    2  C   UNL     1      -9.962   7.577  68.446  1.00  0.00    -0.185 C  
HETATM    3  C   UNL     1     -10.697   9.028  68.688  1.00  0.00    -0.137 C  
HETATM    4  C   UNL     1     -11.074  10.506  68.105  1.00  0.00    -0.346 C  
HETATM    5  C   UNL     1      -9.821  11.113  67.371  1.00  0.00    -0.195 C  
HETATM    6  C   UNL     1      -9.622  12.604  67.323  1.00  0.00    -0.203 C  
HETATM    7  C   UNL     1      -9.982  13.286  68.659  1.00  0.00    -0.127 C  
HETATM    8  C   UNL     1      -9.470  14.496  68.941  1.00  0.00    -0.144 C  
HETATM    9  C   UNL     1     -10.032  15.353  67.845  1.00  0.00    -0.221 C  
HETATM   10  C   UNL     1     -11.446  14.997  67.373  1.00  0.00    -0.326 C  
HETATM   11  O   UNL     1      -9.360  16.245  67.340  1.00  0.00    -0.218 OA 
HETATM   12  C   UNL     1     -12.100  13.904  67.879  1.00  0.00    -0.318 C  
HETATM   13  C   UNL     1     -11.474  13.082  69.006  1.00  0.00    -0.353 C  
HETATM   14  C   UNL     1     -12.039  13.805  70.268  1.00  0.00    -0.425 C  
HETATM   15  C   UNL     1     -11.428  11.515  69.271  1.00  0.00    -0.370 C  
HETATM   16  C   UNL     1     -12.317  10.899  70.355  1.00  0.00    -0.351 C  
HETATM   17  O   UNL     1     -13.480  10.270  69.847  1.00  0.00    -0.418 OA 
HETATM   18  C   UNL     1     -11.367   9.949  71.105  1.00  0.00    -0.443 C  
HETATM   19  C   UNL     1     -10.658   8.940  70.180  1.00  0.00    -0.243 C  
HETATM   20  H   UNL     1     -14.031   9.888  70.520  1.00  0.00     0.000 HD 
HETATM   21  C   UNL     1     -11.628   7.624  70.412  1.00  0.00    -0.138 C  
HETATM   22  C   UNL     1      -8.886   8.881  70.178  1.00  0.00    -0.163 C  
HETATM   23  O   UNL     1      -8.468   9.036  71.477  1.00  0.00    -0.308 OA 
HETATM   24  O   UNL     1      -8.998   6.796  71.071  1.00  0.00    -0.144 OA 
HETATM   25  C   UNL     1      -8.857   7.825  72.103  1.00  0.00    -0.133 C  
ENDROOT
BRANCH  22  26
HETATM   26  C   UNL     1      -7.680   9.388  69.038  1.00  0.00    -0.075 C  
HETATM   27  O   UNL     1      -7.427  10.598  68.857  1.00  0.00    -0.090 OA 
BRANCH  26  28
HETATM   28  C   UNL     1      -6.873   8.418  68.152  1.00  0.00    -0.069 C  
BRANCH  28  29
HETATM   29  O   UNL     1      -6.717   8.917  66.749  1.00  0.00    -0.070 OA 
BRANCH  29  30
HETATM   30  C   UNL     1      -6.688   8.021  65.720  1.00  0.00    -0.048 C  
HETATM   31  C   UNL     1      -7.808   7.058  63.607  1.00  0.00    -0.112 C  
HETATM   32  C   UNL     1      -8.797   9.078  64.622  1.00  0.00    -0.139 C  
HETATM   33  O   UNL     1      -5.664   7.389  65.440  1.00  0.00    -0.035 OA 
HETATM   34  C   UNL     1      -8.020   7.804  64.948  1.00  0.00    -0.139 C  
ENDBRANCH  29  30
ENDBRANCH  28  29
ENDBRANCH  26  28
ENDBRANCH  22  26
BRANCH  25  35
HETATM   35  C   UNL     1      -7.841   7.722  73.260  1.00  0.00    -0.168 C  
HETATM   36  C   UNL     1      -7.378   6.231  73.399  1.00  0.00    -0.087 C  
HETATM   37  C   UNL     1      -6.609   8.603  73.102  1.00  0.00    -0.034 C  
HETATM   38  C   UNL     1      -6.405   6.009  74.547  1.00  0.00    -0.070 C  
HETATM   39  C   UNL     1      -5.210   6.952  74.454  1.00  0.00    -0.046 C  
HETATM   40  C   UNL     1      -5.651   8.406  74.283  1.00  0.00    -0.100 C  
ENDBRANCH  25  35
TORSDOF 5
ENDMDL
MODEL       38
REMARK 921   NORMALIZED FREE ENERGY PREDICTED BY IDOCK:   -6.14 KCAL/MOL
REMARK 922        TOTAL FREE ENERGY PREDICTED BY IDOCK:   -8.26 KCAL/MOL
REMARK 923 INTER-LIGAND FREE ENERGY PREDICTED BY IDOCK:   -6.75 KCAL/MOL
REMARK 924 INTRA-LIGAND FREE ENERGY PREDICTED BY IDOCK:   -1.51 KCAL/MOL
REMARK 927      BINDING AFFINITY PREDICTED BY RF-SCORE:    0.00 PKD
ROOT
HETATM    1  C   UNL     1      -9.192   8.747  71.654  1.00  0.00    -0.263 C  
HETATM    2  C   UNL     1      -8.243   7.310  71.843  1.00  0.00    -0.106 C  
HETATM    3  C   UNL     1      -8.455   6.485  70.437  1.00  0.00    -0.131 C  
HETATM    4  C   UNL     1      -7.781   5.780  69.127  1.00  0.00    -0.090 C  
HETATM    5  C   UNL     1      -6.638   6.706  68.565  1.00  0.00    -0.051 C  
HETATM    6  C   UNL     1      -6.306   6.692  67.098  1.00  0.00    -0.041 C  
HETATM    7  C   UNL     1      -7.567   6.613  66.214  1.00  0.00    -0.090 C  
HETATM    8  C   UNL     1      -7.503   7.021  64.934  1.00  0.00    -0.095 C  
HETATM    9  C   UNL     1      -6.491   6.084  64.342  1.00  0.00    -0.033 C  
HETATM   10  C   UNL     1      -6.499   4.654  64.892  1.00  0.00    -0.036 C  
HETATM   11  O   UNL     1      -5.686   6.478  63.507  1.00  0.00    -0.028 OA 
HETATM   12  C   UNL     1      -7.332   4.303  65.922  1.00  0.00    -0.080 C  
HETATM   13  C   UNL     1      -8.349   5.305  66.470  1.00  0.00    -0.108 C  
HETATM   14  C   UNL     1      -9.591   5.005  65.575  1.00  0.00    -0.105 C  
HETATM   15  C   UNL     1      -8.829   5.620  67.952  1.00  0.00    -0.105 C  
HETATM   16  C   UNL     1     -10.201   5.136  68.428  1.00  0.00    -0.105 C  
HETATM   17  O   UNL     1     -10.146   3.971  69.232  1.00  0.00    -0.001 OA 
HETATM   18  C   UNL     1     -10.790   6.364  69.144  1.00  0.00    -0.382 C  
HETATM   19  C   UNL     1      -9.870   6.927  70.245  1.00  0.00    -0.186 C  
HETATM   20  H   UNL     1     -10.997   3.671  69.527  1.00  0.00     0.000 HD 
HETATM   21  C   UNL     1     -10.566   6.230  71.570  1.00  0.00    -0.282 C  
HETATM   22  C   UNL     1      -9.377   8.628  70.160  1.00  0.00    -0.164 C  
HETATM   23  O   UNL     1     -10.465   9.351  69.735  1.00  0.00    -0.203 OA 
HETATM   24  O   UNL     1     -10.576   9.025  72.047  1.00  0.00    -0.345 OA 
HETATM   25  C   UNL     1     -11.354   9.300  70.838  1.00  0.00    -0.308 C  
ENDROOT
BRANCH  22  26
HETATM   26  C   UNL     1      -7.879   9.414  69.775  1.00  0.00    -0.115 C  
HETATM   27  O   UNL     1      -6.967   9.524  70.622  1.00  0.00    -0.101 OA 
BRANCH  26  28
HETATM   28  C   UNL     1      -7.574  10.062  68.409  1.00  0.00    -0.083 C  
BRANCH  28  29
HETATM   29  O   UNL     1      -8.633  11.029  67.982  1.00  0.00    -0.126 OA 
BRANCH  29  30
HETATM   30  C   UNL     1      -8.871  11.216  66.651  1.00  0.00    -0.166 C  
HETATM   31  C   UNL     1      -9.834  10.311  64.438  1.00  0.00    -0.374 C  
HETATM   32  C   UNL     1     -10.254   9.018  66.497  1.00  0.00    -0.318 C  
HETATM   33  O   UNL     1      -8.755  12.327  66.122  1.00  0.00    -0.034 OA 
HETATM   34  C   UNL     1      -9.250   9.953  65.826  1.00  0.00    -0.228 C  
ENDBRANCH  29  30
ENDBRANCH  28  29
ENDBRANCH  26  28
ENDBRANCH  22  26
BRANCH  25  35
HETATM   35  C   UNL     1     -12.178  10.590  70.644  1.00  0.00    -0.446 C  
HETATM   36  C   UNL     1     -12.667  11.097  72.044  1.00  0.00    -0.144 C  
HETATM   37  C   UNL     1     -11.432  11.721  69.948  1.00  0.00    -0.285 C  
HETATM   38  C   UNL     1     -13.534  12.344  71.962  1.00  0.00    -0.460 C  
HETATM   39  C   UNL     1     -12.836  13.456  71.185  1.00  0.00    -0.372 C  
HETATM   40  C   UNL     1     -12.324  12.963  69.831  1.00  0.00    -0.156 C  
ENDBRANCH  25  35
TORSDOF 5
ENDMDL
MODEL       39
REMARK 921   NORMALIZED FREE ENERGY PREDICTED BY IDOCK:   -6.09 KCAL/MOL
REMARK 922        TOTAL FREE ENERGY PREDICTED BY IDOCK:   -8.20 KCAL/MOL
REMARK 923 INTER-LIGAND FREE ENERGY PREDICTED BY IDOCK:   -6.83 KCAL/MOL
REMARK 924 INTRA-LIGAND FREE ENERGY PREDICTED BY IDOCK:   -1.37 KCAL/MOL
REMARK 927      BINDING AFFINITY PREDICTED BY RF-SCORE:    0.00 PKD
ROOT
HETATM    1  C   UNL     1      -7.713   5.075  66.146  1.00  0.00    -0.091 C  
HETATM    2  C   UNL     1      -8.155   3.879  67.319  1.00  0.00    -0.091 C  
HETATM    3  C   UNL     1      -8.253   4.706  68.738  1.00  0.00    -0.082 C  
HETATM    4  C   UNL     1      -9.148   5.134  70.034  1.00  0.00    -0.163 C  
HETATM    5  C   UNL     1     -10.604   5.505  69.564  1.00  0.00    -0.366 C  
HETATM    6  C   UNL     1     -11.414   6.512  70.335  1.00  0.00    -0.465 C  
HETATM    7  C   UNL     1     -10.563   7.708  70.809  1.00  0.00    -0.224 C  
HETATM    8  C   UNL     1     -11.168   8.870  71.111  1.00  0.00    -0.352 C  
HETATM    9  C   UNL     1     -12.062   8.486  72.255  1.00  0.00    -0.387 C  
HETATM   10  C   UNL     1     -11.513   7.416  73.204  1.00  0.00    -0.105 C  
HETATM   11  O   UNL     1     -13.179   8.977  72.369  1.00  0.00    -0.420 OA 
HETATM   12  C   UNL     1     -10.314   6.802  72.952  1.00  0.00    -0.245 C  
HETATM   13  C   UNL     1      -9.447   7.253  71.776  1.00  0.00    -0.162 C  
HETATM   14  C   UNL     1      -8.563   8.350  72.445  1.00  0.00    -0.261 C  
HETATM   15  C   UNL     1      -8.572   6.432  70.733  1.00  0.00    -0.135 C  
HETATM   16  C   UNL     1      -7.046   6.424  70.858  1.00  0.00    -0.070 C  
HETATM   17  O   UNL     1      -6.531   5.246  71.453  1.00  0.00    -0.032 OA 
HETATM   18  C   UNL     1      -6.563   6.661  69.417  1.00  0.00    -0.048 C  
HETATM   19  C   UNL     1      -7.148   5.656  68.404  1.00  0.00    -0.070 C  
HETATM   20  H   UNL     1      -5.584   5.241  71.530  1.00  0.00     0.000 HD 
HETATM   21  C   UNL     1      -5.885   4.598  68.304  1.00  0.00    -0.025 C  
HETATM   22  C   UNL     1      -8.039   6.276  67.003  1.00  0.00    -0.109 C  
HETATM   23  O   UNL     1      -7.380   7.396  66.558  1.00  0.00    -0.080 OA 
HETATM   24  O   UNL     1      -6.392   5.479  65.658  1.00  0.00    -0.036 OA 
HETATM   25  C   UNL     1      -6.178   6.884  66.009  1.00  0.00    -0.039 C  
ENDROOT
BRANCH  22  26
HETATM   26  C   UNL     1      -9.721   6.294  66.575  1.00  0.00    -0.137 C  
HETATM   27  O   UNL     1     -10.233   5.364  65.916  1.00  0.00    -0.100 OA 
BRANCH  26  28
HETATM   28  C   UNL     1     -10.685   7.446  66.927  1.00  0.00    -0.254 C  
BRANCH  28  29
HETATM   29  O   UNL     1      -9.967   8.673  67.396  1.00  0.00    -0.177 OA 
BRANCH  29  30
HETATM   30  C   UNL     1     -10.527   9.899  67.178  1.00  0.00    -0.242 C  
HETATM   31  C   UNL     1     -10.791  11.958  65.651  1.00  0.00    -0.333 C  
HETATM   32  C   UNL     1      -9.552  10.016  64.769  1.00  0.00    -0.374 C  
HETATM   33  O   UNL     1     -11.468  10.312  67.863  1.00  0.00    -0.346 OA 
HETATM   34  C   UNL     1      -9.890  10.766  66.055  1.00  0.00    -0.285 C  
ENDBRANCH  29  30
ENDBRANCH  28  29
ENDBRANCH  26  28
ENDBRANCH  22  26
BRANCH  25  35
HETATM   35  C   UNL     1      -5.815   7.965  64.970  1.00  0.00    -0.037 C  
HETATM   36  C   UNL     1      -6.643   7.712  63.663  1.00  0.00    -0.058 C  
HETATM   37  C   UNL     1      -6.058   9.396  65.432  1.00  0.00    -0.064 C  
HETATM   38  C   UNL     1      -6.325   8.699  62.550  1.00  0.00    -0.095 C  
HETATM   39  C   UNL     1      -6.473  10.141  63.026  1.00  0.00    -0.136 C  
HETATM   40  C   UNL     1      -5.697  10.389  64.321  1.00  0.00    -0.130 C  
ENDBRANCH  25  35
TORSDOF 5
ENDMDL
MODEL       40
REMARK 921   NORMALIZED FREE ENERGY PREDICTED BY IDOCK:   -6.06 KCAL/MOL
REMARK 922        TOTAL FREE ENERGY PREDICTED BY IDOCK:   -8.16 KCAL/MOL
REMARK 923 INTER-LIGAND FREE ENERGY PREDICTED BY IDOCK:   -7.22 KCAL/MOL
REMARK 924 INTRA-LIGAND FREE ENERGY PREDICTED BY IDOCK:   -0.94 KCAL/MOL
REMARK 927      BINDING AFFINITY PREDICTED BY RF-SCORE:    0.00 PKD
ROOT
HETATM    1  C   UNL     1      -7.940   9.219  67.795  1.00  0.00    -0.100 C  
HETATM    2  C   UNL     1      -8.186   9.964  66.250  1.00  0.00    -0.114 C  
HETATM    3  C   UNL     1      -9.202  11.221  66.553  1.00  0.00    -0.200 C  
HETATM    4  C   UNL     1      -9.488  12.826  66.464  1.00  0.00    -0.253 C  
HETATM    5  C   UNL     1      -8.183  13.612  66.862  1.00  0.00     0.044 C  
HETATM    6  C   UNL     1      -8.284  14.973  67.496  1.00  0.00    -0.199 C  
HETATM    7  C   UNL     1      -9.428  15.054  68.527  1.00  0.00    -0.203 C  
HETATM    8  C   UNL     1      -9.394  16.005  69.478  1.00  0.00    -0.146 C  
HETATM    9  C   UNL     1      -9.436  17.272  68.674  1.00  0.00    -0.278 C  
HETATM   10  C   UNL     1     -10.276  17.227  67.393  1.00  0.00    -0.325 C  
HETATM   11  O   UNL     1      -8.787  18.254  69.017  1.00  0.00    -0.173 OA 
HETATM   12  C   UNL     1     -10.872  16.062  66.986  1.00  0.00    -0.227 C  
HETATM   13  C   UNL     1     -10.800  14.810  67.861  1.00  0.00    -0.269 C  
HETATM   14  C   UNL     1     -12.081  14.971  68.738  1.00  0.00    -0.215 C  
HETATM   15  C   UNL     1     -10.600  13.275  67.496  1.00  0.00    -0.251 C  
HETATM   16  C   UNL     1     -11.790  12.315  67.559  1.00  0.00    -0.261 C  
HETATM   17  O   UNL     1     -12.352  12.023  66.292  1.00  0.00    -0.432 OA 
HETATM   18  C   UNL     1     -11.226  11.086  68.293  1.00  0.00    -0.340 C  
HETATM   19  C   UNL     1      -9.952  10.516  67.639  1.00  0.00    -0.202 C  
HETATM   20  H   UNL     1     -13.091  11.427  66.331  1.00  0.00     0.000 HD 
HETATM   21  C   UNL     1     -10.617   9.282  66.767  1.00  0.00    -0.207 C  
HETATM   22  C   UNL     1      -8.483  10.363  68.619  1.00  0.00    -0.129 C  
HETATM   23  O   UNL     1      -8.864   9.937  69.868  1.00  0.00    -0.203 OA 
HETATM   24  O   UNL     1      -8.647   8.106  68.432  1.00  0.00    -0.129 OA 
HETATM   25  C   UNL     1      -9.283   8.600  69.654  1.00  0.00    -0.157 C  
ENDROOT
BRANCH  22  26
HETATM   26  C   UNL     1      -6.980  11.230  68.654  1.00  0.00    -0.084 C  
HETATM   27  O   UNL     1      -6.199  11.214  67.680  1.00  0.00    -0.050 OA 
BRANCH  26  28
HETATM   28  C   UNL     1      -6.480  12.034  69.872  1.00  0.00    -0.029 C  
BRANCH  28  29
HETATM   29  O   UNL     1      -5.643  13.210  69.478  1.00  0.00    -0.079 OA 
BRANCH  29  30
HETATM   30  C   UNL     1      -5.827  14.405  70.112  1.00  0.00    -0.140 C  
HETATM   31  C   UNL     1      -5.710  16.979  70.035  1.00  0.00    -0.227 C  
HETATM   32  C   UNL     1      -5.305  15.740  67.940  1.00  0.00    -0.142 C  
HETATM   33  O   UNL     1      -6.459  14.486  71.170  1.00  0.00     0.031 OA 
HETATM   34  C   UNL     1      -5.162  15.650  69.458  1.00  0.00    -0.103 C  
ENDBRANCH  29  30
ENDBRANCH  28  29
ENDBRANCH  26  28
ENDBRANCH  22  26
BRANCH  25  35
HETATM   35  C   UNL     1      -9.047   7.966  71.041  1.00  0.00    -0.155 C  
HETATM   36  C   UNL     1      -7.750   8.583  71.668  1.00  0.00    -0.150 C  
HETATM   37  C   UNL     1     -10.197   8.145  72.024  1.00  0.00    -0.316 C  
HETATM   38  C   UNL     1      -7.397   7.990  73.024  1.00  0.00    -0.141 C  
HETATM   39  C   UNL     1      -8.573   8.076  73.992  1.00  0.00    -0.296 C  
HETATM   40  C   UNL     1      -9.853   7.509  73.377  1.00  0.00    -0.365 C  
ENDBRANCH  25  35
TORSDOF 5
ENDMDL
MODEL       41
REMARK 921   NORMALIZED FREE ENERGY PREDICTED BY IDOCK:   -6.06 KCAL/MOL
REMARK 922        TOTAL FREE ENERGY PREDICTED BY IDOCK:   -8.15 KCAL/MOL
REMARK 923 INTER-LIGAND FREE ENERGY PREDICTED BY IDOCK:   -6.97 KCAL/MOL
REMARK 924 INTRA-LIGAND FREE ENERGY PREDICTED BY IDOCK:   -1.18 KCAL/MOL
REMARK 927      BINDING AFFINITY PREDICTED BY RF-SCORE:    0.00 PKD
ROOT
HETATM    1  C   UNL     1     -11.634  12.015  67.691  1.00  0.00    -0.321 C  
HETATM    2  C   UNL     1     -12.651  13.394  67.433  1.00  0.00     0.404 C  
HETATM    3  C   UNL     1     -11.710  14.683  67.828  1.00  0.00    -0.386 C  
HETATM    4  C   UNL     1     -11.047  16.106  67.379  1.00  0.00    -0.134 C  
HETATM    5  C   UNL     1     -10.495  15.984  65.909  1.00  0.00    -0.373 C  
HETATM    6  C   UNL     1      -9.317  16.814  65.474  1.00  0.00     0.391 C  
HETATM    7  C   UNL     1      -8.233  16.911  66.566  1.00  0.00    -0.320 C  
HETATM    8  C   UNL     1      -6.971  17.219  66.219  1.00  0.00    -0.299 C  
HETATM    9  C   UNL     1      -7.121  18.590  65.626  1.00  0.00    -0.170 C  
HETATM   10  C   UNL     1      -8.185  19.486  66.269  1.00  0.00    -0.354 C  
HETATM   11  O   UNL     1      -6.456  18.929  64.654  1.00  0.00    -0.500 OA 
HETATM   12  C   UNL     1      -8.994  19.009  67.267  1.00  0.00    -0.308 C  
HETATM   13  C   UNL     1      -8.777  17.606  67.834  1.00  0.00    -0.245 C  
HETATM   14  C   UNL     1      -7.780  17.893  68.999  1.00  0.00    -0.122 C  
HETATM   15  C   UNL     1      -9.803  16.477  68.283  1.00  0.00    -0.243 C  
HETATM   16  C   UNL     1     -10.036  16.208  69.772  1.00  0.00    -0.162 C  
HETATM   17  O   UNL     1     -11.229  16.785  70.274  1.00  0.00    -0.466 OA 
HETATM   18  C   UNL     1      -9.991  14.673  69.874  1.00  0.00     0.301 C  
HETATM   19  C   UNL     1     -10.970  13.969  68.914  1.00  0.00    -0.283 C  
HETATM   20  H   UNL     1     -11.373  16.617  71.198  1.00  0.00     0.000 HD 
HETATM   21  C   UNL     1     -12.215  13.674  69.957  1.00  0.00    -0.395 C  
HETATM   22  C   UNL     1     -10.334  12.780  67.764  1.00  0.00    -0.221 C  
HETATM   23  O   UNL     1      -9.367  12.053  68.416  1.00  0.00    -0.200 OA 
HETATM   24  O   UNL     1     -11.479  11.161  68.871  1.00  0.00    -0.242 OA 
HETATM   25  C   UNL     1     -10.101  11.279  69.350  1.00  0.00     0.103 C  
ENDROOT
BRANCH  22  26
HETATM   26  C   UNL     1     -10.090  12.798  66.046  1.00  0.00    -0.268 C  
HETATM   27  O   UNL     1      -9.261  13.568  65.516  1.00  0.00     0.237 OA 
BRANCH  26  28
HETATM   28  C   UNL     1     -10.882  11.920  65.056  1.00  0.00    -0.300 C  
BRANCH  28  29
HETATM   29  O   UNL     1     -10.080  10.764  64.545  1.00  0.00    -0.303 OA 
BRANCH  29  30
HETATM   30  C   UNL     1      -9.735   9.758  65.401  1.00  0.00    -0.313 C  
HETATM   31  C   UNL     1      -7.887   8.313  66.469  1.00  0.00    -0.093 C  
HETATM   32  C   UNL     1      -7.197  10.220  65.063  1.00  0.00    -0.111 C  
HETATM   33  O   UNL     1     -10.536   9.307  66.226  1.00  0.00    -0.188 OA 
HETATM   34  C   UNL     1      -8.299   9.180  65.253  1.00  0.00    -0.152 C  
ENDBRANCH  29  30
ENDBRANCH  28  29
ENDBRANCH  26  28
ENDBRANCH  22  26
BRANCH  25  35
HETATM   35  C   UNL     1      -9.174  10.062  69.553  1.00  0.00    -0.238 C  
HETATM   36  C   UNL     1      -7.688  10.558  69.606  1.00  0.00    -0.119 C  
HETATM   37  C   UNL     1      -9.461   9.248  70.807  1.00  0.00    -0.336 C  
HETATM   38  C   UNL     1      -6.682   9.427  69.757  1.00  0.00    -0.053 C  
HETATM   39  C   UNL     1      -7.013   8.545  70.957  1.00  0.00    -0.062 C  
HETATM   40  C   UNL     1      -8.471   8.084  70.933  1.00  0.00    -0.126 C  
ENDBRANCH  25  35
TORSDOF 5
ENDMDL
MODEL       42
REMARK 921   NORMALIZED FREE ENERGY PREDICTED BY IDOCK:   -6.04 KCAL/MOL
REMARK 922        TOTAL FREE ENERGY PREDICTED BY IDOCK:   -8.13 KCAL/MOL
REMARK 923 INTER-LIGAND FREE ENERGY PREDICTED BY IDOCK:   -7.32 KCAL/MOL
REMARK 924 INTRA-LIGAND FREE ENERGY PREDICTED BY IDOCK:   -0.81 KCAL/MOL
REMARK 927      BINDING AFFINITY PREDICTED BY RF-SCORE:    0.00 PKD
ROOT
HETATM    1  C   UNL     1      -8.179   8.046  71.802  1.00  0.00    -0.122 C  
HETATM    2  C   UNL     1      -6.614   7.468  71.335  1.00  0.00    -0.042 C  
HETATM    3  C   UNL     1      -6.820   6.902  69.805  1.00  0.00    -0.051 C  
HETATM    4  C   UNL     1      -6.372   6.952  68.235  1.00  0.00    -0.035 C  
HETATM    5  C   UNL     1      -6.174   8.452  67.796  1.00  0.00    -0.052 C  
HETATM    6  C   UNL     1      -6.413   8.859  66.368  1.00  0.00    -0.066 C  
HETATM    7  C   UNL     1      -7.649   8.165  65.760  1.00  0.00    -0.082 C  
HETATM    8  C   UNL     1      -8.256   8.714  64.693  1.00  0.00    -0.167 C  
HETATM    9  C   UNL     1      -7.177   8.680  63.650  1.00  0.00    -0.094 C  
HETATM   10  C   UNL     1      -6.232   7.475  63.701  1.00  0.00    -0.053 C  
HETATM   11  O   UNL     1      -7.050   9.599  62.850  1.00  0.00    -0.104 OA 
HETATM   12  C   UNL     1      -6.336   6.544  64.702  1.00  0.00    -0.038 C  
HETATM   13  C   UNL     1      -7.469   6.631  65.725  1.00  0.00    -0.081 C  
HETATM   14  C   UNL     1      -8.577   5.778  65.033  1.00  0.00    -0.089 C  
HETATM   15  C   UNL     1      -7.500   6.367  67.292  1.00  0.00    -0.088 C  
HETATM   16  C   UNL     1      -8.141   5.088  67.837  1.00  0.00    -0.098 C  
HETATM   17  O   UNL     1      -7.202   4.091  68.197  1.00  0.00    -0.058 OA 
HETATM   18  C   UNL     1      -9.006   5.587  69.008  1.00  0.00    -0.118 C  
HETATM   19  C   UNL     1      -8.217   6.421  70.037  1.00  0.00    -0.125 C  
HETATM   20  H   UNL     1      -7.599   3.298  68.536  1.00  0.00     0.000 HD 
HETATM   21  C   UNL     1      -7.930   5.258  71.174  1.00  0.00    -0.108 C  
HETATM   22  C   UNL     1      -8.770   8.062  70.412  1.00  0.00    -0.136 C  
HETATM   23  O   UNL     1     -10.143   8.033  70.457  1.00  0.00    -0.191 OA 
HETATM   24  O   UNL     1      -9.263   7.368  72.517  1.00  0.00    -0.135 OA 
HETATM   25  C   UNL     1     -10.426   7.292  71.632  1.00  0.00    -0.198 C  
ENDROOT
BRANCH  22  26
HETATM   26  C   UNL     1      -8.163   9.641  70.025  1.00  0.00    -0.184 C  
HETATM   27  O   UNL     1      -7.245  10.164  70.692  1.00  0.00    -0.317 OA 
BRANCH  26  28
HETATM   28  C   UNL     1      -8.717  10.520  68.886  1.00  0.00    -0.154 C  
BRANCH  28  29
HETATM   29  O   UNL     1      -9.965   9.957  68.281  1.00  0.00    -0.145 OA 
BRANCH  29  30
HETATM   30  C   UNL     1     -10.976  10.802  67.923  1.00  0.00    -0.289 C  
HETATM   31  C   UNL     1     -11.902  12.552  66.273  1.00  0.00    -0.453 C  
HETATM   32  C   UNL     1      -9.804  11.398  65.679  1.00  0.00    -0.274 C  
HETATM   33  O   UNL     1     -12.094  10.730  68.443  1.00  0.00    -0.501 OA 
HETATM   34  C   UNL     1     -10.634  11.887  66.863  1.00  0.00    -0.264 C  
ENDBRANCH  29  30
ENDBRANCH  28  29
ENDBRANCH  26  28
ENDBRANCH  22  26
BRANCH  25  35
HETATM   35  C   UNL     1     -11.817   7.832  72.023  1.00  0.00    -0.351 C  
HETATM   36  C   UNL     1     -11.899   9.350  71.644  1.00  0.00    -0.464 C  
HETATM   37  C   UNL     1     -12.986   7.103  71.372  1.00  0.00    -0.419 C  
HETATM   38  C   UNL     1     -13.220   9.997  72.032  1.00  0.00    -0.545 C  
HETATM   39  C   UNL     1     -14.406   9.222  71.464  1.00  0.00    -0.039 C  
HETATM   40  C   UNL     1     -14.318   7.732  71.799  1.00  0.00    -0.594 C  
ENDBRANCH  25  35
TORSDOF 5
ENDMDL
MODEL       43
REMARK 921   NORMALIZED FREE ENERGY PREDICTED BY IDOCK:   -6.03 KCAL/MOL
REMARK 922        TOTAL FREE ENERGY PREDICTED BY IDOCK:   -8.12 KCAL/MOL
REMARK 923 INTER-LIGAND FREE ENERGY PREDICTED BY IDOCK:   -7.00 KCAL/MOL
REMARK 924 INTRA-LIGAND FREE ENERGY PREDICTED BY IDOCK:   -1.12 KCAL/MOL
REMARK 927      BINDING AFFINITY PREDICTED BY RF-SCORE:    0.00 PKD
ROOT
HETATM    1  C   UNL     1      -7.499  10.356  66.569  1.00  0.00    -0.119 C  
HETATM    2  C   UNL     1      -6.191   9.847  67.584  1.00  0.00    -0.059 C  
HETATM    3  C   UNL     1      -6.908   8.983  68.785  1.00  0.00    -0.061 C  
HETATM    4  C   UNL     1      -7.019   7.576  69.606  1.00  0.00    -0.053 C  
HETATM    5  C   UNL     1      -6.967   6.373  68.590  1.00  0.00    -0.080 C  
HETATM    6  C   UNL     1      -7.672   5.083  68.910  1.00  0.00    -0.077 C  
HETATM    7  C   UNL     1      -9.048   5.316  69.568  1.00  0.00    -0.144 C  
HETATM    8  C   UNL     1      -9.975   4.343  69.520  1.00  0.00    -0.187 C  
HETATM    9  C   UNL     1      -9.313   3.223  70.268  1.00  0.00    -0.172 C  
HETATM   10  C   UNL     1      -8.418   3.636  71.441  1.00  0.00    -0.095 C  
HETATM   11  O   UNL     1      -9.457   2.059  69.910  1.00  0.00    -0.113 OA 
HETATM   12  C   UNL     1      -8.185   4.959  71.714  1.00  0.00    -0.114 C  
HETATM   13  C   UNL     1      -8.904   6.050  70.919  1.00  0.00    -0.136 C  
HETATM   14  C   UNL     1     -10.189   6.264  71.779  1.00  0.00    -0.224 C  
HETATM   15  C   UNL     1      -8.404   7.451  70.359  1.00  0.00    -0.129 C  
HETATM   16  C   UNL     1      -8.834   8.747  71.052  1.00  0.00    -0.211 C  
HETATM   17  O   UNL     1      -7.838   9.298  71.894  1.00  0.00    -0.285 OA 
HETATM   18  C   UNL     1      -9.246   9.662  69.886  1.00  0.00    -0.255 C  
HETATM   19  C   UNL     1      -8.148   9.819  68.815  1.00  0.00    -0.102 C  
HETATM   20  H   UNL     1      -8.104  10.102  72.324  1.00  0.00     0.000 HD 
HETATM   21  C   UNL     1      -7.503  11.263  69.290  1.00  0.00    -0.040 C  
HETATM   22  C   UNL     1      -8.527   9.404  67.134  1.00  0.00    -0.128 C  
HETATM   23  O   UNL     1      -9.803   9.843  66.880  1.00  0.00    -0.180 OA 
HETATM   24  O   UNL     1      -8.283  11.594  66.585  1.00  0.00    -0.170 OA 
HETATM   25  C   UNL     1      -9.678  11.255  66.872  1.00  0.00    -0.192 C  
ENDROOT
BRANCH  22  26
HETATM   26  C   UNL     1      -8.072   8.085  66.103  1.00  0.00    -0.111 C  
HETATM   27  O   UNL     1      -6.988   8.092  65.481  1.00  0.00    -0.058 OA 
BRANCH  26  28
HETATM   28  C   UNL     1      -8.959   6.851  65.842  1.00  0.00    -0.064 C  
BRANCH  28  29
HETATM   29  O   UNL     1      -8.332   5.884  64.887  1.00  0.00    -0.136 OA 
BRANCH  29  30
HETATM   30  C   UNL     1      -8.120   4.595  65.284  1.00  0.00    -0.104 C  
HETATM   31  C   UNL     1      -9.029   2.199  65.559  1.00  0.00    -0.120 C  
HETATM   32  C   UNL     1     -10.427   3.835  64.352  1.00  0.00    -0.227 C  
HETATM   33  O   UNL     1      -6.985   4.170  65.525  1.00  0.00    -0.059 OA 
HETATM   34  C   UNL     1      -9.382   3.703  65.458  1.00  0.00    -0.160 C  
ENDBRANCH  29  30
ENDBRANCH  28  29
ENDBRANCH  26  28
ENDBRANCH  22  26
BRANCH  25  35
HETATM   35  C   UNL     1     -10.850  11.675  65.960  1.00  0.00    -0.339 C  
HETATM   36  C   UNL     1     -11.314  13.117  66.359  1.00  0.00    -0.349 C  
HETATM   37  C   UNL     1     -10.532  11.659  64.470  1.00  0.00    -0.359 C  
HETATM   38  C   UNL     1     -12.503  13.612  65.549  1.00  0.00    -0.544 C  
HETATM   39  C   UNL     1     -12.234  13.514  64.050  1.00  0.00    -0.458 C  
HETATM   40  C   UNL     1     -11.747  12.119  63.655  1.00  0.00    -0.588 C  
ENDBRANCH  25  35
TORSDOF 5
ENDMDL
MODEL       44
REMARK 921   NORMALIZED FREE ENERGY PREDICTED BY IDOCK:   -6.00 KCAL/MOL
REMARK 922        TOTAL FREE ENERGY PREDICTED BY IDOCK:   -8.08 KCAL/MOL
REMARK 923 INTER-LIGAND FREE ENERGY PREDICTED BY IDOCK:   -6.62 KCAL/MOL
REMARK 924 INTRA-LIGAND FREE ENERGY PREDICTED BY IDOCK:   -1.45 KCAL/MOL
REMARK 927      BINDING AFFINITY PREDICTED BY RF-SCORE:    0.00 PKD
ROOT
HETATM    1  C   UNL     1      -8.849  10.821  68.938  1.00  0.00    -0.150 C  
HETATM    2  C   UNL     1      -8.563   9.711  70.236  1.00  0.00    -0.234 C  
HETATM    3  C   UNL     1      -8.852   8.228  69.586  1.00  0.00    -0.139 C  
HETATM    4  C   UNL     1      -8.303   6.725  69.262  1.00  0.00    -0.125 C  
HETATM    5  C   UNL     1      -6.820   6.812  68.739  1.00  0.00    -0.066 C  
HETATM    6  C   UNL     1      -6.293   5.776  67.783  1.00  0.00    -0.042 C  
HETATM    7  C   UNL     1      -7.334   5.384  66.714  1.00  0.00    -0.086 C  
HETATM    8  C   UNL     1      -6.919   4.833  65.560  1.00  0.00    -0.062 C  
HETATM    9  C   UNL     1      -6.263   3.564  66.022  1.00  0.00    -0.032 C  
HETATM   10  C   UNL     1      -6.903   2.881  67.235  1.00  0.00    -0.045 C  
HETATM   11  O   UNL     1      -5.248   3.148  65.475  1.00  0.00    -0.008 OA 
HETATM   12  C   UNL     1      -7.956   3.460  67.892  1.00  0.00    -0.079 C  
HETATM   13  C   UNL     1      -8.586   4.748  67.359  1.00  0.00    -0.104 C  
HETATM   14  C   UNL     1      -9.692   4.184  66.414  1.00  0.00    -0.223 C  
HETATM   15  C   UNL     1      -9.134   6.042  68.102  1.00  0.00    -0.118 C  
HETATM   16  C   UNL     1     -10.644   6.267  68.227  1.00  0.00    -0.258 C  
HETATM   17  O   UNL     1     -11.164   5.931  69.501  1.00  0.00    -0.389 OA 
HETATM   18  C   UNL     1     -10.822   7.747  67.847  1.00  0.00    -0.080 C  
HETATM   19  C   UNL     1      -9.942   8.701  68.678  1.00  0.00    -0.197 C  
HETATM   20  H   UNL     1     -12.101   6.071  69.578  1.00  0.00     0.000 HD 
HETATM   21  C   UNL     1     -11.049   9.195  69.798  1.00  0.00    -0.140 C  
HETATM   22  C   UNL     1      -8.829   9.791  67.833  1.00  0.00    -0.122 C  
HETATM   23  O   UNL     1      -9.477  10.253  66.712  1.00  0.00    -0.157 OA 
HETATM   24  O   UNL     1     -10.064  11.550  68.566  1.00  0.00    -0.197 OA 
HETATM   25  C   UNL     1     -10.479  11.110  67.233  1.00  0.00    -0.226 C  
ENDROOT
BRANCH  22  26
HETATM   26  C   UNL     1      -7.104   9.823  67.649  1.00  0.00    -0.088 C  
HETATM   27  O   UNL     1      -6.366  10.313  68.531  1.00  0.00    -0.051 OA 
BRANCH  26  28
HETATM   28  C   UNL     1      -6.362   9.303  66.401  1.00  0.00    -0.066 C  
BRANCH  28  29
HETATM   29  O   UNL     1      -6.666  10.107  65.176  1.00  0.00    -0.120 OA 
BRANCH  29  30
HETATM   30  C   UNL     1      -6.601   9.509  63.950  1.00  0.00    -0.101 C  
HETATM   31  C   UNL     1      -7.455   7.683  62.344  1.00  0.00    -0.098 C  
HETATM   32  C   UNL     1      -8.641   7.986  64.486  1.00  0.00     0.119 C  
HETATM   33  O   UNL     1      -6.007  10.035  63.003  1.00  0.00    -0.111 OA 
HETATM   34  C   UNL     1      -7.273   8.112  63.820  1.00  0.00    -0.095 C  
ENDBRANCH  29  30
ENDBRANCH  28  29
ENDBRANCH  26  28
ENDBRANCH  22  26
BRANCH  25  35
HETATM   35  C   UNL     1     -10.706  12.085  66.058  1.00  0.00    -0.317 C  
HETATM   36  C   UNL     1     -10.554  11.301  64.710  1.00  0.00    -0.376 C  
HETATM   37  C   UNL     1     -12.059  12.785  66.067  1.00  0.00    -0.458 C  
HETATM   38  C   UNL     1     -10.713  12.183  63.480  1.00  0.00    -0.509 C  
HETATM   39  C   UNL     1     -12.023  12.963  63.521  1.00  0.00    -0.629 C  
HETATM   40  C   UNL     1     -12.197  13.704  64.847  1.00  0.00    -0.447 C  
ENDBRANCH  25  35
TORSDOF 5
ENDMDL
MODEL       45
REMARK 921   NORMALIZED FREE ENERGY PREDICTED BY IDOCK:   -5.96 KCAL/MOL
REMARK 922        TOTAL FREE ENERGY PREDICTED BY IDOCK:   -8.03 KCAL/MOL
REMARK 923 INTER-LIGAND FREE ENERGY PREDICTED BY IDOCK:   -6.43 KCAL/MOL
REMARK 924 INTRA-LIGAND FREE ENERGY PREDICTED BY IDOCK:   -1.60 KCAL/MOL
REMARK 927      BINDING AFFINITY PREDICTED BY RF-SCORE:    0.00 PKD
ROOT
HETATM    1  C   UNL     1      -7.853   6.997  71.670  1.00  0.00    -0.098 C  
HETATM    2  C   UNL     1      -6.943   5.545  71.416  1.00  0.00    -0.067 C  
HETATM    3  C   UNL     1      -7.503   4.949  69.989  1.00  0.00    -0.055 C  
HETATM    4  C   UNL     1      -7.175   4.454  68.468  1.00  0.00    -0.060 C  
HETATM    5  C   UNL     1      -6.154   5.451  67.803  1.00  0.00    -0.026 C  
HETATM    6  C   UNL     1      -6.166   5.664  66.313  1.00  0.00    -0.034 C  
HETATM    7  C   UNL     1      -7.598   5.728  65.743  1.00  0.00    -0.090 C  
HETATM    8  C   UNL     1      -7.811   6.330  64.560  1.00  0.00    -0.115 C  
HETATM    9  C   UNL     1      -6.999   5.492  63.616  1.00  0.00    -0.046 C  
HETATM   10  C   UNL     1      -6.938   3.994  63.931  1.00  0.00    -0.046 C  
HETATM   11  O   UNL     1      -6.390   6.008  62.686  1.00  0.00    -0.025 OA 
HETATM   12  C   UNL     1      -7.527   3.490  65.062  1.00  0.00    -0.073 C  
HETATM   13  C   UNL     1      -8.352   4.399  65.974  1.00  0.00    -0.113 C  
HETATM   14  C   UNL     1      -9.777   4.247  65.356  1.00  0.00    -0.204 C  
HETATM   15  C   UNL     1      -8.468   4.482  67.557  1.00  0.00    -0.103 C  
HETATM   16  C   UNL     1      -9.714   3.936  68.259  1.00  0.00    -0.051 C  
HETATM   17  O   UNL     1      -9.524   2.660  68.844  1.00  0.00    -0.166 OA 
HETATM   18  C   UNL     1     -10.075   5.040  69.268  1.00  0.00    -0.270 C  
HETATM   19  C   UNL     1      -8.906   5.422  70.199  1.00  0.00    -0.142 C  
HETATM   20  H   UNL     1     -10.297   2.321  69.280  1.00  0.00     0.000 HD 
HETATM   21  C   UNL     1      -9.309   4.530  71.529  1.00  0.00    -0.203 C  
HETATM   22  C   UNL     1      -8.378   7.113  70.258  1.00  0.00    -0.136 C  
HETATM   23  O   UNL     1      -9.504   7.898  70.210  1.00  0.00    -0.163 OA 
HETATM   24  O   UNL     1      -9.099   7.217  72.409  1.00  0.00    -0.131 OA 
HETATM   25  C   UNL     1     -10.120   7.679  71.468  1.00  0.00    -0.178 C  
ENDROOT
BRANCH  22  26
HETATM   26  C   UNL     1      -6.977   7.943  69.660  1.00  0.00    -0.053 C  
HETATM   27  O   UNL     1      -5.901   7.942  70.295  1.00  0.00    -0.023 OA 
BRANCH  26  28
HETATM   28  C   UNL     1      -6.956   8.763  68.353  1.00  0.00    -0.066 C  
BRANCH  28  29
HETATM   29  O   UNL     1      -8.053   9.781  68.296  1.00  0.00    -0.103 OA 
BRANCH  29  30
HETATM   30  C   UNL     1      -8.455  10.263  67.084  1.00  0.00    -0.125 C  
HETATM   31  C   UNL     1      -9.960  10.017  65.007  1.00  0.00    -0.320 C  
HETATM   32  C   UNL     1     -10.332   8.472  66.894  1.00  0.00    -0.367 C  
HETATM   33  O   UNL     1      -8.164  11.405  66.713  1.00  0.00    -0.151 OA 
HETATM   34  C   UNL     1      -9.258   9.287  66.178  1.00  0.00    -0.249 C  
ENDBRANCH  29  30
ENDBRANCH  28  29
ENDBRANCH  26  28
ENDBRANCH  22  26
BRANCH  25  35
HETATM   35  C   UNL     1     -10.915   8.987  71.666  1.00  0.00    -0.435 C  
HETATM   36  C   UNL     1     -10.845   9.829  70.346  1.00  0.00    -0.370 C  
HETATM   37  C   UNL     1     -12.378   8.790  72.042  1.00  0.00    -0.444 C  
HETATM   38  C   UNL     1     -11.560  11.168  70.448  1.00  0.00    -0.355 C  
HETATM   39  C   UNL     1     -13.002  10.994  70.916  1.00  0.00    -0.314 C  
HETATM   40  C   UNL     1     -13.084  10.144  72.184  1.00  0.00    -0.463 C  
ENDBRANCH  25  35
TORSDOF 5
ENDMDL
MODEL       46
REMARK 921   NORMALIZED FREE ENERGY PREDICTED BY IDOCK:   -5.92 KCAL/MOL
REMARK 922        TOTAL FREE ENERGY PREDICTED BY IDOCK:   -7.98 KCAL/MOL
REMARK 923 INTER-LIGAND FREE ENERGY PREDICTED BY IDOCK:   -6.89 KCAL/MOL
REMARK 924 INTRA-LIGAND FREE ENERGY PREDICTED BY IDOCK:   -1.09 KCAL/MOL
REMARK 927      BINDING AFFINITY PREDICTED BY RF-SCORE:    0.00 PKD
ROOT
HETATM    1  C   UNL     1      -9.121  10.947  68.584  1.00  0.00    -0.175 C  
HETATM    2  C   UNL     1      -8.474   9.935  69.832  1.00  0.00    -0.210 C  
HETATM    3  C   UNL     1      -8.701   8.401  69.283  1.00  0.00    -0.138 C  
HETATM    4  C   UNL     1      -8.048   6.955  68.897  1.00  0.00    -0.120 C  
HETATM    5  C   UNL     1      -6.706   7.182  68.105  1.00  0.00    -0.061 C  
HETATM    6  C   UNL     1      -6.246   6.170  67.092  1.00  0.00    -0.029 C  
HETATM    7  C   UNL     1      -7.411   5.617  66.246  1.00  0.00    -0.078 C  
HETATM    8  C   UNL     1      -7.152   5.063  65.048  1.00  0.00    -0.062 C  
HETATM    9  C   UNL     1      -6.279   3.897  65.409  1.00  0.00    -0.027 C  
HETATM   10  C   UNL     1      -6.602   3.202  66.736  1.00  0.00    -0.037 C  
HETATM   11  O   UNL     1      -5.339   3.572  64.692  1.00  0.00    -0.009 OA 
HETATM   12  C   UNL     1      -7.578   3.691  67.564  1.00  0.00    -0.070 C  
HETATM   13  C   UNL     1      -8.440   4.876  67.127  1.00  0.00    -0.105 C  
HETATM   14  C   UNL     1      -9.627   4.151  66.419  1.00  0.00    -0.215 C  
HETATM   15  C   UNL     1      -8.992   6.133  67.929  1.00  0.00    -0.112 C  
HETATM   16  C   UNL     1     -10.469   6.195  68.328  1.00  0.00    -0.232 C  
HETATM   17  O   UNL     1     -10.705   5.861  69.684  1.00  0.00    -0.279 OA 
HETATM   18  C   UNL     1     -10.886   7.627  67.953  1.00  0.00    -0.105 C  
HETATM   19  C   UNL     1      -9.986   8.709  68.583  1.00  0.00    -0.197 C  
HETATM   20  H   UNL     1     -11.621   5.899  69.932  1.00  0.00     0.000 HD 
HETATM   21  C   UNL     1     -10.921   9.127  69.878  1.00  0.00    -0.218 C  
HETATM   22  C   UNL     1      -9.182   9.877  67.519  1.00  0.00    -0.134 C  
HETATM   23  O   UNL     1     -10.073  10.214  66.529  1.00  0.00    -0.215 OA 
HETATM   24  O   UNL     1     -10.460  11.519  68.429  1.00  0.00    -0.191 OA 
HETATM   25  C   UNL     1     -11.057  10.977  67.207  1.00  0.00    -0.294 C  
ENDROOT
BRANCH  22  26
HETATM   26  C   UNL     1      -7.536  10.092  67.016  1.00  0.00    -0.092 C  
HETATM   27  O   UNL     1      -7.070   9.472  66.036  1.00  0.00    -0.089 OA 
BRANCH  26  28
HETATM   28  C   UNL     1      -6.527  11.007  67.741  1.00  0.00    -0.063 C  
BRANCH  28  29
HETATM   29  O   UNL     1      -6.401  12.349  67.091  1.00  0.00    -0.158 OA 
BRANCH  29  30
HETATM   30  C   UNL     1      -6.276  13.462  67.872  1.00  0.00    -0.147 C  
HETATM   31  C   UNL     1      -7.204  15.752  68.605  1.00  0.00    -0.135 C  
HETATM   32  C   UNL     1      -8.594  14.366  67.111  1.00  0.00    -0.237 C  
HETATM   33  O   UNL     1      -5.483  13.503  68.819  1.00  0.00    -0.072 OA 
HETATM   34  C   UNL     1      -7.148  14.689  67.481  1.00  0.00    -0.203 C  
ENDBRANCH  29  30
ENDBRANCH  28  29
ENDBRANCH  26  28
ENDBRANCH  22  26
BRANCH  25  35
HETATM   35  C   UNL     1     -11.607  11.867  66.073  1.00  0.00    -0.296 C  
HETATM   36  C   UNL     1     -12.070  13.236  66.680  1.00  0.00    -0.421 C  
HETATM   37  C   UNL     1     -10.620  12.143  64.947  1.00  0.00    -0.332 C  
HETATM   38  C   UNL     1     -12.677  14.176  65.649  1.00  0.00    -0.469 C  
HETATM   39  C   UNL     1     -11.736  14.387  64.467  1.00  0.00    -0.430 C  
HETATM   40  C   UNL     1     -11.250  13.057  63.889  1.00  0.00    -0.434 C  
ENDBRANCH  25  35
TORSDOF 5
ENDMDL
MODEL       47
REMARK 921   NORMALIZED FREE ENERGY PREDICTED BY IDOCK:   -5.90 KCAL/MOL
REMARK 922        TOTAL FREE ENERGY PREDICTED BY IDOCK:   -7.94 KCAL/MOL
REMARK 923 INTER-LIGAND FREE ENERGY PREDICTED BY IDOCK:   -6.80 KCAL/MOL
REMARK 924 INTRA-LIGAND FREE ENERGY PREDICTED BY IDOCK:   -1.14 KCAL/MOL
REMARK 927      BINDING AFFINITY PREDICTED BY RF-SCORE:    0.00 PKD
ROOT
HETATM    1  C   UNL     1     -10.282   9.992  67.576  1.00  0.00    -0.212 C  
HETATM    2  C   UNL     1     -11.519  10.829  66.699  1.00  0.00     0.390 C  
HETATM    3  C   UNL     1     -11.416  12.386  67.219  1.00  0.00    -0.421 C  
HETATM    4  C   UNL     1     -11.219  13.963  66.845  1.00  0.00    -0.324 C  
HETATM    5  C   UNL     1     -10.077  14.106  65.771  1.00  0.00    -0.352 C  
HETATM    6  C   UNL     1      -9.241  15.356  65.718  1.00  0.00    -0.172 C  
HETATM    7  C   UNL     1      -8.876  15.875  67.124  1.00  0.00    -0.228 C  
HETATM    8  C   UNL     1      -7.813  16.685  67.273  1.00  0.00    -0.194 C  
HETATM    9  C   UNL     1      -8.194  17.881  66.449  1.00  0.00    -0.255 C  
HETATM   10  C   UNL     1      -9.683  18.244  66.443  1.00  0.00    -0.334 C  
HETATM   11  O   UNL     1      -7.354  18.481  65.789  1.00  0.00    -0.447 OA 
HETATM   12  C   UNL     1     -10.600  17.457  67.090  1.00  0.00    -0.264 C  
HETATM   13  C   UNL     1     -10.140  16.261  67.924  1.00  0.00    -0.247 C  
HETATM   14  C   UNL     1      -9.949  16.916  69.327  1.00  0.00    -0.184 C  
HETATM   15  C   UNL     1     -10.745  14.801  68.100  1.00  0.00    -0.247 C  
HETATM   16  C   UNL     1     -11.487  14.434  69.388  1.00  0.00    -0.288 C  
HETATM   17  O   UNL     1     -12.897  14.455  69.257  1.00  0.00    -0.436 OA 
HETATM   18  C   UNL     1     -10.912  13.055  69.756  1.00  0.00     0.245 C  
HETATM   19  C   UNL     1     -11.021  12.024  68.615  1.00  0.00    -0.281 C  
HETATM   20  H   UNL     1     -13.358  14.227  70.056  1.00  0.00     0.000 HD 
HETATM   21  C   UNL     1     -12.381  11.221  69.095  1.00  0.00    -0.115 C  
HETATM   22  C   UNL     1      -9.546  11.226  68.041  1.00  0.00    -0.180 C  
HETATM   23  O   UNL     1      -8.770  10.954  69.142  1.00  0.00    -0.137 OA 
HETATM   24  O   UNL     1     -10.351   9.259  68.843  1.00  0.00    -0.204 OA 
HETATM   25  C   UNL     1      -9.484   9.930  69.813  1.00  0.00    -0.226 C  
ENDROOT
BRANCH  22  26
HETATM   26  C   UNL     1      -8.599  11.372  66.595  1.00  0.00    -0.170 C  
HETATM   27  O   UNL     1      -7.680  12.215  66.503  1.00  0.00     0.042 OA 
BRANCH  26  28
HETATM   28  C   UNL     1      -8.831  10.528  65.325  1.00  0.00    -0.188 C  
BRANCH  28  29
HETATM   29  O   UNL     1      -7.629   9.721  64.944  1.00  0.00    -0.116 OA 
BRANCH  29  30
HETATM   30  C   UNL     1      -7.515   8.437  65.396  1.00  0.00    -0.085 C  
HETATM   31  C   UNL     1      -6.232   6.709  66.813  1.00  0.00    -0.040 C  
HETATM   32  C   UNL     1      -5.550   9.075  66.978  1.00  0.00    -0.041 C  
HETATM   33  O   UNL     1      -8.436   7.624  65.275  1.00  0.00    -0.138 OA 
HETATM   34  C   UNL     1      -6.150   8.041  66.027  1.00  0.00    -0.041 C  
ENDBRANCH  29  30
ENDBRANCH  28  29
ENDBRANCH  26  28
ENDBRANCH  22  26
BRANCH  25  35
HETATM   35  C   UNL     1      -8.357   9.204  70.577  1.00  0.00    -0.222 C  
HETATM   36  C   UNL     1      -8.915   8.710  71.956  1.00  0.00    -0.286 C  
HETATM   37  C   UNL     1      -7.755   8.015  69.840  1.00  0.00    -0.099 C  
HETATM   38  C   UNL     1      -7.866   8.018  72.815  1.00  0.00    -0.178 C  
HETATM   39  C   UNL     1      -7.187   6.883  72.056  1.00  0.00    -0.082 C  
HETATM   40  C   UNL     1      -6.670   7.346  70.693  1.00  0.00    -0.047 C  
ENDBRANCH  25  35
TORSDOF 5
ENDMDL
MODEL       48
REMARK 921   NORMALIZED FREE ENERGY PREDICTED BY IDOCK:   -5.87 KCAL/MOL
REMARK 922        TOTAL FREE ENERGY PREDICTED BY IDOCK:   -7.91 KCAL/MOL
REMARK 923 INTER-LIGAND FREE ENERGY PREDICTED BY IDOCK:   -7.16 KCAL/MOL
REMARK 924 INTRA-LIGAND FREE ENERGY PREDICTED BY IDOCK:   -0.75 KCAL/MOL
REMARK 927      BINDING AFFINITY PREDICTED BY RF-SCORE:    0.00 PKD
ROOT
HETATM    1  C   UNL     1     -10.681   8.887  67.208  1.00  0.00    -0.149 C  
HETATM    2  C   UNL     1      -9.423   8.077  66.334  1.00  0.00    -0.268 C  
HETATM    3  C   UNL     1      -8.258   7.785  67.457  1.00  0.00    -0.124 C  
HETATM    4  C   UNL     1      -7.310   6.697  68.221  1.00  0.00    -0.090 C  
HETATM    5  C   UNL     1      -8.162   5.421  68.578  1.00  0.00    -0.094 C  
HETATM    6  C   UNL     1      -7.811   4.591  69.783  1.00  0.00    -0.057 C  
HETATM    7  C   UNL     1      -7.406   5.458  70.993  1.00  0.00    -0.083 C  
HETATM    8  C   UNL     1      -7.488   4.942  72.232  1.00  0.00    -0.089 C  
HETATM    9  C   UNL     1      -6.523   3.793  72.172  1.00  0.00    -0.014 C  
HETATM   10  C   UNL     1      -5.279   4.007  71.302  1.00  0.00     0.000 C  
HETATM   11  O   UNL     1      -6.764   2.741  72.751  1.00  0.00    -0.021 OA 
HETATM   12  C   UNL     1      -5.126   5.154  70.567  1.00  0.00    -0.004 C  
HETATM   13  C   UNL     1      -6.142   6.291  70.687  1.00  0.00    -0.034 C  
HETATM   14  C   UNL     1      -5.523   7.138  71.842  1.00  0.00    -0.036 C  
HETATM   15  C   UNL     1      -6.773   7.262  69.598  1.00  0.00    -0.045 C  
HETATM   16  C   UNL     1      -6.308   8.718  69.514  1.00  0.00    -0.043 C  
HETATM   17  O   UNL     1      -5.388   8.960  68.463  1.00  0.00    -0.036 OA 
HETATM   18  C   UNL     1      -7.620   9.512  69.394  1.00  0.00    -0.091 C  
HETATM   19  C   UNL     1      -8.517   9.037  68.233  1.00  0.00    -0.129 C  
HETATM   20  H   UNL     1      -5.100   9.864  68.411  1.00  0.00     0.000 HD 
HETATM   21  C   UNL     1      -8.115  10.163  67.094  1.00  0.00    -0.120 C  
HETATM   22  C   UNL     1     -10.178   8.531  68.588  1.00  0.00    -0.197 C  
HETATM   23  O   UNL     1     -10.677   9.392  69.535  1.00  0.00    -0.220 OA 
HETATM   24  O   UNL     1     -10.928  10.317  67.403  1.00  0.00    -0.293 OA 
HETATM   25  C   UNL     1     -10.826  10.615  68.833  1.00  0.00    -0.231 C  
ENDROOT
BRANCH  22  26
HETATM   26  C   UNL     1     -10.969   6.987  68.627  1.00  0.00    -0.090 C  
HETATM   27  O   UNL     1     -10.943   6.219  67.642  1.00  0.00    -0.314 OA 
BRANCH  26  28
HETATM   28  C   UNL     1     -11.783   6.468  69.830  1.00  0.00    -0.283 C  
BRANCH  28  29
HETATM   29  O   UNL     1     -10.935   5.733  70.821  1.00  0.00    -0.283 OA 
BRANCH  29  30
HETATM   30  C   UNL     1     -10.580   6.351  71.986  1.00  0.00    -0.213 C  
HETATM   31  C   UNL     1     -10.251   6.213  74.539  1.00  0.00    -0.318 C  
HETATM   32  C   UNL     1     -10.759   4.127  73.324  1.00  0.00    -0.292 C  
HETATM   33  O   UNL     1      -9.996   7.439  71.990  1.00  0.00    -0.165 OA 
HETATM   34  C   UNL     1     -10.989   5.636  73.306  1.00  0.00    -0.316 C  
ENDBRANCH  29  30
ENDBRANCH  28  29
ENDBRANCH  26  28
ENDBRANCH  22  26
BRANCH  25  35
HETATM   35  C   UNL     1     -11.951  11.306  69.631  1.00  0.00    -0.423 C  
HETATM   36  C   UNL     1     -12.148  10.551  70.990  1.00  0.00    -0.492 C  
HETATM   37  C   UNL     1     -11.708  12.781  69.923  1.00  0.00    -0.321 C  
HETATM   38  C   UNL     1     -13.273  11.125  71.839  1.00  0.00    -0.488 C  
HETATM   39  C   UNL     1     -13.093  12.623  72.061  1.00  0.00    -0.471 C  
HETATM   40  C   UNL     1     -12.865  13.365  70.743  1.00  0.00    -0.221 C  
ENDBRANCH  25  35
TORSDOF 5
ENDMDL
MODEL       49
REMARK 921   NORMALIZED FREE ENERGY PREDICTED BY IDOCK:   -5.87 KCAL/MOL
REMARK 922        TOTAL FREE ENERGY PREDICTED BY IDOCK:   -7.90 KCAL/MOL
REMARK 923 INTER-LIGAND FREE ENERGY PREDICTED BY IDOCK:   -6.73 KCAL/MOL
REMARK 924 INTRA-LIGAND FREE ENERGY PREDICTED BY IDOCK:   -1.17 KCAL/MOL
REMARK 927      BINDING AFFINITY PREDICTED BY RF-SCORE:    0.00 PKD
ROOT
HETATM    1  C   UNL     1      -9.179   7.112  69.991  1.00  0.00    -0.144 C  
HETATM    2  C   UNL     1     -10.330   7.193  68.699  1.00  0.00    -0.200 C  
HETATM    3  C   UNL     1     -10.905   8.733  68.751  1.00  0.00    -0.026 C  
HETATM    4  C   UNL     1     -11.154  10.148  67.975  1.00  0.00    -0.302 C  
HETATM    5  C   UNL     1      -9.876  10.513  67.131  1.00  0.00    -0.213 C  
HETATM    6  C   UNL     1      -9.529  11.953  66.868  1.00  0.00    -0.205 C  
HETATM    7  C   UNL     1      -9.766  12.847  68.102  1.00  0.00    -0.227 C  
HETATM    8  C   UNL     1      -9.123  14.024  68.197  1.00  0.00    -0.192 C  
HETATM    9  C   UNL     1      -9.639  14.776  67.005  1.00  0.00    -0.241 C  
HETATM   10  C   UNL     1     -11.099  14.509  66.624  1.00  0.00    -0.333 C  
HETATM   11  O   UNL     1      -8.901  15.514  66.362  1.00  0.00    -0.289 OA 
HETATM   12  C   UNL     1     -11.840  13.572  67.296  1.00  0.00    -0.427 C  
HETATM   13  C   UNL     1     -11.255  12.852  68.512  1.00  0.00    -0.310 C  
HETATM   14  C   UNL     1     -11.694  13.798  69.673  1.00  0.00    -0.379 C  
HETATM   15  C   UNL     1     -11.358  11.340  68.995  1.00  0.00    -0.344 C  
HETATM   16  C   UNL     1     -12.260  10.977  70.177  1.00  0.00    -0.344 C  
HETATM   17  O   UNL     1     -13.500  10.411  69.793  1.00  0.00    -0.377 OA 
HETATM   18  C   UNL     1     -11.382  10.045  71.030  1.00  0.00    -0.434 C  
HETATM   19  C   UNL     1     -10.816   8.849  70.240  1.00  0.00    -0.265 C  
HETATM   20  H   UNL     1     -14.060  10.185  70.526  1.00  0.00     0.000 HD 
HETATM   21  C   UNL     1     -11.904   7.687  70.679  1.00  0.00    -0.169 C  
HETATM   22  C   UNL     1      -9.061   8.604  70.201  1.00  0.00    -0.158 C  
HETATM   23  O   UNL     1      -8.577   8.891  71.454  1.00  0.00    -0.188 OA 
HETATM   24  O   UNL     1      -9.347   6.686  71.383  1.00  0.00    -0.152 OA 
HETATM   25  C   UNL     1      -9.062   7.826  72.255  1.00  0.00    -0.149 C  
ENDROOT
BRANCH  22  26
HETATM   26  C   UNL     1      -7.856   8.818  68.971  1.00  0.00    -0.096 C  
HETATM   27  O   UNL     1      -7.455   9.957  68.647  1.00  0.00    -0.073 OA 
BRANCH  26  28
HETATM   28  C   UNL     1      -7.227   7.659  68.171  1.00  0.00    -0.093 C  
BRANCH  28  29
HETATM   29  O   UNL     1      -5.816   7.377  68.582  1.00  0.00    -0.022 OA 
BRANCH  29  30
HETATM   30  C   UNL     1      -5.579   6.711  69.751  1.00  0.00    -0.015 C  
HETATM   31  C   UNL     1      -5.285   4.468  70.985  1.00  0.00     0.000 C  
HETATM   32  C   UNL     1      -5.453   4.421  68.524  1.00  0.00    -0.012 C  
HETATM   33  O   UNL     1      -5.163   7.296  70.756  1.00  0.00    -0.023 OA 
HETATM   34  C   UNL     1      -5.904   5.190  69.763  1.00  0.00    -0.017 C  
ENDBRANCH  29  30
ENDBRANCH  28  29
ENDBRANCH  26  28
ENDBRANCH  22  26
BRANCH  25  35
HETATM   35  C   UNL     1      -8.016   7.778  73.388  1.00  0.00    -0.192 C  
HETATM   36  C   UNL     1      -7.184   6.456  73.256  1.00  0.00    -0.086 C  
HETATM   37  C   UNL     1      -7.056   8.959  73.416  1.00  0.00     0.251 C  
HETATM   38  C   UNL     1      -6.150   6.284  74.359  1.00  0.00    -0.065 C  
HETATM   39  C   UNL     1      -5.239   7.503  74.461  1.00  0.00    -0.065 C  
HETATM   40  C   UNL     1      -6.041   8.801  74.555  1.00  0.00    -0.152 C  
ENDBRANCH  25  35
TORSDOF 5
ENDMDL
MODEL       50
REMARK 921   NORMALIZED FREE ENERGY PREDICTED BY IDOCK:   -5.80 KCAL/MOL
REMARK 922        TOTAL FREE ENERGY PREDICTED BY IDOCK:   -7.82 KCAL/MOL
REMARK 923 INTER-LIGAND FREE ENERGY PREDICTED BY IDOCK:   -6.38 KCAL/MOL
REMARK 924 INTRA-LIGAND FREE ENERGY PREDICTED BY IDOCK:   -1.43 KCAL/MOL
REMARK 927      BINDING AFFINITY PREDICTED BY RF-SCORE:    0.00 PKD
ROOT
HETATM    1  C   UNL     1      -8.847   9.916  69.678  1.00  0.00    -0.208 C  
HETATM    2  C   UNL     1      -7.999   8.543  70.308  1.00  0.00    -0.103 C  
HETATM    3  C   UNL     1      -8.385   7.313  69.286  1.00  0.00    -0.132 C  
HETATM    4  C   UNL     1      -7.873   6.140  68.272  1.00  0.00    -0.104 C  
HETATM    5  C   UNL     1      -6.710   6.701  67.370  1.00  0.00    -0.067 C  
HETATM    6  C   UNL     1      -6.498   6.154  65.985  1.00  0.00    -0.046 C  
HETATM    7  C   UNL     1      -7.827   5.904  65.244  1.00  0.00    -0.105 C  
HETATM    8  C   UNL     1      -7.833   5.843  63.900  1.00  0.00    -0.119 C  
HETATM    9  C   UNL     1      -6.947   4.664  63.623  1.00  0.00    -0.044 C  
HETATM   10  C   UNL     1      -7.021   3.516  64.634  1.00  0.00    -0.053 C  
HETATM   11  O   UNL     1      -6.182   4.667  62.665  1.00  0.00    -0.017 OA 
HETATM   12  C   UNL     1      -7.794   3.622  65.761  1.00  0.00    -0.092 C  
HETATM   13  C   UNL     1      -8.685   4.847  65.975  1.00  0.00    -0.124 C  
HETATM   14  C   UNL     1     -10.014   4.385  65.300  1.00  0.00    -0.214 C  
HETATM   15  C   UNL     1      -9.020   5.694  67.277  1.00  0.00    -0.111 C  
HETATM   16  C   UNL     1     -10.384   5.542  67.956  1.00  0.00    -0.177 C  
HETATM   17  O   UNL     1     -10.355   4.721  69.110  1.00  0.00    -0.130 OA 
HETATM   18  C   UNL     1     -10.817   6.992  68.228  1.00  0.00    -0.198 C  
HETATM   19  C   UNL     1      -9.772   7.803  69.021  1.00  0.00    -0.157 C  
HETATM   20  H   UNL     1     -11.201   4.626  69.531  1.00  0.00     0.000 HD 
HETATM   21  C   UNL     1     -10.413   7.673  70.537  1.00  0.00    -0.221 C  
HETATM   22  C   UNL     1      -9.157   9.314  68.328  1.00  0.00    -0.128 C  
HETATM   23  O   UNL     1     -10.217   9.954  67.731  1.00  0.00    -0.173 OA 
HETATM   24  O   UNL     1     -10.169  10.448  70.015  1.00  0.00    -0.219 OA 
HETATM   25  C   UNL     1     -11.017  10.371  68.824  1.00  0.00    -0.245 C  
ENDROOT
BRANCH  22  26
HETATM   26  C   UNL     1      -7.639   9.769  67.623  1.00  0.00    -0.091 C  
HETATM   27  O   UNL     1      -7.437   9.667  66.394  1.00  0.00    -0.093 OA 
BRANCH  26  28
HETATM   28  C   UNL     1      -6.433  10.282  68.436  1.00  0.00    -0.048 C  
BRANCH  28  29
HETATM   29  O   UNL     1      -6.041  11.677  68.063  1.00  0.00    -0.046 OA 
BRANCH  29  30
HETATM   30  C   UNL     1      -6.489  12.723  68.819  1.00  0.00    -0.085 C  
HETATM   31  C   UNL     1      -8.053  14.758  69.052  1.00  0.00    -0.145 C  
HETATM   32  C   UNL     1      -8.337  13.301  67.081  1.00  0.00    -0.143 C  
HETATM   33  O   UNL     1      -6.232  12.808  70.024  1.00  0.00    -0.130 OA 
HETATM   34  C   UNL     1      -7.301  13.821  68.075  1.00  0.00    -0.134 C  
ENDBRANCH  29  30
ENDBRANCH  28  29
ENDBRANCH  26  28
ENDBRANCH  22  26
BRANCH  25  35
HETATM   35  C   UNL     1     -11.752  11.592  68.234  1.00  0.00    -0.374 C  
HETATM   36  C   UNL     1     -11.307  12.878  69.012  1.00  0.00    -0.341 C  
HETATM   37  C   UNL     1     -11.517  11.816  66.746  1.00  0.00    -0.352 C  
HETATM   38  C   UNL     1     -12.011  14.141  68.538  1.00  0.00    -0.367 C  
HETATM   39  C   UNL     1     -11.864  14.328  67.031  1.00  0.00    -0.455 C  
HETATM   40  C   UNL     1     -12.263  13.066  66.265  1.00  0.00    -0.390 C  
ENDBRANCH  25  35
TORSDOF 5
ENDMDL
MODEL       51
REMARK 921   NORMALIZED FREE ENERGY PREDICTED BY IDOCK:   -5.74 KCAL/MOL
REMARK 922        TOTAL FREE ENERGY PREDICTED BY IDOCK:   -7.75 KCAL/MOL
REMARK 923 INTER-LIGAND FREE ENERGY PREDICTED BY IDOCK:   -6.42 KCAL/MOL
REMARK 924 INTRA-LIGAND FREE ENERGY PREDICTED BY IDOCK:   -1.33 KCAL/MOL
REMARK 927      BINDING AFFINITY PREDICTED BY RF-SCORE:    0.00 PKD
ROOT
HETATM    1  C   UNL     1      -8.833  11.227  66.555  1.00  0.00    -0.179 C  
HETATM    2  C   UNL     1      -8.821   9.522  66.250  1.00  0.00    -0.172 C  
HETATM    3  C   UNL     1      -8.169   8.862  67.608  1.00  0.00    -0.110 C  
HETATM    4  C   UNL     1      -8.320   7.814  68.851  1.00  0.00    -0.128 C  
HETATM    5  C   UNL     1      -9.780   7.904  69.435  1.00  0.00    -0.170 C  
HETATM    6  C   UNL     1     -10.031   7.608  70.889  1.00  0.00    -0.183 C  
HETATM    7  C   UNL     1      -8.932   8.186  71.803  1.00  0.00    -0.216 C  
HETATM    8  C   UNL     1      -9.200   8.401  73.103  1.00  0.00    -0.222 C  
HETATM    9  C   UNL     1      -9.510   7.021  73.606  1.00  0.00    -0.204 C  
HETATM   10  C   UNL     1      -8.710   5.880  72.969  1.00  0.00    -0.123 C  
HETATM   11  O   UNL     1     -10.389   6.841  74.440  1.00  0.00    -0.340 OA 
HETATM   12  C   UNL     1      -7.834   6.124  71.943  1.00  0.00    -0.102 C  
HETATM   13  C   UNL     1      -7.556   7.557  71.489  1.00  0.00    -0.084 C  
HETATM   14  C   UNL     1      -6.348   7.941  72.400  1.00  0.00    -0.057 C  
HETATM   15  C   UNL     1      -7.349   8.186  70.044  1.00  0.00    -0.061 C  
HETATM   16  C   UNL     1      -5.946   8.584  69.579  1.00  0.00    -0.033 C  
HETATM   17  O   UNL     1      -5.349   7.644  68.703  1.00  0.00    -0.024 OA 
HETATM   18  C   UNL     1      -6.151   9.977  68.959  1.00  0.00    -0.040 C  
HETATM   19  C   UNL     1      -7.240  10.004  67.868  1.00  0.00    -0.087 C  
HETATM   20  H   UNL     1      -4.479   7.891  68.415  1.00  0.00     0.000 HD 
HETATM   21  C   UNL     1      -6.287   9.906  66.523  1.00  0.00    -0.070 C  
HETATM   22  C   UNL     1      -8.598  11.130  68.044  1.00  0.00    -0.140 C  
HETATM   23  O   UNL     1      -8.095  12.306  68.544  1.00  0.00    -0.147 OA 
HETATM   24  O   UNL     1      -7.845  12.255  66.221  1.00  0.00     0.287 OA 
HETATM   25  C   UNL     1      -7.341  12.835  67.467  1.00  0.00    -0.153 C  
ENDROOT
BRANCH  22  26
HETATM   26  C   UNL     1     -10.276  10.919  68.433  1.00  0.00    -0.178 C  
HETATM   27  O   UNL     1     -10.673  10.926  69.618  1.00  0.00    -0.238 OA 
BRANCH  26  28
HETATM   28  C   UNL     1     -11.378  10.672  67.382  1.00  0.00    -0.105 C  
BRANCH  28  29
HETATM   29  O   UNL     1     -12.253  11.869  67.177  1.00  0.00    -0.501 OA 
BRANCH  29  30
HETATM   30  C   UNL     1     -12.043  12.673  66.093  1.00  0.00    -0.333 C  
HETATM   31  C   UNL     1     -11.615  15.035  65.156  1.00  0.00    -0.294 C  
HETATM   32  C   UNL     1     -11.579  14.739  67.605  1.00  0.00    -0.374 C  
HETATM   33  O   UNL     1     -11.773  12.205  64.982  1.00  0.00    -0.351 OA 
HETATM   34  C   UNL     1     -12.206  14.203  66.320  1.00  0.00    -0.474 C  
ENDBRANCH  29  30
ENDBRANCH  28  29
ENDBRANCH  26  28
ENDBRANCH  22  26
BRANCH  25  35
HETATM   35  C   UNL     1      -7.375  14.348  67.765  1.00  0.00    -0.186 C  
HETATM   36  C   UNL     1      -7.950  15.100  66.516  1.00  0.00     0.263 C  
HETATM   37  C   UNL     1      -8.197  14.735  68.988  1.00  0.00    -0.141 C  
HETATM   38  C   UNL     1      -7.984  16.611  66.687  1.00  0.00    -0.315 C  
HETATM   39  C   UNL     1      -8.723  17.011  67.960  1.00  0.00    -0.218 C  
HETATM   40  C   UNL     1      -8.193  16.257  69.180  1.00  0.00    -0.215 C  
ENDBRANCH  25  35
TORSDOF 5
ENDMDL
MODEL       52
REMARK 921   NORMALIZED FREE ENERGY PREDICTED BY IDOCK:   -5.72 KCAL/MOL
REMARK 922        TOTAL FREE ENERGY PREDICTED BY IDOCK:   -7.71 KCAL/MOL
REMARK 923 INTER-LIGAND FREE ENERGY PREDICTED BY IDOCK:   -6.40 KCAL/MOL
REMARK 924 INTRA-LIGAND FREE ENERGY PREDICTED BY IDOCK:   -1.32 KCAL/MOL
REMARK 927      BINDING AFFINITY PREDICTED BY RF-SCORE:    0.00 PKD
ROOT
HETATM    1  C   UNL     1     -10.034   6.115  70.808  1.00  0.00    -0.189 C  
HETATM    2  C   UNL     1     -11.285   6.119  69.610  1.00  0.00    -0.488 C  
HETATM    3  C   UNL     1     -11.033   7.499  68.751  1.00  0.00     0.045 C  
HETATM    4  C   UNL     1     -10.765   8.202  67.302  1.00  0.00    -0.263 C  
HETATM    5  C   UNL     1      -9.714   7.351  66.495  1.00  0.00    -0.225 C  
HETATM    6  C   UNL     1      -8.805   8.019  65.500  1.00  0.00    -0.102 C  
HETATM    7  C   UNL     1      -8.285   9.380  66.004  1.00  0.00    -0.111 C  
HETATM    8  C   UNL     1      -7.161   9.895  65.474  1.00  0.00    -0.122 C  
HETATM    9  C   UNL     1      -7.533  10.074  64.031  1.00  0.00    -0.135 C  
HETATM   10  C   UNL     1      -8.989  10.465  63.757  1.00  0.00    -0.247 C  
HETATM   11  O   UNL     1      -6.716   9.864  63.142  1.00  0.00    -0.115 OA 
HETATM   12  C   UNL     1      -9.896  10.555  64.780  1.00  0.00    -0.387 C  
HETATM   13  C   UNL     1      -9.446  10.374  66.230  1.00  0.00    -0.215 C  
HETATM   14  C   UNL     1      -9.090  11.840  66.630  1.00  0.00    -0.194 C  
HETATM   15  C   UNL     1     -10.128   9.641  67.465  1.00  0.00    -0.247 C  
HETATM   16  C   UNL     1     -10.778  10.467  68.578  1.00  0.00    -0.221 C  
HETATM   17  O   UNL     1     -12.190  10.536  68.485  1.00  0.00    -0.806 OA 
HETATM   18  C   UNL     1     -10.266   9.802  69.868  1.00  0.00    -0.291 C  
HETATM   19  C   UNL     1     -10.542   8.286  69.924  1.00  0.00    -0.232 C  
HETATM   20  H   UNL     1     -12.592  11.048  69.176  1.00  0.00     0.000 HD 
HETATM   21  C   UNL     1     -11.906   8.288  70.855  1.00  0.00    -0.232 C  
HETATM   22  C   UNL     1      -9.179   7.178  70.159  1.00  0.00    -0.155 C  
HETATM   23  O   UNL     1      -8.330   7.757  71.070  1.00  0.00    -0.110 OA 
HETATM   24  O   UNL     1     -10.040   6.618  72.184  1.00  0.00    -0.179 OA 
HETATM   25  C   UNL     1      -9.049   7.690  72.290  1.00  0.00    -0.140 C  
ENDROOT
BRANCH  22  26
HETATM   26  C   UNL     1      -8.355   6.067  69.111  1.00  0.00    -0.114 C  
HETATM   27  O   UNL     1      -8.804   4.921  68.897  1.00  0.00    -0.091 OA 
BRANCH  26  28
HETATM   28  C   UNL     1      -7.016   6.378  68.410  1.00  0.00    -0.080 C  
BRANCH  28  29
HETATM   29  O   UNL     1      -6.806   5.550  67.181  1.00  0.00    -0.060 OA 
BRANCH  29  30
HETATM   30  C   UNL     1      -6.004   6.025  66.184  1.00  0.00    -0.028 C  
HETATM   31  C   UNL     1      -5.358   6.019  63.689  1.00  0.00    -0.017 C  
HETATM   32  C   UNL     1      -7.382   4.780  64.362  1.00  0.00    -0.066 C  
HETATM   33  O   UNL     1      -5.287   7.017  66.346  1.00  0.00    -0.021 OA 
HETATM   34  C   UNL     1      -6.005   5.225  64.849  1.00  0.00    -0.022 C  
ENDBRANCH  29  30
ENDBRANCH  28  29
ENDBRANCH  26  28
ENDBRANCH  22  26
BRANCH  25  35
HETATM   35  C   UNL     1      -7.911   7.684  73.331  1.00  0.00    -0.157 C  
HETATM   36  C   UNL     1      -7.393   6.215  73.510  1.00  0.00    -0.088 C  
HETATM   37  C   UNL     1      -6.728   8.579  72.984  1.00  0.00    -0.076 C  
HETATM   38  C   UNL     1      -6.295   6.087  74.556  1.00  0.00    -0.070 C  
HETATM   39  C   UNL     1      -5.144   7.048  74.273  1.00  0.00    -0.043 C  
HETATM   40  C   UNL     1      -5.642   8.478  74.062  1.00  0.00    -0.104 C  
ENDBRANCH  25  35
TORSDOF 5
ENDMDL
MODEL       53
REMARK 921   NORMALIZED FREE ENERGY PREDICTED BY IDOCK:   -5.70 KCAL/MOL
REMARK 922        TOTAL FREE ENERGY PREDICTED BY IDOCK:   -7.69 KCAL/MOL
REMARK 923 INTER-LIGAND FREE ENERGY PREDICTED BY IDOCK:   -6.99 KCAL/MOL
REMARK 924 INTRA-LIGAND FREE ENERGY PREDICTED BY IDOCK:   -0.70 KCAL/MOL
REMARK 927      BINDING AFFINITY PREDICTED BY RF-SCORE:    0.00 PKD
ROOT
HETATM    1  C   UNL     1      -8.744  10.570  65.964  1.00  0.00    -0.164 C  
HETATM    2  C   UNL     1      -9.116   8.979  65.389  1.00  0.00    -0.250 C  
HETATM    3  C   UNL     1      -8.724   7.983  66.638  1.00  0.00    -0.153 C  
HETATM    4  C   UNL     1      -9.195   6.829  67.692  1.00  0.00    -0.118 C  
HETATM    5  C   UNL     1     -10.625   7.183  68.249  1.00  0.00    -0.230 C  
HETATM    6  C   UNL     1     -11.028   6.741  69.630  1.00  0.00    -0.336 C  
HETATM    7  C   UNL     1      -9.882   6.890  70.650  1.00  0.00    -0.191 C  
HETATM    8  C   UNL     1     -10.171   6.966  71.962  1.00  0.00    -0.206 C  
HETATM    9  C   UNL     1     -10.828   5.643  72.229  1.00  0.00    -0.242 C  
HETATM   10  C   UNL     1     -10.284   4.451  71.435  1.00  0.00    -0.153 C  
HETATM   11  O   UNL     1     -11.775   5.558  73.002  1.00  0.00    -0.242 OA 
HETATM   12  C   UNL     1      -9.314   4.626  70.482  1.00  0.00    -0.222 C  
HETATM   13  C   UNL     1      -8.677   6.000  70.272  1.00  0.00    -0.143 C  
HETATM   14  C   UNL     1      -7.471   5.937  71.260  1.00  0.00    -0.089 C  
HETATM   15  C   UNL     1      -8.239   6.770  68.951  1.00  0.00    -0.121 C  
HETATM   16  C   UNL     1      -6.755   6.880  68.590  1.00  0.00    -0.060 C  
HETATM   17  O   UNL     1      -6.345   5.966  67.588  1.00  0.00    -0.038 OA 
HETATM   18  C   UNL     1      -6.586   8.358  68.197  1.00  0.00    -0.061 C  
HETATM   19  C   UNL     1      -7.569   8.813  67.100  1.00  0.00    -0.088 C  
HETATM   20  H   UNL     1      -5.425   6.034  67.364  1.00  0.00     0.000 HD 
HETATM   21  C   UNL     1      -6.586   8.690  65.779  1.00  0.00    -0.057 C  
HETATM   22  C   UNL     1      -8.631  10.196  67.423  1.00  0.00    -0.122 C  
HETATM   23  O   UNL     1      -7.896  11.125  68.118  1.00  0.00    -0.107 OA 
HETATM   24  O   UNL     1      -7.522  11.365  65.824  1.00  0.00     0.167 OA 
HETATM   25  C   UNL     1      -6.973  11.610  67.158  1.00  0.00    -0.144 C  
ENDROOT
BRANCH  22  26
HETATM   26  C   UNL     1     -10.331  10.343  67.734  1.00  0.00    -0.206 C  
HETATM   27  O   UNL     1     -10.827   9.977  68.821  1.00  0.00    -0.214 OA 
BRANCH  26  28
HETATM   28  C   UNL     1     -11.349  10.884  66.709  1.00  0.00     0.098 C  
BRANCH  28  29
HETATM   29  O   UNL     1     -11.559  12.361  66.834  1.00  0.00    -0.340 OA 
BRANCH  29  30
HETATM   30  C   UNL     1     -12.083  13.053  65.780  1.00  0.00    -0.454 C  
HETATM   31  C   UNL     1     -11.982  15.110  64.230  1.00  0.00    -0.276 C  
HETATM   32  C   UNL     1     -10.128  14.770  65.823  1.00  0.00    -0.364 C  
HETATM   33  O   UNL     1     -12.907  12.543  65.014  1.00  0.00    -0.742 OA 
HETATM   34  C   UNL     1     -11.623  14.531  65.620  1.00  0.00    -0.344 C  
ENDBRANCH  29  30
ENDBRANCH  28  29
ENDBRANCH  26  28
ENDBRANCH  22  26
BRANCH  25  35
HETATM   35  C   UNL     1      -6.667  13.024  67.695  1.00  0.00    -0.158 C  
HETATM   36  C   UNL     1      -7.951  13.593  68.390  1.00  0.00    -0.147 C  
HETATM   37  C   UNL     1      -5.508  13.091  68.681  1.00  0.00    -0.070 C  
HETATM   38  C   UNL     1      -7.773  15.009  68.916  1.00  0.00    -0.152 C  
HETATM   39  C   UNL     1      -6.558  15.112  69.833  1.00  0.00    -0.172 C  
HETATM   40  C   UNL     1      -5.306  14.528  69.178  1.00  0.00    -0.081 C  
ENDBRANCH  25  35
TORSDOF 5
ENDMDL
MODEL       54
REMARK 921   NORMALIZED FREE ENERGY PREDICTED BY IDOCK:   -5.67 KCAL/MOL
REMARK 922        TOTAL FREE ENERGY PREDICTED BY IDOCK:   -7.65 KCAL/MOL
REMARK 923 INTER-LIGAND FREE ENERGY PREDICTED BY IDOCK:   -6.67 KCAL/MOL
REMARK 924 INTRA-LIGAND FREE ENERGY PREDICTED BY IDOCK:   -0.98 KCAL/MOL
REMARK 927      BINDING AFFINITY PREDICTED BY RF-SCORE:    0.00 PKD
ROOT
HETATM    1  C   UNL     1      -8.540   9.841  67.641  1.00  0.00    -0.125 C  
HETATM    2  C   UNL     1      -8.607  10.639  69.178  1.00  0.00    -0.136 C  
HETATM    3  C   UNL     1      -8.043  12.156  68.883  1.00  0.00     0.130 C  
HETATM    4  C   UNL     1      -8.296  13.767  68.949  1.00  0.00     0.111 C  
HETATM    5  C   UNL     1      -9.769  14.083  68.491  1.00  0.00    -0.215 C  
HETATM    6  C   UNL     1     -10.091  15.397  67.833  1.00  0.00    -0.226 C  
HETATM    7  C   UNL     1      -8.996  15.837  66.839  1.00  0.00    -0.266 C  
HETATM    8  C   UNL     1      -9.300  16.717  65.868  1.00  0.00    -0.192 C  
HETATM    9  C   UNL     1      -9.702  17.936  66.647  1.00  0.00    -0.319 C  
HETATM   10  C   UNL     1      -8.942  18.177  67.955  1.00  0.00    -0.289 C  
HETATM   11  O   UNL     1     -10.620  18.650  66.262  1.00  0.00    -0.413 OA 
HETATM   12  C   UNL     1      -8.017  17.272  68.406  1.00  0.00    -0.253 C  
HETATM   13  C   UNL     1      -7.645  16.057  67.555  1.00  0.00    -0.179 C  
HETATM   14  C   UNL     1      -6.453  16.618  66.719  1.00  0.00    -0.186 C  
HETATM   15  C   UNL     1      -7.352  14.544  67.945  1.00  0.00    -0.166 C  
HETATM   16  C   UNL     1      -5.913  14.021  67.942  1.00  0.00    -0.138 C  
HETATM   17  O   UNL     1      -5.335  13.939  69.233  1.00  0.00    -0.081 OA 
HETATM   18  C   UNL     1      -6.019  12.670  67.215  1.00  0.00    -0.077 C  
HETATM   19  C   UNL     1      -7.064  11.723  67.838  1.00  0.00    -0.087 C  
HETATM   20  H   UNL     1      -4.443  13.614  69.231  1.00  0.00     0.000 HD 
HETATM   21  C   UNL     1      -6.069  10.778  68.757  1.00  0.00    -0.040 C  
HETATM   22  C   UNL     1      -8.366  11.092  66.813  1.00  0.00    -0.152 C  
HETATM   23  O   UNL     1      -7.819  10.802  65.586  1.00  0.00    -0.147 OA 
HETATM   24  O   UNL     1      -7.486   9.012  67.051  1.00  0.00    -0.086 OA 
HETATM   25  C   UNL     1      -6.998   9.676  65.841  1.00  0.00    -0.097 C  
ENDROOT
BRANCH  22  26
HETATM   26  C   UNL     1     -10.065  11.424  66.709  1.00  0.00    -0.216 C  
HETATM   27  O   UNL     1     -10.504  12.347  65.990  1.00  0.00    -0.245 OA 
BRANCH  26  28
HETATM   28  C   UNL     1     -11.142  10.656  67.503  1.00  0.00    -0.300 C  
BRANCH  28  29
HETATM   29  O   UNL     1     -12.063  11.569  68.251  1.00  0.00    -0.580 OA 
BRANCH  29  30
HETATM   30  C   UNL     1     -12.418  11.257  69.532  1.00  0.00    -0.061 C  
HETATM   31  C   UNL     1     -12.957  12.056  71.923  1.00  0.00    -0.428 C  
HETATM   32  C   UNL     1     -12.648  13.768  70.174  1.00  0.00    -0.253 C  
HETATM   33  O   UNL     1     -12.846  10.138  69.832  1.00  0.00     0.035 OA 
HETATM   34  C   UNL     1     -12.213  12.368  70.601  1.00  0.00    -0.368 C  
ENDBRANCH  29  30
ENDBRANCH  28  29
ENDBRANCH  26  28
ENDBRANCH  22  26
BRANCH  25  35
HETATM   35  C   UNL     1      -6.962   8.988  64.461  1.00  0.00    -0.089 C  
HETATM   36  C   UNL     1      -6.595   7.476  64.655  1.00  0.00    -0.040 C  
HETATM   37  C   UNL     1      -8.263   9.077  63.674  1.00  0.00    -0.177 C  
HETATM   38  C   UNL     1      -6.486   6.711  63.345  1.00  0.00    -0.041 C  
HETATM   39  C   UNL     1      -7.748   6.869  62.502  1.00  0.00    -0.104 C  
HETATM   40  C   UNL     1      -8.135   8.339  62.336  1.00  0.00    -0.172 C  
ENDBRANCH  25  35
TORSDOF 5
ENDMDL
MODEL       55
REMARK 921   NORMALIZED FREE ENERGY PREDICTED BY IDOCK:   -5.51 KCAL/MOL
REMARK 922        TOTAL FREE ENERGY PREDICTED BY IDOCK:   -7.45 KCAL/MOL
REMARK 923 INTER-LIGAND FREE ENERGY PREDICTED BY IDOCK:   -6.54 KCAL/MOL
REMARK 924 INTRA-LIGAND FREE ENERGY PREDICTED BY IDOCK:   -0.91 KCAL/MOL
REMARK 927      BINDING AFFINITY PREDICTED BY RF-SCORE:    0.00 PKD
ROOT
HETATM    1  C   UNL     1      -8.220   8.288  67.838  1.00  0.00    -0.128 C  
HETATM    2  C   UNL     1      -7.872   9.087  66.340  1.00  0.00    -0.099 C  
HETATM    3  C   UNL     1      -8.518  10.589  66.511  1.00  0.00    -0.139 C  
HETATM    4  C   UNL     1      -8.294  12.207  66.488  1.00  0.00     0.019 C  
HETATM    5  C   UNL     1      -6.946  12.558  67.222  1.00  0.00    -0.114 C  
HETATM    6  C   UNL     1      -6.790  13.879  67.924  1.00  0.00    -0.166 C  
HETATM    7  C   UNL     1      -8.067  14.293  68.683  1.00  0.00    -0.140 C  
HETATM    8  C   UNL     1      -7.979  15.181  69.689  1.00  0.00    -0.113 C  
HETATM    9  C   UNL     1      -7.461  16.409  68.998  1.00  0.00    -0.227 C  
HETATM   10  C   UNL     1      -7.956  16.631  67.565  1.00  0.00    -0.186 C  
HETATM   11  O   UNL     1      -6.652  17.145  69.551  1.00  0.00    -0.236 OA 
HETATM   12  C   UNL     1      -8.754  15.704  66.947  1.00  0.00    -0.283 C  
HETATM   13  C   UNL     1      -9.257  14.481  67.715  1.00  0.00    -0.194 C  
HETATM   14  C   UNL     1     -10.602  15.014  68.300  1.00  0.00    -0.247 C  
HETATM   15  C   UNL     1      -9.434  12.961  67.284  1.00  0.00    -0.216 C  
HETATM   16  C   UNL     1     -10.833  12.405  67.008  1.00  0.00    -0.246 C  
HETATM   17  O   UNL     1     -11.145  12.308  65.630  1.00  0.00    -0.295 OA 
HETATM   18  C   UNL     1     -10.840  11.057  67.749  1.00  0.00    -0.297 C  
HETATM   19  C   UNL     1      -9.672  10.134  67.347  1.00  0.00    -0.192 C  
HETATM   20  H   UNL     1     -12.013  11.963  65.459  1.00  0.00     0.000 HD 
HETATM   21  C   UNL     1     -10.446   9.166  66.257  1.00  0.00    -0.035 C  
HETATM   22  C   UNL     1      -8.582   9.535  68.610  1.00  0.00    -0.119 C  
HETATM   23  O   UNL     1      -9.351   9.234  69.708  1.00  0.00    -0.165 OA 
HETATM   24  O   UNL     1      -9.350   7.435  68.215  1.00  0.00    -0.140 OA 
HETATM   25  C   UNL     1     -10.080   8.088  69.303  1.00  0.00    -0.198 C  
ENDROOT
BRANCH  22  26
HETATM   26  C   UNL     1      -6.943   9.907  69.042  1.00  0.00    -0.059 C  
HETATM   27  O   UNL     1      -5.993   9.639  68.276  1.00  0.00    -0.046 OA 
BRANCH  26  28
HETATM   28  C   UNL     1      -6.531  10.542  70.386  1.00  0.00    -0.117 C  
BRANCH  28  29
HETATM   29  O   UNL     1      -7.030   9.767  71.565  1.00  0.00    -0.293 OA 
BRANCH  29  30
HETATM   30  C   UNL     1      -6.473   8.554  71.852  1.00  0.00    -0.071 C  
HETATM   31  C   UNL     1      -5.873   6.769  73.612  1.00  0.00    -0.058 C  
HETATM   32  C   UNL     1      -7.261   8.678  74.328  1.00  0.00    -0.113 C  
HETATM   33  O   UNL     1      -6.195   7.742  70.964  1.00  0.00    -0.035 OA 
HETATM   34  C   UNL     1      -6.164   8.267  73.349  1.00  0.00    -0.108 C  
ENDBRANCH  29  30
ENDBRANCH  28  29
ENDBRANCH  26  28
ENDBRANCH  22  26
BRANCH  25  35
HETATM   35  C   UNL     1     -10.369   7.400  70.654  1.00  0.00    -0.217 C  
HETATM   36  C   UNL     1      -9.286   6.294  70.903  1.00  0.00    -0.171 C  
HETATM   37  C   UNL     1     -10.392   8.339  71.852  1.00  0.00    -0.324 C  
HETATM   38  C   UNL     1      -9.506   5.517  72.193  1.00  0.00    -0.169 C  
HETATM   39  C   UNL     1      -9.626   6.453  73.391  1.00  0.00    -0.163 C  
HETATM   40  C   UNL     1     -10.655   7.557  73.145  1.00  0.00    -0.442 C  
ENDBRANCH  25  35
TORSDOF 5
ENDMDL
MODEL       56
REMARK 921   NORMALIZED FREE ENERGY PREDICTED BY IDOCK:   -5.51 KCAL/MOL
REMARK 922        TOTAL FREE ENERGY PREDICTED BY IDOCK:   -7.44 KCAL/MOL
REMARK 923 INTER-LIGAND FREE ENERGY PREDICTED BY IDOCK:   -6.47 KCAL/MOL
REMARK 924 INTRA-LIGAND FREE ENERGY PREDICTED BY IDOCK:   -0.97 KCAL/MOL
REMARK 927      BINDING AFFINITY PREDICTED BY RF-SCORE:    0.00 PKD
ROOT
HETATM    1  C   UNL     1      -9.213  14.722  68.826  1.00  0.00    -0.196 C  
HETATM    2  C   UNL     1      -9.952  13.192  69.164  1.00  0.00     0.350 C  
HETATM    3  C   UNL     1      -9.992  12.421  67.711  1.00  0.00    -0.205 C  
HETATM    4  C   UNL     1      -9.587  11.112  66.824  1.00  0.00    -0.215 C  
HETATM    5  C   UNL     1      -8.104  10.697  67.153  1.00  0.00    -0.121 C  
HETATM    6  C   UNL     1      -7.259  10.020  66.108  1.00  0.00    -0.109 C  
HETATM    7  C   UNL     1      -7.465  10.628  64.705  1.00  0.00     0.132 C  
HETATM    8  C   UNL     1      -6.514  10.464  63.768  1.00  0.00    -0.033 C  
HETATM    9  C   UNL     1      -6.475   8.972  63.600  1.00  0.00    -0.089 C  
HETATM   10  C   UNL     1      -7.817   8.246  63.741  1.00  0.00    -0.152 C  
HETATM   11  O   UNL     1      -5.413   8.391  63.412  1.00  0.00    -0.061 OA 
HETATM   12  C   UNL     1      -8.953   8.931  64.086  1.00  0.00     0.126 C  
HETATM   13  C   UNL     1      -8.924  10.453  64.229  1.00  0.00    -0.249 C  
HETATM   14  C   UNL     1      -9.283  10.907  62.779  1.00  0.00    -0.360 C  
HETATM   15  C   UNL     1      -9.618  11.430  65.274  1.00  0.00    -0.256 C  
HETATM   16  C   UNL     1     -10.831  12.262  64.852  1.00  0.00    -0.302 C  
HETATM   17  O   UNL     1     -12.067  11.729  65.293  1.00  0.00    -0.271 OA 
HETATM   18  C   UNL     1     -10.520  13.663  65.405  1.00  0.00    -0.333 C  
HETATM   19  C   UNL     1     -10.209  13.668  66.915  1.00  0.00    -0.261 C  
HETATM   20  H   UNL     1     -12.820  12.245  65.031  1.00  0.00     0.000 HD 
HETATM   21  C   UNL     1     -11.684  14.124  67.499  1.00  0.00    -0.418 C  
HETATM   22  C   UNL     1      -8.668  14.346  67.468  1.00  0.00    -0.197 C  
HETATM   23  O   UNL     1      -8.413  15.463  66.710  1.00  0.00    -0.238 OA 
HETATM   24  O   UNL     1      -9.819  16.013  68.494  1.00  0.00    -0.207 OA 
HETATM   25  C   UNL     1      -9.385  16.397  67.150  1.00  0.00    -0.218 C  
ENDROOT
BRANCH  22  26
HETATM   26  C   UNL     1      -7.214  13.639  68.097  1.00  0.00    -0.117 C  
HETATM   27  O   UNL     1      -6.346  13.156  67.338  1.00  0.00    -0.219 OA 
BRANCH  26  28
HETATM   28  C   UNL     1      -6.899  13.513  69.602  1.00  0.00     0.107 C  
BRANCH  28  29
HETATM   29  O   UNL     1      -5.629  12.765  69.862  1.00  0.00    -0.093 OA 
BRANCH  29  30
HETATM   30  C   UNL     1      -5.563  11.906  70.921  1.00  0.00    -0.071 C  
HETATM   31  C   UNL     1      -5.428   9.480  71.782  1.00  0.00    -0.074 C  
HETATM   32  C   UNL     1      -5.222   9.858  69.353  1.00  0.00    -0.035 C  
HETATM   33  O   UNL     1      -5.312  12.303  72.063  1.00  0.00    -0.377 OA 
HETATM   34  C   UNL     1      -5.865  10.409  70.623  1.00  0.00    -0.106 C  
ENDBRANCH  29  30
ENDBRANCH  28  29
ENDBRANCH  26  28
ENDBRANCH  22  26
BRANCH  25  35
HETATM   35  C   UNL     1      -8.696  17.743  66.841  1.00  0.00    -0.262 C  
HETATM   36  C   UNL     1      -8.252  18.408  68.190  1.00  0.00    -0.303 C  
HETATM   37  C   UNL     1      -7.483  17.640  65.926  1.00  0.00    -0.185 C  
HETATM   38  C   UNL     1      -7.601  19.770  68.002  1.00  0.00    -0.334 C  
HETATM   39  C   UNL     1      -6.441  19.701  67.013  1.00  0.00    -0.205 C  
HETATM   40  C   UNL     1      -6.855  19.021  65.707  1.00  0.00    -0.311 C  
ENDBRANCH  25  35
TORSDOF 5
ENDMDL
MODEL       57
REMARK 921   NORMALIZED FREE ENERGY PREDICTED BY IDOCK:   -5.44 KCAL/MOL
REMARK 922        TOTAL FREE ENERGY PREDICTED BY IDOCK:   -7.35 KCAL/MOL
REMARK 923 INTER-LIGAND FREE ENERGY PREDICTED BY IDOCK:   -6.36 KCAL/MOL
REMARK 924 INTRA-LIGAND FREE ENERGY PREDICTED BY IDOCK:   -0.99 KCAL/MOL
REMARK 927      BINDING AFFINITY PREDICTED BY RF-SCORE:    0.00 PKD
ROOT
HETATM    1  C   UNL     1      -6.258   6.236  64.897  1.00  0.00    -0.030 C  
HETATM    2  C   UNL     1      -5.399   7.706  65.217  1.00  0.00    -0.029 C  
HETATM    3  C   UNL     1      -6.518   8.894  65.008  1.00  0.00    -0.065 C  
HETATM    4  C   UNL     1      -7.313  10.177  65.632  1.00  0.00    -0.144 C  
HETATM    5  C   UNL     1      -7.732   9.860  67.116  1.00  0.00    -0.092 C  
HETATM    6  C   UNL     1      -8.965  10.491  67.704  1.00  0.00    -0.138 C  
HETATM    7  C   UNL     1     -10.133  10.541  66.698  1.00  0.00    -0.275 C  
HETATM    8  C   UNL     1     -11.393  10.654  67.155  1.00  0.00    -0.046 C  
HETATM    9  C   UNL     1     -11.366  11.978  67.864  1.00  0.00    -0.305 C  
HETATM   10  C   UNL     1     -10.472  13.054  67.240  1.00  0.00    -0.238 C  
HETATM   11  O   UNL     1     -11.991  12.144  68.905  1.00  0.00    -0.299 OA 
HETATM   12  C   UNL     1      -9.689  12.772  66.151  1.00  0.00    -0.246 C  
HETATM   13  C   UNL     1      -9.777  11.406  65.469  1.00  0.00    -0.263 C  
HETATM   14  C   UNL     1     -10.888  11.662  64.404  1.00  0.00    -0.399 C  
HETATM   15  C   UNL     1      -8.658  10.461  64.849  1.00  0.00    -0.190 C  
HETATM   16  C   UNL     1      -8.509  10.352  63.330  1.00  0.00    -0.177 C  
HETATM   17  O   UNL     1      -7.437  11.118  62.808  1.00  0.00    -0.371 OA 
HETATM   18  C   UNL     1      -8.375   8.839  63.087  1.00  0.00    -0.167 C  
HETATM   19  C   UNL     1      -7.246   8.186  63.910  1.00  0.00    -0.091 C  
HETATM   20  H   UNL     1      -7.345  11.050  61.865  1.00  0.00     0.000 HD 
HETATM   21  C   UNL     1      -6.058   8.143  62.765  1.00  0.00    -0.082 C  
HETATM   22  C   UNL     1      -7.643   6.831  64.982  1.00  0.00    -0.100 C  
HETATM   23  O   UNL     1      -8.561   6.045  64.328  1.00  0.00     0.007 OA 
HETATM   24  O   UNL     1      -6.398   5.473  63.654  1.00  0.00    -0.021 OA 
HETATM   25  C   UNL     1      -7.812   5.454  63.280  1.00  0.00    -0.092 C  
ENDROOT
BRANCH  22  26
HETATM   26  C   UNL     1      -7.755   6.671  66.706  1.00  0.00    -0.106 C  
HETATM   27  O   UNL     1      -6.744   6.440  67.403  1.00  0.00    -0.056 OA 
BRANCH  26  28
HETATM   28  C   UNL     1      -9.079   6.756  67.493  1.00  0.00    -0.117 C  
BRANCH  28  29
HETATM   29  O   UNL     1      -8.862   6.998  68.954  1.00  0.00    -0.131 OA 
BRANCH  29  30
HETATM   30  C   UNL     1      -9.927   7.328  69.743  1.00  0.00    -0.183 C  
HETATM   31  C   UNL     1     -11.863   6.560  71.261  1.00  0.00    -0.385 C  
HETATM   32  C   UNL     1     -10.250   4.858  70.495  1.00  0.00    -0.288 C  
HETATM   33  O   UNL     1     -10.118   8.488  70.121  1.00  0.00    -0.185 OA 
HETATM   34  C   UNL     1     -10.910   6.178  70.102  1.00  0.00    -0.395 C  
ENDBRANCH  29  30
ENDBRANCH  28  29
ENDBRANCH  26  28
ENDBRANCH  22  26
BRANCH  25  35
HETATM   35  C   UNL     1      -8.597   4.150  63.024  1.00  0.00    -0.098 C  
HETATM   36  C   UNL     1      -7.809   2.951  63.653  1.00  0.00    -0.073 C  
HETATM   37  C   UNL     1     -10.017   4.145  63.575  1.00  0.00    -0.085 C  
HETATM   38  C   UNL     1      -8.475   1.603  63.416  1.00  0.00    -0.069 C  
HETATM   39  C   UNL     1      -9.929   1.613  63.878  1.00  0.00    -0.111 C  
HETATM   40  C   UNL     1     -10.698   2.800  63.297  1.00  0.00    -0.231 C  
ENDBRANCH  25  35
TORSDOF 5
ENDMDL
MODEL       58
REMARK 921   NORMALIZED FREE ENERGY PREDICTED BY IDOCK:   -5.32 KCAL/MOL
REMARK 922        TOTAL FREE ENERGY PREDICTED BY IDOCK:   -7.19 KCAL/MOL
REMARK 923 INTER-LIGAND FREE ENERGY PREDICTED BY IDOCK:   -6.18 KCAL/MOL
REMARK 924 INTRA-LIGAND FREE ENERGY PREDICTED BY IDOCK:   -1.01 KCAL/MOL
REMARK 927      BINDING AFFINITY PREDICTED BY RF-SCORE:    0.00 PKD
ROOT
HETATM    1  C   UNL     1      -8.594   8.041  66.063  1.00  0.00    -0.145 C  
HETATM    2  C   UNL     1      -8.444   6.315  66.049  1.00  0.00    -0.143 C  
HETATM    3  C   UNL     1      -7.951   5.929  67.570  1.00  0.00    -0.102 C  
HETATM    4  C   UNL     1      -8.215   5.082  68.941  1.00  0.00    -0.084 C  
HETATM    5  C   UNL     1      -9.744   5.150  69.311  1.00  0.00    -0.242 C  
HETATM    6  C   UNL     1     -10.178   5.067  70.749  1.00  0.00    -0.299 C  
HETATM    7  C   UNL     1      -9.250   5.865  71.687  1.00  0.00    -0.156 C  
HETATM    8  C   UNL     1      -9.708   6.261  72.888  1.00  0.00    -0.162 C  
HETATM    9  C   UNL     1     -10.007   4.958  73.570  1.00  0.00    -0.155 C  
HETATM   10  C   UNL     1      -9.064   3.796  73.239  1.00  0.00    -0.111 C  
HETATM   11  O   UNL     1     -10.982   4.844  74.303  1.00  0.00    -0.322 OA 
HETATM   12  C   UNL     1      -8.069   3.942  72.308  1.00  0.00    -0.085 C  
HETATM   13  C   UNL     1      -7.811   5.304  71.661  1.00  0.00    -0.110 C  
HETATM   14  C   UNL     1      -6.765   5.919  72.641  1.00  0.00    -0.069 C  
HETATM   15  C   UNL     1      -7.441   5.711  70.169  1.00  0.00    -0.077 C  
HETATM   16  C   UNL     1      -6.011   6.139  69.828  1.00  0.00    -0.025 C  
HETATM   17  O   UNL     1      -5.248   5.122  69.204  1.00  0.00     0.000 OA 
HETATM   18  C   UNL     1      -6.206   7.396  68.963  1.00  0.00    -0.035 C  
HETATM   19  C   UNL     1      -7.133   7.167  67.753  1.00  0.00    -0.085 C  
HETATM   20  H   UNL     1      -4.361   5.387  68.993  1.00  0.00     0.000 HD 
HETATM   21  C   UNL     1      -5.999   6.933  66.576  1.00  0.00    -0.033 C  
HETATM   22  C   UNL     1      -8.563   8.198  67.565  1.00  0.00    -0.129 C  
HETATM   23  O   UNL     1      -8.201   9.474  67.922  1.00  0.00    -0.112 OA 
HETATM   24  O   UNL     1      -7.628   9.077  65.691  1.00  0.00    -0.085 OA 
HETATM   25  C   UNL     1      -7.335   9.883  66.877  1.00  0.00    -0.091 C  
ENDROOT
BRANCH  22  26
HETATM   26  C   UNL     1     -10.264   7.921  67.766  1.00  0.00    -0.216 C  
HETATM   27  O   UNL     1     -11.000   7.665  66.789  1.00  0.00    -0.183 OA 
BRANCH  26  28
HETATM   28  C   UNL     1     -10.995   8.006  69.121  1.00  0.00     0.078 C  
BRANCH  28  29
HETATM   29  O   UNL     1     -10.559   9.184  69.935  1.00  0.00    -0.216 OA 
BRANCH  29  30
HETATM   30  C   UNL     1     -11.440   9.757  70.807  1.00  0.00    -0.342 C  
HETATM   31  C   UNL     1     -13.016  11.716  71.375  1.00  0.00    -0.426 C  
HETATM   32  C   UNL     1     -12.011  11.655  69.122  1.00  0.00    -0.378 C  
HETATM   33  O   UNL     1     -11.921   9.124  71.752  1.00  0.00    -0.335 OA 
HETATM   34  C   UNL     1     -11.769  11.260  70.577  1.00  0.00    -0.345 C  
ENDBRANCH  29  30
ENDBRANCH  28  29
ENDBRANCH  26  28
ENDBRANCH  22  26
BRANCH  25  35
HETATM   35  C   UNL     1      -7.495  11.417  66.913  1.00  0.00    -0.147 C  
HETATM   36  C   UNL     1      -9.012  11.774  66.745  1.00  0.00    -0.196 C  
HETATM   37  C   UNL     1      -6.975  12.080  68.181  1.00  0.00    -0.079 C  
HETATM   38  C   UNL     1      -9.277  13.272  66.718  1.00  0.00    -0.237 C  
HETATM   39  C   UNL     1      -8.678  13.965  67.939  1.00  0.00    -0.184 C  
HETATM   40  C   UNL     1      -7.207  13.595  68.132  1.00  0.00    -0.117 C  
ENDBRANCH  25  35
TORSDOF 5
ENDMDL
MODEL       59
REMARK 921   NORMALIZED FREE ENERGY PREDICTED BY IDOCK:   -5.28 KCAL/MOL
REMARK 922        TOTAL FREE ENERGY PREDICTED BY IDOCK:   -7.15 KCAL/MOL
REMARK 923 INTER-LIGAND FREE ENERGY PREDICTED BY IDOCK:   -6.31 KCAL/MOL
REMARK 924 INTRA-LIGAND FREE ENERGY PREDICTED BY IDOCK:   -0.84 KCAL/MOL
REMARK 927      BINDING AFFINITY PREDICTED BY RF-SCORE:    0.00 PKD
ROOT
HETATM    1  C   UNL     1      -6.965  11.466  66.628  1.00  0.00    -0.102 C  
HETATM    2  C   UNL     1      -6.611   9.771  66.574  1.00  0.00    -0.072 C  
HETATM    3  C   UNL     1      -7.130   9.192  68.023  1.00  0.00    -0.078 C  
HETATM    4  C   UNL     1      -8.076   8.140  68.838  1.00  0.00    -0.116 C  
HETATM    5  C   UNL     1      -9.493   8.073  68.154  1.00  0.00    -0.152 C  
HETATM    6  C   UNL     1     -10.714   7.758  68.975  1.00  0.00    -0.119 C  
HETATM    7  C   UNL     1     -10.691   8.456  70.350  1.00  0.00    -0.244 C  
HETATM    8  C   UNL     1     -11.846   8.646  71.012  1.00  0.00    -0.303 C  
HETATM    9  C   UNL     1     -12.328   7.243  71.240  1.00  0.00    -0.366 C  
HETATM   10  C   UNL     1     -11.241   6.193  71.491  1.00  0.00    -0.346 C  
HETATM   11  O   UNL     1     -13.521   6.972  71.172  1.00  0.00    -0.287 OA 
HETATM   12  C   UNL     1      -9.914   6.526  71.421  1.00  0.00    -0.202 C  
HETATM   13  C   UNL     1      -9.492   7.980  71.200  1.00  0.00    -0.181 C  
HETATM   14  C   UNL     1      -9.381   8.497  72.668  1.00  0.00    -0.284 C  
HETATM   15  C   UNL     1      -8.331   8.621  70.324  1.00  0.00    -0.129 C  
HETATM   16  C   UNL     1      -7.074   9.167  71.007  1.00  0.00    -0.098 C  
HETATM   17  O   UNL     1      -5.961   8.294  70.932  1.00  0.00    -0.032 OA 
HETATM   18  C   UNL     1      -6.852  10.527  70.321  1.00  0.00    -0.097 C  
HETATM   19  C   UNL     1      -6.779  10.431  68.784  1.00  0.00    -0.053 C  
HETATM   20  H   UNL     1      -5.182   8.633  71.355  1.00  0.00     0.000 HD 
HETATM   21  C   UNL     1      -5.140  10.431  68.584  1.00  0.00    -0.038 C  
HETATM   22  C   UNL     1      -7.900  11.402  67.813  1.00  0.00    -0.117 C  
HETATM   23  O   UNL     1      -8.014  12.629  68.421  1.00  0.00    -0.142 OA 
HETATM   24  O   UNL     1      -6.128  12.595  67.042  1.00  0.00    -0.281 OA 
HETATM   25  C   UNL     1      -6.750  13.231  68.204  1.00  0.00    -0.114 C  
ENDROOT
BRANCH  22  26
HETATM   26  C   UNL     1      -9.297  11.011  66.863  1.00  0.00    -0.173 C  
HETATM   27  O   UNL     1     -10.413  10.826  67.395  1.00  0.00    -0.199 OA 
BRANCH  26  28
HETATM   28  C   UNL     1      -9.272  10.826  65.332  1.00  0.00    -0.205 C  
BRANCH  28  29
HETATM   29  O   UNL     1      -9.388   9.390  64.926  1.00  0.00    -0.242 OA 
BRANCH  29  30
HETATM   30  C   UNL     1      -8.614   8.919  63.904  1.00  0.00    -0.091 C  
HETATM   31  C   UNL     1      -7.187   7.010  62.923  1.00  0.00    -0.068 C  
HETATM   32  C   UNL     1      -8.446   6.564  64.998  1.00  0.00    -0.017 C  
HETATM   33  O   UNL     1      -8.581   9.481  62.804  1.00  0.00    -0.182 OA 
HETATM   34  C   UNL     1      -7.742   7.668  64.210  1.00  0.00    -0.131 C  
ENDBRANCH  29  30
ENDBRANCH  28  29
ENDBRANCH  26  28
ENDBRANCH  22  26
BRANCH  25  35
HETATM   35  C   UNL     1      -7.099  14.733  68.254  1.00  0.00    -0.113 C  
HETATM   36  C   UNL     1      -5.860  15.560  67.767  1.00  0.00    -0.157 C  
HETATM   37  C   UNL     1      -8.310  15.131  67.418  1.00  0.00    -0.206 C  
HETATM   38  C   UNL     1      -6.082  17.065  67.822  1.00  0.00    -0.150 C  
HETATM   39  C   UNL     1      -7.346  17.468  67.068  1.00  0.00    -0.222 C  
HETATM   40  C   UNL     1      -8.554  16.642  67.510  1.00  0.00    -0.199 C  
ENDBRANCH  25  35
TORSDOF 5
ENDMDL
MODEL       60
REMARK 921   NORMALIZED FREE ENERGY PREDICTED BY IDOCK:   -5.26 KCAL/MOL
REMARK 922        TOTAL FREE ENERGY PREDICTED BY IDOCK:   -7.13 KCAL/MOL
REMARK 923 INTER-LIGAND FREE ENERGY PREDICTED BY IDOCK:   -5.92 KCAL/MOL
REMARK 924 INTRA-LIGAND FREE ENERGY PREDICTED BY IDOCK:   -1.21 KCAL/MOL
REMARK 927      BINDING AFFINITY PREDICTED BY RF-SCORE:    0.00 PKD
ROOT
HETATM    1  C   UNL     1      -9.926  11.942  67.362  1.00  0.00    -0.190 C  
HETATM    2  C   UNL     1     -11.079  10.973  66.505  1.00  0.00    -0.174 C  
HETATM    3  C   UNL     1     -10.353   9.506  66.349  1.00  0.00    -0.243 C  
HETATM    4  C   UNL     1     -10.411   7.895  66.609  1.00  0.00    -0.270 C  
HETATM    5  C   UNL     1     -10.953   7.619  68.061  1.00  0.00     0.037 C  
HETATM    6  C   UNL     1     -10.522   6.386  68.807  1.00  0.00    -0.260 C  
HETATM    7  C   UNL     1      -9.026   6.073  68.606  1.00  0.00    -0.118 C  
HETATM    8  C   UNL     1      -8.385   5.307  69.506  1.00  0.00    -0.095 C  
HETATM    9  C   UNL     1      -9.123   4.003  69.411  1.00  0.00    -0.127 C  
HETATM   10  C   UNL     1      -9.633   3.622  68.017  1.00  0.00    -0.172 C  
HETATM   11  O   UNL     1      -9.335   3.329  70.412  1.00  0.00    -0.138 OA 
HETATM   12  C   UNL     1      -9.485   4.478  66.957  1.00  0.00    -0.186 C  
HETATM   13  C   UNL     1      -8.709   5.785  67.122  1.00  0.00    -0.108 C  
HETATM   14  C   UNL     1      -7.261   5.335  66.754  1.00  0.00    -0.078 C  
HETATM   15  C   UNL     1      -8.968   7.247  66.552  1.00  0.00    -0.175 C  
HETATM   16  C   UNL     1      -8.111   7.779  65.401  1.00  0.00    -0.131 C  
HETATM   17  O   UNL     1      -8.753   7.720  64.139  1.00  0.00    -0.344 OA 
HETATM   18  C   UNL     1      -7.745   9.204  65.851  1.00  0.00    -0.095 C  
HETATM   19  C   UNL     1      -8.972  10.064  66.213  1.00  0.00    -0.170 C  
HETATM   20  H   UNL     1      -8.221   8.050  63.425  1.00  0.00     0.000 HD 
HETATM   21  C   UNL     1      -9.145  10.906  64.804  1.00  0.00    -0.197 C  
HETATM   22  C   UNL     1      -9.058  10.795  67.825  1.00  0.00    -0.151 C  
HETATM   23  O   UNL     1      -7.795  11.228  68.148  1.00  0.00    -0.114 OA 
HETATM   24  O   UNL     1      -8.886  12.842  66.858  1.00  0.00    -0.213 OA 
HETATM   25  C   UNL     1      -7.583  12.326  67.277  1.00  0.00    -0.152 C  
ENDROOT
BRANCH  22  26
HETATM   26  C   UNL     1     -10.015  10.462  69.234  1.00  0.00    -0.228 C  
HETATM   27  O   UNL     1     -11.087  11.067  69.448  1.00  0.00    -0.228 OA 
BRANCH  26  28
HETATM   28  C   UNL     1      -9.613   9.451  70.327  1.00  0.00    -0.249 C  
BRANCH  28  29
HETATM   29  O   UNL     1      -8.188   9.008  70.203  1.00  0.00    -0.109 OA 
BRANCH  29  30
HETATM   30  C   UNL     1      -7.525   8.572  71.314  1.00  0.00    -0.098 C  
HETATM   31  C   UNL     1      -5.325   7.763  72.388  1.00  0.00    -0.036 C  
HETATM   32  C   UNL     1      -5.239   8.606  70.070  1.00  0.00    -0.029 C  
HETATM   33  O   UNL     1      -8.014   8.675  72.443  1.00  0.00    -0.323 OA 
HETATM   34  C   UNL     1      -6.142   7.899  71.079  1.00  0.00    -0.034 C  
ENDBRANCH  29  30
ENDBRANCH  28  29
ENDBRANCH  26  28
ENDBRANCH  22  26
BRANCH  25  35
HETATM   35  C   UNL     1      -6.559  13.168  68.068  1.00  0.00    -0.124 C  
HETATM   36  C   UNL     1      -6.986  14.675  68.009  1.00  0.00    -0.147 C  
HETATM   37  C   UNL     1      -6.399  12.764  69.528  1.00  0.00    -0.108 C  
HETATM   38  C   UNL     1      -6.014  15.603  68.721  1.00  0.00    -0.100 C  
HETATM   39  C   UNL     1      -5.770  15.155  70.159  1.00  0.00    -0.134 C  
HETATM   40  C   UNL     1      -5.387  13.676  70.231  1.00  0.00    -0.109 C  
ENDBRANCH  25  35
TORSDOF 5
ENDMDL
MODEL       61
REMARK 921   NORMALIZED FREE ENERGY PREDICTED BY IDOCK:   -5.24 KCAL/MOL
REMARK 922        TOTAL FREE ENERGY PREDICTED BY IDOCK:   -7.10 KCAL/MOL
REMARK 923 INTER-LIGAND FREE ENERGY PREDICTED BY IDOCK:   -6.33 KCAL/MOL
REMARK 924 INTRA-LIGAND FREE ENERGY PREDICTED BY IDOCK:   -0.77 KCAL/MOL
REMARK 927      BINDING AFFINITY PREDICTED BY RF-SCORE:    0.00 PKD
ROOT
HETATM    1  C   UNL     1      -8.439  10.811  67.323  1.00  0.00    -0.124 C  
HETATM    2  C   UNL     1      -9.870  11.430  66.568  1.00  0.00    -0.237 C  
HETATM    3  C   UNL     1     -10.891  11.755  67.817  1.00  0.00    -0.258 C  
HETATM    4  C   UNL     1     -11.815  12.846  68.605  1.00  0.00    -0.347 C  
HETATM    5  C   UNL     1     -11.037  14.210  68.712  1.00  0.00    -0.283 C  
HETATM    6  C   UNL     1     -11.289  15.135  69.871  1.00  0.00    -0.309 C  
HETATM    7  C   UNL     1     -11.447  14.374  71.204  1.00  0.00     0.008 C  
HETATM    8  C   UNL     1     -11.241  15.023  72.363  1.00  0.00     0.054 C  
HETATM    9  C   UNL     1     -12.301  16.086  72.336  1.00  0.00    -0.497 C  
HETATM   10  C   UNL     1     -13.629  15.692  71.681  1.00  0.00    -0.491 C  
HETATM   11  O   UNL     1     -12.074  17.208  72.772  1.00  0.00     0.247 OA 
HETATM   12  C   UNL     1     -13.782  14.466  71.087  1.00  0.00    -0.297 C  
HETATM   13  C   UNL     1     -12.665  13.425  71.164  1.00  0.00    -0.411 C  
HETATM   14  C   UNL     1     -13.043  12.661  72.472  1.00  0.00    -0.013 C  
HETATM   15  C   UNL     1     -12.107  12.392  70.092  1.00  0.00    -0.366 C  
HETATM   16  C   UNL     1     -12.451  10.905  70.214  1.00  0.00    -0.303 C  
HETATM   17  O   UNL     1     -13.482  10.487  69.336  1.00  0.00     0.030 OA 
HETATM   18  C   UNL     1     -11.104  10.201  69.980  1.00  0.00    -0.368 C  
HETATM   19  C   UNL     1     -10.420  10.614  68.661  1.00  0.00    -0.211 C  
HETATM   20  H   UNL     1     -13.696   9.565  69.412  1.00  0.00     0.000 HD 
HETATM   21  C   UNL     1     -10.876   9.348  67.705  1.00  0.00    -0.222 C  
HETATM   22  C   UNL     1      -8.776  11.274  68.721  1.00  0.00    -0.103 C  
HETATM   23  O   UNL     1      -8.079  10.556  69.662  1.00  0.00    -0.139 OA 
HETATM   24  O   UNL     1      -8.044   9.431  67.614  1.00  0.00    -0.106 OA 
HETATM   25  C   UNL     1      -7.922   9.280  69.064  1.00  0.00    -0.097 C  
ENDROOT
BRANCH  22  26
HETATM   26  C   UNL     1      -8.124  12.866  68.498  1.00  0.00    -0.080 C  
HETATM   27  O   UNL     1      -7.864  13.603  69.474  1.00  0.00     0.374 OA 
BRANCH  26  28
HETATM   28  C   UNL     1      -7.856  13.501  67.118  1.00  0.00    -0.007 C  
BRANCH  28  29
HETATM   29  O   UNL     1      -8.039  14.986  67.125  1.00  0.00    -0.192 OA 
BRANCH  29  30
HETATM   30  C   UNL     1      -9.072  15.536  66.421  1.00  0.00    -0.316 C  
HETATM   31  C   UNL     1     -10.535  17.595  65.906  1.00  0.00    -0.247 C  
HETATM   32  C   UNL     1      -8.572  17.907  67.367  1.00  0.00    -0.239 C  
HETATM   33  O   UNL     1      -9.561  14.969  65.438  1.00  0.00    -0.267 OA 
HETATM   34  C   UNL     1      -9.629  16.890  66.946  1.00  0.00    -0.262 C  
ENDBRANCH  29  30
ENDBRANCH  28  29
ENDBRANCH  26  28
ENDBRANCH  22  26
BRANCH  25  35
HETATM   35  C   UNL     1      -6.642   8.760  69.752  1.00  0.00    -0.041 C  
HETATM   36  C   UNL     1      -6.544   9.388  71.184  1.00  0.00    -0.058 C  
HETATM   37  C   UNL     1      -6.560   7.245  69.876  1.00  0.00    -0.040 C  
HETATM   38  C   UNL     1      -5.286   8.977  71.936  1.00  0.00    -0.055 C  
HETATM   39  C   UNL     1      -5.141   7.459  71.987  1.00  0.00    -0.035 C  
HETATM   40  C   UNL     1      -5.271   6.833  70.598  1.00  0.00    -0.019 C  
ENDBRANCH  25  35
TORSDOF 5
ENDMDL
MODEL       62
REMARK 921   NORMALIZED FREE ENERGY PREDICTED BY IDOCK:   -5.23 KCAL/MOL
REMARK 922        TOTAL FREE ENERGY PREDICTED BY IDOCK:   -7.08 KCAL/MOL
REMARK 923 INTER-LIGAND FREE ENERGY PREDICTED BY IDOCK:   -6.10 KCAL/MOL
REMARK 924 INTRA-LIGAND FREE ENERGY PREDICTED BY IDOCK:   -0.98 KCAL/MOL
REMARK 927      BINDING AFFINITY PREDICTED BY RF-SCORE:    0.00 PKD
ROOT
HETATM    1  C   UNL     1      -8.602   8.047  67.386  1.00  0.00    -0.125 C  
HETATM    2  C   UNL     1      -9.221   8.660  68.883  1.00  0.00    -0.145 C  
HETATM    3  C   UNL     1      -8.614  10.184  68.991  1.00  0.00    -0.156 C  
HETATM    4  C   UNL     1      -8.901  11.784  69.155  1.00  0.00     0.403 C  
HETATM    5  C   UNL     1     -10.122  12.191  68.249  1.00  0.00    -0.210 C  
HETATM    6  C   UNL     1     -10.212  13.582  67.682  1.00  0.00    -0.239 C  
HETATM    7  C   UNL     1      -8.844  14.105  67.198  1.00  0.00    -0.241 C  
HETATM    8  C   UNL     1      -8.800  15.101  66.295  1.00  0.00    -0.211 C  
HETATM    9  C   UNL     1      -9.471  16.231  67.022  1.00  0.00    -0.226 C  
HETATM   10  C   UNL     1      -9.227  16.295  68.533  1.00  0.00    -0.211 C  
HETATM   11  O   UNL     1     -10.206  17.010  66.426  1.00  0.00    -0.308 OA 
HETATM   12  C   UNL     1      -8.506  15.319  69.170  1.00  0.00    -0.234 C  
HETATM   13  C   UNL     1      -7.837  14.203  68.366  1.00  0.00    -0.143 C  
HETATM   14  C   UNL     1      -6.436  14.826  68.077  1.00  0.00    -0.163 C  
HETATM   15  C   UNL     1      -7.675  12.647  68.650  1.00  0.00    -0.066 C  
HETATM   16  C   UNL     1      -6.320  12.090  69.092  1.00  0.00    -0.093 C  
HETATM   17  O   UNL     1      -6.235  11.840  70.484  1.00  0.00    -0.438 OA 
HETATM   18  C   UNL     1      -6.141  10.837  68.218  1.00  0.00    -0.046 C  
HETATM   19  C   UNL     1      -7.323   9.851  68.315  1.00  0.00    -0.079 C  
HETATM   20  H   UNL     1      -5.394  11.494  70.759  1.00  0.00     0.000 HD 
HETATM   21  C   UNL     1      -6.701   8.779  69.405  1.00  0.00    -0.049 C  
HETATM   22  C   UNL     1      -8.167   9.381  66.828  1.00  0.00    -0.112 C  
HETATM   23  O   UNL     1      -7.217   9.223  65.848  1.00  0.00    -0.088 OA 
HETATM   24  O   UNL     1      -7.394   7.265  67.111  1.00  0.00    -0.089 OA 
HETATM   25  C   UNL     1      -6.521   8.053  66.240  1.00  0.00    -0.047 C  
ENDROOT
BRANCH  22  26
HETATM   26  C   UNL     1      -9.725   9.769  66.172  1.00  0.00    -0.246 C  
HETATM   27  O   UNL     1     -10.776   9.357  66.708  1.00  0.00    -0.175 OA 
BRANCH  26  28
HETATM   28  C   UNL     1      -9.936  10.595  64.886  1.00  0.00    -0.318 C  
BRANCH  28  29
HETATM   29  O   UNL     1     -11.132  11.491  64.970  1.00  0.00    -0.275 OA 
BRANCH  29  30
HETATM   30  C   UNL     1     -11.078  12.733  64.405  1.00  0.00    -0.349 C  
HETATM   31  C   UNL     1     -12.029  15.123  64.250  1.00  0.00    -0.276 C  
HETATM   32  C   UNL     1     -12.898  13.646  66.024  1.00  0.00    -0.242 C  
HETATM   33  O   UNL     1     -10.106  13.098  63.735  1.00  0.00    -0.265 OA 
HETATM   34  C   UNL     1     -12.320  13.646  64.611  1.00  0.00    -0.413 C  
ENDBRANCH  29  30
ENDBRANCH  28  29
ENDBRANCH  26  28
ENDBRANCH  22  26
BRANCH  25  35
HETATM   35  C   UNL     1      -5.988   7.531  64.889  1.00  0.00    -0.038 C  
HETATM   36  C   UNL     1      -5.887   5.968  64.951  1.00  0.00    -0.025 C  
HETATM   37  C   UNL     1      -6.833   7.918  63.682  1.00  0.00    -0.074 C  
HETATM   38  C   UNL     1      -5.324   5.351  63.679  1.00  0.00    -0.013 C  
HETATM   39  C   UNL     1      -6.104   5.805  62.449  1.00  0.00    -0.022 C  
HETATM   40  C   UNL     1      -6.239   7.328  62.397  1.00  0.00    -0.053 C  
ENDBRANCH  25  35
TORSDOF 5
ENDMDL
MODEL       63
REMARK 921   NORMALIZED FREE ENERGY PREDICTED BY IDOCK:   -5.19 KCAL/MOL
REMARK 922        TOTAL FREE ENERGY PREDICTED BY IDOCK:   -7.03 KCAL/MOL
REMARK 923 INTER-LIGAND FREE ENERGY PREDICTED BY IDOCK:   -6.20 KCAL/MOL
REMARK 924 INTRA-LIGAND FREE ENERGY PREDICTED BY IDOCK:   -0.82 KCAL/MOL
REMARK 927      BINDING AFFINITY PREDICTED BY RF-SCORE:    0.00 PKD
ROOT
HETATM    1  C   UNL     1      -7.633  11.490  66.707  1.00  0.00    -0.126 C  
HETATM    2  C   UNL     1      -6.073  10.844  66.318  1.00  0.00    -0.137 C  
HETATM    3  C   UNL     1      -6.247   9.216  66.476  1.00  0.00    -0.065 C  
HETATM    4  C   UNL     1      -6.129   7.736  65.796  1.00  0.00    -0.038 C  
HETATM    5  C   UNL     1      -6.699   7.788  64.329  1.00  0.00    -0.056 C  
HETATM    6  C   UNL     1      -7.321   6.564  63.716  1.00  0.00    -0.074 C  
HETATM    7  C   UNL     1      -8.195   5.786  64.721  1.00  0.00    -0.135 C  
HETATM    8  C   UNL     1      -9.146   4.953  64.263  1.00  0.00    -0.021 C  
HETATM    9  C   UNL     1      -8.350   3.938  63.495  1.00  0.00    -0.092 C  
HETATM   10  C   UNL     1      -6.971   3.595  64.066  1.00  0.00    -0.045 C  
HETATM   11  O   UNL     1      -8.780   3.466  62.449  1.00  0.00    -0.080 OA 
HETATM   12  C   UNL     1      -6.483   4.253  65.165  1.00  0.00    -0.036 C  
HETATM   13  C   UNL     1      -7.354   5.267  65.909  1.00  0.00    -0.081 C  
HETATM   14  C   UNL     1      -8.056   4.357  66.964  1.00  0.00    -0.101 C  
HETATM   15  C   UNL     1      -7.010   6.672  66.568  1.00  0.00    -0.066 C  
HETATM   16  C   UNL     1      -6.911   6.796  68.091  1.00  0.00    -0.080 C  
HETATM   17  O   UNL     1      -5.580   6.811  68.575  1.00  0.00    -0.015 OA 
HETATM   18  C   UNL     1      -7.706   8.075  68.402  1.00  0.00    -0.117 C  
HETATM   19  C   UNL     1      -7.221   9.304  67.607  1.00  0.00    -0.083 C  
HETATM   20  H   UNL     1      -5.519   6.888  69.519  1.00  0.00     0.000 HD 
HETATM   21  C   UNL     1      -6.264  10.013  68.750  1.00  0.00    -0.040 C  
HETATM   22  C   UNL     1      -8.384  10.184  66.599  1.00  0.00    -0.123 C  
HETATM   23  O   UNL     1      -9.571  10.236  67.290  1.00  0.00    -0.155 OA 
HETATM   24  O   UNL     1      -8.166  11.970  67.984  1.00  0.00    -0.138 OA 
HETATM   25  C   UNL     1      -9.297  11.121  68.363  1.00  0.00    -0.185 C  
ENDROOT
BRANCH  22  26
HETATM   26  C   UNL     1      -8.621  10.305  64.885  1.00  0.00    -0.182 C  
HETATM   27  O   UNL     1      -7.679  10.603  64.119  1.00  0.00    -0.009 OA 
BRANCH  26  28
HETATM   28  C   UNL     1      -9.982  10.101  64.188  1.00  0.00    -0.043 C  
BRANCH  28  29
HETATM   29  O   UNL     1     -10.479  11.347  63.525  1.00  0.00    -0.359 OA 
BRANCH  29  30
HETATM   30  C   UNL     1     -11.573  11.986  64.036  1.00  0.00    -0.411 C  
HETATM   31  C   UNL     1     -12.532  13.801  65.594  1.00  0.00    -0.541 C  
HETATM   32  C   UNL     1     -10.087  13.727  65.273  1.00  0.00    -0.312 C  
HETATM   33  O   UNL     1     -12.694  11.850  63.537  1.00  0.00    -0.626 OA 
HETATM   34  C   UNL     1     -11.341  12.856  65.304  1.00  0.00    -0.333 C  
ENDBRANCH  29  30
ENDBRANCH  28  29
ENDBRANCH  26  28
ENDBRANCH  22  26
BRANCH  25  35
HETATM   35  C   UNL     1     -10.699  11.681  68.680  1.00  0.00    -0.246 C  
HETATM   36  C   UNL     1     -11.275  10.930  69.930  1.00  0.00    -0.355 C  
HETATM   37  C   UNL     1     -10.739  13.179  68.951  1.00  0.00    -0.202 C  
HETATM   38  C   UNL     1     -12.682  11.374  70.302  1.00  0.00    -0.120 C  
HETATM   39  C   UNL     1     -12.758  12.887  70.484  1.00  0.00    -0.090 C  
HETATM   40  C   UNL     1     -12.166  13.629  69.285  1.00  0.00    -0.283 C  
ENDBRANCH  25  35
TORSDOF 5
ENDMDL
MODEL       64
REMARK 921   NORMALIZED FREE ENERGY PREDICTED BY IDOCK:   -5.13 KCAL/MOL
REMARK 922        TOTAL FREE ENERGY PREDICTED BY IDOCK:   -6.95 KCAL/MOL
REMARK 923 INTER-LIGAND FREE ENERGY PREDICTED BY IDOCK:   -6.30 KCAL/MOL
REMARK 924 INTRA-LIGAND FREE ENERGY PREDICTED BY IDOCK:   -0.65 KCAL/MOL
REMARK 927      BINDING AFFINITY PREDICTED BY RF-SCORE:    0.00 PKD
ROOT
HETATM    1  C   UNL     1     -10.916  12.546  66.729  1.00  0.00    -0.265 C  
HETATM    2  C   UNL     1     -11.620  11.099  66.087  1.00  0.00     0.446 C  
HETATM    3  C   UNL     1     -10.449   9.957  66.258  1.00  0.00    -0.171 C  
HETATM    4  C   UNL     1     -10.005   8.504  66.858  1.00  0.00    -0.335 C  
HETATM    5  C   UNL     1     -10.547   8.359  68.329  1.00  0.00    -0.163 C  
HETATM    6  C   UNL     1      -9.805   7.514  69.328  1.00  0.00    -0.170 C  
HETATM    7  C   UNL     1      -8.276   7.684  69.216  1.00  0.00    -0.133 C  
HETATM    8  C   UNL     1      -7.498   7.370  70.268  1.00  0.00    -0.083 C  
HETATM    9  C   UNL     1      -7.766   5.904  70.446  1.00  0.00    -0.096 C  
HETATM   10  C   UNL     1      -8.008   5.105  69.161  1.00  0.00    -0.081 C  
HETATM   11  O   UNL     1      -7.831   5.410  71.566  1.00  0.00    -0.105 OA 
HETATM   12  C   UNL     1      -8.057   5.732  67.943  1.00  0.00    -0.098 C  
HETATM   13  C   UNL     1      -7.762   7.229  67.832  1.00  0.00    -0.113 C  
HETATM   14  C   UNL     1      -6.221   7.222  67.587  1.00  0.00    -0.046 C  
HETATM   15  C   UNL     1      -8.431   8.376  66.958  1.00  0.00    -0.122 C  
HETATM   16  C   UNL     1      -7.699   8.923  65.730  1.00  0.00    -0.094 C  
HETATM   17  O   UNL     1      -8.181   8.404  64.503  1.00  0.00    -0.158 OA 
HETATM   18  C   UNL     1      -7.851  10.448  65.868  1.00  0.00    -0.148 C  
HETATM   19  C   UNL     1      -9.316  10.904  66.022  1.00  0.00    -0.215 C  
HETATM   20  H   UNL     1      -7.728   8.743  63.741  1.00  0.00     0.000 HD 
HETATM   21  C   UNL     1      -9.635  11.343  64.462  1.00  0.00    -0.221 C  
HETATM   22  C   UNL     1      -9.766  11.870  67.438  1.00  0.00    -0.184 C  
HETATM   23  O   UNL     1      -8.742  12.754  67.676  1.00  0.00    -0.159 OA 
HETATM   24  O   UNL     1     -10.185  13.622  66.055  1.00  0.00    -0.292 OA 
HETATM   25  C   UNL     1      -8.824  13.664  66.591  1.00  0.00    -0.064 C  
ENDROOT
BRANCH  22  26
HETATM   26  C   UNL     1     -10.677  11.525  68.874  1.00  0.00    -0.207 C  
HETATM   27  O   UNL     1     -10.200  10.823  69.792  1.00  0.00    -0.144 OA 
BRANCH  26  28
HETATM   28  C   UNL     1     -12.123  12.006  69.112  1.00  0.00    -0.183 C  
BRANCH  28  29
HETATM   29  O   UNL     1     -12.198  13.135  70.092  1.00  0.00    -0.329 OA 
BRANCH  29  30
HETATM   30  C   UNL     1     -12.020  14.415  69.652  1.00  0.00    -0.336 C  
HETATM   31  C   UNL     1     -11.506  16.880  70.202  1.00  0.00     0.662 C  
HETATM   32  C   UNL     1     -11.296  15.222  72.017  1.00  0.00    -0.431 C  
HETATM   33  O   UNL     1     -11.871  14.674  68.453  1.00  0.00    -0.315 OA 
HETATM   34  C   UNL     1     -12.059  15.534  70.731  1.00  0.00    -0.435 C  
ENDBRANCH  29  30
ENDBRANCH  28  29
ENDBRANCH  26  28
ENDBRANCH  22  26
BRANCH  25  35
HETATM   35  C   UNL     1      -8.196  14.937  67.195  1.00  0.00    -0.244 C  
HETATM   36  C   UNL     1      -8.668  16.180  66.364  1.00  0.00    -0.360 C  
HETATM   37  C   UNL     1      -8.530  15.176  68.662  1.00  0.00    -0.170 C  
HETATM   38  C   UNL     1      -8.065  17.490  66.849  1.00  0.00    -0.254 C  
HETATM   39  C   UNL     1      -8.312  17.698  68.340  1.00  0.00    -0.290 C  
HETATM   40  C   UNL     1      -7.887  16.477  69.157  1.00  0.00    -0.192 C  
ENDBRANCH  25  35
TORSDOF 5
ENDMDL
MODEL       65
REMARK 921   NORMALIZED FREE ENERGY PREDICTED BY IDOCK:   -5.13 KCAL/MOL
REMARK 922        TOTAL FREE ENERGY PREDICTED BY IDOCK:   -6.95 KCAL/MOL
REMARK 923 INTER-LIGAND FREE ENERGY PREDICTED BY IDOCK:   -5.44 KCAL/MOL
REMARK 924 INTRA-LIGAND FREE ENERGY PREDICTED BY IDOCK:   -1.51 KCAL/MOL
REMARK 927      BINDING AFFINITY PREDICTED BY RF-SCORE:    0.00 PKD
ROOT
HETATM    1  C   UNL     1      -7.884  10.329  68.371  1.00  0.00    -0.102 C  
HETATM    2  C   UNL     1      -7.551  10.157  70.062  1.00  0.00    -0.164 C  
HETATM    3  C   UNL     1      -8.110   8.658  70.444  1.00  0.00    -0.107 C  
HETATM    4  C   UNL     1      -7.802   7.178  71.063  1.00  0.00    -0.095 C  
HETATM    5  C   UNL     1      -6.412   6.668  70.529  1.00  0.00    -0.047 C  
HETATM    6  C   UNL     1      -6.161   5.194  70.364  1.00  0.00    -0.018 C  
HETATM    7  C   UNL     1      -7.385   4.453  69.790  1.00  0.00    -0.050 C  
HETATM    8  C   UNL     1      -7.213   3.266  69.181  1.00  0.00    -0.049 C  
HETATM    9  C   UNL     1      -6.658   2.411  70.282  1.00  0.00    -0.032 C  
HETATM   10  C   UNL     1      -7.193   2.697  71.689  1.00  0.00    -0.036 C  
HETATM   11  O   UNL     1      -5.791   1.575  70.050  1.00  0.00    -0.017 OA 
HETATM   12  C   UNL     1      -8.062   3.734  71.912  1.00  0.00    -0.071 C  
HETATM   13  C   UNL     1      -8.599   4.557  70.741  1.00  0.00    -0.115 C  
HETATM   14  C   UNL     1      -9.891   3.765  70.371  1.00  0.00    -0.135 C  
HETATM   15  C   UNL     1      -8.871   6.116  70.582  1.00  0.00    -0.143 C  
HETATM   16  C   UNL     1     -10.307   6.646  70.612  1.00  0.00    -0.202 C  
HETATM   17  O   UNL     1     -10.675   7.220  71.854  1.00  0.00    -0.213 OA 
HETATM   18  C   UNL     1     -10.356   7.627  69.429  1.00  0.00    -0.214 C  
HETATM   19  C   UNL     1      -9.254   8.704  69.482  1.00  0.00    -0.150 C  
HETATM   20  H   UNL     1     -11.565   7.549  71.873  1.00  0.00     0.000 HD 
HETATM   21  C   UNL     1     -10.118   9.952  70.129  1.00  0.00    -0.309 C  
HETATM   22  C   UNL     1      -8.151   8.867  68.105  1.00  0.00    -0.106 C  
HETATM   23  O   UNL     1      -8.893   8.698  66.961  1.00  0.00    -0.128 OA 
HETATM   24  O   UNL     1      -9.042  10.913  67.689  1.00  0.00    -0.146 OA 
HETATM   25  C   UNL     1      -9.696   9.865  66.906  1.00  0.00    -0.186 C  
ENDROOT
BRANCH  22  26
HETATM   26  C   UNL     1      -6.480   8.466  67.864  1.00  0.00    -0.057 C  
HETATM   27  O   UNL     1      -5.567   9.212  68.278  1.00  0.00    -0.038 OA 
BRANCH  26  28
HETATM   28  C   UNL     1      -5.996   7.212  67.107  1.00  0.00    -0.040 C  
BRANCH  28  29
HETATM   29  O   UNL     1      -6.680   7.040  65.786  1.00  0.00    -0.050 OA 
BRANCH  29  30
HETATM   30  C   UNL     1      -6.867   5.782  65.289  1.00  0.00    -0.051 C  
HETATM   31  C   UNL     1      -8.225   3.591  65.298  1.00  0.00    -0.097 C  
HETATM   32  C   UNL     1      -9.083   5.489  66.620  1.00  0.00    -0.126 C  
HETATM   33  O   UNL     1      -6.297   5.400  64.262  1.00  0.00    -0.025 OA 
HETATM   34  C   UNL     1      -7.799   4.842  66.105  1.00  0.00    -0.099 C  
ENDBRANCH  29  30
ENDBRANCH  28  29
ENDBRANCH  26  28
ENDBRANCH  22  26
BRANCH  25  35
HETATM   35  C   UNL     1      -9.970   9.992  65.393  1.00  0.00    -0.364 C  
HETATM   36  C   UNL     1     -10.499  11.437  65.092  1.00  0.00    -0.351 C  
HETATM   37  C   UNL     1      -8.763   9.720  64.504  1.00  0.00    -0.222 C  
HETATM   38  C   UNL     1     -10.848  11.656  63.627  1.00  0.00    -0.503 C  
HETATM   39  C   UNL     1      -9.677  11.296  62.717  1.00  0.00    -0.289 C  
HETATM   40  C   UNL     1      -9.130   9.902  63.026  1.00  0.00    -0.291 C  
ENDBRANCH  25  35
TORSDOF 5
ENDMDL
MODEL       66
REMARK 921   NORMALIZED FREE ENERGY PREDICTED BY IDOCK:   -5.05 KCAL/MOL
REMARK 922        TOTAL FREE ENERGY PREDICTED BY IDOCK:   -6.85 KCAL/MOL
REMARK 923 INTER-LIGAND FREE ENERGY PREDICTED BY IDOCK:   -6.16 KCAL/MOL
REMARK 924 INTRA-LIGAND FREE ENERGY PREDICTED BY IDOCK:   -0.69 KCAL/MOL
REMARK 927      BINDING AFFINITY PREDICTED BY RF-SCORE:    0.00 PKD
ROOT
HETATM    1  C   UNL     1      -6.231   8.229  67.857  1.00  0.00    -0.052 C  
HETATM    2  C   UNL     1      -5.486   9.601  67.106  1.00  0.00    -0.043 C  
HETATM    3  C   UNL     1      -6.720  10.376  66.343  1.00  0.00    -0.107 C  
HETATM    4  C   UNL     1      -7.576  11.751  66.134  1.00  0.00     0.379 C  
HETATM    5  C   UNL     1      -7.852  12.412  67.537  1.00  0.00    -0.169 C  
HETATM    6  C   UNL     1      -9.088  13.242  67.751  1.00  0.00    -0.202 C  
HETATM    7  C   UNL     1     -10.329  12.631  67.069  1.00  0.00    -0.241 C  
HETATM    8  C   UNL     1     -11.556  12.974  67.501  1.00  0.00    -0.405 C  
HETATM    9  C   UNL     1     -11.594  14.451  67.239  1.00  0.00    -0.379 C  
HETATM   10  C   UNL     1     -10.850  14.930  65.988  1.00  0.00    -0.328 C  
HETATM   11  O   UNL     1     -12.150  15.212  68.023  1.00  0.00    -0.192 OA 
HETATM   12  C   UNL     1     -10.130  14.052  65.221  1.00  0.00    -0.345 C  
HETATM   13  C   UNL     1     -10.146  12.556  65.537  1.00  0.00    -0.282 C  
HETATM   14  C   UNL     1     -11.353  12.071  64.676  1.00  0.00    -0.377 C  
HETATM   15  C   UNL     1      -8.997  11.457  65.504  1.00  0.00    -0.096 C  
HETATM   16  C   UNL     1      -8.955  10.433  64.366  1.00  0.00    -0.223 C  
HETATM   17  O   UNL     1      -7.999  10.736  63.365  1.00  0.00    -0.350 OA 
HETATM   18  C   UNL     1      -8.704   9.099  65.090  1.00  0.00    -0.228 C  
HETATM   19  C   UNL     1      -7.462   9.124  66.003  1.00  0.00    -0.095 C  
HETATM   20  H   UNL     1      -7.973  10.100  62.660  1.00  0.00     0.000 HD 
HETATM   21  C   UNL     1      -6.365   8.408  64.998  1.00  0.00    -0.052 C  
HETATM   22  C   UNL     1      -7.654   8.716  67.717  1.00  0.00    -0.098 C  
HETATM   23  O   UNL     1      -8.544   7.673  67.795  1.00  0.00    -0.121 OA 
HETATM   24  O   UNL     1      -6.396   6.857  67.370  1.00  0.00    -0.041 OA 
HETATM   25  C   UNL     1      -7.827   6.577  67.253  1.00  0.00    -0.105 C  
ENDROOT
BRANCH  22  26
HETATM   26  C   UNL     1      -7.619   9.655  69.175  1.00  0.00    -0.082 C  
HETATM   27  O   UNL     1      -8.543  10.448  69.459  1.00  0.00    -0.159 OA 
BRANCH  26  28
HETATM   28  C   UNL     1      -6.461   9.622  70.193  1.00  0.00    -0.075 C  
BRANCH  28  29
HETATM   29  O   UNL     1      -6.936   9.420  71.598  1.00  0.00    -0.316 OA 
BRANCH  29  30
HETATM   30  C   UNL     1      -6.805   8.191  72.178  1.00  0.00    -0.078 C  
HETATM   31  C   UNL     1      -7.824   6.325  73.636  1.00  0.00    -0.093 C  
HETATM   32  C   UNL     1      -9.276   8.214  72.993  1.00  0.00    -0.343 C  
HETATM   33  O   UNL     1      -5.899   7.416  71.856  1.00  0.00    -0.037 OA 
HETATM   34  C   UNL     1      -7.827   7.836  73.295  1.00  0.00    -0.168 C  
ENDBRANCH  29  30
ENDBRANCH  28  29
ENDBRANCH  26  28
ENDBRANCH  22  26
BRANCH  25  35
HETATM   35  C   UNL     1      -8.509   5.377  67.943  1.00  0.00    -0.098 C  
HETATM   36  C   UNL     1      -8.088   4.059  67.205  1.00  0.00    -0.095 C  
HETATM   37  C   UNL     1      -8.187   5.230  69.424  1.00  0.00    -0.095 C  
HETATM   38  C   UNL     1      -8.745   2.813  67.779  1.00  0.00    -0.137 C  
HETATM   39  C   UNL     1      -8.511   2.703  69.282  1.00  0.00    -0.099 C  
HETATM   40  C   UNL     1      -8.886   3.996  70.008  1.00  0.00    -0.134 C  
ENDBRANCH  25  35
TORSDOF 5
ENDMDL
MODEL       67
REMARK 921   NORMALIZED FREE ENERGY PREDICTED BY IDOCK:   -4.99 KCAL/MOL
REMARK 922        TOTAL FREE ENERGY PREDICTED BY IDOCK:   -6.77 KCAL/MOL
REMARK 923 INTER-LIGAND FREE ENERGY PREDICTED BY IDOCK:   -5.92 KCAL/MOL
REMARK 924 INTRA-LIGAND FREE ENERGY PREDICTED BY IDOCK:   -0.85 KCAL/MOL
REMARK 927      BINDING AFFINITY PREDICTED BY RF-SCORE:    0.00 PKD
ROOT
HETATM    1  C   UNL     1      -6.350   6.051  67.092  1.00  0.00    -0.041 C  
HETATM    2  C   UNL     1      -5.452   7.485  67.464  1.00  0.00    -0.034 C  
HETATM    3  C   UNL     1      -6.344   8.710  66.826  1.00  0.00    -0.059 C  
HETATM    4  C   UNL     1      -7.131  10.122  67.062  1.00  0.00    -0.090 C  
HETATM    5  C   UNL     1      -7.953  10.044  68.402  1.00  0.00    -0.097 C  
HETATM    6  C   UNL     1      -9.222  10.838  68.558  1.00  0.00    -0.174 C  
HETATM    7  C   UNL     1     -10.076  10.834  67.274  1.00  0.00    -0.233 C  
HETATM    8  C   UNL     1     -11.392  11.101  67.356  1.00  0.00    -0.329 C  
HETATM    9  C   UNL     1     -11.408  12.504  67.891  1.00  0.00    -0.291 C  
HETATM   10  C   UNL     1     -10.272  13.416  67.416  1.00  0.00    -0.237 C  
HETATM   11  O   UNL     1     -12.260  12.857  68.698  1.00  0.00    -0.198 OA 
HETATM   12  C   UNL     1      -9.268  12.931  66.619  1.00  0.00    -0.222 C  
HETATM   13  C   UNL     1      -9.322  11.494  66.098  1.00  0.00    -0.230 C  
HETATM   14  C   UNL     1     -10.084  11.681  64.750  1.00  0.00    -0.304 C  
HETATM   15  C   UNL     1      -8.189  10.393  65.917  1.00  0.00    -0.150 C  
HETATM   16  C   UNL     1      -7.662  10.065  64.517  1.00  0.00    -0.145 C  
HETATM   17  O   UNL     1      -6.416  10.671  64.222  1.00  0.00    -0.355 OA 
HETATM   18  C   UNL     1      -7.633   8.527  64.492  1.00  0.00    -0.115 C  
HETATM   19  C   UNL     1      -6.833   7.914  65.659  1.00  0.00    -0.052 C  
HETATM   20  H   UNL     1      -6.090  10.468  63.354  1.00  0.00     0.000 HD 
HETATM   21  C   UNL     1      -5.400   7.627  64.892  1.00  0.00    -0.029 C  
HETATM   22  C   UNL     1      -7.638   6.752  66.729  1.00  0.00    -0.090 C  
HETATM   23  O   UNL     1      -8.434   5.953  65.944  1.00  0.00    -0.129 OA 
HETATM   24  O   UNL     1      -6.244   5.137  65.952  1.00  0.00    -0.032 OA 
HETATM   25  C   UNL     1      -7.506   5.170  65.212  1.00  0.00    -0.073 C  
ENDROOT
BRANCH  22  26
HETATM   26  C   UNL     1      -8.211   6.839  68.364  1.00  0.00    -0.119 C  
HETATM   27  O   UNL     1      -9.313   7.358  68.639  1.00  0.00    -0.140 OA 
BRANCH  26  28
HETATM   28  C   UNL     1      -7.412   6.334  69.583  1.00  0.00    -0.085 C  
BRANCH  28  29
HETATM   29  O   UNL     1      -7.638   7.169  70.804  1.00  0.00    -0.086 OA 
BRANCH  29  30
HETATM   30  C   UNL     1      -8.566   6.772  71.724  1.00  0.00    -0.121 C  
HETATM   31  C   UNL     1     -10.574   7.372  73.225  1.00  0.00    -0.442 C  
HETATM   32  C   UNL     1      -9.790   9.066  71.611  1.00  0.00    -0.366 C  
HETATM   33  O   UNL     1      -8.767   5.578  71.967  1.00  0.00    -0.130 OA 
HETATM   34  C   UNL     1      -9.323   7.901  72.481  1.00  0.00    -0.258 C  
ENDBRANCH  29  30
ENDBRANCH  28  29
ENDBRANCH  26  28
ENDBRANCH  22  26
BRANCH  25  35
HETATM   35  C   UNL     1      -8.332   3.904  64.902  1.00  0.00    -0.104 C  
HETATM   36  C   UNL     1      -9.807   4.326  64.581  1.00  0.00    -0.148 C  
HETATM   37  C   UNL     1      -7.801   3.068  63.745  1.00  0.00    -0.080 C  
HETATM   38  C   UNL     1     -10.724   3.143  64.305  1.00  0.00     0.079 C  
HETATM   39  C   UNL     1     -10.157   2.243  63.212  1.00  0.00    -0.125 C  
HETATM   40  C   UNL     1      -8.706   1.854  63.498  1.00  0.00    -0.084 C  
ENDBRANCH  25  35
TORSDOF 5
ENDMDL
MODEL       68
REMARK 921   NORMALIZED FREE ENERGY PREDICTED BY IDOCK:   -4.96 KCAL/MOL
REMARK 922        TOTAL FREE ENERGY PREDICTED BY IDOCK:   -6.73 KCAL/MOL
REMARK 923 INTER-LIGAND FREE ENERGY PREDICTED BY IDOCK:   -5.57 KCAL/MOL
REMARK 924 INTRA-LIGAND FREE ENERGY PREDICTED BY IDOCK:   -1.17 KCAL/MOL
REMARK 927      BINDING AFFINITY PREDICTED BY RF-SCORE:    0.00 PKD
ROOT
HETATM    1  C   UNL     1      -9.945   6.200  70.471  1.00  0.00    -0.181 C  
HETATM    2  C   UNL     1     -11.236   6.227  69.316  1.00  0.00    -0.458 C  
HETATM    3  C   UNL     1     -11.021   7.632  68.487  1.00  0.00     0.105 C  
HETATM    4  C   UNL     1     -10.806   8.374  67.049  1.00  0.00    -0.039 C  
HETATM    5  C   UNL     1      -9.779   7.552  66.185  1.00  0.00    -0.001 C  
HETATM    6  C   UNL     1      -8.907   8.252  65.178  1.00  0.00    -0.024 C  
HETATM    7  C   UNL     1      -8.378   9.603  65.700  1.00  0.00    -0.133 C  
HETATM    8  C   UNL     1      -7.276  10.138  65.146  1.00  0.00    -0.141 C  
HETATM    9  C   UNL     1      -7.697  10.354  63.722  1.00  0.00    -0.042 C  
HETATM   10  C   UNL     1      -9.164  10.743  63.508  1.00  0.00    -0.275 C  
HETATM   11  O   UNL     1      -6.909  10.172  62.801  1.00  0.00    -0.124 OA 
HETATM   12  C   UNL     1     -10.036  10.800  64.563  1.00  0.00    -0.395 C  
HETATM   13  C   UNL     1      -9.536  10.583  65.992  1.00  0.00    -0.227 C  
HETATM   14  C   UNL     1      -9.174  12.040  66.418  1.00  0.00    -0.216 C  
HETATM   15  C   UNL     1     -10.172   9.813  67.229  1.00  0.00    -0.289 C  
HETATM   16  C   UNL     1     -10.788  10.605  68.385  1.00  0.00    -0.237 C  
HETATM   17  O   UNL     1     -12.202  10.667  68.341  1.00  0.00    -0.822 OA 
HETATM   18  C   UNL     1     -10.230   9.909  69.639  1.00  0.00    -0.261 C  
HETATM   19  C   UNL     1     -10.495   8.391  69.663  1.00  0.00    -0.221 C  
HETATM   20  H   UNL     1     -12.585  11.159  69.059  1.00  0.00     0.000 HD 
HETATM   21  C   UNL     1     -11.826   8.359  70.639  1.00  0.00    -0.100 C  
HETATM   22  C   UNL     1      -9.119   7.285  69.822  1.00  0.00    -0.141 C  
HETATM   23  O   UNL     1      -8.242   7.845  70.719  1.00  0.00    -0.106 OA 
HETATM   24  O   UNL     1      -9.908   6.666  71.859  1.00  0.00    -0.167 OA 
HETATM   25  C   UNL     1      -8.920   7.741  71.960  1.00  0.00    -0.134 C  
ENDROOT
BRANCH  22  26
HETATM   26  C   UNL     1      -8.324   6.208  68.718  1.00  0.00    -0.111 C  
HETATM   27  O   UNL     1      -7.465   6.623  67.911  1.00  0.00    -0.093 OA 
BRANCH  26  28
HETATM   28  C   UNL     1      -8.633   4.700  68.615  1.00  0.00    -0.089 C  
BRANCH  28  29
HETATM   29  O   UNL     1      -7.397   3.857  68.666  1.00  0.00    -0.054 OA 
BRANCH  29  30
HETATM   30  C   UNL     1      -7.252   2.943  69.670  1.00  0.00    -0.044 C  
HETATM   31  C   UNL     1      -6.151   2.288  71.907  1.00  0.00    -0.014 C  
HETATM   32  C   UNL     1      -5.786   4.578  71.066  1.00  0.00    -0.016 C  
HETATM   33  O   UNL     1      -8.027   1.990  69.796  1.00  0.00    -0.042 OA 
HETATM   34  C   UNL     1      -6.035   3.139  70.619  1.00  0.00    -0.018 C  
ENDBRANCH  29  30
ENDBRANCH  28  29
ENDBRANCH  26  28
ENDBRANCH  22  26
BRANCH  25  35
HETATM   35  C   UNL     1      -7.746   7.714  72.962  1.00  0.00    -0.132 C  
HETATM   36  C   UNL     1      -7.590   6.258  73.522  1.00  0.00    -0.094 C  
HETATM   37  C   UNL     1      -6.410   8.162  72.387  1.00  0.00    -0.068 C  
HETATM   38  C   UNL     1      -6.485   6.130  74.561  1.00  0.00    -0.074 C  
HETATM   39  C   UNL     1      -5.158   6.663  74.030  1.00  0.00    -0.041 C  
HETATM   40  C   UNL     1      -5.307   8.070  73.449  1.00  0.00    -0.045 C  
ENDBRANCH  25  35
TORSDOF 5
ENDMDL
MODEL       69
REMARK 921   NORMALIZED FREE ENERGY PREDICTED BY IDOCK:   -4.88 KCAL/MOL
REMARK 922        TOTAL FREE ENERGY PREDICTED BY IDOCK:   -6.63 KCAL/MOL
REMARK 923 INTER-LIGAND FREE ENERGY PREDICTED BY IDOCK:   -6.10 KCAL/MOL
REMARK 924 INTRA-LIGAND FREE ENERGY PREDICTED BY IDOCK:   -0.53 KCAL/MOL
REMARK 927      BINDING AFFINITY PREDICTED BY RF-SCORE:    0.00 PKD
ROOT
HETATM    1  C   UNL     1     -10.715  17.046  67.772  1.00  0.00    -0.318 C  
HETATM    2  C   UNL     1     -12.100  16.012  67.649  1.00  0.00     0.832 C  
HETATM    3  C   UNL     1     -11.524  14.624  66.982  1.00  0.00    -0.379 C  
HETATM    4  C   UNL     1     -11.340  13.005  67.090  1.00  0.00    -0.348 C  
HETATM    5  C   UNL     1     -10.931  12.623  68.562  1.00  0.00    -0.292 C  
HETATM    6  C   UNL     1     -10.087  11.405  68.820  1.00  0.00    -0.199 C  
HETATM    7  C   UNL     1      -8.966  11.237  67.774  1.00  0.00    -0.141 C  
HETATM    8  C   UNL     1      -7.886  10.496  68.078  1.00  0.00    -0.105 C  
HETATM    9  C   UNL     1      -8.477   9.136  68.310  1.00  0.00    -0.125 C  
HETATM   10  C   UNL     1      -9.676   8.767  67.432  1.00  0.00    -0.225 C  
HETATM   11  O   UNL     1      -8.039   8.406  69.191  1.00  0.00    -0.114 OA 
HETATM   12  C   UNL     1     -10.210   9.675  66.555  1.00  0.00    -0.294 C  
HETATM   13  C   UNL     1      -9.549  11.039  66.357  1.00  0.00    -0.227 C  
HETATM   14  C   UNL     1      -8.557  10.737  65.191  1.00  0.00    -0.133 C  
HETATM   15  C   UNL     1     -10.163  12.493  66.164  1.00  0.00    -0.269 C  
HETATM   16  C   UNL     1     -10.154  13.147  64.780  1.00  0.00    -0.223 C  
HETATM   17  O   UNL     1     -11.402  13.080  64.112  1.00  0.00    -0.358 OA 
HETATM   18  C   UNL     1      -9.668  14.580  65.060  1.00  0.00     0.132 C  
HETATM   19  C   UNL     1     -10.505  15.310  66.130  1.00  0.00    -0.318 C  
HETATM   20  H   UNL     1     -11.396  13.486  63.254  1.00  0.00     0.000 HD 
HETATM   21  C   UNL     1     -11.500  16.189  65.150  1.00  0.00     0.107 C  
HETATM   22  C   UNL     1      -9.683  15.965  67.557  1.00  0.00    -0.223 C  
HETATM   23  O   UNL     1      -8.488  16.497  67.136  1.00  0.00    -0.168 OA 
HETATM   24  O   UNL     1     -10.204  18.056  66.843  1.00  0.00    -0.330 OA 
HETATM   25  C   UNL     1      -8.872  17.644  66.397  1.00  0.00    -0.236 C  
ENDROOT
BRANCH  22  26
HETATM   26  C   UNL     1      -9.634  15.490  69.225  1.00  0.00    -0.266 C  
HETATM   27  O   UNL     1     -10.391  16.012  70.071  1.00  0.00    -0.281 OA 
BRANCH  26  28
HETATM   28  C   UNL     1      -8.654  14.443  69.793  1.00  0.00     0.721 C  
BRANCH  28  29
HETATM   29  O   UNL     1      -7.235  14.713  69.401  1.00  0.00    -0.148 OA 
BRANCH  29  30
HETATM   30  C   UNL     1      -6.684  14.017  68.363  1.00  0.00    -0.099 C  
HETATM   31  C   UNL     1      -5.162  12.097  67.563  1.00  0.00    -0.100 C  
HETATM   32  C   UNL     1      -5.649  12.258  69.977  1.00  0.00    -0.125 C  
HETATM   33  O   UNL     1      -7.095  14.146  67.206  1.00  0.00    -0.142 OA 
HETATM   34  C   UNL     1      -5.483  13.090  68.707  1.00  0.00    -0.072 C  
ENDBRANCH  29  30
ENDBRANCH  28  29
ENDBRANCH  26  28
ENDBRANCH  22  26
BRANCH  25  35
HETATM   35  C   UNL     1      -7.625  18.542  66.529  1.00  0.00    -0.270 C  
HETATM   36  C   UNL     1      -8.035  19.882  67.232  1.00  0.00    -0.337 C  
HETATM   37  C   UNL     1      -6.473  17.917  67.306  1.00  0.00    -0.183 C  
HETATM   38  C   UNL     1      -6.882  20.865  67.370  1.00  0.00    -0.434 C  
HETATM   39  C   UNL     1      -5.684  20.223  68.063  1.00  0.00    -0.253 C  
HETATM   40  C   UNL     1      -5.298  18.896  67.407  1.00  0.00    -0.158 C  
ENDBRANCH  25  35
TORSDOF 5
ENDMDL
MODEL       70
REMARK 921   NORMALIZED FREE ENERGY PREDICTED BY IDOCK:   -4.80 KCAL/MOL
REMARK 922        TOTAL FREE ENERGY PREDICTED BY IDOCK:   -6.53 KCAL/MOL
REMARK 923 INTER-LIGAND FREE ENERGY PREDICTED BY IDOCK:   -5.66 KCAL/MOL
REMARK 924 INTRA-LIGAND FREE ENERGY PREDICTED BY IDOCK:   -0.87 KCAL/MOL
REMARK 927      BINDING AFFINITY PREDICTED BY RF-SCORE:    0.00 PKD
ROOT
HETATM    1  C   UNL     1     -10.730   5.818  69.467  1.00  0.00    -0.338 C  
HETATM    2  C   UNL     1     -11.281   7.226  70.314  1.00  0.00    -0.287 C  
HETATM    3  C   UNL     1      -9.923   8.121  70.557  1.00  0.00    -0.195 C  
HETATM    4  C   UNL     1      -9.146   9.543  70.358  1.00  0.00    -0.296 C  
HETATM    5  C   UNL     1      -9.396  10.075  68.897  1.00  0.00    -0.172 C  
HETATM    6  C   UNL     1      -8.361  10.931  68.217  1.00  0.00    -0.129 C  
HETATM    7  C   UNL     1      -6.925  10.440  68.490  1.00  0.00    -0.062 C  
HETATM    8  C   UNL     1      -5.937  10.789  67.646  1.00  0.00    -0.044 C  
HETATM    9  C   UNL     1      -5.920  12.285  67.764  1.00  0.00    -0.098 C  
HETATM   10  C   UNL     1      -6.242  12.853  69.150  1.00  0.00    -0.101 C  
HETATM   11  O   UNL     1      -5.708  12.988  66.782  1.00  0.00     0.029 OA 
HETATM   12  C   UNL     1      -6.604  12.026  70.181  1.00  0.00     0.264 C  
HETATM   13  C   UNL     1      -6.587  10.508  69.996  1.00  0.00    -0.144 C  
HETATM   14  C   UNL     1      -5.132  10.158  70.438  1.00  0.00    -0.040 C  
HETATM   15  C   UNL     1      -7.579   9.371  70.497  1.00  0.00    -0.162 C  
HETATM   16  C   UNL     1      -7.172   8.462  71.660  1.00  0.00    -0.091 C  
HETATM   17  O   UNL     1      -7.762   8.821  72.896  1.00  0.00    -0.373 OA 
HETATM   18  C   UNL     1      -7.551   7.055  71.169  1.00  0.00    -0.086 C  
HETATM   19  C   UNL     1      -9.023   6.939  70.725  1.00  0.00    -0.150 C  
HETATM   20  H   UNL     1      -7.510   8.257  73.617  1.00  0.00     0.000 HD 
HETATM   21  C   UNL     1      -9.673   6.281  72.093  1.00  0.00    -0.164 C  
HETATM   22  C   UNL     1      -9.379   6.374  69.083  1.00  0.00    -0.132 C  
HETATM   23  O   UNL     1      -8.492   5.366  68.794  1.00  0.00    -0.096 OA 
HETATM   24  O   UNL     1     -10.317   4.509  69.976  1.00  0.00    -0.144 OA 
HETATM   25  C   UNL     1      -8.910   4.300  69.629  1.00  0.00    -0.086 C  
ENDROOT
BRANCH  22  26
HETATM   26  C   UNL     1      -9.959   7.165  67.652  1.00  0.00    -0.158 C  
HETATM   27  O   UNL     1     -11.182   7.279  67.424  1.00  0.00    -0.145 OA 
BRANCH  26  28
HETATM   28  C   UNL     1      -9.040   7.740  66.555  1.00  0.00    -0.170 C  
BRANCH  28  29
HETATM   29  O   UNL     1      -9.642   8.923  65.864  1.00  0.00    -0.253 OA 
BRANCH  29  30
HETATM   30  C   UNL     1      -9.001   9.468  64.788  1.00  0.00    -0.218 C  
HETATM   31  C   UNL     1      -9.023  11.142  62.828  1.00  0.00    -0.321 C  
HETATM   32  C   UNL     1     -10.882  11.233  64.448  1.00  0.00    -0.373 C  
HETATM   33  O   UNL     1      -7.794   9.289  64.596  1.00  0.00    -0.110 OA 
HETATM   34  C   UNL     1      -9.876  10.286  63.797  1.00  0.00    -0.219 C  
ENDBRANCH  29  30
ENDBRANCH  28  29
ENDBRANCH  26  28
ENDBRANCH  22  26
BRANCH  25  35
HETATM   35  C   UNL     1      -8.411   3.067  68.847  1.00  0.00    -0.098 C  
HETATM   36  C   UNL     1      -9.259   2.918  67.537  1.00  0.00    -0.233 C  
HETATM   37  C   UNL     1      -6.936   3.109  68.471  1.00  0.00    -0.049 C  
HETATM   38  C   UNL     1      -8.879   1.699  66.710  1.00  0.00    -0.128 C  
HETATM   39  C   UNL     1      -7.384   1.678  66.405  1.00  0.00    -0.056 C  
HETATM   40  C   UNL     1      -6.548   1.858  67.673  1.00  0.00    -0.028 C  
ENDBRANCH  25  35
TORSDOF 5
ENDMDL
MODEL       71
REMARK 921   NORMALIZED FREE ENERGY PREDICTED BY IDOCK:   -4.73 KCAL/MOL
REMARK 922        TOTAL FREE ENERGY PREDICTED BY IDOCK:   -6.44 KCAL/MOL
REMARK 923 INTER-LIGAND FREE ENERGY PREDICTED BY IDOCK:   -5.89 KCAL/MOL
REMARK 924 INTRA-LIGAND FREE ENERGY PREDICTED BY IDOCK:   -0.55 KCAL/MOL
REMARK 927      BINDING AFFINITY PREDICTED BY RF-SCORE:    0.00 PKD
ROOT
HETATM    1  C   UNL     1      -9.825   9.593  66.810  1.00  0.00    -0.211 C  
HETATM    2  C   UNL     1     -10.952   9.368  68.106  1.00  0.00    -0.102 C  
HETATM    3  C   UNL     1     -10.278   8.196  69.043  1.00  0.00    -0.228 C  
HETATM    4  C   UNL     1      -9.740   7.734  70.513  1.00  0.00    -0.175 C  
HETATM    5  C   UNL     1      -8.917   8.910  71.162  1.00  0.00    -0.305 C  
HETATM    6  C   UNL     1      -7.801   8.610  72.125  1.00  0.00    -0.081 C  
HETATM    7  C   UNL     1      -6.957   7.397  71.683  1.00  0.00    -0.058 C  
HETATM    8  C   UNL     1      -5.705   7.257  72.154  1.00  0.00    -0.037 C  
HETATM    9  C   UNL     1      -5.925   7.124  73.633  1.00  0.00    -0.057 C  
HETATM   10  C   UNL     1      -7.198   6.383  74.058  1.00  0.00    -0.085 C  
HETATM   11  O   UNL     1      -5.145   7.631  74.431  1.00  0.00    -0.053 OA 
HETATM   12  C   UNL     1      -8.105   5.955  73.124  1.00  0.00    -0.116 C  
HETATM   13  C   UNL     1      -7.810   6.110  71.632  1.00  0.00    -0.102 C  
HETATM   14  C   UNL     1      -7.089   4.763  71.316  1.00  0.00    -0.051 C  
HETATM   15  C   UNL     1      -8.742   6.511  70.407  1.00  0.00    -0.147 C  
HETATM   16  C   UNL     1      -9.204   5.437  69.418  1.00  0.00    -0.117 C  
HETATM   17  O   UNL     1     -10.534   5.000  69.636  1.00  0.00    -0.255 OA 
HETATM   18  C   UNL     1      -8.975   6.088  68.044  1.00  0.00    -0.112 C  
HETATM   19  C   UNL     1      -9.661   7.461  67.896  1.00  0.00    -0.157 C  
HETATM   20  H   UNL     1     -10.821   4.334  69.022  1.00  0.00     0.000 HD 
HETATM   21  C   UNL     1     -11.025   7.003  67.086  1.00  0.00    -0.393 C  
HETATM   22  C   UNL     1      -8.673   8.868  67.464  1.00  0.00    -0.123 C  
HETATM   23  O   UNL     1      -7.754   8.454  66.531  1.00  0.00    -0.087 OA 
HETATM   24  O   UNL     1      -9.775   8.978  65.482  1.00  0.00    -0.203 OA 
HETATM   25  C   UNL     1      -8.536   8.207  65.374  1.00  0.00    -0.147 C  
ENDROOT
BRANCH  22  26
HETATM   26  C   UNL     1      -8.125  10.254  68.351  1.00  0.00    -0.109 C  
HETATM   27  O   UNL     1      -7.063  10.226  69.009  1.00  0.00    -0.062 OA 
BRANCH  26  28
HETATM   28  C   UNL     1      -8.900  11.585  68.432  1.00  0.00    -0.163 C  
BRANCH  28  29
HETATM   29  O   UNL     1      -8.829  12.370  67.159  1.00  0.00    -0.183 OA 
BRANCH  29  30
HETATM   30  C   UNL     1      -9.817  13.266  66.869  1.00  0.00    -0.247 C  
HETATM   31  C   UNL     1     -11.426  14.283  65.131  1.00  0.00    -0.351 C  
HETATM   32  C   UNL     1     -10.108  12.305  64.469  1.00  0.00    -0.280 C  
HETATM   33  O   UNL     1     -10.439  13.854  67.759  1.00  0.00    -0.238 OA 
HETATM   34  C   UNL     1     -10.085  13.543  65.362  1.00  0.00    -0.279 C  
ENDBRANCH  29  30
ENDBRANCH  28  29
ENDBRANCH  26  28
ENDBRANCH  22  26
BRANCH  25  35
HETATM   35  C   UNL     1      -7.508   8.420  64.243  1.00  0.00    -0.109 C  
HETATM   36  C   UNL     1      -7.573   9.913  63.771  1.00  0.00    -0.136 C  
HETATM   37  C   UNL     1      -6.070   8.089  64.621  1.00  0.00    -0.049 C  
HETATM   38  C   UNL     1      -6.628  10.221  62.619  1.00  0.00    -0.136 C  
HETATM   39  C   UNL     1      -5.197   9.808  62.949  1.00  0.00    -0.083 C  
HETATM   40  C   UNL     1      -5.127   8.362  63.443  1.00  0.00    -0.057 C  
ENDBRANCH  25  35
TORSDOF 5
ENDMDL
MODEL       72
REMARK 921   NORMALIZED FREE ENERGY PREDICTED BY IDOCK:   -4.71 KCAL/MOL
REMARK 922        TOTAL FREE ENERGY PREDICTED BY IDOCK:   -6.41 KCAL/MOL
REMARK 923 INTER-LIGAND FREE ENERGY PREDICTED BY IDOCK:   -6.13 KCAL/MOL
REMARK 924 INTRA-LIGAND FREE ENERGY PREDICTED BY IDOCK:   -0.28 KCAL/MOL
REMARK 927      BINDING AFFINITY PREDICTED BY RF-SCORE:    0.00 PKD
ROOT
HETATM    1  C   UNL     1     -12.213  14.293  65.904  1.00  0.00    -0.407 C  
HETATM    2  C   UNL     1     -12.975  12.775  65.562  1.00  0.00     0.377 C  
HETATM    3  C   UNL     1     -11.728  11.723  65.355  1.00  0.00    -0.117 C  
HETATM    4  C   UNL     1     -10.999  10.331  65.801  1.00  0.00     0.361 C  
HETATM    5  C   UNL     1     -11.011  10.215  67.371  1.00  0.00    -0.295 C  
HETATM    6  C   UNL     1      -9.917   9.467  68.082  1.00  0.00    -0.202 C  
HETATM    7  C   UNL     1      -8.529   9.733  67.465  1.00  0.00    -0.122 C  
HETATM    8  C   UNL     1      -7.425   9.519  68.203  1.00  0.00    -0.079 C  
HETATM    9  C   UNL     1      -7.504   8.048  68.489  1.00  0.00    -0.102 C  
HETATM   10  C   UNL     1      -8.095   7.179  67.374  1.00  0.00    -0.112 C  
HETATM   11  O   UNL     1      -7.156   7.601  69.576  1.00  0.00    -0.061 OA 
HETATM   12  C   UNL     1      -8.593   7.747  66.230  1.00  0.00    -0.161 C  
HETATM   13  C   UNL     1      -8.468   9.253  65.998  1.00  0.00    -0.144 C  
HETATM   14  C   UNL     1      -7.099   9.339  65.254  1.00  0.00    -0.090 C  
HETATM   15  C   UNL     1      -9.475  10.313  65.375  1.00  0.00    -0.287 C  
HETATM   16  C   UNL     1      -9.236  10.853  63.962  1.00  0.00    -0.197 C  
HETATM   17  O   UNL     1     -10.055  10.249  62.977  1.00  0.00    -0.455 OA 
HETATM   18  C   UNL     1      -9.452  12.369  64.113  1.00  0.00     0.285 C  
HETATM   19  C   UNL     1     -10.815  12.732  64.737  1.00  0.00    -0.335 C  
HETATM   20  H   UNL     1      -9.906  10.584  62.100  1.00  0.00     0.000 HD 
HETATM   21  C   UNL     1     -11.664  13.079  63.365  1.00  0.00    -0.477 C  
HETATM   22  C   UNL     1     -10.845  13.728  66.203  1.00  0.00    -0.279 C  
HETATM   23  O   UNL     1      -9.871  14.688  66.069  1.00  0.00    -0.291 OA 
HETATM   24  O   UNL     1     -11.832  15.385  65.005  1.00  0.00    -0.170 OA 
HETATM   25  C   UNL     1     -10.378  15.541  65.056  1.00  0.00    -0.293 C  
ENDROOT
BRANCH  22  26
HETATM   26  C   UNL     1     -11.199  13.386  67.867  1.00  0.00    -0.275 C  
HETATM   27  O   UNL     1     -12.122  12.606  68.187  1.00  0.00    -0.278 OA 
BRANCH  26  28
HETATM   28  C   UNL     1     -10.454  14.028  69.055  1.00  0.00    -0.156 C  
BRANCH  28  29
HETATM   29  O   UNL     1      -9.295  14.869  68.618  1.00  0.00    -0.183 OA 
BRANCH  29  30
HETATM   30  C   UNL     1      -8.065  14.650  69.169  1.00  0.00    -0.078 C  
HETATM   31  C   UNL     1      -5.847  13.337  69.150  1.00  0.00    -0.080 C  
HETATM   32  C   UNL     1      -7.421  12.976  67.284  1.00  0.00    -0.083 C  
HETATM   33  O   UNL     1      -7.564  15.444  69.972  1.00  0.00    -0.082 OA 
HETATM   34  C   UNL     1      -7.348  13.329  68.768  1.00  0.00    -0.070 C  
ENDBRANCH  29  30
ENDBRANCH  28  29
ENDBRANCH  26  28
ENDBRANCH  22  26
BRANCH  25  35
HETATM   35  C   UNL     1      -9.687  16.879  65.391  1.00  0.00     0.396 C  
HETATM   36  C   UNL     1     -10.648  17.738  66.284  1.00  0.00    -0.220 C  
HETATM   37  C   UNL     1      -8.350  16.741  66.107  1.00  0.00    -0.301 C  
HETATM   38  C   UNL     1     -10.080  19.106  66.634  1.00  0.00    -0.469 C  
HETATM   39  C   UNL     1      -8.698  18.988  67.267  1.00  0.00    -0.298 C  
HETATM   40  C   UNL     1      -7.762  18.122  66.422  1.00  0.00    -0.295 C  
ENDBRANCH  25  35
TORSDOF 5
ENDMDL
MODEL       73
REMARK 921   NORMALIZED FREE ENERGY PREDICTED BY IDOCK:   -4.61 KCAL/MOL
REMARK 922        TOTAL FREE ENERGY PREDICTED BY IDOCK:   -6.28 KCAL/MOL
REMARK 923 INTER-LIGAND FREE ENERGY PREDICTED BY IDOCK:   -5.68 KCAL/MOL
REMARK 924 INTRA-LIGAND FREE ENERGY PREDICTED BY IDOCK:   -0.60 KCAL/MOL
REMARK 927      BINDING AFFINITY PREDICTED BY RF-SCORE:    0.00 PKD
ROOT
HETATM    1  C   UNL     1      -6.972   8.678  67.924  1.00  0.00    -0.078 C  
HETATM    2  C   UNL     1      -5.835   7.613  68.681  1.00  0.00    -0.027 C  
HETATM    3  C   UNL     1      -6.462   7.332  70.176  1.00  0.00    -0.042 C  
HETATM    4  C   UNL     1      -6.979   6.247  71.281  1.00  0.00    -0.072 C  
HETATM    5  C   UNL     1      -7.843   5.143  70.564  1.00  0.00    -0.082 C  
HETATM    6  C   UNL     1      -8.945   4.442  71.312  1.00  0.00    -0.166 C  
HETATM    7  C   UNL     1      -9.744   5.405  72.213  1.00  0.00    -0.187 C  
HETATM    8  C   UNL     1     -10.989   5.070  72.597  1.00  0.00    -0.280 C  
HETATM    9  C   UNL     1     -10.760   3.815  73.389  1.00  0.00    -0.207 C  
HETATM   10  C   UNL     1      -9.460   3.759  74.197  1.00  0.00    -0.115 C  
HETATM   11  O   UNL     1     -11.557   2.886  73.333  1.00  0.00    -0.152 OA 
HETATM   12  C   UNL     1      -8.539   4.772  74.117  1.00  0.00    -0.108 C  
HETATM   13  C   UNL     1      -8.843   6.030  73.302  1.00  0.00    -0.130 C  
HETATM   14  C   UNL     1      -9.514   6.940  74.377  1.00  0.00    -0.258 C  
HETATM   15  C   UNL     1      -7.930   6.919  72.351  1.00  0.00    -0.096 C  
HETATM   16  C   UNL     1      -7.430   8.283  72.833  1.00  0.00    -0.104 C  
HETATM   17  O   UNL     1      -6.084   8.271  73.275  1.00  0.00    -0.078 OA 
HETATM   18  C   UNL     1      -7.687   9.208  71.631  1.00  0.00     0.142 C  
HETATM   19  C   UNL     1      -7.054   8.697  70.321  1.00  0.00    -0.042 C  
HETATM   20  H   UNL     1      -5.774   9.118  73.574  1.00  0.00     0.000 HD 
HETATM   21  C   UNL     1      -5.675   9.606  70.308  1.00  0.00    -0.045 C  
HETATM   22  C   UNL     1      -8.094   8.448  68.908  1.00  0.00    -0.114 C  
HETATM   23  O   UNL     1      -9.000   9.481  68.877  1.00  0.00    -0.135 OA 
HETATM   24  O   UNL     1      -7.002  10.141  67.861  1.00  0.00    -0.081 OA 
HETATM   25  C   UNL     1      -8.212  10.610  68.537  1.00  0.00    -0.128 C  
ENDROOT
BRANCH  22  26
HETATM   26  C   UNL     1      -8.692   7.032  68.105  1.00  0.00    -0.127 C  
HETATM   27  O   UNL     1      -8.005   6.431  67.252  1.00  0.00    -0.110 OA 
BRANCH  26  28
HETATM   28  C   UNL     1     -10.096   6.437  68.340  1.00  0.00    -0.157 C  
BRANCH  28  29
HETATM   29  O   UNL     1     -10.141   4.960  68.104  1.00  0.00    -0.141 OA 
BRANCH  29  30
HETATM   30  C   UNL     1     -10.115   4.486  66.823  1.00  0.00    -0.186 C  
HETATM   31  C   UNL     1      -9.372   2.655  65.169  1.00  0.00    -0.100 C  
HETATM   32  C   UNL     1      -9.000   2.259  67.576  1.00  0.00    -0.185 C  
HETATM   33  O   UNL     1     -10.845   4.955  65.944  1.00  0.00    -0.289 OA 
HETATM   34  C   UNL     1      -9.088   3.358  66.519  1.00  0.00    -0.172 C  
ENDBRANCH  29  30
ENDBRANCH  28  29
ENDBRANCH  26  28
ENDBRANCH  22  26
BRANCH  25  35
HETATM   35  C   UNL     1      -9.249  11.532  67.863  1.00  0.00    -0.168 C  
HETATM   36  C   UNL     1      -9.717  10.874  66.520  1.00  0.00    -0.235 C  
HETATM   37  C   UNL     1     -10.477  11.833  68.713  1.00  0.00    -0.221 C  
HETATM   38  C   UNL     1     -10.712  11.728  65.747  1.00  0.00    -0.328 C  
HETATM   39  C   UNL     1     -11.903  12.117  66.616  1.00  0.00    -0.314 C  
HETATM   40  C   UNL     1     -11.457  12.728  67.945  1.00  0.00    -0.365 C  
ENDBRANCH  25  35
TORSDOF 5
ENDMDL
MODEL       74
REMARK 921   NORMALIZED FREE ENERGY PREDICTED BY IDOCK:   -4.59 KCAL/MOL
REMARK 922        TOTAL FREE ENERGY PREDICTED BY IDOCK:   -6.25 KCAL/MOL
REMARK 923 INTER-LIGAND FREE ENERGY PREDICTED BY IDOCK:   -4.72 KCAL/MOL
REMARK 924 INTRA-LIGAND FREE ENERGY PREDICTED BY IDOCK:   -1.54 KCAL/MOL
REMARK 927      BINDING AFFINITY PREDICTED BY RF-SCORE:    0.00 PKD
ROOT
HETATM    1  C   UNL     1     -10.120  11.355  67.058  1.00  0.00    -0.208 C  
HETATM    2  C   UNL     1      -8.645  11.037  66.207  1.00  0.00    -0.167 C  
HETATM    3  C   UNL     1      -7.726  10.187  67.274  1.00  0.00    -0.095 C  
HETATM    4  C   UNL     1      -6.878   8.830  67.601  1.00  0.00    -0.071 C  
HETATM    5  C   UNL     1      -7.681   7.576  67.090  1.00  0.00    -0.112 C  
HETATM    6  C   UNL     1      -7.529   6.249  67.781  1.00  0.00    -0.093 C  
HETATM    7  C   UNL     1      -7.462   6.392  69.315  1.00  0.00    -0.094 C  
HETATM    8  C   UNL     1      -7.763   5.336  70.091  1.00  0.00    -0.072 C  
HETATM    9  C   UNL     1      -6.718   4.332  69.697  1.00  0.00    -0.037 C  
HETATM   10  C   UNL     1      -5.340   4.902  69.346  1.00  0.00    -0.004 C  
HETATM   11  O   UNL     1      -6.992   3.140  69.619  1.00  0.00    -0.040 OA 
HETATM   12  C   UNL     1      -5.126   6.255  69.319  1.00  0.00    -0.011 C  
HETATM   13  C   UNL     1      -6.231   7.221  69.746  1.00  0.00    -0.031 C  
HETATM   14  C   UNL     1      -5.942   7.367  71.272  1.00  0.00    -0.036 C  
HETATM   15  C   UNL     1      -6.693   8.625  69.159  1.00  0.00    -0.047 C  
HETATM   16  C   UNL     1      -6.338   9.916  69.901  1.00  0.00    -0.063 C  
HETATM   17  O   UNL     1      -5.239  10.611  69.339  1.00  0.00    -0.038 OA 
HETATM   18  C   UNL     1      -7.654  10.712  69.893  1.00  0.00     0.029 C  
HETATM   19  C   UNL     1      -8.243  10.903  68.481  1.00  0.00    -0.140 C  
HETATM   20  H   UNL     1      -5.019  11.411  69.800  1.00  0.00     0.000 HD 
HETATM   21  C   UNL     1      -7.699  12.428  68.159  1.00  0.00    -0.139 C  
HETATM   22  C   UNL     1      -9.895  10.348  68.161  1.00  0.00    -0.151 C  
HETATM   23  O   UNL     1     -10.652  10.649  69.268  1.00  0.00    -0.208 OA 
HETATM   24  O   UNL     1     -10.517  12.512  67.864  1.00  0.00    -0.208 OA 
HETATM   25  C   UNL     1     -10.745  12.063  69.238  1.00  0.00    -0.013 C  
ENDROOT
BRANCH  22  26
HETATM   26  C   UNL     1     -10.551   9.016  67.265  1.00  0.00    -0.231 C  
HETATM   27  O   UNL     1     -10.836   9.126  66.053  1.00  0.00     0.507 OA 
BRANCH  26  28
HETATM   28  C   UNL     1     -10.866   7.637  67.880  1.00  0.00    -0.035 C  
BRANCH  28  29
HETATM   29  O   UNL     1     -10.427   7.532  69.307  1.00  0.00    -0.210 OA 
BRANCH  29  30
HETATM   30  C   UNL     1     -11.294   7.037  70.239  1.00  0.00    -0.295 C  
HETATM   31  C   UNL     1     -11.991   6.843  72.713  1.00  0.00     0.137 C  
HETATM   32  C   UNL     1     -10.161   8.398  72.145  1.00  0.00    -0.376 C  
HETATM   33  O   UNL     1     -12.377   6.540  69.916  1.00  0.00     0.069 OA 
HETATM   34  C   UNL     1     -10.827   7.090  71.722  1.00  0.00    -0.250 C  
ENDBRANCH  29  30
ENDBRANCH  28  29
ENDBRANCH  26  28
ENDBRANCH  22  26
BRANCH  25  35
HETATM   35  C   UNL     1     -12.066  12.312  69.996  1.00  0.00    -0.346 C  
HETATM   36  C   UNL     1     -12.096  11.406  71.275  1.00  0.00    -0.087 C  
HETATM   37  C   UNL     1     -12.294  13.757  70.417  1.00  0.00    -0.423 C  
HETATM   38  C   UNL     1     -13.384  11.538  72.075  1.00  0.00    -0.397 C  
HETATM   39  C   UNL     1     -13.675  12.995  72.423  1.00  0.00    -0.593 C  
HETATM   40  C   UNL     1     -13.613  13.893  71.186  1.00  0.00    -0.140 C  
ENDBRANCH  25  35
TORSDOF 5
ENDMDL
MODEL       75
REMARK 921   NORMALIZED FREE ENERGY PREDICTED BY IDOCK:   -4.55 KCAL/MOL
REMARK 922        TOTAL FREE ENERGY PREDICTED BY IDOCK:   -6.20 KCAL/MOL
REMARK 923 INTER-LIGAND FREE ENERGY PREDICTED BY IDOCK:   -6.28 KCAL/MOL
REMARK 924 INTRA-LIGAND FREE ENERGY PREDICTED BY IDOCK:    0.08 KCAL/MOL
REMARK 927      BINDING AFFINITY PREDICTED BY RF-SCORE:    0.00 PKD
ROOT
HETATM    1  C   UNL     1     -10.403  12.783  68.591  1.00  0.00    -0.179 C  
HETATM    2  C   UNL     1     -11.308  11.338  68.289  1.00  0.00    -0.359 C  
HETATM    3  C   UNL     1     -10.803  10.834  66.807  1.00  0.00    -0.256 C  
HETATM    4  C   UNL     1     -10.155   9.648  65.891  1.00  0.00    -0.304 C  
HETATM    5  C   UNL     1      -8.961   8.980  66.672  1.00  0.00    -0.163 C  
HETATM    6  C   UNL     1      -7.809   8.376  65.916  1.00  0.00    -0.095 C  
HETATM    7  C   UNL     1      -7.390   9.232  64.704  1.00  0.00    -0.101 C  
HETATM    8  C   UNL     1      -6.153   9.095  64.194  1.00  0.00    -0.075 C  
HETATM    9  C   UNL     1      -6.141   7.663  63.745  1.00  0.00    -0.053 C  
HETATM   10  C   UNL     1      -7.467   7.119  63.203  1.00  0.00    -0.092 C  
HETATM   11  O   UNL     1      -5.132   6.978  63.864  1.00  0.00    -0.027 OA 
HETATM   12  C   UNL     1      -8.601   7.889  63.218  1.00  0.00     0.309 C  
HETATM   13  C   UNL     1      -8.539   9.346  63.677  1.00  0.00    -0.220 C  
HETATM   14  C   UNL     1      -8.250  10.082  62.331  1.00  0.00    -0.160 C  
HETATM   15  C   UNL     1      -9.535  10.222  64.554  1.00  0.00    -0.356 C  
HETATM   16  C   UNL     1     -10.419  11.275  63.881  1.00  0.00    -0.391 C  
HETATM   17  O   UNL     1     -11.758  10.854  63.689  1.00  0.00    -0.022 OA 
HETATM   18  C   UNL     1     -10.273  12.506  64.791  1.00  0.00    -0.304 C  
HETATM   19  C   UNL     1     -10.601  12.215  66.269  1.00  0.00    -0.285 C  
HETATM   20  H   UNL     1     -12.307  11.507  63.272  1.00  0.00     0.000 HD 
HETATM   21  C   UNL     1     -12.156  12.769  66.321  1.00  0.00    -0.400 C  
HETATM   22  C   UNL     1      -9.378  12.567  67.502  1.00  0.00    -0.187 C  
HETATM   23  O   UNL     1      -8.770  13.749  67.153  1.00  0.00    -0.214 OA 
HETATM   24  O   UNL     1     -10.742  14.184  68.329  1.00  0.00    -0.238 OA 
HETATM   25  C   UNL     1      -9.777  14.723  67.370  1.00  0.00    -0.214 C  
ENDROOT
BRANCH  22  26
HETATM   26  C   UNL     1      -8.351  11.568  68.479  1.00  0.00    -0.146 C  
HETATM   27  O   UNL     1      -7.133  11.445  68.226  1.00  0.00    -0.071 OA 
BRANCH  26  28
HETATM   28  C   UNL     1      -8.847  10.740  69.682  1.00  0.00     0.291 C  
BRANCH  28  29
HETATM   29  O   UNL     1      -9.082   9.304  69.332  1.00  0.00    -0.141 OA 
BRANCH  29  30
HETATM   30  C   UNL     1     -10.012   8.588  70.031  1.00  0.00    -0.188 C  
HETATM   31  C   UNL     1     -11.258   6.362  70.394  1.00  0.00    -0.435 C  
HETATM   32  C   UNL     1      -9.388   6.391  68.786  1.00  0.00    -0.125 C  
HETATM   33  O   UNL     1     -10.473   8.997  71.102  1.00  0.00    -0.241 OA 
HETATM   34  C   UNL     1     -10.493   7.256  69.388  1.00  0.00    -0.223 C  
ENDBRANCH  29  30
ENDBRANCH  28  29
ENDBRANCH  26  28
ENDBRANCH  22  26
BRANCH  25  35
HETATM   35  C   UNL     1      -8.940  15.991  67.639  1.00  0.00    -0.193 C  
HETATM   36  C   UNL     1      -8.658  16.096  69.178  1.00  0.00    -0.235 C  
HETATM   37  C   UNL     1      -7.613  16.046  66.895  1.00  0.00    -0.268 C  
HETATM   38  C   UNL     1      -7.876  17.344  69.561  1.00  0.00     0.482 C  
HETATM   39  C   UNL     1      -6.587  17.462  68.754  1.00  0.00    -0.206 C  
HETATM   40  C   UNL     1      -6.847  17.325  67.253  1.00  0.00    -0.195 C  
ENDBRANCH  25  35
TORSDOF 5
ENDMDL
MODEL       76
REMARK 921   NORMALIZED FREE ENERGY PREDICTED BY IDOCK:   -4.53 KCAL/MOL
REMARK 922        TOTAL FREE ENERGY PREDICTED BY IDOCK:   -6.18 KCAL/MOL
REMARK 923 INTER-LIGAND FREE ENERGY PREDICTED BY IDOCK:   -5.50 KCAL/MOL
REMARK 924 INTRA-LIGAND FREE ENERGY PREDICTED BY IDOCK:   -0.68 KCAL/MOL
REMARK 927      BINDING AFFINITY PREDICTED BY RF-SCORE:    0.00 PKD
ROOT
HETATM    1  C   UNL     1      -7.410  12.515  66.874  1.00  0.00     0.132 C  
HETATM    2  C   UNL     1      -5.992  11.558  66.602  1.00  0.00    -0.135 C  
HETATM    3  C   UNL     1      -6.198  10.230  67.551  1.00  0.00    -0.057 C  
HETATM    4  C   UNL     1      -6.285   8.604  67.661  1.00  0.00    -0.052 C  
HETATM    5  C   UNL     1      -7.140   8.044  66.463  1.00  0.00    -0.075 C  
HETATM    6  C   UNL     1      -7.927   6.772  66.626  1.00  0.00    -0.108 C  
HETATM    7  C   UNL     1      -8.607   6.677  68.006  1.00  0.00    -0.118 C  
HETATM    8  C   UNL     1      -9.667   5.864  68.166  1.00  0.00    -0.143 C  
HETATM    9  C   UNL     1      -9.089   4.511  67.866  1.00  0.00    -0.123 C  
HETATM   10  C   UNL     1      -7.637   4.290  68.304  1.00  0.00    -0.067 C  
HETATM   11  O   UNL     1      -9.744   3.670  67.262  1.00  0.00    -0.198 OA 
HETATM   12  C   UNL     1      -6.907   5.311  68.854  1.00  0.00    -0.055 C  
HETATM   13  C   UNL     1      -7.563   6.662  69.145  1.00  0.00    -0.100 C  
HETATM   14  C   UNL     1      -8.072   6.451  70.605  1.00  0.00    -0.113 C  
HETATM   15  C   UNL     1      -7.032   8.151  68.980  1.00  0.00    -0.061 C  
HETATM   16  C   UNL     1      -6.618   8.954  70.215  1.00  0.00    -0.042 C  
HETATM   17  O   UNL     1      -5.217   9.013  70.412  1.00  0.00    -0.027 OA 
HETATM   18  C   UNL     1      -7.278  10.326  69.993  1.00  0.00    -0.164 C  
HETATM   19  C   UNL     1      -6.915  10.966  68.638  1.00  0.00    -0.073 C  
HETATM   20  H   UNL     1      -4.960   9.511  71.178  1.00  0.00     0.000 HD 
HETATM   21  C   UNL     1      -5.714  11.988  69.127  1.00  0.00    -0.064 C  
HETATM   22  C   UNL     1      -8.222  11.424  67.532  1.00  0.00    -0.130 C  
HETATM   23  O   UNL     1      -9.238  11.951  68.291  1.00  0.00    -0.182 OA 
HETATM   24  O   UNL     1      -7.649  13.601  67.827  1.00  0.00    -0.131 OA 
HETATM   25  C   UNL     1      -8.713  13.188  68.744  1.00  0.00     0.162 C  
ENDROOT
BRANCH  22  26
HETATM   26  C   UNL     1      -8.800  10.765  66.035  1.00  0.00    -0.180 C  
HETATM   27  O   UNL     1      -8.143  10.881  64.978  1.00  0.00    -0.033 OA 
BRANCH  26  28
HETATM   28  C   UNL     1     -10.151  10.037  65.880  1.00  0.00    -0.249 C  
BRANCH  28  29
HETATM   29  O   UNL     1     -11.319  10.968  65.986  1.00  0.00    -0.043 OA 
BRANCH  29  30
HETATM   30  C   UNL     1     -11.589  11.822  64.956  1.00  0.00    -0.147 C  
HETATM   31  C   UNL     1     -12.405  14.139  64.175  1.00  0.00    -0.372 C  
HETATM   32  C   UNL     1     -12.075  13.785  66.594  1.00  0.00    -0.471 C  
HETATM   33  O   UNL     1     -11.200  11.594  63.806  1.00  0.00    -0.388 OA 
HETATM   34  C   UNL     1     -12.450  13.072  65.296  1.00  0.00    -0.555 C  
ENDBRANCH  29  30
ENDBRANCH  28  29
ENDBRANCH  26  28
ENDBRANCH  22  26
BRANCH  25  35
HETATM   35  C   UNL     1      -9.995  14.015  68.971  1.00  0.00    -0.028 C  
HETATM   36  C   UNL     1     -10.951  13.218  69.925  1.00  0.00     0.335 C  
HETATM   37  C   UNL     1      -9.761  15.400  69.561  1.00  0.00    -0.259 C  
HETATM   38  C   UNL     1     -12.273  13.927  70.179  1.00  0.00    -0.425 C  
HETATM   39  C   UNL     1     -12.054  15.351  70.681  1.00  0.00    -0.412 C  
HETATM   40  C   UNL     1     -11.094  16.126  69.777  1.00  0.00    -0.350 C  
ENDBRANCH  25  35
TORSDOF 5
ENDMDL
MODEL       77
REMARK 921   NORMALIZED FREE ENERGY PREDICTED BY IDOCK:   -4.53 KCAL/MOL
REMARK 922        TOTAL FREE ENERGY PREDICTED BY IDOCK:   -6.17 KCAL/MOL
REMARK 923 INTER-LIGAND FREE ENERGY PREDICTED BY IDOCK:   -5.34 KCAL/MOL
REMARK 924 INTRA-LIGAND FREE ENERGY PREDICTED BY IDOCK:   -0.84 KCAL/MOL
REMARK 927      BINDING AFFINITY PREDICTED BY RF-SCORE:    0.00 PKD
ROOT
HETATM    1  C   UNL     1      -8.701   4.736  65.132  1.00  0.00    -0.144 C  
HETATM    2  C   UNL     1      -9.005   3.339  66.109  1.00  0.00    -0.147 C  
HETATM    3  C   UNL     1      -8.449   3.748  67.602  1.00  0.00    -0.104 C  
HETATM    4  C   UNL     1      -8.756   3.924  69.196  1.00  0.00    -0.127 C  
HETATM    5  C   UNL     1     -10.159   4.613  69.384  1.00  0.00    -0.194 C  
HETATM    6  C   UNL     1     -10.424   5.472  70.591  1.00  0.00    -0.342 C  
HETATM    7  C   UNL     1      -9.215   6.358  70.954  1.00  0.00    -0.161 C  
HETATM    8  C   UNL     1      -9.406   7.466  71.692  1.00  0.00    -0.162 C  
HETATM    9  C   UNL     1      -9.948   6.912  72.978  1.00  0.00    -0.187 C  
HETATM   10  C   UNL     1      -9.385   5.555  73.414  1.00  0.00    -0.138 C  
HETATM   11  O   UNL     1     -10.824   7.506  73.596  1.00  0.00    -0.329 OA 
HETATM   12  C   UNL     1      -8.506   4.871  72.616  1.00  0.00    -0.119 C  
HETATM   13  C   UNL     1      -7.984   5.501  71.324  1.00  0.00    -0.111 C  
HETATM   14  C   UNL     1      -6.704   6.235  71.832  1.00  0.00    -0.064 C  
HETATM   15  C   UNL     1      -7.703   4.884  69.886  1.00  0.00    -0.056 C  
HETATM   16  C   UNL     1      -6.264   4.626  69.434  1.00  0.00    -0.027 C  
HETATM   17  O   UNL     1      -5.870   3.269  69.539  1.00  0.00    -0.021 OA 
HETATM   18  C   UNL     1      -6.229   5.180  68.000  1.00  0.00    -0.035 C  
HETATM   19  C   UNL     1      -7.322   4.587  67.089  1.00  0.00    -0.074 C  
HETATM   20  H   UNL     1      -4.976   3.109  69.258  1.00  0.00     0.000 HD 
HETATM   21  C   UNL     1      -6.438   3.429  66.313  1.00  0.00    -0.036 C  
HETATM   22  C   UNL     1      -8.449   5.688  66.277  1.00  0.00    -0.124 C  
HETATM   23  O   UNL     1      -7.729   6.782  65.864  1.00  0.00    -0.087 OA 
HETATM   24  O   UNL     1      -7.551   5.068  64.286  1.00  0.00    -0.069 OA 
HETATM   25  C   UNL     1      -6.919   6.276  64.817  1.00  0.00    -0.051 C  
ENDROOT
BRANCH  22  26
HETATM   26  C   UNL     1     -10.127   6.062  66.514  1.00  0.00    -0.137 C  
HETATM   27  O   UNL     1     -11.024   5.262  66.172  1.00  0.00    -0.213 OA 
BRANCH  26  28
HETATM   28  C   UNL     1     -10.636   7.389  67.112  1.00  0.00    -0.342 C  
BRANCH  28  29
HETATM   29  O   UNL     1      -9.909   8.579  66.569  1.00  0.00    -0.237 OA 
BRANCH  29  30
HETATM   30  C   UNL     1     -10.354   9.833  66.877  1.00  0.00    -0.234 C  
HETATM   31  C   UNL     1     -10.457  11.780  68.563  1.00  0.00    -0.233 C  
HETATM   32  C   UNL     1      -8.965   9.883  69.077  1.00  0.00    -0.160 C  
HETATM   33  O   UNL     1     -10.834  10.579  66.017  1.00  0.00    -0.087 OA 
HETATM   34  C   UNL     1     -10.268  10.255  68.372  1.00  0.00    -0.189 C  
ENDBRANCH  29  30
ENDBRANCH  28  29
ENDBRANCH  26  28
ENDBRANCH  22  26
BRANCH  25  35
HETATM   35  C   UNL     1      -6.671   7.539  63.966  1.00  0.00    -0.052 C  
HETATM   36  C   UNL     1      -8.008   7.943  63.255  1.00  0.00    -0.125 C  
HETATM   37  C   UNL     1      -6.152   8.739  64.747  1.00  0.00    -0.065 C  
HETATM   38  C   UNL     1      -7.864   9.156  62.347  1.00  0.00    -0.121 C  
HETATM   39  C   UNL     1      -7.256  10.339  63.094  1.00  0.00    -0.112 C  
HETATM   40  C   UNL     1      -5.969   9.947  63.820  1.00  0.00    -0.121 C  
ENDBRANCH  25  35
TORSDOF 5
ENDMDL
MODEL       78
REMARK 921   NORMALIZED FREE ENERGY PREDICTED BY IDOCK:   -4.41 KCAL/MOL
REMARK 922        TOTAL FREE ENERGY PREDICTED BY IDOCK:   -6.02 KCAL/MOL
REMARK 923 INTER-LIGAND FREE ENERGY PREDICTED BY IDOCK:   -5.28 KCAL/MOL
REMARK 924 INTRA-LIGAND FREE ENERGY PREDICTED BY IDOCK:   -0.74 KCAL/MOL
REMARK 927      BINDING AFFINITY PREDICTED BY RF-SCORE:    0.00 PKD
ROOT
HETATM    1  C   UNL     1      -9.374  10.023  69.956  1.00  0.00    -0.119 C  
HETATM    2  C   UNL     1      -9.220   9.290  71.518  1.00  0.00    -0.006 C  
HETATM    3  C   UNL     1      -9.394   7.679  71.239  1.00  0.00    -0.161 C  
HETATM    4  C   UNL     1      -8.774   6.173  71.371  1.00  0.00    -0.135 C  
HETATM    5  C   UNL     1      -7.242   6.206  71.011  1.00  0.00    -0.075 C  
HETATM    6  C   UNL     1      -6.580   4.994  70.414  1.00  0.00    -0.035 C  
HETATM    7  C   UNL     1      -7.474   4.292  69.372  1.00  0.00    -0.054 C  
HETATM    8  C   UNL     1      -6.911   3.492  68.450  1.00  0.00    -0.046 C  
HETATM    9  C   UNL     1      -6.285   2.416  69.288  1.00  0.00    -0.025 C  
HETATM   10  C   UNL     1      -7.050   2.025  70.557  1.00  0.00    -0.033 C  
HETATM   11  O   UNL     1      -5.202   1.932  68.981  1.00  0.00    -0.011 OA 
HETATM   12  C   UNL     1      -8.189   2.693  70.924  1.00  0.00    -0.072 C  
HETATM   13  C   UNL     1      -8.779   3.772  70.015  1.00  0.00    -0.119 C  
HETATM   14  C   UNL     1      -9.750   2.931  69.128  1.00  0.00     0.102 C  
HETATM   15  C   UNL     1      -9.444   5.179  70.339  1.00  0.00    -0.229 C  
HETATM   16  C   UNL     1     -10.962   5.347  70.235  1.00  0.00    -0.019 C  
HETATM   17  O   UNL     1     -11.625   5.313  71.486  1.00  0.00     0.249 OA 
HETATM   18  C   UNL     1     -11.129   6.673  69.473  1.00  0.00    -0.378 C  
HETATM   19  C   UNL     1     -10.377   7.851  70.126  1.00  0.00    -0.215 C  
HETATM   20  H   UNL     1     -12.566   5.418  71.422  1.00  0.00     0.000 HD 
HETATM   21  C   UNL     1     -11.623   8.549  70.954  1.00  0.00    -0.295 C  
HETATM   22  C   UNL     1      -9.196   8.753  69.159  1.00  0.00    -0.149 C  
HETATM   23  O   UNL     1      -9.715   8.885  67.894  1.00  0.00    -0.151 OA 
HETATM   24  O   UNL     1     -10.552  10.570  69.280  1.00  0.00    -0.208 OA 
HETATM   25  C   UNL     1     -10.793   9.790  68.065  1.00  0.00    -0.223 C  
ENDROOT
BRANCH  22  26
HETATM   26  C   UNL     1      -7.463   8.830  69.165  1.00  0.00    -0.076 C  
HETATM   27  O   UNL     1      -6.774   7.980  68.561  1.00  0.00    -0.062 OA 
BRANCH  26  28
HETATM   28  C   UNL     1      -6.652   9.897  69.928  1.00  0.00    -0.080 C  
BRANCH  28  29
HETATM   29  O   UNL     1      -6.297  11.071  69.069  1.00  0.00    -0.042 OA 
BRANCH  29  30
HETATM   30  C   UNL     1      -6.061  12.281  69.655  1.00  0.00    -0.132 C  
HETATM   31  C   UNL     1      -6.043  14.852  69.464  1.00  0.00    -0.113 C  
HETATM   32  C   UNL     1      -7.011  13.561  67.598  1.00  0.00    -0.176 C  
HETATM   33  O   UNL     1      -5.903  12.391  70.875  1.00  0.00    -0.321 OA 
HETATM   34  C   UNL     1      -5.957  13.507  68.702  1.00  0.00    -0.086 C  
ENDBRANCH  29  30
ENDBRANCH  28  29
ENDBRANCH  26  28
ENDBRANCH  22  26
BRANCH  25  35
HETATM   35  C   UNL     1     -10.900  10.427  66.663  1.00  0.00    -0.140 C  
HETATM   36  C   UNL     1     -11.048  11.979  66.820  1.00  0.00    -0.353 C  
HETATM   37  C   UNL     1      -9.720  10.140  65.744  1.00  0.00    -0.307 C  
HETATM   38  C   UNL     1     -11.209  12.705  65.493  1.00  0.00    -0.337 C  
HETATM   39  C   UNL     1     -10.083  12.352  64.526  1.00  0.00    -0.276 C  
HETATM   40  C   UNL     1      -9.907  10.839  64.393  1.00  0.00    -0.374 C  
ENDBRANCH  25  35
TORSDOF 5
ENDMDL
MODEL       79
REMARK 921   NORMALIZED FREE ENERGY PREDICTED BY IDOCK:   -4.38 KCAL/MOL
REMARK 922        TOTAL FREE ENERGY PREDICTED BY IDOCK:   -5.99 KCAL/MOL
REMARK 923 INTER-LIGAND FREE ENERGY PREDICTED BY IDOCK:   -5.21 KCAL/MOL
REMARK 924 INTRA-LIGAND FREE ENERGY PREDICTED BY IDOCK:   -0.78 KCAL/MOL
REMARK 927      BINDING AFFINITY PREDICTED BY RF-SCORE:    0.00 PKD
ROOT
HETATM    1  C   UNL     1     -10.560   7.111  67.761  1.00  0.00    -0.225 C  
HETATM    2  C   UNL     1     -11.077   8.092  69.092  1.00  0.00     0.182 C  
HETATM    3  C   UNL     1      -9.753   8.983  69.489  1.00  0.00    -0.171 C  
HETATM    4  C   UNL     1      -9.090  10.458  69.715  1.00  0.00     0.013 C  
HETATM    5  C   UNL     1      -9.556  11.422  68.560  1.00  0.00    -0.190 C  
HETATM    6  C   UNL     1      -8.668  12.552  68.114  1.00  0.00    -0.190 C  
HETATM    7  C   UNL     1      -7.183  12.141  68.054  1.00  0.00    -0.099 C  
HETATM    8  C   UNL     1      -6.334  12.847  67.287  1.00  0.00    -0.018 C  
HETATM    9  C   UNL     1      -6.387  14.212  67.910  1.00  0.00    -0.164 C  
HETATM   10  C   UNL     1      -6.560  14.248  69.432  1.00  0.00    -0.132 C  
HETATM   11  O   UNL     1      -6.344  15.220  67.214  1.00  0.00    -0.310 OA 
HETATM   12  C   UNL     1      -6.739  13.092  70.146  1.00  0.00     0.417 C  
HETATM   13  C   UNL     1      -6.659  11.733  69.449  1.00  0.00    -0.113 C  
HETATM   14  C   UNL     1      -5.141  11.400  69.594  1.00  0.00    -0.049 C  
HETATM   15  C   UNL     1      -7.511  10.403  69.627  1.00  0.00    -0.160 C  
HETATM   16  C   UNL     1      -6.906   9.202  70.357  1.00  0.00    -0.062 C  
HETATM   17  O   UNL     1      -7.353   9.066  71.695  1.00  0.00    -0.276 OA 
HETATM   18  C   UNL     1      -7.264   8.010  69.453  1.00  0.00    -0.071 C  
HETATM   19  C   UNL     1      -8.772   7.907  69.148  1.00  0.00    -0.138 C  
HETATM   20  H   UNL     1      -6.977   8.321  72.148  1.00  0.00     0.000 HD 
HETATM   21  C   UNL     1      -9.202   6.768  70.264  1.00  0.00    -0.156 C  
HETATM   22  C   UNL     1      -9.304   7.892  67.457  1.00  0.00    -0.143 C  
HETATM   23  O   UNL     1      -8.405   7.131  66.750  1.00  0.00    -0.111 OA 
HETATM   24  O   UNL     1     -10.010   5.753  67.743  1.00  0.00    -0.123 OA 
HETATM   25  C   UNL     1      -8.651   5.811  67.205  1.00  0.00    -0.109 C  
ENDROOT
BRANCH  22  26
HETATM   26  C   UNL     1     -10.107   9.056  66.453  1.00  0.00    -0.281 C  
HETATM   27  O   UNL     1     -11.281   9.416  66.687  1.00  0.00     0.349 OA 
BRANCH  26  28
HETATM   28  C   UNL     1      -9.473   9.695  65.200  1.00  0.00    -0.265 C  
BRANCH  28  29
HETATM   29  O   UNL     1      -9.735  11.166  65.111  1.00  0.00    -0.226 OA 
BRANCH  29  30
HETATM   30  C   UNL     1     -10.540  11.643  64.117  1.00  0.00    -0.357 C  
HETATM   31  C   UNL     1     -12.351  13.315  63.363  1.00  0.00    -0.402 C  
HETATM   32  C   UNL     1     -11.380  13.598  65.614  1.00  0.00    -0.309 C  
HETATM   33  O   UNL     1     -10.359  11.338  62.934  1.00  0.00    -0.237 OA 
HETATM   34  C   UNL     1     -11.724  12.552  64.556  1.00  0.00    -0.423 C  
ENDBRANCH  29  30
ENDBRANCH  28  29
ENDBRANCH  26  28
ENDBRANCH  22  26
BRANCH  25  35
HETATM   35  C   UNL     1      -8.186   4.967  66.000  1.00  0.00    -0.112 C  
HETATM   36  C   UNL     1      -9.063   3.670  65.920  1.00  0.00    -0.153 C  
HETATM   37  C   UNL     1      -8.253   5.685  64.659  1.00  0.00    -0.129 C  
HETATM   38  C   UNL     1      -8.655   2.738  64.788  1.00  0.00    -0.096 C  
HETATM   39  C   UNL     1      -8.627   3.469  63.449  1.00  0.00    -0.090 C  
HETATM   40  C   UNL     1      -7.802   4.754  63.526  1.00  0.00    -0.081 C  
ENDBRANCH  25  35
TORSDOF 5
ENDMDL
MODEL       80
REMARK 921   NORMALIZED FREE ENERGY PREDICTED BY IDOCK:   -4.38 KCAL/MOL
REMARK 922        TOTAL FREE ENERGY PREDICTED BY IDOCK:   -5.98 KCAL/MOL
REMARK 923 INTER-LIGAND FREE ENERGY PREDICTED BY IDOCK:   -5.30 KCAL/MOL
REMARK 924 INTRA-LIGAND FREE ENERGY PREDICTED BY IDOCK:   -0.68 KCAL/MOL
REMARK 927      BINDING AFFINITY PREDICTED BY RF-SCORE:    0.00 PKD
ROOT
HETATM    1  C   UNL     1     -10.065   7.043  66.897  1.00  0.00    -0.226 C  
HETATM    2  C   UNL     1     -11.007   6.547  68.263  1.00  0.00    -0.362 C  
HETATM    3  C   UNL     1      -9.898   6.155  69.412  1.00  0.00    -0.191 C  
HETATM    4  C   UNL     1      -9.322   6.389  70.922  1.00  0.00    -0.168 C  
HETATM    5  C   UNL     1      -9.301   7.931  71.239  1.00  0.00    -0.172 C  
HETATM    6  C   UNL     1      -8.279   8.493  72.190  1.00  0.00    -0.175 C  
HETATM    7  C   UNL     1      -6.889   7.852  72.001  1.00  0.00    -0.066 C  
HETATM    8  C   UNL     1      -5.796   8.508  72.430  1.00  0.00    -0.066 C  
HETATM    9  C   UNL     1      -6.036   8.610  73.909  1.00  0.00    -0.118 C  
HETATM   10  C   UNL     1      -6.757   7.422  74.555  1.00  0.00    -0.103 C  
HETATM   11  O   UNL     1      -5.710   9.616  74.528  1.00  0.00    -0.306 OA 
HETATM   12  C   UNL     1      -7.220   6.383  73.791  1.00  0.00    -0.082 C  
HETATM   13  C   UNL     1      -6.928   6.335  72.291  1.00  0.00    -0.074 C  
HETATM   14  C   UNL     1      -5.581   5.548  72.262  1.00  0.00    -0.018 C  
HETATM   15  C   UNL     1      -7.824   5.896  71.054  1.00  0.00    -0.110 C  
HETATM   16  C   UNL     1      -7.567   4.553  70.365  1.00  0.00    -0.053 C  
HETATM   17  O   UNL     1      -8.479   3.537  70.742  1.00  0.00    -0.067 OA 
HETATM   18  C   UNL     1      -7.601   4.902  68.867  1.00  0.00    -0.069 C  
HETATM   19  C   UNL     1      -8.893   5.627  68.438  1.00  0.00    -0.108 C  
HETATM   20  H   UNL     1      -8.320   2.704  70.314  1.00  0.00     0.000 HD 
HETATM   21  C   UNL     1      -9.737   4.349  67.824  1.00  0.00    -0.191 C  
HETATM   22  C   UNL     1      -8.763   7.207  67.644  1.00  0.00    -0.121 C  
HETATM   23  O   UNL     1      -7.689   7.150  66.789  1.00  0.00    -0.094 OA 
HETATM   24  O   UNL     1      -9.587   6.271  65.747  1.00  0.00     0.056 OA 
HETATM   25  C   UNL     1      -8.124   6.276  65.761  1.00  0.00    -0.126 C  
ENDROOT
BRANCH  22  26
HETATM   26  C   UNL     1      -9.105   8.828  68.157  1.00  0.00    -0.140 C  
HETATM   27  O   UNL     1      -8.203   9.573  68.600  1.00  0.00    -0.109 OA 
BRANCH  26  28
HETATM   28  C   UNL     1     -10.514   9.454  68.149  1.00  0.00    -0.220 C  
BRANCH  28  29
HETATM   29  O   UNL     1     -10.603  10.681  69.002  1.00  0.00    -0.193 OA 
BRANCH  29  30
HETATM   30  C   UNL     1     -11.432  11.699  68.626  1.00  0.00    -0.290 C  
HETATM   31  C   UNL     1     -11.703  14.083  67.684  1.00  0.00    -0.412 C  
HETATM   32  C   UNL     1      -9.443  13.093  67.693  1.00  0.00    -0.207 C  
HETATM   33  O   UNL     1     -12.646  11.525  68.479  1.00  0.00    -0.142 OA 
HETATM   34  C   UNL     1     -10.777  13.097  68.437  1.00  0.00    -0.270 C  
ENDBRANCH  29  30
ENDBRANCH  28  29
ENDBRANCH  26  28
ENDBRANCH  22  26
BRANCH  25  35
HETATM   35  C   UNL     1      -7.273   6.746  64.562  1.00  0.00    -0.072 C  
HETATM   36  C   UNL     1      -8.166   7.617  63.614  1.00  0.00     0.043 C  
HETATM   37  C   UNL     1      -6.034   7.548  64.939  1.00  0.00    -0.038 C  
HETATM   38  C   UNL     1      -7.434   8.095  62.369  1.00  0.00    -0.106 C  
HETATM   39  C   UNL     1      -6.140   8.819  62.729  1.00  0.00    -0.090 C  
HETATM   40  C   UNL     1      -5.277   7.991  63.682  1.00  0.00    -0.042 C  
ENDBRANCH  25  35
TORSDOF 5
ENDMDL
MODEL       81
REMARK 921   NORMALIZED FREE ENERGY PREDICTED BY IDOCK:   -4.13 KCAL/MOL
REMARK 922        TOTAL FREE ENERGY PREDICTED BY IDOCK:   -5.67 KCAL/MOL
REMARK 923 INTER-LIGAND FREE ENERGY PREDICTED BY IDOCK:   -5.69 KCAL/MOL
REMARK 924 INTRA-LIGAND FREE ENERGY PREDICTED BY IDOCK:    0.02 KCAL/MOL
REMARK 927      BINDING AFFINITY PREDICTED BY RF-SCORE:    0.00 PKD
ROOT
HETATM    1  C   UNL     1      -6.912  10.880  66.350  1.00  0.00    -0.134 C  
HETATM    2  C   UNL     1      -7.040   9.218  65.878  1.00  0.00    -0.090 C  
HETATM    3  C   UNL     1      -7.466   8.428  67.256  1.00  0.00    -0.093 C  
HETATM    4  C   UNL     1      -8.524   7.447  68.022  1.00  0.00    -0.123 C  
HETATM    5  C   UNL     1      -9.994   7.876  67.655  1.00  0.00    -0.234 C  
HETATM    6  C   UNL     1     -11.113   7.650  68.634  1.00  0.00     0.222 C  
HETATM    7  C   UNL     1     -10.693   7.958  70.086  1.00  0.00    -0.244 C  
HETATM    8  C   UNL     1     -11.638   8.233  71.003  1.00  0.00    -0.301 C  
HETATM    9  C   UNL     1     -12.439   6.964  71.037  1.00  0.00    -0.313 C  
HETATM   10  C   UNL     1     -11.649   5.667  70.834  1.00  0.00     0.337 C  
HETATM   11  O   UNL     1     -13.657   6.995  71.171  1.00  0.00    -0.271 OA 
HETATM   12  C   UNL     1     -10.308   5.698  70.554  1.00  0.00    -0.327 C  
HETATM   13  C   UNL     1      -9.550   7.026  70.547  1.00  0.00    -0.169 C  
HETATM   14  C   UNL     1      -9.080   7.121  72.032  1.00  0.00    -0.142 C  
HETATM   15  C   UNL     1      -8.408   7.586  69.594  1.00  0.00    -0.131 C  
HETATM   16  C   UNL     1      -6.961   7.646  70.091  1.00  0.00    -0.051 C  
HETATM   17  O   UNL     1      -6.150   6.591  69.606  1.00  0.00    -0.021 OA 
HETATM   18  C   UNL     1      -6.489   9.046  69.665  1.00  0.00    -0.042 C  
HETATM   19  C   UNL     1      -6.682   9.324  68.161  1.00  0.00    -0.060 C  
HETATM   20  H   UNL     1      -5.252   6.628  69.915  1.00  0.00     0.000 HD 
HETATM   21  C   UNL     1      -5.155   9.004  67.622  1.00  0.00    -0.034 C  
HETATM   22  C   UNL     1      -7.635  10.735  67.668  1.00  0.00    -0.096 C  
HETATM   23  O   UNL     1      -7.321  11.763  68.522  1.00  0.00    -0.090 OA 
HETATM   24  O   UNL     1      -5.748  11.650  66.797  1.00  0.00    -0.130 OA 
HETATM   25  C   UNL     1      -5.989  12.099  68.169  1.00  0.00    -0.055 C  
ENDROOT
BRANCH  22  26
HETATM   26  C   UNL     1      -9.215  10.921  66.976  1.00  0.00    -0.152 C  
HETATM   27  O   UNL     1      -9.374  11.434  65.848  1.00  0.00    -0.219 OA 
BRANCH  26  28
HETATM   28  C   UNL     1     -10.521  10.518  67.692  1.00  0.00    -0.234 C  
BRANCH  28  29
HETATM   29  O   UNL     1     -11.462  11.669  67.861  1.00  0.00    -0.279 OA 
BRANCH  29  30
HETATM   30  C   UNL     1     -12.079  11.858  69.064  1.00  0.00    -0.186 C  
HETATM   31  C   UNL     1     -12.883  13.485  70.894  1.00  0.00    -0.298 C  
HETATM   32  C   UNL     1     -11.999  14.445  68.800  1.00  0.00    -0.331 C  
HETATM   33  O   UNL     1     -12.731  10.959  69.606  1.00  0.00    -0.235 OA 
HETATM   34  C   UNL     1     -11.881  13.245  69.738  1.00  0.00    -0.394 C  
ENDBRANCH  29  30
ENDBRANCH  28  29
ENDBRANCH  26  28
ENDBRANCH  22  26
BRANCH  25  35
HETATM   35  C   UNL     1      -5.910  13.580  68.595  1.00  0.00    -0.085 C  
HETATM   36  C   UNL     1      -6.906  14.415  67.720  1.00  0.00    -0.194 C  
HETATM   37  C   UNL     1      -6.221  13.835  70.065  1.00  0.00    -0.120 C  
HETATM   38  C   UNL     1      -6.873  15.905  68.028  1.00  0.00    -0.137 C  
HETATM   39  C   UNL     1      -7.089  16.171  69.514  1.00  0.00    -0.164 C  
HETATM   40  C   UNL     1      -6.145  15.334  70.379  1.00  0.00    -0.071 C  
ENDBRANCH  25  35
TORSDOF 5
ENDMDL
MODEL       82
REMARK 921   NORMALIZED FREE ENERGY PREDICTED BY IDOCK:   -4.11 KCAL/MOL
REMARK 922        TOTAL FREE ENERGY PREDICTED BY IDOCK:   -5.64 KCAL/MOL
REMARK 923 INTER-LIGAND FREE ENERGY PREDICTED BY IDOCK:   -4.95 KCAL/MOL
REMARK 924 INTRA-LIGAND FREE ENERGY PREDICTED BY IDOCK:   -0.69 KCAL/MOL
REMARK 927      BINDING AFFINITY PREDICTED BY RF-SCORE:    0.00 PKD
ROOT
HETATM    1  C   UNL     1      -9.500   4.681  69.637  1.00  0.00    -0.162 C  
HETATM    2  C   UNL     1     -10.656   4.993  68.384  1.00  0.00     0.098 C  
HETATM    3  C   UNL     1     -10.317   6.520  67.877  1.00  0.00    -0.229 C  
HETATM    4  C   UNL     1      -9.928   7.518  66.645  1.00  0.00    -0.270 C  
HETATM    5  C   UNL     1      -8.833   6.834  65.744  1.00  0.00    -0.088 C  
HETATM    6  C   UNL     1      -7.840   7.676  64.990  1.00  0.00    -0.126 C  
HETATM    7  C   UNL     1      -7.337   8.873  65.823  1.00  0.00    -0.089 C  
HETATM    8  C   UNL     1      -6.168   9.456  65.502  1.00  0.00    -0.065 C  
HETATM    9  C   UNL     1      -6.426   9.963  64.113  1.00  0.00    -0.126 C  
HETATM   10  C   UNL     1      -7.851  10.454  63.832  1.00  0.00    -0.057 C  
HETATM   11  O   UNL     1      -5.547   9.929  63.260  1.00  0.00    -0.087 OA 
HETATM   12  C   UNL     1      -8.831  10.344  64.783  1.00  0.00    -0.211 C  
HETATM   13  C   UNL     1      -8.495   9.830  66.183  1.00  0.00    -0.130 C  
HETATM   14  C   UNL     1      -8.147  11.158  66.925  1.00  0.00    -0.150 C  
HETATM   15  C   UNL     1      -9.282   8.863  67.171  1.00  0.00    -0.169 C  
HETATM   16  C   UNL     1     -10.000   9.442  68.392  1.00  0.00    -0.170 C  
HETATM   17  O   UNL     1     -11.400   9.577  68.218  1.00  0.00    -0.505 OA 
HETATM   18  C   UNL     1      -9.600   8.491  69.533  1.00  0.00    -0.170 C  
HETATM   19  C   UNL     1      -9.904   7.011  69.228  1.00  0.00    -0.159 C  
HETATM   20  H   UNL     1     -11.846   9.936  68.976  1.00  0.00     0.000 HD 
HETATM   21  C   UNL     1     -11.334   6.850  70.037  1.00  0.00    -0.343 C  
HETATM   22  C   UNL     1      -8.581   5.833  69.304  1.00  0.00    -0.111 C  
HETATM   23  O   UNL     1      -7.794   6.166  70.379  1.00  0.00    -0.101 OA 
HETATM   24  O   UNL     1      -9.602   4.866  71.086  1.00  0.00    -0.152 OA 
HETATM   25  C   UNL     1      -8.605   5.854  71.499  1.00  0.00    -0.132 C  
ENDROOT
BRANCH  22  26
HETATM   26  C   UNL     1      -7.698   4.957  68.095  1.00  0.00    -0.082 C  
HETATM   27  O   UNL     1      -6.676   5.438  67.560  1.00  0.00    -0.052 OA 
BRANCH  26  28
HETATM   28  C   UNL     1      -8.111   3.568  67.565  1.00  0.00    -0.081 C  
BRANCH  28  29
HETATM   29  O   UNL     1      -8.861   3.647  66.272  1.00  0.00    -0.116 OA 
BRANCH  29  30
HETATM   30  C   UNL     1      -8.425   2.921  65.201  1.00  0.00    -0.099 C  
HETATM   31  C   UNL     1      -8.854   2.045  62.815  1.00  0.00    -0.077 C  
HETATM   32  C   UNL     1     -10.455   3.669  63.756  1.00  0.00    -0.272 C  
HETATM   33  O   UNL     1      -7.250   2.553  65.103  1.00  0.00    -0.056 OA 
HETATM   34  C   UNL     1      -9.492   2.545  64.134  1.00  0.00    -0.129 C  
ENDBRANCH  29  30
ENDBRANCH  28  29
ENDBRANCH  26  28
ENDBRANCH  22  26
BRANCH  25  35
HETATM   35  C   UNL     1      -7.549   5.578  72.590  1.00  0.00    -0.098 C  
HETATM   36  C   UNL     1      -7.574   4.053  72.948  1.00  0.00    -0.075 C  
HETATM   37  C   UNL     1      -6.127   5.967  72.209  1.00  0.00    -0.041 C  
HETATM   38  C   UNL     1      -6.599   3.679  74.054  1.00  0.00    -0.042 C  
HETATM   39  C   UNL     1      -5.184   4.146  73.729  1.00  0.00    -0.004 C  
HETATM   40  C   UNL     1      -5.153   5.626  73.344  1.00  0.00    -0.022 C  
ENDBRANCH  25  35
TORSDOF 5
ENDMDL
MODEL       83
REMARK 921   NORMALIZED FREE ENERGY PREDICTED BY IDOCK:   -4.11 KCAL/MOL
REMARK 922        TOTAL FREE ENERGY PREDICTED BY IDOCK:   -5.64 KCAL/MOL
REMARK 923 INTER-LIGAND FREE ENERGY PREDICTED BY IDOCK:   -5.16 KCAL/MOL
REMARK 924 INTRA-LIGAND FREE ENERGY PREDICTED BY IDOCK:   -0.48 KCAL/MOL
REMARK 927      BINDING AFFINITY PREDICTED BY RF-SCORE:    0.00 PKD
ROOT
HETATM    1  C   UNL     1     -10.527   7.814  67.145  1.00  0.00    -0.343 C  
HETATM    2  C   UNL     1     -10.963   8.509  68.671  1.00  0.00     0.131 C  
HETATM    3  C   UNL     1      -9.647   9.391  69.116  1.00  0.00    -0.163 C  
HETATM    4  C   UNL     1      -9.031  10.838  69.553  1.00  0.00     0.122 C  
HETATM    5  C   UNL     1      -9.640  11.964  68.635  1.00  0.00    -0.101 C  
HETATM    6  C   UNL     1      -8.846  13.206  68.334  1.00  0.00    -0.117 C  
HETATM    7  C   UNL     1      -7.356  12.900  68.080  1.00  0.00    -0.120 C  
HETATM    8  C   UNL     1      -6.611  13.780  67.388  1.00  0.00     0.032 C  
HETATM    9  C   UNL     1      -6.667  15.006  68.252  1.00  0.00    -0.114 C  
HETATM   10  C   UNL     1      -6.702  14.760  69.764  1.00  0.00    -0.173 C  
HETATM   11  O   UNL     1      -6.730  16.123  67.752  1.00  0.00    -0.125 OA 
HETATM   12  C   UNL     1      -6.766  13.486  70.267  1.00  0.00     0.380 C  
HETATM   13  C   UNL     1      -6.691  12.281  69.329  1.00  0.00    -0.075 C  
HETATM   14  C   UNL     1      -5.153  12.017  69.287  1.00  0.00    -0.052 C  
HETATM   15  C   UNL     1      -7.466  10.893  69.328  1.00  0.00    -0.124 C  
HETATM   16  C   UNL     1      -6.746   9.618  69.775  1.00  0.00    -0.062 C  
HETATM   17  O   UNL     1      -7.063   9.219  71.097  1.00  0.00    -0.184 OA 
HETATM   18  C   UNL     1      -7.133   8.587  68.700  1.00  0.00    -0.072 C  
HETATM   19  C   UNL     1      -8.656   8.452  68.505  1.00  0.00    -0.136 C  
HETATM   20  H   UNL     1      -6.617   8.428  71.374  1.00  0.00     0.000 HD 
HETATM   21  C   UNL     1      -8.935   7.109  69.424  1.00  0.00    -0.136 C  
HETATM   22  C   UNL     1      -9.338   8.709  66.889  1.00  0.00    -0.170 C  
HETATM   23  O   UNL     1      -8.475   8.140  65.983  1.00  0.00    -0.125 OA 
HETATM   24  O   UNL     1      -9.923   6.516  66.835  1.00  0.00    -0.154 OA 
HETATM   25  C   UNL     1      -8.621   6.748  66.208  1.00  0.00    -0.139 C  
ENDROOT
BRANCH  22  26
HETATM   26  C   UNL     1     -10.278   9.985  66.183  1.00  0.00    -0.213 C  
HETATM   27  O   UNL     1     -11.298  10.430  66.751  1.00  0.00    -0.094 OA 
BRANCH  26  28
HETATM   28  C   UNL     1      -9.966  10.628  64.816  1.00  0.00    -0.327 C  
BRANCH  28  29
HETATM   29  O   UNL     1      -9.886  12.121  64.889  1.00  0.00    -0.237 OA 
BRANCH  29  30
HETATM   30  C   UNL     1     -10.928  12.870  64.423  1.00  0.00    -0.371 C  
HETATM   31  C   UNL     1     -12.135  15.146  64.329  1.00  0.00    -0.277 C  
HETATM   32  C   UNL     1      -9.932  15.049  65.436  1.00  0.00    -0.365 C  
HETATM   33  O   UNL     1     -11.652  12.472  63.504  1.00  0.00    -0.456 OA 
HETATM   34  C   UNL     1     -11.184  14.228  65.136  1.00  0.00    -0.345 C  
ENDBRANCH  29  30
ENDBRANCH  28  29
ENDBRANCH  26  28
ENDBRANCH  22  26
BRANCH  25  35
HETATM   35  C   UNL     1      -8.232   6.162  64.834  1.00  0.00    -0.125 C  
HETATM   36  C   UNL     1      -7.893   7.339  63.856  1.00  0.00    -0.111 C  
HETATM   37  C   UNL     1      -7.052   5.200  64.867  1.00  0.00    -0.062 C  
HETATM   38  C   UNL     1      -7.541   6.870  62.452  1.00  0.00    -0.098 C  
HETATM   39  C   UNL     1      -6.422   5.834  62.477  1.00  0.00    -0.025 C  
HETATM   40  C   UNL     1      -6.726   4.698  63.455  1.00  0.00    -0.038 C  
ENDBRANCH  25  35
TORSDOF 5
ENDMDL
MODEL       84
REMARK 921   NORMALIZED FREE ENERGY PREDICTED BY IDOCK:   -4.09 KCAL/MOL
REMARK 922        TOTAL FREE ENERGY PREDICTED BY IDOCK:   -5.61 KCAL/MOL
REMARK 923 INTER-LIGAND FREE ENERGY PREDICTED BY IDOCK:   -4.55 KCAL/MOL
REMARK 924 INTRA-LIGAND FREE ENERGY PREDICTED BY IDOCK:   -1.07 KCAL/MOL
REMARK 927      BINDING AFFINITY PREDICTED BY RF-SCORE:    0.00 PKD
ROOT
HETATM    1  C   UNL     1      -7.526  16.024  69.317  1.00  0.00    -0.228 C  
HETATM    2  C   UNL     1      -8.668  14.881  69.941  1.00  0.00     0.352 C  
HETATM    3  C   UNL     1      -9.680  14.576  68.681  1.00  0.00    -0.221 C  
HETATM    4  C   UNL     1     -10.357  13.477  67.680  1.00  0.00    -0.239 C  
HETATM    5  C   UNL     1      -9.262  12.442  67.223  1.00  0.00    -0.187 C  
HETATM    6  C   UNL     1      -9.372  11.769  65.882  1.00  0.00    -0.214 C  
HETATM    7  C   UNL     1      -9.848  12.736  64.779  1.00  0.00    -0.055 C  
HETATM    8  C   UNL     1      -9.590  12.446  63.491  1.00  0.00     0.336 C  
HETATM    9  C   UNL     1     -10.328  11.154  63.292  1.00  0.00    -0.308 C  
HETATM   10  C   UNL     1     -11.645  11.008  64.062  1.00  0.00     0.641 C  
HETATM   11  O   UNL     1      -9.858  10.266  62.591  1.00  0.00    -0.223 OA 
HETATM   12  C   UNL     1     -12.057  11.978  64.938  1.00  0.00    -0.247 C  
HETATM   13  C   UNL     1     -11.263  13.277  65.082  1.00  0.00    -0.322 C  
HETATM   14  C   UNL     1     -11.949  14.180  64.010  1.00  0.00    -0.359 C  
HETATM   15  C   UNL     1     -10.896  14.155  66.356  1.00  0.00    -0.304 C  
HETATM   16  C   UNL     1     -11.628  15.477  66.607  1.00  0.00     0.163 C  
HETATM   17  O   UNL     1     -12.644  15.385  67.590  1.00  0.00     0.218 OA 
HETATM   18  C   UNL     1     -10.496  16.455  66.965  1.00  0.00    -0.291 C  
HETATM   19  C   UNL     1      -9.607  15.962  68.124  1.00  0.00    -0.208 C  
HETATM   20  H   UNL     1     -13.098  16.205  67.746  1.00  0.00     0.000 HD 
HETATM   21  C   UNL     1     -10.285  16.804  69.372  1.00  0.00    -0.225 C  
HETATM   22  C   UNL     1      -7.860  15.813  67.859  1.00  0.00    -0.139 C  
HETATM   23  O   UNL     1      -7.467  16.888  67.099  1.00  0.00    -0.150 OA 
HETATM   24  O   UNL     1      -7.535  17.488  69.357  1.00  0.00    -0.077 OA 
HETATM   25  C   UNL     1      -7.594  17.989  67.983  1.00  0.00    -0.244 C  
ENDROOT
BRANCH  22  26
HETATM   26  C   UNL     1      -6.796  14.456  67.670  1.00  0.00    -0.182 C  
HETATM   27  O   UNL     1      -6.704  13.850  66.581  1.00  0.00     0.785 OA 
BRANCH  26  28
HETATM   28  C   UNL     1      -5.932  13.876  68.809  1.00  0.00    -0.085 C  
BRANCH  28  29
HETATM   29  O   UNL     1      -5.853  12.382  68.766  1.00  0.00    -0.060 OA 
BRANCH  29  30
HETATM   30  C   UNL     1      -6.189  11.663  69.877  1.00  0.00    -0.144 C  
HETATM   31  C   UNL     1      -7.315   9.578  70.891  1.00  0.00    -0.053 C  
HETATM   32  C   UNL     1      -7.095   9.694  68.437  1.00  0.00    -0.070 C  
HETATM   33  O   UNL     1      -5.691  11.906  70.981  1.00  0.00    -0.353 OA 
HETATM   34  C   UNL     1      -7.262  10.552  69.689  1.00  0.00    -0.148 C  
ENDBRANCH  29  30
ENDBRANCH  28  29
ENDBRANCH  26  28
ENDBRANCH  22  26
BRANCH  25  35
HETATM   35  C   UNL     1      -6.565  18.983  67.405  1.00  0.00    -0.205 C  
HETATM   36  C   UNL     1      -6.560  18.858  65.842  1.00  0.00    -0.278 C  
HETATM   37  C   UNL     1      -6.811  20.439  67.777  1.00  0.00    -0.338 C  
HETATM   38  C   UNL     1      -5.541  19.766  65.170  1.00  0.00    -0.205 C  
HETATM   39  C   UNL     1      -5.715  21.217  65.607  1.00  0.00    -0.267 C  
HETATM   40  C   UNL     1      -5.756  21.346  67.130  1.00  0.00    -0.412 C  
ENDBRANCH  25  35
TORSDOF 5
ENDMDL
MODEL       85
REMARK 921   NORMALIZED FREE ENERGY PREDICTED BY IDOCK:   -3.94 KCAL/MOL
REMARK 922        TOTAL FREE ENERGY PREDICTED BY IDOCK:   -5.41 KCAL/MOL
REMARK 923 INTER-LIGAND FREE ENERGY PREDICTED BY IDOCK:   -5.01 KCAL/MOL
REMARK 924 INTRA-LIGAND FREE ENERGY PREDICTED BY IDOCK:   -0.40 KCAL/MOL
REMARK 927      BINDING AFFINITY PREDICTED BY RF-SCORE:    0.00 PKD
ROOT
HETATM    1  C   UNL     1      -8.190   9.729  67.910  1.00  0.00    -0.113 C  
HETATM    2  C   UNL     1      -7.623  10.304  66.377  1.00  0.00    -0.117 C  
HETATM    3  C   UNL     1      -8.792  11.342  65.865  1.00  0.00    -0.174 C  
HETATM    4  C   UNL     1      -9.191  12.844  65.365  1.00  0.00     0.492 C  
HETATM    5  C   UNL     1      -8.456  13.907  66.265  1.00  0.00     0.695 C  
HETATM    6  C   UNL     1      -9.078  15.256  66.503  1.00  0.00    -0.334 C  
HETATM    7  C   UNL     1     -10.602  15.167  66.722  1.00  0.00    -0.298 C  
HETATM    8  C   UNL     1     -11.236  16.165  67.363  1.00  0.00    -0.048 C  
HETATM    9  C   UNL     1     -10.989  17.340  66.463  1.00  0.00     0.213 C  
HETATM   10  C   UNL     1     -10.949  17.039  64.961  1.00  0.00     0.010 C  
HETATM   11  O   UNL     1     -10.785  18.455  66.930  1.00  0.00    -0.370 OA 
HETATM   12  C   UNL     1     -11.050  15.751  64.501  1.00  0.00    -0.293 C  
HETATM   13  C   UNL     1     -11.315  14.601  65.473  1.00  0.00    -0.341 C  
HETATM   14  C   UNL     1     -12.874  14.552  65.477  1.00  0.00    -0.134 C  
HETATM   15  C   UNL     1     -10.739  13.121  65.540  1.00  0.00    -0.297 C  
HETATM   16  C   UNL     1     -11.617  11.942  65.112  1.00  0.00    -0.215 C  
HETATM   17  O   UNL     1     -11.323  11.458  63.813  1.00  0.00    -0.497 OA 
HETATM   18  C   UNL     1     -11.403  10.907  66.230  1.00  0.00     0.240 C  
HETATM   19  C   UNL     1      -9.919  10.570  66.475  1.00  0.00    -0.266 C  
HETATM   20  H   UNL     1     -11.868  10.726  63.548  1.00  0.00     0.000 HD 
HETATM   21  C   UNL     1      -9.805   9.171  65.607  1.00  0.00    -0.164 C  
HETATM   22  C   UNL     1      -9.250  10.788  68.102  1.00  0.00    -0.151 C  
HETATM   23  O   UNL     1     -10.206  10.375  68.998  1.00  0.00    -0.193 OA 
HETATM   24  O   UNL     1      -8.975   8.538  68.242  1.00  0.00    -0.138 OA 
HETATM   25  C   UNL     1     -10.248   8.969  68.822  1.00  0.00    -0.208 C  
ENDROOT
BRANCH  22  26
HETATM   26  C   UNL     1      -8.161  11.946  68.796  1.00  0.00    -0.021 C  
HETATM   27  O   UNL     1      -6.964  11.661  69.017  1.00  0.00    -0.099 OA 
BRANCH  26  28
HETATM   28  C   UNL     1      -8.576  13.369  69.224  1.00  0.00     0.781 C  
BRANCH  28  29
HETATM   29  O   UNL     1     -10.058  13.512  69.378  1.00  0.00     0.242 OA 
BRANCH  29  30
HETATM   30  C   UNL     1     -10.560  14.594  70.042  1.00  0.00     0.068 C  
HETATM   31  C   UNL     1     -12.426  15.609  71.502  1.00  0.00    -0.499 C  
HETATM   32  C   UNL     1     -12.490  13.182  71.067  1.00  0.00    -0.406 C  
HETATM   33  O   UNL     1      -9.873  15.597  70.260  1.00  0.00    -0.130 OA 
HETATM   34  C   UNL     1     -12.054  14.517  70.469  1.00  0.00    -0.395 C  
ENDBRANCH  29  30
ENDBRANCH  28  29
ENDBRANCH  26  28
ENDBRANCH  22  26
BRANCH  25  35
HETATM   35  C   UNL     1     -10.749   8.490  70.201  1.00  0.00    -0.240 C  
HETATM   36  C   UNL     1     -11.807   9.513  70.741  1.00  0.00    -0.350 C  
HETATM   37  C   UNL     1     -11.371   7.099  70.201  1.00  0.00    -0.277 C  
HETATM   38  C   UNL     1     -12.335   9.159  72.123  1.00  0.00    -0.424 C  
HETATM   39  C   UNL     1     -12.875   7.733  72.164  1.00  0.00    -0.190 C  
HETATM   40  C   UNL     1     -11.863   6.730  71.606  1.00  0.00    -0.370 C  
ENDBRANCH  25  35
TORSDOF 5
ENDMDL
MODEL       86
REMARK 921   NORMALIZED FREE ENERGY PREDICTED BY IDOCK:   -3.93 KCAL/MOL
REMARK 922        TOTAL FREE ENERGY PREDICTED BY IDOCK:   -5.40 KCAL/MOL
REMARK 923 INTER-LIGAND FREE ENERGY PREDICTED BY IDOCK:   -5.44 KCAL/MOL
REMARK 924 INTRA-LIGAND FREE ENERGY PREDICTED BY IDOCK:    0.05 KCAL/MOL
REMARK 927      BINDING AFFINITY PREDICTED BY RF-SCORE:    0.00 PKD
ROOT
HETATM    1  C   UNL     1      -8.018   7.617  69.174  1.00  0.00    -0.120 C  
HETATM    2  C   UNL     1      -8.152   8.942  70.282  1.00  0.00    -0.125 C  
HETATM    3  C   UNL     1      -8.317  10.269  69.325  1.00  0.00    -0.167 C  
HETATM    4  C   UNL     1      -9.195  11.584  68.915  1.00  0.00     0.005 C  
HETATM    5  C   UNL     1     -10.721  11.199  68.873  1.00  0.00    -0.246 C  
HETATM    6  C   UNL     1     -11.657  11.925  67.945  1.00  0.00    -0.393 C  
HETATM    7  C   UNL     1     -11.021  12.198  66.567  1.00  0.00    -0.325 C  
HETATM    8  C   UNL     1     -11.815  12.426  65.506  1.00  0.00    -0.469 C  
HETATM    9  C   UNL     1     -12.547  13.674  65.907  1.00  0.00    -0.425 C  
HETATM   10  C   UNL     1     -11.748  14.682  66.740  1.00  0.00    -0.355 C  
HETATM   11  O   UNL     1     -13.727  13.829  65.617  1.00  0.00    -0.224 OA 
HETATM   12  C   UNL     1     -10.472  14.397  67.152  1.00  0.00    -0.263 C  
HETATM   13  C   UNL     1      -9.781  13.111  66.695  1.00  0.00    -0.261 C  
HETATM   14  C   UNL     1      -9.081  13.586  65.383  1.00  0.00     0.934 C  
HETATM   15  C   UNL     1      -8.832  12.092  67.461  1.00  0.00    -0.172 C  
HETATM   16  C   UNL     1      -7.328  12.090  67.177  1.00  0.00    -0.134 C  
HETATM   17  O   UNL     1      -6.563  12.760  68.163  1.00  0.00    -0.070 OA 
HETATM   18  C   UNL     1      -6.989  10.597  67.029  1.00  0.00    -0.095 C  
HETATM   19  C   UNL     1      -7.434   9.747  68.236  1.00  0.00    -0.080 C  
HETATM   20  H   UNL     1      -5.629  12.759  67.987  1.00  0.00     0.000 HD 
HETATM   21  C   UNL     1      -6.002   9.654  69.052  1.00  0.00    -0.038 C  
HETATM   22  C   UNL     1      -8.512   8.367  67.959  1.00  0.00    -0.132 C  
HETATM   23  O   UNL     1      -8.106   7.754  66.799  1.00  0.00    -0.111 OA 
HETATM   24  O   UNL     1      -6.830   6.982  68.598  1.00  0.00    -0.070 OA 
HETATM   25  C   UNL     1      -6.865   7.164  67.146  1.00  0.00    -0.076 C  
ENDROOT
BRANCH  22  26
HETATM   26  C   UNL     1     -10.190   8.081  68.297  1.00  0.00    -0.205 C  
HETATM   27  O   UNL     1     -11.059   8.191  67.405  1.00  0.00    -0.003 OA 
BRANCH  26  28
HETATM   28  C   UNL     1     -10.737   7.718  69.692  1.00  0.00    -0.223 C  
BRANCH  28  29
HETATM   29  O   UNL     1     -10.291   6.364  70.149  1.00  0.00    -0.184 OA 
BRANCH  29  30
HETATM   30  C   UNL     1     -10.779   5.858  71.319  1.00  0.00    -0.264 C  
HETATM   31  C   UNL     1     -10.736   3.995  73.099  1.00  0.00    -0.272 C  
HETATM   32  C   UNL     1      -9.014   3.947  71.333  1.00  0.00    -0.159 C  
HETATM   33  O   UNL     1     -11.475   6.539  72.079  1.00  0.00    -0.270 OA 
HETATM   34  C   UNL     1     -10.452   4.368  71.624  1.00  0.00    -0.036 C  
ENDBRANCH  29  30
ENDBRANCH  28  29
ENDBRANCH  26  28
ENDBRANCH  22  26
BRANCH  25  35
HETATM   35  C   UNL     1      -6.779   5.991  66.148  1.00  0.00    -0.060 C  
HETATM   36  C   UNL     1      -7.010   4.647  66.922  1.00  0.00    -0.060 C  
HETATM   37  C   UNL     1      -7.769   6.066  64.994  1.00  0.00    -0.097 C  
HETATM   38  C   UNL     1      -6.899   3.416  66.035  1.00  0.00    -0.053 C  
HETATM   39  C   UNL     1      -7.818   3.520  64.822  1.00  0.00    -0.082 C  
HETATM   40  C   UNL     1      -7.625   4.843  64.080  1.00  0.00    -0.066 C  
ENDBRANCH  25  35
TORSDOF 5
ENDMDL
MODEL       87
REMARK 921   NORMALIZED FREE ENERGY PREDICTED BY IDOCK:   -3.86 KCAL/MOL
REMARK 922        TOTAL FREE ENERGY PREDICTED BY IDOCK:   -5.31 KCAL/MOL
REMARK 923 INTER-LIGAND FREE ENERGY PREDICTED BY IDOCK:   -4.46 KCAL/MOL
REMARK 924 INTRA-LIGAND FREE ENERGY PREDICTED BY IDOCK:   -0.85 KCAL/MOL
REMARK 927      BINDING AFFINITY PREDICTED BY RF-SCORE:    0.00 PKD
ROOT
HETATM    1  C   UNL     1      -8.828   9.566  67.330  1.00  0.00    -0.128 C  
HETATM    2  C   UNL     1     -10.320  10.073  66.610  1.00  0.00    -0.281 C  
HETATM    3  C   UNL     1     -11.160  10.766  67.842  1.00  0.00    -0.369 C  
HETATM    4  C   UNL     1     -11.936  12.079  68.426  1.00  0.00    -0.256 C  
HETATM    5  C   UNL     1     -11.101  13.371  68.092  1.00  0.00    -0.284 C  
HETATM    6  C   UNL     1     -11.169  14.570  68.998  1.00  0.00    -0.289 C  
HETATM    7  C   UNL     1     -11.184  14.176  70.490  1.00  0.00     0.132 C  
HETATM    8  C   UNL     1     -10.809  15.078  71.414  1.00  0.00     0.137 C  
HETATM    9  C   UNL     1     -11.824  16.169  71.237  1.00  0.00    -0.405 C  
HETATM   10  C   UNL     1     -13.238  15.715  70.860  1.00  0.00    -0.355 C  
HETATM   11  O   UNL     1     -11.503  17.347  71.345  1.00  0.00     0.921 OA 
HETATM   12  C   UNL     1     -13.510  14.394  70.620  1.00  0.00     0.000 C  
HETATM   13  C   UNL     1     -12.431  13.331  70.833  1.00  0.00    -0.424 C  
HETATM   14  C   UNL     1     -12.668  12.944  72.326  1.00  0.00    -0.022 C  
HETATM   15  C   UNL     1     -12.053  12.029  70.003  1.00  0.00    -0.355 C  
HETATM   16  C   UNL     1     -12.433  10.647  70.538  1.00  0.00    -0.358 C  
HETATM   17  O   UNL     1     -13.582  10.094  69.920  1.00  0.00    -0.267 OA 
HETATM   18  C   UNL     1     -11.154   9.816  70.340  1.00  0.00    -0.367 C  
HETATM   19  C   UNL     1     -10.628   9.841  68.890  1.00  0.00    -0.240 C  
HETATM   20  H   UNL     1     -13.818   9.236  70.252  1.00  0.00     0.000 HD 
HETATM   21  C   UNL     1     -11.248   8.411  68.347  1.00  0.00     0.536 C  
HETATM   22  C   UNL     1      -8.967  10.382  68.593  1.00  0.00    -0.146 C  
HETATM   23  O   UNL     1      -8.182   9.876  69.600  1.00  0.00    -0.139 OA 
HETATM   24  O   UNL     1      -8.450   8.277  67.916  1.00  0.00    -0.130 OA 
HETATM   25  C   UNL     1      -8.150   8.484  69.334  1.00  0.00    -0.112 C  
ENDROOT
BRANCH  22  26
HETATM   26  C   UNL     1      -8.290  11.821  67.899  1.00  0.00    -0.149 C  
HETATM   27  O   UNL     1      -8.021  11.890  66.680  1.00  0.00    -0.132 OA 
BRANCH  26  28
HETATM   28  C   UNL     1      -7.937  13.084  68.711  1.00  0.00     0.058 C  
BRANCH  28  29
HETATM   29  O   UNL     1      -6.843  13.886  68.078  1.00  0.00    -0.109 OA 
BRANCH  29  30
HETATM   30  C   UNL     1      -6.986  15.240  67.965  1.00  0.00    -0.133 C  
HETATM   31  C   UNL     1      -6.994  17.554  69.098  1.00  0.00    -0.211 C  
HETATM   32  C   UNL     1      -6.292  15.610  70.445  1.00  0.00     0.110 C  
HETATM   33  O   UNL     1      -6.985  15.801  66.865  1.00  0.00    -0.225 OA 
HETATM   34  C   UNL     1      -7.195  16.031  69.287  1.00  0.00    -0.226 C  
ENDBRANCH  29  30
ENDBRANCH  28  29
ENDBRANCH  26  28
ENDBRANCH  22  26
BRANCH  25  35
HETATM   35  C   UNL     1      -6.813   8.066  69.980  1.00  0.00    -0.041 C  
HETATM   36  C   UNL     1      -6.803   8.534  71.476  1.00  0.00    -0.079 C  
HETATM   37  C   UNL     1      -6.526   6.571  69.935  1.00  0.00    -0.043 C  
HETATM   38  C   UNL     1      -5.503   8.213  72.198  1.00  0.00    -0.037 C  
HETATM   39  C   UNL     1      -5.154   6.733  72.081  1.00  0.00    -0.028 C  
HETATM   40  C   UNL     1      -5.195   6.257  70.628  1.00  0.00    -0.014 C  
ENDBRANCH  25  35
TORSDOF 5
ENDMDL
MODEL       88
REMARK 921   NORMALIZED FREE ENERGY PREDICTED BY IDOCK:   -3.82 KCAL/MOL
REMARK 922        TOTAL FREE ENERGY PREDICTED BY IDOCK:   -5.26 KCAL/MOL
REMARK 923 INTER-LIGAND FREE ENERGY PREDICTED BY IDOCK:   -4.88 KCAL/MOL
REMARK 924 INTRA-LIGAND FREE ENERGY PREDICTED BY IDOCK:   -0.38 KCAL/MOL
REMARK 927      BINDING AFFINITY PREDICTED BY RF-SCORE:    0.00 PKD
ROOT
HETATM    1  C   UNL     1      -7.559   9.399  67.811  1.00  0.00    -0.088 C  
HETATM    2  C   UNL     1      -6.220   8.530  68.484  1.00  0.00    -0.053 C  
HETATM    3  C   UNL     1      -6.780   7.953  69.919  1.00  0.00    -0.037 C  
HETATM    4  C   UNL     1      -7.052   6.664  70.884  1.00  0.00    -0.069 C  
HETATM    5  C   UNL     1      -7.648   5.486  70.025  1.00  0.00    -0.077 C  
HETATM    6  C   UNL     1      -8.574   4.483  70.659  1.00  0.00    -0.118 C  
HETATM    7  C   UNL     1      -9.571   5.141  71.634  1.00  0.00    -0.204 C  
HETATM    8  C   UNL     1     -10.714   4.502  71.941  1.00  0.00     0.025 C  
HETATM    9  C   UNL     1     -10.220   3.246  72.599  1.00  0.00    -0.156 C  
HETATM   10  C   UNL     1      -8.945   3.385  73.436  1.00  0.00    -0.098 C  
HETATM   11  O   UNL     1     -10.793   2.178  72.418  1.00  0.00    -0.045 OA 
HETATM   12  C   UNL     1      -8.269   4.576  73.494  1.00  0.00    -0.102 C  
HETATM   13  C   UNL     1      -8.836   5.821  72.811  1.00  0.00    -0.121 C  
HETATM   14  C   UNL     1      -9.698   6.437  73.957  1.00  0.00    -0.246 C  
HETATM   15  C   UNL     1      -8.135   6.988  71.991  1.00  0.00    -0.097 C  
HETATM   16  C   UNL     1      -7.950   8.366  72.632  1.00  0.00    -0.096 C  
HETATM   17  O   UNL     1      -6.638   8.598  73.112  1.00  0.00    -0.213 OA 
HETATM   18  C   UNL     1      -8.397   9.342  71.530  1.00  0.00     0.229 C  
HETATM   19  C   UNL     1      -7.658   9.131  70.193  1.00  0.00    -0.093 C  
HETATM   20  H   UNL     1      -6.523   9.453  73.509  1.00  0.00     0.000 HD 
HETATM   21  C   UNL     1      -6.513  10.314  70.320  1.00  0.00    -0.137 C  
HETATM   22  C   UNL     1      -8.610   8.822  68.730  1.00  0.00    -0.137 C  
HETATM   23  O   UNL     1      -9.720   9.630  68.783  1.00  0.00    -0.156 OA 
HETATM   24  O   UNL     1      -7.909  10.819  67.905  1.00  0.00    -0.105 OA 
HETATM   25  C   UNL     1      -9.197  10.933  68.591  1.00  0.00    -0.187 C  
ENDROOT
BRANCH  22  26
HETATM   26  C   UNL     1      -8.876   7.409  67.760  1.00  0.00    -0.128 C  
HETATM   27  O   UNL     1      -9.957   6.782  67.808  1.00  0.00    -0.129 OA 
BRANCH  26  28
HETATM   28  C   UNL     1      -7.819   6.801  66.816  1.00  0.00    -0.107 C  
BRANCH  28  29
HETATM   29  O   UNL     1      -8.039   7.184  65.385  1.00  0.00    -0.125 OA 
BRANCH  29  30
HETATM   30  C   UNL     1      -6.960   7.414  64.581  1.00  0.00    -0.051 C  
HETATM   31  C   UNL     1      -6.021   8.366  62.377  1.00  0.00    -0.084 C  
HETATM   32  C   UNL     1      -8.392   8.797  62.905  1.00  0.00    -0.182 C  
HETATM   33  O   UNL     1      -5.803   7.296  64.998  1.00  0.00    -0.036 OA 
HETATM   34  C   UNL     1      -7.262   7.789  63.102  1.00  0.00    -0.091 C  
ENDBRANCH  29  30
ENDBRANCH  28  29
ENDBRANCH  26  28
ENDBRANCH  22  26
BRANCH  25  35
HETATM   35  C   UNL     1     -10.408  11.677  67.989  1.00  0.00    -0.208 C  
HETATM   36  C   UNL     1     -10.059  13.201  67.867  1.00  0.00    -0.232 C  
HETATM   37  C   UNL     1     -10.851  11.167  66.624  1.00  0.00    -0.308 C  
HETATM   38  C   UNL     1     -11.208  14.038  67.326  1.00  0.00    -0.328 C  
HETATM   39  C   UNL     1     -11.726  13.483  66.003  1.00  0.00    -0.389 C  
HETATM   40  C   UNL     1     -12.035  11.989  66.101  1.00  0.00    -0.105 C  
ENDBRANCH  25  35
TORSDOF 5
ENDMDL
MODEL       89
REMARK 921   NORMALIZED FREE ENERGY PREDICTED BY IDOCK:   -3.81 KCAL/MOL
REMARK 922        TOTAL FREE ENERGY PREDICTED BY IDOCK:   -5.25 KCAL/MOL
REMARK 923 INTER-LIGAND FREE ENERGY PREDICTED BY IDOCK:   -6.07 KCAL/MOL
REMARK 924 INTRA-LIGAND FREE ENERGY PREDICTED BY IDOCK:    0.82 KCAL/MOL
REMARK 927      BINDING AFFINITY PREDICTED BY RF-SCORE:    0.00 PKD
ROOT
HETATM    1  C   UNL     1      -8.358   7.748  68.829  1.00  0.00    -0.128 C  
HETATM    2  C   UNL     1      -9.180   8.680  70.036  1.00  0.00    -0.160 C  
HETATM    3  C   UNL     1      -9.136  10.224  69.469  1.00  0.00    -0.187 C  
HETATM    4  C   UNL     1      -9.958  11.567  69.036  1.00  0.00    -0.040 C  
HETATM    5  C   UNL     1     -11.227  11.155  68.199  1.00  0.00    -0.356 C  
HETATM    6  C   UNL     1     -11.777  12.086  67.154  1.00  0.00    -0.344 C  
HETATM    7  C   UNL     1     -10.663  12.778  66.342  1.00  0.00    -0.282 C  
HETATM    8  C   UNL     1     -10.946  13.279  65.126  1.00  0.00    -0.314 C  
HETATM    9  C   UNL     1     -11.979  14.324  65.435  1.00  0.00    -0.383 C  
HETATM   10  C   UNL     1     -11.801  15.070  66.762  1.00  0.00    -0.093 C  
HETATM   11  O   UNL     1     -12.924  14.513  64.679  1.00  0.00    -0.550 OA 
HETATM   12  C   UNL     1     -10.802  14.725  67.633  1.00  0.00    -0.285 C  
HETATM   13  C   UNL     1      -9.775  13.659  67.249  1.00  0.00    -0.243 C  
HETATM   14  C   UNL     1      -8.668  14.526  66.572  1.00  0.00    -0.079 C  
HETATM   15  C   UNL     1      -9.094  12.495  68.091  1.00  0.00    -0.204 C  
HETATM   16  C   UNL     1      -7.639  12.634  68.545  1.00  0.00    -0.121 C  
HETATM   17  O   UNL     1      -7.501  13.011  69.903  1.00  0.00     0.179 OA 
HETATM   18  C   UNL     1      -7.022  11.265  68.209  1.00  0.00    -0.071 C  
HETATM   19  C   UNL     1      -7.796  10.080  68.823  1.00  0.00    -0.094 C  
HETATM   20  H   UNL     1      -6.598  13.097  70.185  1.00  0.00     0.000 HD 
HETATM   21  C   UNL     1      -6.865   9.805  70.158  1.00  0.00    -0.109 C  
HETATM   22  C   UNL     1      -8.397   8.804  67.749  1.00  0.00    -0.118 C  
HETATM   23  O   UNL     1      -7.432   8.577  66.798  1.00  0.00    -0.082 OA 
HETATM   24  O   UNL     1      -6.950   7.356  68.732  1.00  0.00    -0.073 OA 
HETATM   25  C   UNL     1      -6.383   7.958  67.524  1.00  0.00    -0.055 C  
ENDROOT
BRANCH  22  26
HETATM   26  C   UNL     1      -9.980   8.368  67.190  1.00  0.00    -0.238 C  
HETATM   27  O   UNL     1     -10.727   9.205  66.638  1.00  0.00    -0.145 OA 
BRANCH  26  28
HETATM   28  C   UNL     1     -10.596   6.964  67.359  1.00  0.00    -0.303 C  
BRANCH  28  29
HETATM   29  O   UNL     1      -9.596   5.951  67.823  1.00  0.00    -0.113 OA 
BRANCH  29  30
HETATM   30  C   UNL     1      -9.630   4.690  67.302  1.00  0.00    -0.175 C  
HETATM   31  C   UNL     1      -9.222   2.165  67.620  1.00  0.00    -0.197 C  
HETATM   32  C   UNL     1      -9.003   3.630  69.593  1.00  0.00    -0.175 C  
HETATM   33  O   UNL     1     -10.228   4.440  66.250  1.00  0.00    -0.242 OA 
HETATM   34  C   UNL     1      -8.841   3.595  68.075  1.00  0.00    -0.146 C  
ENDBRANCH  29  30
ENDBRANCH  28  29
ENDBRANCH  26  28
ENDBRANCH  22  26
BRANCH  25  35
HETATM   35  C   UNL     1      -5.677   7.136  66.426  1.00  0.00    -0.030 C  
HETATM   36  C   UNL     1      -6.020   5.620  66.627  1.00  0.00    -0.018 C  
HETATM   37  C   UNL     1      -6.042   7.534  65.002  1.00  0.00    -0.038 C  
HETATM   38  C   UNL     1      -5.333   4.710  65.620  1.00  0.00    -0.013 C  
HETATM   39  C   UNL     1      -5.612   5.154  64.188  1.00  0.00    -0.017 C  
HETATM   40  C   UNL     1      -5.314   6.641  63.990  1.00  0.00    -0.027 C  
ENDBRANCH  25  35
TORSDOF 5
ENDMDL
MODEL       90
REMARK 921   NORMALIZED FREE ENERGY PREDICTED BY IDOCK:   -3.81 KCAL/MOL
REMARK 922        TOTAL FREE ENERGY PREDICTED BY IDOCK:   -5.25 KCAL/MOL
REMARK 923 INTER-LIGAND FREE ENERGY PREDICTED BY IDOCK:   -4.74 KCAL/MOL
REMARK 924 INTRA-LIGAND FREE ENERGY PREDICTED BY IDOCK:   -0.50 KCAL/MOL
REMARK 927      BINDING AFFINITY PREDICTED BY RF-SCORE:    0.00 PKD
ROOT
HETATM    1  C   UNL     1      -9.127   5.038  65.368  1.00  0.00    -0.154 C  
HETATM    2  C   UNL     1      -9.833   3.647  66.121  1.00  0.00    -0.017 C  
HETATM    3  C   UNL     1      -8.967   3.439  67.504  1.00  0.00    -0.173 C  
HETATM    4  C   UNL     1      -8.962   3.309  69.131  1.00  0.00    -0.180 C  
HETATM    5  C   UNL     1      -9.934   4.386  69.744  1.00  0.00    -0.224 C  
HETATM    6  C   UNL     1      -9.669   4.951  71.113  1.00  0.00    -0.245 C  
HETATM    7  C   UNL     1      -8.169   5.220  71.355  1.00  0.00    -0.116 C  
HETATM    8  C   UNL     1      -7.801   6.099  72.304  1.00  0.00    -0.101 C  
HETATM    9  C   UNL     1      -8.343   5.474  73.556  1.00  0.00    -0.113 C  
HETATM   10  C   UNL     1      -8.319   3.943  73.607  1.00  0.00    -0.088 C  
HETATM   11  O   UNL     1      -8.817   6.168  74.448  1.00  0.00    -0.126 OA 
HETATM   12  C   UNL     1      -7.902   3.211  72.525  1.00  0.00    -0.059 C  
HETATM   13  C   UNL     1      -7.348   3.913  71.285  1.00  0.00    -0.040 C  
HETATM   14  C   UNL     1      -5.826   3.984  71.622  1.00  0.00    -0.013 C  
HETATM   15  C   UNL     1      -7.532   3.618  69.733  1.00  0.00    -0.045 C  
HETATM   16  C   UNL     1      -6.390   2.981  68.938  1.00  0.00    -0.029 C  
HETATM   17  O   UNL     1      -6.563   1.594  68.707  1.00  0.00    -0.028 OA 
HETATM   18  C   UNL     1      -6.327   3.826  67.654  1.00  0.00    -0.037 C  
HETATM   19  C   UNL     1      -7.678   3.916  66.915  1.00  0.00    -0.085 C  
HETATM   20  H   UNL     1      -5.855   1.198  68.214  1.00  0.00     0.000 HD 
HETATM   21  C   UNL     1      -7.443   2.751  65.768  1.00  0.00    -0.072 C  
HETATM   22  C   UNL     1      -8.366   5.515  66.582  1.00  0.00    -0.109 C  
HETATM   23  O   UNL     1      -7.329   6.342  66.223  1.00  0.00    -0.077 OA 
HETATM   24  O   UNL     1      -8.065   5.133  64.363  1.00  0.00    -0.107 OA 
HETATM   25  C   UNL     1      -6.937   5.858  64.950  1.00  0.00    -0.055 C  
ENDROOT
BRANCH  22  26
HETATM   26  C   UNL     1      -9.705   6.396  67.245  1.00  0.00    -0.130 C  
HETATM   27  O   UNL     1     -10.848   6.310  66.747  1.00  0.00    -0.326 OA 
BRANCH  26  28
HETATM   28  C   UNL     1      -9.592   7.360  68.443  1.00  0.00    -0.148 C  
BRANCH  28  29
HETATM   29  O   UNL     1     -10.906   7.974  68.813  1.00  0.00    -0.097 OA 
BRANCH  29  30
HETATM   30  C   UNL     1     -11.041   8.586  70.025  1.00  0.00    -0.151 C  
HETATM   31  C   UNL     1     -11.984   8.536  72.424  1.00  0.00    -0.434 C  
HETATM   32  C   UNL     1     -12.212   6.500  71.048  1.00  0.00    -0.239 C  
HETATM   33  O   UNL     1     -10.349   9.560  70.340  1.00  0.00    -0.237 OA 
HETATM   34  C   UNL     1     -12.140   8.024  70.971  1.00  0.00    -0.232 C  
ENDBRANCH  29  30
ENDBRANCH  28  29
ENDBRANCH  26  28
ENDBRANCH  22  26
BRANCH  25  35
HETATM   35  C   UNL     1      -6.319   7.117  64.306  1.00  0.00    -0.040 C  
HETATM   36  C   UNL     1      -7.204   7.551  63.087  1.00  0.00    -0.083 C  
HETATM   37  C   UNL     1      -6.172   8.304  65.249  1.00  0.00    -0.045 C  
HETATM   38  C   UNL     1      -6.655   8.762  62.347  1.00  0.00    -0.095 C  
HETATM   39  C   UNL     1      -6.413   9.931  63.297  1.00  0.00    -0.125 C  
HETATM   40  C   UNL     1      -5.580   9.509  64.509  1.00  0.00    -0.070 C  
ENDBRANCH  25  35
TORSDOF 5
ENDMDL
MODEL       91
REMARK 921   NORMALIZED FREE ENERGY PREDICTED BY IDOCK:   -3.56 KCAL/MOL
REMARK 922        TOTAL FREE ENERGY PREDICTED BY IDOCK:   -4.93 KCAL/MOL
REMARK 923 INTER-LIGAND FREE ENERGY PREDICTED BY IDOCK:   -4.36 KCAL/MOL
REMARK 924 INTRA-LIGAND FREE ENERGY PREDICTED BY IDOCK:   -0.56 KCAL/MOL
REMARK 927      BINDING AFFINITY PREDICTED BY RF-SCORE:    0.00 PKD
ROOT
HETATM    1  C   UNL     1      -8.607  11.668  67.285  1.00  0.00    -0.154 C  
HETATM    2  C   UNL     1      -7.589  11.199  68.607  1.00  0.00    -0.127 C  
HETATM    3  C   UNL     1      -8.396   9.963  69.333  1.00  0.00    -0.158 C  
HETATM    4  C   UNL     1      -8.390   8.411  69.841  1.00  0.00    -0.124 C  
HETATM    5  C   UNL     1      -7.723   7.505  68.739  1.00  0.00    -0.119 C  
HETATM    6  C   UNL     1      -8.138   6.066  68.592  1.00  0.00    -0.107 C  
HETATM    7  C   UNL     1      -9.660   5.877  68.751  1.00  0.00    -0.152 C  
HETATM    8  C   UNL     1     -10.247   4.783  68.234  1.00  0.00    -0.054 C  
HETATM    9  C   UNL     1      -9.585   3.668  68.989  1.00  0.00    -0.095 C  
HETATM   10  C   UNL     1      -9.231   3.965  70.450  1.00  0.00    -0.209 C  
HETATM   11  O   UNL     1      -9.309   2.612  68.433  1.00  0.00    -0.182 OA 
HETATM   12  C   UNL     1      -9.439   5.210  70.983  1.00  0.00    -0.214 C  
HETATM   13  C   UNL     1     -10.132   6.297  70.161  1.00  0.00    -0.222 C  
HETATM   14  C   UNL     1     -11.629   6.062  70.535  1.00  0.00    -0.129 C  
HETATM   15  C   UNL     1      -9.860   7.858  70.030  1.00  0.00    -0.181 C  
HETATM   16  C   UNL     1     -10.798   8.856  70.714  1.00  0.00    -0.241 C  
HETATM   17  O   UNL     1     -10.285   9.379  71.926  1.00  0.00    -0.155 OA 
HETATM   18  C   UNL     1     -11.051   9.918  69.630  1.00  0.00    -0.279 C  
HETATM   19  C   UNL     1      -9.755  10.520  69.051  1.00  0.00    -0.221 C  
HETATM   20  H   UNL     1     -10.867   9.999  72.350  1.00  0.00     0.000 HD 
HETATM   21  C   UNL     1      -9.679  11.913  69.934  1.00  0.00     1.973 C  
HETATM   22  C   UNL     1      -9.479  10.435  67.302  1.00  0.00    -0.154 C  
HETATM   23  O   UNL     1     -10.683  10.671  66.684  1.00  0.00    -0.239 OA 
HETATM   24  O   UNL     1      -9.646  12.698  67.211  1.00  0.00    -0.195 OA 
HETATM   25  C   UNL     1     -10.926  12.045  66.934  1.00  0.00    -0.281 C  
ENDROOT
BRANCH  22  26
HETATM   26  C   UNL     1      -8.408   9.497  66.311  1.00  0.00    -0.115 C  
HETATM   27  O   UNL     1      -7.233   9.866  66.095  1.00  0.00    -0.096 OA 
BRANCH  26  28
HETATM   28  C   UNL     1      -8.816   8.190  65.601  1.00  0.00    -0.120 C  
BRANCH  28  29
HETATM   29  O   UNL     1      -7.640   7.444  65.053  1.00  0.00    -0.088 OA 
BRANCH  29  30
HETATM   30  C   UNL     1      -7.443   6.143  65.420  1.00  0.00    -0.083 C  
HETATM   31  C   UNL     1      -5.961   4.387  66.588  1.00  0.00    -0.027 C  
HETATM   32  C   UNL     1      -5.322   6.762  66.795  1.00  0.00    -0.017 C  
HETATM   33  O   UNL     1      -8.352   5.309  65.365  1.00  0.00    -0.123 OA 
HETATM   34  C   UNL     1      -6.004   5.758  65.868  1.00  0.00    -0.025 C  
ENDBRANCH  29  30
ENDBRANCH  28  29
ENDBRANCH  26  28
ENDBRANCH  22  26
BRANCH  25  35
HETATM   35  C   UNL     1     -11.827  12.431  65.742  1.00  0.00    -0.467 C  
HETATM   36  C   UNL     1     -11.504  13.904  65.317  1.00  0.00    -0.319 C  
HETATM   37  C   UNL     1     -11.686  11.529  64.522  1.00  0.00    -0.089 C  
HETATM   38  C   UNL     1     -12.374  14.405  64.174  1.00  0.00    -0.340 C  
HETATM   39  C   UNL     1     -12.318  13.460  62.977  1.00  0.00     0.156 C  
HETATM   40  C   UNL     1     -12.597  12.013  63.387  1.00  0.00    -0.592 C  
ENDBRANCH  25  35
TORSDOF 5
ENDMDL
MODEL       92
REMARK 921   NORMALIZED FREE ENERGY PREDICTED BY IDOCK:   -3.49 KCAL/MOL
REMARK 922        TOTAL FREE ENERGY PREDICTED BY IDOCK:   -4.84 KCAL/MOL
REMARK 923 INTER-LIGAND FREE ENERGY PREDICTED BY IDOCK:   -5.20 KCAL/MOL
REMARK 924 INTRA-LIGAND FREE ENERGY PREDICTED BY IDOCK:    0.36 KCAL/MOL
REMARK 927      BINDING AFFINITY PREDICTED BY RF-SCORE:    0.00 PKD
ROOT
HETATM    1  C   UNL     1      -7.988  10.103  67.971  1.00  0.00    -0.101 C  
HETATM    2  C   UNL     1      -8.057  10.938  69.487  1.00  0.00     0.086 C  
HETATM    3  C   UNL     1      -7.662  12.492  69.123  1.00  0.00     0.302 C  
HETATM    4  C   UNL     1      -8.072  14.073  69.161  1.00  0.00     0.186 C  
HETATM    5  C   UNL     1      -9.591  14.227  68.776  1.00  0.00    -0.153 C  
HETATM    6  C   UNL     1     -10.076  15.482  68.102  1.00  0.00    -0.218 C  
HETATM    7  C   UNL     1      -9.084  15.996  67.039  1.00  0.00    -0.234 C  
HETATM    8  C   UNL     1      -9.524  16.811  66.064  1.00  0.00    -0.257 C  
HETATM    9  C   UNL     1     -10.005  18.008  66.831  1.00  0.00    -0.340 C  
HETATM   10  C   UNL     1      -9.207  18.363  68.090  1.00  0.00    -0.327 C  
HETATM   11  O   UNL     1     -11.009  18.616  66.478  1.00  0.00    -0.160 OA 
HETATM   12  C   UNL     1      -8.174  17.569  68.513  1.00  0.00    -0.278 C  
HETATM   13  C   UNL     1      -7.726  16.370  67.675  1.00  0.00    -0.162 C  
HETATM   14  C   UNL     1      -6.641  17.020  66.761  1.00  0.00    -0.262 C  
HETATM   15  C   UNL     1      -7.263  14.907  68.088  1.00  0.00    -0.124 C  
HETATM   16  C   UNL     1      -5.781  14.529  68.020  1.00  0.00    -0.134 C  
HETATM   17  O   UNL     1      -5.133  14.544  69.280  1.00  0.00    -0.084 OA 
HETATM   18  C   UNL     1      -5.789  13.151  67.335  1.00  0.00     0.013 C  
HETATM   19  C   UNL     1      -6.701  12.126  68.039  1.00  0.00    -0.073 C  
HETATM   20  H   UNL     1      -4.213  14.309  69.238  1.00  0.00     0.000 HD 
HETATM   21  C   UNL     1      -5.570  11.313  68.926  1.00  0.00    -0.039 C  
HETATM   22  C   UNL     1      -7.983  11.338  67.102  1.00  0.00    -0.151 C  
HETATM   23  O   UNL     1      -7.474  11.066  65.855  1.00  0.00    -0.095 OA 
HETATM   24  O   UNL     1      -6.889   9.364  67.346  1.00  0.00    -0.077 OA 
HETATM   25  C   UNL     1      -6.532  10.034  66.095  1.00  0.00    -0.086 C  
ENDROOT
BRANCH  22  26
HETATM   26  C   UNL     1      -9.711  11.497  67.082  1.00  0.00    -0.183 C  
HETATM   27  O   UNL     1     -10.276  12.342  66.355  1.00  0.00    -0.219 OA 
BRANCH  26  28
HETATM   28  C   UNL     1     -10.662  10.662  67.963  1.00  0.00    -0.233 C  
BRANCH  28  29
HETATM   29  O   UNL     1     -10.393   9.193  67.865  1.00  0.00    -0.207 OA 
BRANCH  29  30
HETATM   30  C   UNL     1     -10.528   8.412  68.978  1.00  0.00    -0.201 C  
HETATM   31  C   UNL     1     -10.357   6.082  70.065  1.00  0.00    -0.290 C  
HETATM   32  C   UNL     1      -9.520   6.346  67.760  1.00  0.00    -0.115 C  
HETATM   33  O   UNL     1     -10.658   8.905  70.103  1.00  0.00    -0.210 OA 
HETATM   34  C   UNL     1     -10.556   6.874  68.750  1.00  0.00    -0.247 C  
ENDBRANCH  29  30
ENDBRANCH  28  29
ENDBRANCH  26  28
ENDBRANCH  22  26
BRANCH  25  35
HETATM   35  C   UNL     1      -6.499   9.310  64.733  1.00  0.00    -0.076 C  
HETATM   36  C   UNL     1      -6.878   7.804  64.948  1.00  0.00    -0.051 C  
HETATM   37  C   UNL     1      -7.424   9.901  63.677  1.00  0.00    -0.135 C  
HETATM   38  C   UNL     1      -6.830   6.984  63.667  1.00  0.00    -0.048 C  
HETATM   39  C   UNL     1      -7.679   7.616  62.569  1.00  0.00    -0.117 C  
HETATM   40  C   UNL     1      -7.341   9.095  62.375  1.00  0.00    -0.099 C  
ENDBRANCH  25  35
TORSDOF 5
ENDMDL
MODEL       93
REMARK 921   NORMALIZED FREE ENERGY PREDICTED BY IDOCK:   -3.45 KCAL/MOL
REMARK 922        TOTAL FREE ENERGY PREDICTED BY IDOCK:   -4.79 KCAL/MOL
REMARK 923 INTER-LIGAND FREE ENERGY PREDICTED BY IDOCK:   -3.43 KCAL/MOL
REMARK 924 INTRA-LIGAND FREE ENERGY PREDICTED BY IDOCK:   -1.35 KCAL/MOL
REMARK 927      BINDING AFFINITY PREDICTED BY RF-SCORE:    0.00 PKD
ROOT
HETATM    1  C   UNL     1      -7.856   2.828  68.020  1.00  0.00    -0.059 C  
HETATM    2  C   UNL     1      -8.544   2.404  69.553  1.00  0.00    -0.111 C  
HETATM    3  C   UNL     1      -8.446   3.780  70.447  1.00  0.00    -0.093 C  
HETATM    4  C   UNL     1      -9.214   4.916  71.333  1.00  0.00    -0.188 C  
HETATM    5  C   UNL     1     -10.555   5.321  70.614  1.00  0.00    -0.263 C  
HETATM    6  C   UNL     1     -11.115   6.707  70.784  1.00  0.00    -0.336 C  
HETATM    7  C   UNL     1     -10.017   7.790  70.761  1.00  0.00    -0.184 C  
HETATM    8  C   UNL     1     -10.346   9.059  70.463  1.00  0.00    -0.266 C  
HETATM    9  C   UNL     1     -11.294   9.419  71.570  1.00  0.00    -0.394 C  
HETATM   10  C   UNL     1     -10.990   8.804  72.940  1.00  0.00     0.602 C  
HETATM   11  O   UNL     1     -12.273  10.123  71.352  1.00  0.00    -0.357 OA 
HETATM   12  C   UNL     1      -9.959   7.914  73.097  1.00  0.00    -0.358 C  
HETATM   13  C   UNL     1      -9.023   7.603  71.929  1.00  0.00    -0.149 C  
HETATM   14  C   UNL     1      -7.912   8.681  72.127  1.00  0.00    -0.098 C  
HETATM   15  C   UNL     1      -8.359   6.243  71.441  1.00  0.00    -0.123 C  
HETATM   16  C   UNL     1      -6.872   5.985  71.699  1.00  0.00    -0.068 C  
HETATM   17  O   UNL     1      -6.627   5.124  72.796  1.00  0.00    -0.056 OA 
HETATM   18  C   UNL     1      -6.359   5.447  70.352  1.00  0.00    -0.030 C  
HETATM   19  C   UNL     1      -7.160   4.235  69.835  1.00  0.00    -0.042 C  
HETATM   20  H   UNL     1      -5.704   4.963  72.956  1.00  0.00     0.000 HD 
HETATM   21  C   UNL     1      -6.164   3.014  70.329  1.00  0.00    -0.024 C  
HETATM   22  C   UNL     1      -7.902   4.323  68.227  1.00  0.00    -0.075 C  
HETATM   23  O   UNL     1      -7.013   4.966  67.399  1.00  0.00    -0.059 OA 
HETATM   24  O   UNL     1      -6.482   2.694  67.531  1.00  0.00    -0.034 OA 
HETATM   25  C   UNL     1      -5.959   4.031  67.247  1.00  0.00    -0.024 C  
ENDROOT
BRANCH  22  26
HETATM   26  C   UNL     1      -9.540   4.486  67.680  1.00  0.00    -0.165 C  
HETATM   27  O   UNL     1     -10.225   3.486  67.375  1.00  0.00     0.427 OA 
BRANCH  26  28
HETATM   28  C   UNL     1     -10.253   5.841  67.491  1.00  0.00    -0.196 C  
BRANCH  28  29
HETATM   29  O   UNL     1      -9.446   6.991  68.006  1.00  0.00    -0.127 OA 
BRANCH  29  30
HETATM   30  C   UNL     1      -8.926   7.893  67.122  1.00  0.00    -0.129 C  
HETATM   31  C   UNL     1      -7.090   9.611  66.555  1.00  0.00    -0.089 C  
HETATM   32  C   UNL     1      -6.815   8.258  68.599  1.00  0.00    -0.063 C  
HETATM   33  O   UNL     1      -9.307   7.943  65.948  1.00  0.00    -0.115 OA 
HETATM   34  C   UNL     1      -7.864   8.882  67.681  1.00  0.00    -0.101 C  
ENDBRANCH  29  30
ENDBRANCH  28  29
ENDBRANCH  26  28
ENDBRANCH  22  26
BRANCH  25  35
HETATM   35  C   UNL     1      -5.373   4.431  65.877  1.00  0.00    -0.009 C  
HETATM   36  C   UNL     1      -5.846   3.396  64.799  1.00  0.00    -0.021 C  
HETATM   37  C   UNL     1      -5.751   5.830  65.409  1.00  0.00    -0.017 C  
HETATM   38  C   UNL     1      -5.283   3.672  63.412  1.00  0.00    -0.008 C  
HETATM   39  C   UNL     1      -5.574   5.103  62.969  1.00  0.00    -0.014 C  
HETATM   40  C   UNL     1      -5.147   6.119  64.030  1.00  0.00    -0.017 C  
ENDBRANCH  25  35
TORSDOF 5
ENDMDL
MODEL       94
REMARK 921   NORMALIZED FREE ENERGY PREDICTED BY IDOCK:   -3.41 KCAL/MOL
REMARK 922        TOTAL FREE ENERGY PREDICTED BY IDOCK:   -4.73 KCAL/MOL
REMARK 923 INTER-LIGAND FREE ENERGY PREDICTED BY IDOCK:   -4.40 KCAL/MOL
REMARK 924 INTRA-LIGAND FREE ENERGY PREDICTED BY IDOCK:   -0.33 KCAL/MOL
REMARK 927      BINDING AFFINITY PREDICTED BY RF-SCORE:    0.00 PKD
ROOT
HETATM    1  C   UNL     1      -9.448  15.632  69.207  1.00  0.00    -0.264 C  
HETATM    2  C   UNL     1     -10.431  14.310  69.742  1.00  0.00     0.205 C  
HETATM    3  C   UNL     1     -10.414  13.246  68.487  1.00  0.00    -0.259 C  
HETATM    4  C   UNL     1     -10.101  11.735  67.955  1.00  0.00    -0.195 C  
HETATM    5  C   UNL     1      -8.740  11.237  68.570  1.00  0.00    -0.156 C  
HETATM    6  C   UNL     1      -7.886  10.253  67.817  1.00  0.00    -0.101 C  
HETATM    7  C   UNL     1      -7.841  10.553  66.305  1.00  0.00    -0.141 C  
HETATM    8  C   UNL     1      -6.822  10.077  65.567  1.00  0.00    -0.120 C  
HETATM    9  C   UNL     1      -6.977   8.592  65.716  1.00  0.00    -0.071 C  
HETATM   10  C   UNL     1      -8.416   8.074  65.810  1.00  0.00    -0.159 C  
HETATM   11  O   UNL     1      -5.994   7.865  65.804  1.00  0.00    -0.037 OA 
HETATM   12  C   UNL     1      -9.475   8.943  65.841  1.00  0.00    -0.303 C  
HETATM   13  C   UNL     1      -9.246  10.446  65.671  1.00  0.00    -0.220 C  
HETATM   14  C   UNL     1      -9.367  10.604  64.124  1.00  0.00    -0.297 C  
HETATM   15  C   UNL     1      -9.908  11.703  66.385  1.00  0.00    -0.233 C  
HETATM   16  C   UNL     1     -10.934  12.554  65.632  1.00  0.00    -0.288 C  
HETATM   17  O   UNL     1     -12.276  12.277  65.992  1.00  0.00    -0.646 OA 
HETATM   18  C   UNL     1     -10.491  13.998  65.924  1.00  0.00    -0.314 C  
HETATM   19  C   UNL     1     -10.358  14.302  67.430  1.00  0.00    -0.259 C  
HETATM   20  H   UNL     1     -12.912  12.805  65.525  1.00  0.00     0.000 HD 
HETATM   21  C   UNL     1     -11.811  15.042  67.692  1.00  0.00    -0.205 C  
HETATM   22  C   UNL     1      -8.810  14.905  68.047  1.00  0.00    -0.167 C  
HETATM   23  O   UNL     1      -8.313  15.789  67.120  1.00  0.00    -0.169 OA 
HETATM   24  O   UNL     1      -9.822  16.878  68.534  1.00  0.00    -0.244 OA 
HETATM   25  C   UNL     1      -9.185  16.902  67.216  1.00  0.00    -0.226 C  
ENDROOT
BRANCH  22  26
HETATM   26  C   UNL     1      -7.553  14.193  69.008  1.00  0.00    -0.058 C  
HETATM   27  O   UNL     1      -6.850  13.258  68.568  1.00  0.00    -0.084 OA 
BRANCH  26  28
HETATM   28  C   UNL     1      -7.235  14.614  70.457  1.00  0.00     0.598 C  
BRANCH  28  29
HETATM   29  O   UNL     1      -5.843  14.249  70.869  1.00  0.00    -0.181 OA 
BRANCH  29  30
HETATM   30  C   UNL     1      -5.644  13.143  71.646  1.00  0.00     0.060 C  
HETATM   31  C   UNL     1      -5.288  12.137  73.992  1.00  0.00     0.673 C  
HETATM   32  C   UNL     1      -5.844  14.536  73.834  1.00  0.00     0.185 C  
HETATM   33  O   UNL     1      -5.814  12.003  71.204  1.00  0.00    -0.374 OA 
HETATM   34  C   UNL     1      -5.147  13.394  73.098  1.00  0.00    -0.048 C  
ENDBRANCH  29  30
ENDBRANCH  28  29
ENDBRANCH  26  28
ENDBRANCH  22  26
BRANCH  25  35
HETATM   35  C   UNL     1      -8.281  18.058  66.739  1.00  0.00    -0.272 C  
HETATM   36  C   UNL     1      -7.052  17.459  65.973  1.00  0.00    -0.259 C  
HETATM   37  C   UNL     1      -8.971  19.073  65.837  1.00  0.00     0.128 C  
HETATM   38  C   UNL     1      -6.066  18.516  65.498  1.00  0.00    -0.287 C  
HETATM   39  C   UNL     1      -6.761  19.593  64.671  1.00  0.00     0.116 C  
HETATM   40  C   UNL     1      -7.983  20.160  65.395  1.00  0.00     0.272 C  
ENDBRANCH  25  35
TORSDOF 5
ENDMDL
MODEL       95
REMARK 921   NORMALIZED FREE ENERGY PREDICTED BY IDOCK:   -3.31 KCAL/MOL
REMARK 922        TOTAL FREE ENERGY PREDICTED BY IDOCK:   -4.60 KCAL/MOL
REMARK 923 INTER-LIGAND FREE ENERGY PREDICTED BY IDOCK:   -5.48 KCAL/MOL
REMARK 924 INTRA-LIGAND FREE ENERGY PREDICTED BY IDOCK:    0.87 KCAL/MOL
REMARK 927      BINDING AFFINITY PREDICTED BY RF-SCORE:    0.00 PKD
ROOT
HETATM    1  C   UNL     1      -8.334  10.124  67.922  1.00  0.00    -0.117 C  
HETATM    2  C   UNL     1      -8.294  10.949  69.445  1.00  0.00     0.051 C  
HETATM    3  C   UNL     1      -7.817  12.480  69.075  1.00  0.00     0.237 C  
HETATM    4  C   UNL     1      -8.126  14.082  69.137  1.00  0.00     0.186 C  
HETATM    5  C   UNL     1      -9.646  14.334  68.811  1.00  0.00    -0.153 C  
HETATM    6  C   UNL     1     -10.076  15.621  68.163  1.00  0.00    -0.222 C  
HETATM    7  C   UNL     1      -9.094  16.081  67.066  1.00  0.00    -0.234 C  
HETATM    8  C   UNL     1      -9.519  16.930  66.114  1.00  0.00    -0.274 C  
HETATM    9  C   UNL     1      -9.896  18.149  66.905  1.00  0.00    -0.330 C  
HETATM   10  C   UNL     1      -9.031  18.443  68.135  1.00  0.00    -0.325 C  
HETATM   11  O   UNL     1     -10.872  18.821  66.594  1.00  0.00    -0.325 OA 
HETATM   12  C   UNL     1      -8.034  17.583  68.514  1.00  0.00    -0.271 C  
HETATM   13  C   UNL     1      -7.694  16.366  67.653  1.00  0.00    -0.162 C  
HETATM   14  C   UNL     1      -6.605  16.954  66.702  1.00  0.00    -0.252 C  
HETATM   15  C   UNL     1      -7.307  14.873  68.039  1.00  0.00    -0.138 C  
HETATM   16  C   UNL     1      -5.855  14.404  67.913  1.00  0.00    -0.122 C  
HETATM   17  O   UNL     1      -5.161  14.369  69.147  1.00  0.00    -0.079 OA 
HETATM   18  C   UNL     1      -5.975  13.036  67.221  1.00  0.00     0.083 C  
HETATM   19  C   UNL     1      -6.922  12.063  67.952  1.00  0.00    -0.095 C  
HETATM   20  H   UNL     1      -4.260  14.078  69.069  1.00  0.00     0.000 HD 
HETATM   21  C   UNL     1      -5.811  11.175  68.792  1.00  0.00    -0.043 C  
HETATM   22  C   UNL     1      -8.285  11.364  67.061  1.00  0.00    -0.160 C  
HETATM   23  O   UNL     1      -7.841  11.071  65.794  1.00  0.00    -0.106 OA 
HETATM   24  O   UNL     1      -7.307   9.324  67.252  1.00  0.00    -0.089 OA 
HETATM   25  C   UNL     1      -6.957   9.980  65.992  1.00  0.00    -0.110 C  
ENDROOT
BRANCH  22  26
HETATM   26  C   UNL     1      -9.999  11.630  67.107  1.00  0.00    -0.199 C  
HETATM   27  O   UNL     1     -10.560  12.071  68.133  1.00  0.00    -0.196 OA 
BRANCH  26  28
HETATM   28  C   UNL     1     -10.950  11.316  65.934  1.00  0.00    -0.157 C  
BRANCH  28  29
HETATM   29  O   UNL     1     -12.222  12.102  66.000  1.00  0.00    -0.609 OA 
BRANCH  29  30
HETATM   30  C   UNL     1     -12.696  12.704  64.870  1.00  0.00    -0.370 C  
HETATM   31  C   UNL     1     -12.469  14.579  63.115  1.00  0.00     1.360 C  
HETATM   32  C   UNL     1     -10.656  14.316  64.768  1.00  0.00    -0.434 C  
HETATM   33  O   UNL     1     -13.535  12.157  64.147  1.00  0.00    -0.671 OA 
HETATM   34  C   UNL     1     -12.158  14.132  64.565  1.00  0.00    -0.489 C  
ENDBRANCH  29  30
ENDBRANCH  28  29
ENDBRANCH  26  28
ENDBRANCH  22  26
BRANCH  25  35
HETATM   35  C   UNL     1      -7.019   9.267  64.625  1.00  0.00    -0.092 C  
HETATM   36  C   UNL     1      -6.772   7.734  64.840  1.00  0.00    -0.051 C  
HETATM   37  C   UNL     1      -8.332   9.449  63.874  1.00  0.00    -0.175 C  
HETATM   38  C   UNL     1      -6.765   6.939  63.543  1.00  0.00    -0.043 C  
HETATM   39  C   UNL     1      -8.035   7.185  62.734  1.00  0.00    -0.107 C  
HETATM   40  C   UNL     1      -8.305   8.679  62.548  1.00  0.00    -0.195 C  
ENDBRANCH  25  35
TORSDOF 5
ENDMDL
MODEL       96
REMARK 921   NORMALIZED FREE ENERGY PREDICTED BY IDOCK:   -3.31 KCAL/MOL
REMARK 922        TOTAL FREE ENERGY PREDICTED BY IDOCK:   -4.60 KCAL/MOL
REMARK 923 INTER-LIGAND FREE ENERGY PREDICTED BY IDOCK:   -3.89 KCAL/MOL
REMARK 924 INTRA-LIGAND FREE ENERGY PREDICTED BY IDOCK:   -0.70 KCAL/MOL
REMARK 927      BINDING AFFINITY PREDICTED BY RF-SCORE:    0.00 PKD
ROOT
HETATM    1  C   UNL     1     -10.729   6.078  68.201  1.00  0.00    -0.278 C  
HETATM    2  C   UNL     1     -11.354   6.068  69.816  1.00  0.00    -0.344 C  
HETATM    3  C   UNL     1     -10.020   6.077  70.778  1.00  0.00    -0.237 C  
HETATM    4  C   UNL     1      -9.179   6.799  71.977  1.00  0.00    -0.143 C  
HETATM    5  C   UNL     1      -9.198   8.359  71.762  1.00  0.00    -0.287 C  
HETATM    6  C   UNL     1      -8.050   9.202  72.247  1.00  0.00     0.613 C  
HETATM    7  C   UNL     1      -6.684   8.531  71.997  1.00  0.00    -0.087 C  
HETATM    8  C   UNL     1      -5.574   9.289  71.956  1.00  0.00    -0.068 C  
HETATM    9  C   UNL     1      -5.529   9.878  73.336  1.00  0.00     0.248 C  
HETATM   10  C   UNL     1      -6.031   8.975  74.467  1.00  0.00    -0.122 C  
HETATM   11  O   UNL     1      -5.155  11.032  73.513  1.00  0.00    -0.328 OA 
HETATM   12  C   UNL     1      -6.564   7.742  74.197  1.00  0.00    -0.111 C  
HETATM   13  C   UNL     1      -6.567   7.197  72.768  1.00  0.00    -0.063 C  
HETATM   14  C   UNL     1      -5.203   6.441  72.722  1.00  0.00    -0.032 C  
HETATM   15  C   UNL     1      -7.655   6.373  71.953  1.00  0.00    -0.095 C  
HETATM   16  C   UNL     1      -7.449   4.877  71.702  1.00  0.00    -0.079 C  
HETATM   17  O   UNL     1      -8.202   4.047  72.568  1.00  0.00    -0.094 OA 
HETATM   18  C   UNL     1      -7.795   4.708  70.213  1.00  0.00    -0.057 C  
HETATM   19  C   UNL     1      -9.190   5.253  69.845  1.00  0.00    -0.178 C  
HETATM   20  H   UNL     1      -8.074   3.119  72.413  1.00  0.00     0.000 HD 
HETATM   21  C   UNL     1     -10.052   3.845  69.869  1.00  0.00     0.246 C  
HETATM   22  C   UNL     1      -9.321   6.478  68.571  1.00  0.00    -0.123 C  
HETATM   23  O   UNL     1      -8.432   6.137  67.580  1.00  0.00    -0.109 OA 
HETATM   24  O   UNL     1     -10.434   4.966  67.293  1.00  0.00    -0.148 OA 
HETATM   25  C   UNL     1      -8.999   4.972  67.005  1.00  0.00    -0.112 C  
ENDROOT
BRANCH  22  26
HETATM   26  C   UNL     1      -9.662   8.179  68.585  1.00  0.00    -0.153 C  
HETATM   27  O   UNL     1     -10.830   8.606  68.708  1.00  0.00    -0.116 OA 
BRANCH  26  28
HETATM   28  C   UNL     1      -8.588   9.273  68.412  1.00  0.00    -0.124 C  
BRANCH  28  29
HETATM   29  O   UNL     1      -8.582   9.857  67.034  1.00  0.00    -0.127 OA 
BRANCH  29  30
HETATM   30  C   UNL     1      -9.179  11.066  66.817  1.00  0.00    -0.161 C  
HETATM   31  C   UNL     1     -10.074  12.809  65.142  1.00  0.00    -0.246 C  
HETATM   32  C   UNL     1      -9.339  10.627  64.257  1.00  0.00    -0.298 C  
HETATM   33  O   UNL     1      -9.733  11.688  67.729  1.00  0.00    -0.167 OA 
HETATM   34  C   UNL     1      -9.088  11.638  65.373  1.00  0.00    -0.007 C  
ENDBRANCH  29  30
ENDBRANCH  28  29
ENDBRANCH  26  28
ENDBRANCH  22  26
BRANCH  25  35
HETATM   35  C   UNL     1      -8.429   5.013  65.572  1.00  0.00    -0.134 C  
HETATM   36  C   UNL     1      -6.911   4.626  65.617  1.00  0.00    -0.063 C  
HETATM   37  C   UNL     1      -9.137   4.098  64.581  1.00  0.00    -0.146 C  
HETATM   38  C   UNL     1      -6.236   4.682  64.255  1.00  0.00    -0.026 C  
HETATM   39  C   UNL     1      -6.989   3.843  63.227  1.00  0.00    -0.044 C  
HETATM   40  C   UNL     1      -8.478   4.189  63.199  1.00  0.00    -0.095 C  
ENDBRANCH  25  35
TORSDOF 5
ENDMDL
MODEL       97
REMARK 921   NORMALIZED FREE ENERGY PREDICTED BY IDOCK:   -3.28 KCAL/MOL
REMARK 922        TOTAL FREE ENERGY PREDICTED BY IDOCK:   -4.57 KCAL/MOL
REMARK 923 INTER-LIGAND FREE ENERGY PREDICTED BY IDOCK:   -4.13 KCAL/MOL
REMARK 924 INTRA-LIGAND FREE ENERGY PREDICTED BY IDOCK:   -0.44 KCAL/MOL
REMARK 927      BINDING AFFINITY PREDICTED BY RF-SCORE:    0.00 PKD
ROOT
HETATM    1  C   UNL     1      -9.392  12.306  69.053  1.00  0.00     0.395 C  
HETATM    2  C   UNL     1     -10.337  10.868  68.851  1.00  0.00    -0.222 C  
HETATM    3  C   UNL     1     -10.141  10.462  67.269  1.00  0.00    -0.244 C  
HETATM    4  C   UNL     1      -9.687   9.342  66.170  1.00  0.00    -0.349 C  
HETATM    5  C   UNL     1      -8.360   8.646  66.652  1.00  0.00    -0.108 C  
HETATM    6  C   UNL     1      -7.382   8.105  65.644  1.00  0.00    -0.076 C  
HETATM    7  C   UNL     1      -7.219   9.038  64.427  1.00  0.00    -0.098 C  
HETATM    8  C   UNL     1      -6.110   8.950  63.671  1.00  0.00    -0.080 C  
HETATM    9  C   UNL     1      -6.186   7.547  63.142  1.00  0.00    -0.054 C  
HETATM   10  C   UNL     1      -7.593   7.018  62.845  1.00  0.00    -0.103 C  
HETATM   11  O   UNL     1      -5.172   6.871  63.013  1.00  0.00    -0.030 OA 
HETATM   12  C   UNL     1      -8.701   7.769  63.136  1.00  0.00     0.522 C  
HETATM   13  C   UNL     1      -8.551   9.197  63.661  1.00  0.00    -0.180 C  
HETATM   14  C   UNL     1      -8.541  10.016  62.333  1.00  0.00    -0.210 C  
HETATM   15  C   UNL     1      -9.352  10.004  64.773  1.00  0.00    -0.330 C  
HETATM   16  C   UNL     1     -10.355  11.083  64.358  1.00  0.00    -0.358 C  
HETATM   17  O   UNL     1     -11.705  10.655  64.415  1.00  0.00     0.799 OA 
HETATM   18  C   UNL     1     -10.031  12.259  65.295  1.00  0.00    -0.250 C  
HETATM   19  C   UNL     1     -10.054  11.875  66.788  1.00  0.00    -0.225 C  
HETATM   20  H   UNL     1     -12.327  11.324  64.157  1.00  0.00     0.000 HD 
HETATM   21  C   UNL     1     -11.567  12.402  67.186  1.00  0.00    -0.435 C  
HETATM   22  C   UNL     1      -8.608  12.170  67.769  1.00  0.00    -0.164 C  
HETATM   23  O   UNL     1      -8.085  13.379  67.378  1.00  0.00    -0.167 OA 
HETATM   24  O   UNL     1      -9.779  13.715  68.952  1.00  0.00    -0.090 OA 
HETATM   25  C   UNL     1      -9.029  14.324  67.853  1.00  0.00    -0.186 C  
ENDROOT
BRANCH  22  26
HETATM   26  C   UNL     1      -7.402  11.129  68.456  1.00  0.00    -0.104 C  
HETATM   27  O   UNL     1      -6.260  11.040  67.956  1.00  0.00    -0.053 OA 
BRANCH  26  28
HETATM   28  C   UNL     1      -7.645  10.222  69.680  1.00  0.00    -0.164 C  
BRANCH  28  29
HETATM   29  O   UNL     1      -6.399   9.528  70.136  1.00  0.00    -0.050 OA 
BRANCH  29  30
HETATM   30  C   UNL     1      -6.344   8.164  70.105  1.00  0.00    -0.032 C  
HETATM   31  C   UNL     1      -6.471   5.927  71.379  1.00  0.00    -0.049 C  
HETATM   32  C   UNL     1      -7.034   7.991  72.607  1.00  0.00    -0.100 C  
HETATM   33  O   UNL     1      -6.392   7.538  69.041  1.00  0.00    -0.037 OA 
HETATM   34  C   UNL     1      -6.172   7.443  71.472  1.00  0.00    -0.036 C  
ENDBRANCH  29  30
ENDBRANCH  28  29
ENDBRANCH  26  28
ENDBRANCH  22  26
BRANCH  25  35
HETATM   35  C   UNL     1      -8.158  15.585  68.026  1.00  0.00    -0.140 C  
HETATM   36  C   UNL     1      -7.530  15.965  66.641  1.00  0.00    -0.093 C  
HETATM   37  C   UNL     1      -8.899  16.798  68.575  1.00  0.00    -0.248 C  
HETATM   38  C   UNL     1      -6.610  17.174  66.709  1.00  0.00    -0.257 C  
HETATM   39  C   UNL     1      -7.311  18.371  67.344  1.00  0.00    -0.221 C  
HETATM   40  C   UNL     1      -7.957  18.003  68.680  1.00  0.00    -0.303 C  
ENDBRANCH  25  35
TORSDOF 5
ENDMDL
MODEL       98
REMARK 921   NORMALIZED FREE ENERGY PREDICTED BY IDOCK:   -3.26 KCAL/MOL
REMARK 922        TOTAL FREE ENERGY PREDICTED BY IDOCK:   -4.54 KCAL/MOL
REMARK 923 INTER-LIGAND FREE ENERGY PREDICTED BY IDOCK:   -3.65 KCAL/MOL
REMARK 924 INTRA-LIGAND FREE ENERGY PREDICTED BY IDOCK:   -0.89 KCAL/MOL
REMARK 927      BINDING AFFINITY PREDICTED BY RF-SCORE:    0.00 PKD
ROOT
HETATM    1  C   UNL     1      -7.160  10.724  69.213  1.00  0.00    -0.116 C  
HETATM    2  C   UNL     1      -6.464  11.049  67.660  1.00  0.00    -0.060 C  
HETATM    3  C   UNL     1      -7.741  11.042  66.623  1.00  0.00    -0.153 C  
HETATM    4  C   UNL     1      -8.614  11.834  65.493  1.00  0.00     0.375 C  
HETATM    5  C   UNL     1      -8.817  13.329  65.942  1.00  0.00     0.670 C  
HETATM    6  C   UNL     1     -10.043  14.087  65.514  1.00  0.00    -0.343 C  
HETATM    7  C   UNL     1     -11.317  13.218  65.567  1.00  0.00    -0.315 C  
HETATM    8  C   UNL     1     -12.520  13.814  65.647  1.00  0.00    -0.541 C  
HETATM    9  C   UNL     1     -12.579  14.604  64.372  1.00  0.00    -0.132 C  
HETATM   10  C   UNL     1     -11.906  13.963  63.153  1.00  0.00     0.627 C  
HETATM   11  O   UNL     1     -13.096  15.715  64.347  1.00  0.00     0.075 OA 
HETATM   12  C   UNL     1     -11.225  12.779  63.270  1.00  0.00    -0.160 C  
HETATM   13  C   UNL     1     -11.216  12.020  64.597  1.00  0.00    -0.380 C  
HETATM   14  C   UNL     1     -12.466  11.100  64.435  1.00  0.00     1.582 C  
HETATM   15  C   UNL     1     -10.066  11.221  65.350  1.00  0.00    -0.314 C  
HETATM   16  C   UNL     1     -10.080   9.690  65.357  1.00  0.00    -0.023 C  
HETATM   17  O   UNL     1      -9.181   9.110  64.428  1.00  0.00    -0.436 OA 
HETATM   18  C   UNL     1      -9.784   9.332  66.823  1.00  0.00    -0.260 C  
HETATM   19  C   UNL     1      -8.494   9.983  67.362  1.00  0.00    -0.121 C  
HETATM   20  H   UNL     1      -9.190   8.160  64.432  1.00  0.00     0.000 HD 
HETATM   21  C   UNL     1      -7.450   8.717  67.184  1.00  0.00    -0.088 C  
HETATM   22  C   UNL     1      -8.590  10.996  68.813  1.00  0.00    -0.144 C  
HETATM   23  O   UNL     1      -9.471  10.393  69.679  1.00  0.00    -0.187 OA 
HETATM   24  O   UNL     1      -7.344   9.454  69.919  1.00  0.00    -0.067 OA 
HETATM   25  C   UNL     1      -8.778   9.233  70.108  1.00  0.00    -0.204 C  
ENDROOT
BRANCH  22  26
HETATM   26  C   UNL     1      -8.482  12.707  69.079  1.00  0.00     0.465 C  
HETATM   27  O   UNL     1      -7.409  13.243  69.431  1.00  0.00     0.115 OA 
BRANCH  26  28
HETATM   28  C   UNL     1      -9.675  13.676  68.947  1.00  0.00     0.068 C  
BRANCH  28  29
HETATM   29  O   UNL     1      -9.257  15.112  68.993  1.00  0.00    -0.201 OA 
BRANCH  29  30
HETATM   30  C   UNL     1     -10.134  16.078  68.591  1.00  0.00    -0.220 C  
HETATM   31  C   UNL     1     -10.521  18.416  67.578  1.00  0.00    -0.445 C  
HETATM   32  C   UNL     1      -8.217  17.534  67.604  1.00  0.00    -0.218 C  
HETATM   33  O   UNL     1     -11.339  15.843  68.456  1.00  0.00    -0.343 OA 
HETATM   34  C   UNL     1      -9.546  17.498  68.355  1.00  0.00    -0.303 C  
ENDBRANCH  29  30
ENDBRANCH  28  29
ENDBRANCH  26  28
ENDBRANCH  22  26
BRANCH  25  35
HETATM   35  C   UNL     1      -9.416   8.974  71.489  1.00  0.00    -0.316 C  
HETATM   36  C   UNL     1     -10.901   8.517  71.286  1.00  0.00    -0.312 C  
HETATM   37  C   UNL     1      -8.696   7.931  72.334  1.00  0.00    -0.206 C  
HETATM   38  C   UNL     1     -11.641   8.279  72.594  1.00  0.00    -0.419 C  
HETATM   39  C   UNL     1     -10.883   7.308  73.493  1.00  0.00    -0.290 C  
HETATM   40  C   UNL     1      -9.422   7.725  73.669  1.00  0.00    -0.312 C  
ENDBRANCH  25  35
TORSDOF 5
ENDMDL
MODEL       99
REMARK 921   NORMALIZED FREE ENERGY PREDICTED BY IDOCK:   -3.18 KCAL/MOL
REMARK 922        TOTAL FREE ENERGY PREDICTED BY IDOCK:   -4.43 KCAL/MOL
REMARK 923 INTER-LIGAND FREE ENERGY PREDICTED BY IDOCK:   -3.85 KCAL/MOL
REMARK 924 INTRA-LIGAND FREE ENERGY PREDICTED BY IDOCK:   -0.58 KCAL/MOL
REMARK 927      BINDING AFFINITY PREDICTED BY RF-SCORE:    0.00 PKD
ROOT
HETATM    1  C   UNL     1      -9.951   7.422  66.874  1.00  0.00    -0.236 C  
HETATM    2  C   UNL     1     -10.922   6.950  68.229  1.00  0.00    -0.208 C  
HETATM    3  C   UNL     1      -9.841   6.436  69.356  1.00  0.00    -0.170 C  
HETATM    4  C   UNL     1      -9.243   6.575  70.870  1.00  0.00    -0.155 C  
HETATM    5  C   UNL     1      -9.106   8.099  71.240  1.00  0.00    -0.185 C  
HETATM    6  C   UNL     1      -8.042   8.551  72.203  1.00  0.00    -0.162 C  
HETATM    7  C   UNL     1      -6.704   7.816  71.983  1.00  0.00    -0.057 C  
HETATM    8  C   UNL     1      -5.564   8.373  72.428  1.00  0.00    -0.047 C  
HETATM    9  C   UNL     1      -5.790   8.441  73.911  1.00  0.00    -0.105 C  
HETATM   10  C   UNL     1      -6.595   7.288  74.520  1.00  0.00    -0.086 C  
HETATM   11  O   UNL     1      -5.389   9.398  74.563  1.00  0.00    -0.129 OA 
HETATM   12  C   UNL     1      -7.137   6.313  73.724  1.00  0.00    -0.083 C  
HETATM   13  C   UNL     1      -6.855   6.297  72.221  1.00  0.00    -0.073 C  
HETATM   14  C   UNL     1      -5.571   5.413  72.157  1.00  0.00    -0.017 C  
HETATM   15  C   UNL     1      -7.786   5.968  70.975  1.00  0.00    -0.111 C  
HETATM   16  C   UNL     1      -7.632   4.635  70.239  1.00  0.00    -0.051 C  
HETATM   17  O   UNL     1      -8.615   3.676  70.586  1.00  0.00    -0.067 OA 
HETATM   18  C   UNL     1      -7.645   5.037  68.754  1.00  0.00    -0.077 C  
HETATM   19  C   UNL     1      -8.881   5.871  68.359  1.00  0.00    -0.111 C  
HETATM   20  H   UNL     1      -8.519   2.849  70.129  1.00  0.00     0.000 HD 
HETATM   21  C   UNL     1      -9.820   4.680  67.706  1.00  0.00    -0.183 C  
HETATM   22  C   UNL     1      -8.637   7.463  67.619  1.00  0.00    -0.119 C  
HETATM   23  O   UNL     1      -7.574   7.357  66.755  1.00  0.00    -0.096 OA 
HETATM   24  O   UNL     1      -9.536   6.657  65.695  1.00  0.00     0.152 OA 
HETATM   25  C   UNL     1      -8.076   6.554  65.700  1.00  0.00    -0.128 C  
ENDROOT
BRANCH  22  26
HETATM   26  C   UNL     1      -8.856   9.086  68.190  1.00  0.00    -0.133 C  
HETATM   27  O   UNL     1      -9.976   9.640  68.159  1.00  0.00    -0.150 OA 
BRANCH  26  28
HETATM   28  C   UNL     1      -7.712   9.970  68.730  1.00  0.00    -0.085 C  
BRANCH  28  29
HETATM   29  O   UNL     1      -7.547  11.235  67.948  1.00  0.00    -0.094 OA 
BRANCH  29  30
HETATM   30  C   UNL     1      -7.265  12.397  68.608  1.00  0.00    -0.104 C  
HETATM   31  C   UNL     1      -5.863  13.637  70.380  1.00  0.00    -0.161 C  
HETATM   32  C   UNL     1      -5.230  11.319  69.819  1.00  0.00    -0.051 C  
HETATM   33  O   UNL     1      -7.690  13.487  68.212  1.00  0.00    -0.119 OA 
HETATM   34  C   UNL     1      -6.420  12.272  69.908  1.00  0.00     0.009 C  
ENDBRANCH  29  30
ENDBRANCH  28  29
ENDBRANCH  26  28
ENDBRANCH  22  26
BRANCH  25  35
HETATM   35  C   UNL     1      -7.197   7.000  64.514  1.00  0.00    -0.073 C  
HETATM   36  C   UNL     1      -8.034   7.949  63.589  1.00  0.00    -0.118 C  
HETATM   37  C   UNL     1      -5.912   7.715  64.910  1.00  0.00    -0.038 C  
HETATM   38  C   UNL     1      -7.273   8.412  62.355  1.00  0.00    -0.098 C  
HETATM   39  C   UNL     1      -5.938   9.046  62.732  1.00  0.00    -0.090 C  
HETATM   40  C   UNL     1      -5.127   8.144  63.664  1.00  0.00    -0.041 C  
ENDBRANCH  25  35
TORSDOF 5
ENDMDL
MODEL      100
REMARK 921   NORMALIZED FREE ENERGY PREDICTED BY IDOCK:   -3.18 KCAL/MOL
REMARK 922        TOTAL FREE ENERGY PREDICTED BY IDOCK:   -4.43 KCAL/MOL
REMARK 923 INTER-LIGAND FREE ENERGY PREDICTED BY IDOCK:   -4.06 KCAL/MOL
REMARK 924 INTRA-LIGAND FREE ENERGY PREDICTED BY IDOCK:   -0.37 KCAL/MOL
REMARK 927      BINDING AFFINITY PREDICTED BY RF-SCORE:    0.00 PKD
ROOT
HETATM    1  C   UNL     1      -9.932  10.094  66.540  1.00  0.00    -0.224 C  
HETATM    2  C   UNL     1     -11.046   9.914  67.855  1.00  0.00    -0.216 C  
HETATM    3  C   UNL     1     -10.403   8.717  68.782  1.00  0.00    -0.228 C  
HETATM    4  C   UNL     1      -9.860   8.235  70.245  1.00  0.00    -0.186 C  
HETATM    5  C   UNL     1      -8.982   9.379  70.878  1.00  0.00    -0.198 C  
HETATM    6  C   UNL     1      -7.863   9.036  71.824  1.00  0.00     0.088 C  
HETATM    7  C   UNL     1      -7.074   7.791  71.370  1.00  0.00    -0.058 C  
HETATM    8  C   UNL     1      -5.821   7.603  71.822  1.00  0.00    -0.036 C  
HETATM    9  C   UNL     1      -6.023   7.480  73.304  1.00  0.00    -0.055 C  
HETATM   10  C   UNL     1      -7.317   6.790  73.750  1.00  0.00    -0.082 C  
HETATM   11  O   UNL     1      -5.211   7.956  74.089  1.00  0.00    -0.055 OA 
HETATM   12  C   UNL     1      -8.255   6.396  72.832  1.00  0.00    -0.113 C  
HETATM   13  C   UNL     1      -7.978   6.539  71.334  1.00  0.00    -0.108 C  
HETATM   14  C   UNL     1      -7.315   5.164  71.009  1.00  0.00    -0.073 C  
HETATM   15  C   UNL     1      -8.913   6.974  70.124  1.00  0.00    -0.145 C  
HETATM   16  C   UNL     1      -9.432   5.918  69.145  1.00  0.00    -0.128 C  
HETATM   17  O   UNL     1     -10.775   5.534  69.383  1.00  0.00    -0.295 OA 
HETATM   18  C   UNL     1      -9.200   6.558  67.765  1.00  0.00    -0.113 C  
HETATM   19  C   UNL     1      -9.834   7.957  67.627  1.00  0.00    -0.212 C  
HETATM   20  H   UNL     1     -11.097   4.879  68.776  1.00  0.00     0.000 HD 
HETATM   21  C   UNL     1     -11.227   7.552  66.840  1.00  0.00     0.555 C  
HETATM   22  C   UNL     1      -8.799   9.324  67.177  1.00  0.00    -0.127 C  
HETATM   23  O   UNL     1      -7.911   8.874  66.230  1.00  0.00    -0.100 OA 
HETATM   24  O   UNL     1      -9.927   9.475  65.212  1.00  0.00    -0.247 OA 
HETATM   25  C   UNL     1      -8.721   8.657  65.086  1.00  0.00    -0.144 C  
ENDROOT
BRANCH  22  26
HETATM   26  C   UNL     1      -8.183  10.689  68.053  1.00  0.00    -0.113 C  
HETATM   27  O   UNL     1      -8.692  11.824  67.928  1.00  0.00    -0.150 OA 
BRANCH  26  28
HETATM   28  C   UNL     1      -6.966  10.626  68.998  1.00  0.00    -0.080 C  
BRANCH  28  29
HETATM   29  O   UNL     1      -5.683  10.966  68.306  1.00  0.00    -0.043 OA 
BRANCH  29  30
HETATM   30  C   UNL     1      -5.536  12.199  67.737  1.00  0.00    -0.076 C  
HETATM   31  C   UNL     1      -5.271  14.745  68.038  1.00  0.00    -0.111 C  
HETATM   32  C   UNL     1      -5.192  13.327  70.056  1.00  0.00    -0.092 C  
HETATM   33  O   UNL     1      -5.246  12.330  66.544  1.00  0.00    -0.311 OA 
HETATM   34  C   UNL     1      -5.796  13.426  68.657  1.00  0.00    -0.084 C  
ENDBRANCH  29  30
ENDBRANCH  28  29
ENDBRANCH  26  28
ENDBRANCH  22  26
BRANCH  25  35
HETATM   35  C   UNL     1      -7.704   8.828  63.938  1.00  0.00    -0.132 C  
HETATM   36  C   UNL     1      -7.542  10.356  63.627  1.00  0.00    -0.034 C  
HETATM   37  C   UNL     1      -6.328   8.238  64.217  1.00  0.00    -0.066 C  
HETATM   38  C   UNL     1      -6.592  10.636  62.472  1.00  0.00    -0.107 C  
HETATM   39  C   UNL     1      -5.237   9.971  62.693  1.00  0.00    -0.092 C  
HETATM   40  C   UNL     1      -5.385   8.487  63.032  1.00  0.00    -0.068 C  
ENDBRANCH  25  35
TORSDOF 5
ENDMDL
MODEL      101
REMARK 921   NORMALIZED FREE ENERGY PREDICTED BY IDOCK:   -3.09 KCAL/MOL
REMARK 922        TOTAL FREE ENERGY PREDICTED BY IDOCK:   -4.32 KCAL/MOL
REMARK 923 INTER-LIGAND FREE ENERGY PREDICTED BY IDOCK:   -4.27 KCAL/MOL
REMARK 924 INTRA-LIGAND FREE ENERGY PREDICTED BY IDOCK:   -0.05 KCAL/MOL
REMARK 927      BINDING AFFINITY PREDICTED BY RF-SCORE:    0.00 PKD
ROOT
HETATM    1  C   UNL     1      -8.394   9.764  67.876  1.00  0.00    -0.114 C  
HETATM    2  C   UNL     1      -7.728  10.417  66.416  1.00  0.00    -0.125 C  
HETATM    3  C   UNL     1      -8.837  11.523  65.913  1.00  0.00    -0.107 C  
HETATM    4  C   UNL     1      -9.165  13.066  65.492  1.00  0.00     0.435 C  
HETATM    5  C   UNL     1      -8.449  14.044  66.497  1.00  0.00     0.273 C  
HETATM    6  C   UNL     1      -9.044  15.395  66.790  1.00  0.00    -0.286 C  
HETATM    7  C   UNL     1     -10.579  15.342  66.923  1.00  0.00    -0.304 C  
HETATM    8  C   UNL     1     -11.218  16.316  67.594  1.00  0.00    -0.111 C  
HETATM    9  C   UNL     1     -10.889  17.539  66.787  1.00  0.00     0.009 C  
HETATM   10  C   UNL     1     -10.776  17.332  65.273  1.00  0.00    -0.019 C  
HETATM   11  O   UNL     1     -10.678  18.614  67.336  1.00  0.00    -0.431 OA 
HETATM   12  C   UNL     1     -10.889  16.081  64.725  1.00  0.00    -0.315 C  
HETATM   13  C   UNL     1     -11.239  14.881  65.604  1.00  0.00    -0.347 C  
HETATM   14  C   UNL     1     -12.797  14.882  65.523  1.00  0.00     0.339 C  
HETATM   15  C   UNL     1     -10.711  13.381  65.604  1.00  0.00    -0.283 C  
HETATM   16  C   UNL     1     -11.598  12.261  65.054  1.00  0.00    -0.343 C  
HETATM   17  O   UNL     1     -11.249  11.852  63.743  1.00  0.00    -0.375 OA 
HETATM   18  C   UNL     1     -11.476  11.150  66.111  1.00  0.00     0.233 C  
HETATM   19  C   UNL     1     -10.017  10.750  66.411  1.00  0.00    -0.264 C  
HETATM   20  H   UNL     1     -11.799  11.156  63.402  1.00  0.00     0.000 HD 
HETATM   21  C   UNL     1      -9.897   9.406  65.460  1.00  0.00    -0.231 C  
HETATM   22  C   UNL     1      -9.432  10.842  68.082  1.00  0.00    -0.158 C  
HETATM   23  O   UNL     1     -10.447  10.404  68.898  1.00  0.00    -0.187 OA 
HETATM   24  O   UNL     1      -9.230   8.580  68.088  1.00  0.00    -0.138 OA 
HETATM   25  C   UNL     1     -10.520   9.014  68.628  1.00  0.00    -0.200 C  
ENDROOT
BRANCH  22  26
HETATM   26  C   UNL     1      -8.349  11.917  68.906  1.00  0.00     0.116 C  
HETATM   27  O   UNL     1      -7.194  11.560  69.221  1.00  0.00    -0.110 OA 
BRANCH  26  28
HETATM   28  C   UNL     1      -8.725  13.348  69.343  1.00  0.00     1.056 C  
BRANCH  28  29
HETATM   29  O   UNL     1      -7.525  14.213  69.569  1.00  0.00     0.004 OA 
BRANCH  29  30
HETATM   30  C   UNL     1      -7.674  15.570  69.598  1.00  0.00    -0.138 C  
HETATM   31  C   UNL     1      -6.711  17.902  69.068  1.00  0.00    -0.248 C  
HETATM   32  C   UNL     1      -5.486  15.928  68.236  1.00  0.00    -0.110 C  
HETATM   33  O   UNL     1      -8.766  16.097  69.831  1.00  0.00     0.230 OA 
HETATM   34  C   UNL     1      -6.390  16.417  69.366  1.00  0.00    -0.200 C  
ENDBRANCH  29  30
ENDBRANCH  28  29
ENDBRANCH  26  28
ENDBRANCH  22  26
BRANCH  25  35
HETATM   35  C   UNL     1     -11.109   8.464  69.943  1.00  0.00    -0.109 C  
HETATM   36  C   UNL     1     -10.165   7.340  70.493  1.00  0.00    -0.203 C  
HETATM   37  C   UNL     1     -11.311   9.508  71.033  1.00  0.00    -0.423 C  
HETATM   38  C   UNL     1     -10.680   6.693  71.770  1.00  0.00    -0.257 C  
HETATM   39  C   UNL     1     -10.977   7.738  72.841  1.00  0.00    -0.467 C  
HETATM   40  C   UNL     1     -11.869   8.858  72.305  1.00  0.00    -0.365 C  
ENDBRANCH  25  35
TORSDOF 5
ENDMDL
MODEL      102
REMARK 921   NORMALIZED FREE ENERGY PREDICTED BY IDOCK:   -3.05 KCAL/MOL
REMARK 922        TOTAL FREE ENERGY PREDICTED BY IDOCK:   -4.27 KCAL/MOL
REMARK 923 INTER-LIGAND FREE ENERGY PREDICTED BY IDOCK:   -5.00 KCAL/MOL
REMARK 924 INTRA-LIGAND FREE ENERGY PREDICTED BY IDOCK:    0.73 KCAL/MOL
REMARK 927      BINDING AFFINITY PREDICTED BY RF-SCORE:    0.00 PKD
ROOT
HETATM    1  C   UNL     1      -8.647  11.459  66.505  1.00  0.00    -0.175 C  
HETATM    2  C   UNL     1      -8.341   9.837  65.979  1.00  0.00    -0.123 C  
HETATM    3  C   UNL     1      -7.995   9.012  67.358  1.00  0.00    -0.100 C  
HETATM    4  C   UNL     1      -8.338   7.759  68.349  1.00  0.00    -0.125 C  
HETATM    5  C   UNL     1      -9.900   7.630  68.505  1.00  0.00    -0.174 C  
HETATM    6  C   UNL     1     -10.488   7.072  69.773  1.00  0.00    -0.235 C  
HETATM    7  C   UNL     1      -9.751   7.573  71.031  1.00  0.00    -0.170 C  
HETATM    8  C   UNL     1     -10.378   7.542  72.220  1.00  0.00    -0.263 C  
HETATM    9  C   UNL     1     -10.635   6.076  72.416  1.00  0.00    -0.217 C  
HETATM   10  C   UNL     1      -9.559   5.129  71.875  1.00  0.00    -0.193 C  
HETATM   11  O   UNL     1     -11.674   5.686  72.935  1.00  0.00    -0.250 OA 
HETATM   12  C   UNL     1      -8.481   5.614  71.182  1.00  0.00    -0.127 C  
HETATM   13  C   UNL     1      -8.273   7.121  71.031  1.00  0.00    -0.109 C  
HETATM   14  C   UNL     1      -7.408   7.442  72.289  1.00  0.00    -0.068 C  
HETATM   15  C   UNL     1      -7.772   8.001  69.806  1.00  0.00    -0.101 C  
HETATM   16  C   UNL     1      -6.356   8.585  69.815  1.00  0.00    -0.035 C  
HETATM   17  O   UNL     1      -5.437   7.859  69.019  1.00  0.00    -0.028 OA 
HETATM   18  C   UNL     1      -6.562  10.042  69.365  1.00  0.00    -0.053 C  
HETATM   19  C   UNL     1      -7.319  10.165  68.027  1.00  0.00    -0.086 C  
HETATM   20  H   UNL     1      -4.559   8.221  69.025  1.00  0.00     0.000 HD 
HETATM   21  C   UNL     1      -6.039  10.375  67.004  1.00  0.00    -0.052 C  
HETATM   22  C   UNL     1      -8.805  11.130  67.971  1.00  0.00    -0.142 C  
HETATM   23  O   UNL     1      -8.603  12.242  68.753  1.00  0.00    -0.029 OA 
HETATM   24  O   UNL     1      -7.743  12.606  66.611  1.00  0.00     0.121 OA 
HETATM   25  C   UNL     1      -7.662  13.005  68.017  1.00  0.00    -0.145 C  
ENDROOT
BRANCH  22  26
HETATM   26  C   UNL     1     -10.485  10.721  67.839  1.00  0.00    -0.199 C  
HETATM   27  O   UNL     1     -10.849   9.593  67.443  1.00  0.00    -0.274 OA 
BRANCH  26  28
HETATM   28  C   UNL     1     -11.636  11.699  68.151  1.00  0.00    -0.319 C  
BRANCH  28  29
HETATM   29  O   UNL     1     -12.340  11.368  69.430  1.00  0.00    -0.254 OA 
BRANCH  29  30
HETATM   30  C   UNL     1     -12.790  12.381  70.227  1.00  0.00     0.345 C  
HETATM   31  C   UNL     1     -13.920  13.116  72.424  1.00  0.00    -0.497 C  
HETATM   32  C   UNL     1     -13.346  10.731  72.160  1.00  0.00    -0.314 C  
HETATM   33  O   UNL     1     -12.479  13.557  70.018  1.00  0.00    -0.268 OA 
HETATM   34  C   UNL     1     -13.751  11.982  71.384  1.00  0.00     0.756 C  
ENDBRANCH  29  30
ENDBRANCH  28  29
ENDBRANCH  26  28
ENDBRANCH  22  26
BRANCH  25  35
HETATM   35  C   UNL     1      -7.964  14.438  68.504  1.00  0.00    -0.144 C  
HETATM   36  C   UNL     1      -6.699  15.332  68.265  1.00  0.00    -0.124 C  
HETATM   37  C   UNL     1      -9.161  15.097  67.833  1.00  0.00    -0.184 C  
HETATM   38  C   UNL     1      -6.873  16.762  68.756  1.00  0.00    -0.188 C  
HETATM   39  C   UNL     1      -8.123  17.405  68.164  1.00  0.00    -0.232 C  
HETATM   40  C   UNL     1      -9.357  16.523  68.361  1.00  0.00    -0.221 C  
ENDBRANCH  25  35
TORSDOF 5
ENDMDL
MODEL      103
REMARK 921   NORMALIZED FREE ENERGY PREDICTED BY IDOCK:   -3.03 KCAL/MOL
REMARK 922        TOTAL FREE ENERGY PREDICTED BY IDOCK:   -4.24 KCAL/MOL
REMARK 923 INTER-LIGAND FREE ENERGY PREDICTED BY IDOCK:   -3.84 KCAL/MOL
REMARK 924 INTRA-LIGAND FREE ENERGY PREDICTED BY IDOCK:   -0.40 KCAL/MOL
REMARK 927      BINDING AFFINITY PREDICTED BY RF-SCORE:    0.00 PKD
ROOT
HETATM    1  C   UNL     1      -9.178   9.981  68.718  1.00  0.00    -0.159 C  
HETATM    2  C   UNL     1      -8.779   9.279  70.251  1.00  0.00    -0.246 C  
HETATM    3  C   UNL     1      -9.069   7.671  70.060  1.00  0.00    -0.151 C  
HETATM    4  C   UNL     1      -8.501   6.142  70.128  1.00  0.00    -0.133 C  
HETATM    5  C   UNL     1      -7.057   6.092  69.501  1.00  0.00    -0.069 C  
HETATM    6  C   UNL     1      -6.565   4.836  68.836  1.00  0.00    -0.045 C  
HETATM    7  C   UNL     1      -7.661   4.152  67.993  1.00  0.00    -0.068 C  
HETATM    8  C   UNL     1      -7.306   3.304  67.011  1.00  0.00    -0.070 C  
HETATM    9  C   UNL     1      -6.587   2.220  67.760  1.00  0.00    -0.035 C  
HETATM   10  C   UNL     1      -7.130   1.897  69.157  1.00  0.00    -0.036 C  
HETATM   11  O   UNL     1      -5.599   1.677  67.282  1.00  0.00    -0.016 OA 
HETATM   12  C   UNL     1      -8.155   2.628  69.698  1.00  0.00    -0.057 C  
HETATM   13  C   UNL     1      -8.851   3.711  68.873  1.00  0.00    -0.158 C  
HETATM   14  C   UNL     1     -10.000   2.897  68.200  1.00  0.00     0.635 C  
HETATM   15  C   UNL     1      -9.386   5.156  69.264  1.00  0.00    -0.172 C  
HETATM   16  C   UNL     1     -10.890   5.394  69.425  1.00  0.00    -0.033 C  
HETATM   17  O   UNL     1     -11.319   5.423  70.775  1.00  0.00     0.062 OA 
HETATM   18  C   UNL     1     -11.133   6.708  68.662  1.00  0.00    -0.288 C  
HETATM   19  C   UNL     1     -10.227   7.863  69.133  1.00  0.00    -0.219 C  
HETATM   20  H   UNL     1     -12.252   5.571  70.875  1.00  0.00     0.000 HD 
HETATM   21  C   UNL     1     -11.273   8.640  70.146  1.00  0.00    -0.152 C  
HETATM   22  C   UNL     1      -9.200   8.684  67.944  1.00  0.00    -0.139 C  
HETATM   23  O   UNL     1      -9.931   8.810  66.787  1.00  0.00    -0.218 OA 
HETATM   24  O   UNL     1     -10.434  10.567  68.244  1.00  0.00    -0.164 OA 
HETATM   25  C   UNL     1     -10.920   9.770  67.117  1.00  0.00    -0.033 C  
ENDROOT
BRANCH  22  26
HETATM   26  C   UNL     1      -7.492   8.678  67.640  1.00  0.00    -0.090 C  
HETATM   27  O   UNL     1      -7.012   8.093  66.645  1.00  0.00    -0.070 OA 
BRANCH  26  28
HETATM   28  C   UNL     1      -6.451   9.339  68.567  1.00  0.00    -0.053 C  
BRANCH  28  29
HETATM   29  O   UNL     1      -5.593  10.334  67.849  1.00  0.00    -0.041 OA 
BRANCH  29  30
HETATM   30  C   UNL     1      -5.942  11.654  67.868  1.00  0.00    -0.047 C  
HETATM   31  C   UNL     1      -6.253  13.829  69.215  1.00  0.00    -0.105 C  
HETATM   32  C   UNL     1      -5.216  11.902  70.354  1.00  0.00    -0.113 C  
HETATM   33  O   UNL     1      -6.067  12.305  66.826  1.00  0.00    -0.222 OA 
HETATM   34  C   UNL     1      -6.216  12.282  69.264  1.00  0.00    -0.098 C  
ENDBRANCH  29  30
ENDBRANCH  28  29
ENDBRANCH  26  28
ENDBRANCH  22  26
BRANCH  25  35
HETATM   35  C   UNL     1     -11.248  10.377  65.737  1.00  0.00     0.679 C  
HETATM   36  C   UNL     1     -11.993  11.740  65.945  1.00  0.00     0.207 C  
HETATM   37  C   UNL     1     -10.037  10.614  64.844  1.00  0.00    -0.402 C  
HETATM   38  C   UNL     1     -12.407  12.404  64.640  1.00  0.00    -0.518 C  
HETATM   39  C   UNL     1     -11.220  12.562  63.695  1.00  0.00    -0.545 C  
HETATM   40  C   UNL     1     -10.464  11.245  63.513  1.00  0.00    -0.457 C  
ENDBRANCH  25  35
TORSDOF 5
ENDMDL
MODEL      104
REMARK 921   NORMALIZED FREE ENERGY PREDICTED BY IDOCK:   -2.96 KCAL/MOL
REMARK 922        TOTAL FREE ENERGY PREDICTED BY IDOCK:   -4.15 KCAL/MOL
REMARK 923 INTER-LIGAND FREE ENERGY PREDICTED BY IDOCK:   -3.91 KCAL/MOL
REMARK 924 INTRA-LIGAND FREE ENERGY PREDICTED BY IDOCK:   -0.23 KCAL/MOL
REMARK 927      BINDING AFFINITY PREDICTED BY RF-SCORE:    0.00 PKD
ROOT
HETATM    1  C   UNL     1      -8.836  11.709  67.658  1.00  0.00    -0.159 C  
HETATM    2  C   UNL     1      -7.954  11.271  69.084  1.00  0.00    -0.002 C  
HETATM    3  C   UNL     1      -8.736   9.946  69.665  1.00  0.00    -0.218 C  
HETATM    4  C   UNL     1      -8.661   8.381  70.124  1.00  0.00    -0.131 C  
HETATM    5  C   UNL     1      -7.787   7.576  69.090  1.00  0.00    -0.119 C  
HETATM    6  C   UNL     1      -8.056   6.115  68.849  1.00  0.00    -0.108 C  
HETATM    7  C   UNL     1      -9.564   5.797  68.807  1.00  0.00    -0.156 C  
HETATM    8  C   UNL     1      -9.986   4.681  68.187  1.00  0.00    -0.127 C  
HETATM    9  C   UNL     1      -9.330   3.594  68.988  1.00  0.00    -0.169 C  
HETATM   10  C   UNL     1      -9.187   3.860  70.490  1.00  0.00    -0.203 C  
HETATM   11  O   UNL     1      -8.897   2.586  68.441  1.00  0.00    -0.083 OA 
HETATM   12  C   UNL     1      -9.566   5.062  71.029  1.00  0.00    -0.232 C  
HETATM   13  C   UNL     1     -10.242   6.121  70.157  1.00  0.00    -0.254 C  
HETATM   14  C   UNL     1     -11.748   5.750  70.330  1.00  0.00     0.537 C  
HETATM   15  C   UNL     1     -10.090   7.703  70.108  1.00  0.00    -0.199 C  
HETATM   16  C   UNL     1     -11.188   8.593  70.696  1.00  0.00    -0.252 C  
HETATM   17  O   UNL     1     -10.876   9.108  71.978  1.00  0.00    -0.352 OA 
HETATM   18  C   UNL     1     -11.394   9.673  69.620  1.00  0.00    -0.113 C  
HETATM   19  C   UNL     1     -10.092  10.401  69.229  1.00  0.00    -0.248 C  
HETATM   20  H   UNL     1     -11.558   9.660  72.343  1.00  0.00     0.000 HD 
HETATM   21  C   UNL     1     -10.247  11.759  70.155  1.00  0.00     1.888 C  
HETATM   22  C   UNL     1      -9.594  10.409  67.528  1.00  0.00    -0.156 C  
HETATM   23  O   UNL     1     -10.728  10.570  66.768  1.00  0.00    -0.240 OA 
HETATM   24  O   UNL     1      -9.942  12.652  67.482  1.00  0.00    -0.201 OA 
HETATM   25  C   UNL     1     -11.117  11.909  67.025  1.00  0.00    -0.302 C  
ENDROOT
BRANCH  22  26
HETATM   26  C   UNL     1      -8.332   9.602  66.654  1.00  0.00    -0.123 C  
HETATM   27  O   UNL     1      -8.462   8.420  66.268  1.00  0.00    -0.115 OA 
BRANCH  26  28
HETATM   28  C   UNL     1      -6.968  10.243  66.325  1.00  0.00    -0.115 C  
BRANCH  28  29
HETATM   29  O   UNL     1      -6.886  10.722  64.909  1.00  0.00     0.057 OA 
BRANCH  29  30
HETATM   30  C   UNL     1      -7.133   9.847  63.891  1.00  0.00    -0.127 C  
HETATM   31  C   UNL     1      -6.434   7.739  62.582  1.00  0.00    -0.076 C  
HETATM   32  C   UNL     1      -5.189   8.289  64.640  1.00  0.00    -0.036 C  
HETATM   33  O   UNL     1      -8.220   9.826  63.304  1.00  0.00    -0.135 OA 
HETATM   34  C   UNL     1      -5.962   8.910  63.479  1.00  0.00    -0.080 C  
ENDBRANCH  29  30
ENDBRANCH  28  29
ENDBRANCH  26  28
ENDBRANCH  22  26
BRANCH  25  35
HETATM   35  C   UNL     1     -11.892  12.268  65.740  1.00  0.00    -0.417 C  
HETATM   36  C   UNL     1     -11.926  13.827  65.585  1.00  0.00    -0.410 C  
HETATM   37  C   UNL     1     -11.320  11.664  64.464  1.00  0.00    -0.310 C  
HETATM   38  C   UNL     1     -12.712  14.294  64.368  1.00  0.00    -0.021 C  
HETATM   39  C   UNL     1     -12.210  13.623  63.093  1.00  0.00     0.107 C  
HETATM   40  C   UNL     1     -12.140  12.103  63.245  1.00  0.00    -0.512 C  
ENDBRANCH  25  35
TORSDOF 5
ENDMDL
MODEL      105
REMARK 921   NORMALIZED FREE ENERGY PREDICTED BY IDOCK:   -2.96 KCAL/MOL
REMARK 922        TOTAL FREE ENERGY PREDICTED BY IDOCK:   -4.15 KCAL/MOL
REMARK 923 INTER-LIGAND FREE ENERGY PREDICTED BY IDOCK:   -4.53 KCAL/MOL
REMARK 924 INTRA-LIGAND FREE ENERGY PREDICTED BY IDOCK:    0.38 KCAL/MOL
REMARK 927      BINDING AFFINITY PREDICTED BY RF-SCORE:    0.00 PKD
ROOT
HETATM    1  C   UNL     1     -10.476   9.429  67.326  1.00  0.00    -0.264 C  
HETATM    2  C   UNL     1     -11.465   8.796  68.601  1.00  0.00     0.870 C  
HETATM    3  C   UNL     1     -10.509   7.692  69.358  1.00  0.00    -0.220 C  
HETATM    4  C   UNL     1      -9.814   7.177  70.743  1.00  0.00    -0.180 C  
HETATM    5  C   UNL     1      -9.236   8.413  71.529  1.00  0.00    -0.257 C  
HETATM    6  C   UNL     1      -8.037   8.247  72.422  1.00  0.00    -0.204 C  
HETATM    7  C   UNL     1      -6.972   7.318  71.805  1.00  0.00    -0.059 C  
HETATM    8  C   UNL     1      -5.699   7.399  72.230  1.00  0.00    -0.037 C  
HETATM    9  C   UNL     1      -5.814   7.033  73.681  1.00  0.00    -0.057 C  
HETATM   10  C   UNL     1      -6.874   5.981  74.025  1.00  0.00    -0.080 C  
HETATM   11  O   UNL     1      -5.125   7.594  74.526  1.00  0.00    -0.060 OA 
HETATM   12  C   UNL     1      -7.710   5.485  73.059  1.00  0.00    -0.097 C  
HETATM   13  C   UNL     1      -7.527   5.891  71.596  1.00  0.00    -0.094 C  
HETATM   14  C   UNL     1      -6.547   4.789  71.089  1.00  0.00    -0.027 C  
HETATM   15  C   UNL     1      -8.581   6.229  70.454  1.00  0.00    -0.142 C  
HETATM   16  C   UNL     1      -8.846   5.215  69.338  1.00  0.00    -0.099 C  
HETATM   17  O   UNL     1     -10.038   4.470  69.519  1.00  0.00    -0.205 OA 
HETATM   18  C   UNL     1      -8.829   6.070  68.060  1.00  0.00    -0.110 C  
HETATM   19  C   UNL     1      -9.802   7.265  68.112  1.00  0.00    -0.165 C  
HETATM   20  H   UNL     1     -10.202   3.841  68.826  1.00  0.00     0.000 HD 
HETATM   21  C   UNL     1     -11.071   6.624  67.273  1.00  0.00    -0.418 C  
HETATM   22  C   UNL     1      -9.165   8.899  67.855  1.00  0.00    -0.138 C  
HETATM   23  O   UNL     1      -8.223   8.821  66.858  1.00  0.00    -0.107 OA 
HETATM   24  O   UNL     1     -10.358   9.014  65.927  1.00  0.00    -0.050 OA 
HETATM   25  C   UNL     1      -8.987   8.557  65.694  1.00  0.00    -0.160 C  
ENDROOT
BRANCH  22  26
HETATM   26  C   UNL     1      -8.889  10.247  68.911  1.00  0.00    -0.157 C  
HETATM   27  O   UNL     1      -8.249  10.117  69.977  1.00  0.00    -0.160 OA 
BRANCH  26  28
HETATM   28  C   UNL     1      -9.428  11.669  68.650  1.00  0.00    -0.123 C  
BRANCH  28  29
HETATM   29  O   UNL     1     -10.792  11.880  69.230  1.00  0.00    -0.200 OA 
BRANCH  29  30
HETATM   30  C   UNL     1     -11.250  13.153  69.415  1.00  0.00    -0.146 C  
HETATM   31  C   UNL     1     -12.916  14.747  70.568  1.00  0.00    -0.336 C  
HETATM   32  C   UNL     1     -12.888  12.387  71.286  1.00  0.00    -0.337 C  
HETATM   33  O   UNL     1     -10.604  14.136  69.037  1.00  0.00    -0.246 OA 
HETATM   34  C   UNL     1     -12.645  13.300  70.087  1.00  0.00    -0.112 C  
ENDBRANCH  29  30
ENDBRANCH  28  29
ENDBRANCH  26  28
ENDBRANCH  22  26
BRANCH  25  35
HETATM   35  C   UNL     1      -8.085   9.135  64.583  1.00  0.00    -0.136 C  
HETATM   36  C   UNL     1      -7.005  10.064  65.236  1.00  0.00    -0.132 C  
HETATM   37  C   UNL     1      -7.377   8.088  63.732  1.00  0.00    -0.102 C  
HETATM   38  C   UNL     1      -6.088  10.727  64.219  1.00  0.00     0.195 C  
HETATM   39  C   UNL     1      -5.444   9.696  63.297  1.00  0.00    -0.082 C  
HETATM   40  C   UNL     1      -6.486   8.761  62.681  1.00  0.00    -0.095 C  
ENDBRANCH  25  35
TORSDOF 5
ENDMDL
MODEL      106
REMARK 921   NORMALIZED FREE ENERGY PREDICTED BY IDOCK:   -2.96 KCAL/MOL
REMARK 922        TOTAL FREE ENERGY PREDICTED BY IDOCK:   -4.14 KCAL/MOL
REMARK 923 INTER-LIGAND FREE ENERGY PREDICTED BY IDOCK:   -5.92 KCAL/MOL
REMARK 924 INTRA-LIGAND FREE ENERGY PREDICTED BY IDOCK:    1.78 KCAL/MOL
REMARK 927      BINDING AFFINITY PREDICTED BY RF-SCORE:    0.00 PKD
ROOT
HETATM    1  C   UNL     1      -7.706   8.921  68.134  1.00  0.00    -0.100 C  
HETATM    2  C   UNL     1      -8.846   9.291  66.884  1.00  0.00    -0.141 C  
HETATM    3  C   UNL     1      -9.842  10.417  67.551  1.00  0.00    -0.202 C  
HETATM    4  C   UNL     1     -10.500  11.910  67.470  1.00  0.00    -0.233 C  
HETATM    5  C   UNL     1      -9.393  12.946  67.047  1.00  0.00    -0.235 C  
HETATM    6  C   UNL     1      -9.482  14.376  67.505  1.00  0.00    -0.207 C  
HETATM    7  C   UNL     1      -9.953  14.493  68.969  1.00  0.00    -0.162 C  
HETATM    8  C   UNL     1      -9.678  15.612  69.664  1.00  0.00    -0.276 C  
HETATM    9  C   UNL     1     -10.404  16.668  68.883  1.00  0.00    -0.300 C  
HETATM   10  C   UNL     1     -11.728  16.238  68.244  1.00  0.00     0.007 C  
HETATM   11  O   UNL     1      -9.919  17.785  68.739  1.00  0.00    -0.347 OA 
HETATM   12  C   UNL     1     -12.157  14.939  68.323  1.00  0.00    -0.146 C  
HETATM   13  C   UNL     1     -11.375  13.916  69.148  1.00  0.00    -0.331 C  
HETATM   14  C   UNL     1     -12.055  14.059  70.545  1.00  0.00    -0.424 C  
HETATM   15  C   UNL     1     -11.029  12.387  68.882  1.00  0.00    -0.268 C  
HETATM   16  C   UNL     1     -11.772  11.293  69.652  1.00  0.00    -0.350 C  
HETATM   17  O   UNL     1     -12.799  10.669  68.901  1.00  0.00    -0.434 OA 
HETATM   18  C   UNL     1     -10.652  10.337  70.096  1.00  0.00    -0.303 C  
HETATM   19  C   UNL     1      -9.772   9.843  68.930  1.00  0.00    -0.176 C  
HETATM   20  H   UNL     1     -13.261   9.989  69.379  1.00  0.00     0.000 HD 
HETATM   21  C   UNL     1     -10.471   8.372  68.660  1.00  0.00    -0.197 C  
HETATM   22  C   UNL     1      -8.022  10.114  69.005  1.00  0.00    -0.115 C  
HETATM   23  O   UNL     1      -7.628   9.898  70.304  1.00  0.00    -0.164 OA 
HETATM   24  O   UNL     1      -7.726   7.867  69.152  1.00  0.00    -0.096 OA 
HETATM   25  C   UNL     1      -7.773   8.498  70.471  1.00  0.00    -0.084 C  
ENDROOT
BRANCH  22  26
HETATM   26  C   UNL     1      -6.946  11.185  68.165  1.00  0.00    -0.069 C  
HETATM   27  O   UNL     1      -7.366  12.222  67.608  1.00  0.00    -0.105 OA 
BRANCH  26  28
HETATM   28  C   UNL     1      -5.433  10.932  68.005  1.00  0.00    -0.039 C  
BRANCH  28  29
HETATM   29  O   UNL     1      -5.128   9.938  66.929  1.00  0.00    -0.039 OA 
BRANCH  29  30
HETATM   30  C   UNL     1      -5.603  10.150  65.667  1.00  0.00    -0.073 C  
HETATM   31  C   UNL     1      -6.412   9.168  63.425  1.00  0.00    -0.090 C  
HETATM   32  C   UNL     1      -5.977   7.604  65.284  1.00  0.00    -0.038 C  
HETATM   33  O   UNL     1      -6.025  11.255  65.311  1.00  0.00     0.082 OA 
HETATM   34  C   UNL     1      -5.545   8.943  64.689  1.00  0.00    -0.062 C  
ENDBRANCH  29  30
ENDBRANCH  28  29
ENDBRANCH  26  28
ENDBRANCH  22  26
BRANCH  25  35
HETATM   35  C   UNL     1      -6.745   8.202  71.583  1.00  0.00    -0.060 C  
HETATM   36  C   UNL     1      -7.309   8.722  72.950  1.00  0.00     0.148 C  
HETATM   37  C   UNL     1      -6.380   6.731  71.734  1.00  0.00    -0.042 C  
HETATM   38  C   UNL     1      -6.348   8.522  74.112  1.00  0.00    -0.147 C  
HETATM   39  C   UNL     1      -5.899   7.067  74.218  1.00  0.00    -0.069 C  
HETATM   40  C   UNL     1      -5.379   6.539  72.880  1.00  0.00    -0.037 C  
ENDBRANCH  25  35
TORSDOF 5
ENDMDL
MODEL      107
REMARK 921   NORMALIZED FREE ENERGY PREDICTED BY IDOCK:   -2.73 KCAL/MOL
REMARK 922        TOTAL FREE ENERGY PREDICTED BY IDOCK:   -3.85 KCAL/MOL
REMARK 923 INTER-LIGAND FREE ENERGY PREDICTED BY IDOCK:   -4.29 KCAL/MOL
REMARK 924 INTRA-LIGAND FREE ENERGY PREDICTED BY IDOCK:    0.44 KCAL/MOL
REMARK 927      BINDING AFFINITY PREDICTED BY RF-SCORE:    0.00 PKD
ROOT
HETATM    1  C   UNL     1      -6.931  10.433  65.093  1.00  0.00    -0.082 C  
HETATM    2  C   UNL     1      -5.733   9.239  64.722  1.00  0.00    -0.063 C  
HETATM    3  C   UNL     1      -6.348   7.834  65.317  1.00  0.00    -0.038 C  
HETATM    4  C   UNL     1      -6.802   6.291  65.039  1.00  0.00    -0.051 C  
HETATM    5  C   UNL     1      -7.591   6.215  63.679  1.00  0.00    -0.082 C  
HETATM    6  C   UNL     1      -8.651   5.166  63.477  1.00  0.00    -0.082 C  
HETATM    7  C   UNL     1      -9.513   4.956  64.738  1.00  0.00     0.038 C  
HETATM    8  C   UNL     1     -10.736   4.409  64.618  1.00  0.00    -0.044 C  
HETATM    9  C   UNL     1     -10.433   3.049  64.061  1.00  0.00    -0.113 C  
HETATM   10  C   UNL     1      -9.136   2.397  64.551  1.00  0.00    -0.125 C  
HETATM   11  O   UNL     1     -11.169   2.535  63.226  1.00  0.00    -0.289 OA 
HETATM   12  C   UNL     1      -8.281   3.074  65.381  1.00  0.00    -0.091 C  
HETATM   13  C   UNL     1      -8.659   4.453  65.923  1.00  0.00    -0.114 C  
HETATM   14  C   UNL     1      -9.391   4.075  67.248  1.00  0.00    -0.211 C  
HETATM   15  C   UNL     1      -7.799   5.770  66.151  1.00  0.00    -0.101 C  
HETATM   16  C   UNL     1      -7.388   6.176  67.569  1.00  0.00    -0.077 C  
HETATM   17  O   UNL     1      -6.047   5.851  67.887  1.00  0.00    -0.020 OA 
HETATM   18  C   UNL     1      -7.697   7.682  67.619  1.00  0.00    -0.122 C  
HETATM   19  C   UNL     1      -7.026   8.481  66.483  1.00  0.00    -0.075 C  
HETATM   20  H   UNL     1      -5.792   6.103  68.767  1.00  0.00     0.000 HD 
HETATM   21  C   UNL     1      -5.708   9.058  67.292  1.00  0.00    -0.042 C  
HETATM   22  C   UNL     1      -8.042   9.460  65.411  1.00  0.00    -0.118 C  
HETATM   23  O   UNL     1      -9.010  10.050  66.187  1.00  0.00    -0.144 OA 
HETATM   24  O   UNL     1      -7.053  11.324  66.249  1.00  0.00    -0.095 OA 
HETATM   25  C   UNL     1      -8.293  11.001  66.955  1.00  0.00    -0.137 C  
ENDROOT
BRANCH  22  26
HETATM   26  C   UNL     1      -8.545   9.285  63.760  1.00  0.00    -0.192 C  
HETATM   27  O   UNL     1      -7.833   8.687  62.924  1.00  0.00    -0.122 OA 
BRANCH  26  28
HETATM   28  C   UNL     1      -9.855   9.869  63.193  1.00  0.00     0.530 C  
BRANCH  28  29
HETATM   29  O   UNL     1      -9.692  11.273  62.701  1.00  0.00    -0.283 OA 
BRANCH  29  30
HETATM   30  C   UNL     1     -10.201  12.304  63.438  1.00  0.00    -0.323 C  
HETATM   31  C   UNL     1     -12.267  13.533  64.369  1.00  0.00    -0.440 C  
HETATM   32  C   UNL     1     -12.623  11.379  63.221  1.00  0.00     0.284 C  
HETATM   33  O   UNL     1      -9.487  12.982  64.183  1.00  0.00     0.189 OA 
HETATM   34  C   UNL     1     -11.716  12.607  63.257  1.00  0.00    -0.466 C  
ENDBRANCH  29  30
ENDBRANCH  28  29
ENDBRANCH  26  28
ENDBRANCH  22  26
BRANCH  25  35
HETATM   35  C   UNL     1      -9.383  12.049  67.264  1.00  0.00    -0.180 C  
HETATM   36  C   UNL     1     -10.791  11.372  67.132  1.00  0.00    -0.316 C  
HETATM   37  C   UNL     1      -9.277  12.688  68.642  1.00  0.00     0.029 C  
HETATM   38  C   UNL     1     -11.945  12.334  67.370  1.00  0.00    -0.204 C  
HETATM   39  C   UNL     1     -11.802  13.054  68.708  1.00  0.00    -0.355 C  
HETATM   40  C   UNL     1     -10.419  13.688  68.861  1.00  0.00    -0.167 C  
ENDBRANCH  25  35
TORSDOF 5
ENDMDL
MODEL      108
REMARK 921   NORMALIZED FREE ENERGY PREDICTED BY IDOCK:   -2.72 KCAL/MOL
REMARK 922        TOTAL FREE ENERGY PREDICTED BY IDOCK:   -3.84 KCAL/MOL
REMARK 923 INTER-LIGAND FREE ENERGY PREDICTED BY IDOCK:   -3.39 KCAL/MOL
REMARK 924 INTRA-LIGAND FREE ENERGY PREDICTED BY IDOCK:   -0.45 KCAL/MOL
REMARK 927      BINDING AFFINITY PREDICTED BY RF-SCORE:    0.00 PKD
ROOT
HETATM    1  C   UNL     1      -7.971  12.594  66.680  1.00  0.00     0.254 C  
HETATM    2  C   UNL     1      -6.587  11.605  66.355  1.00  0.00     0.121 C  
HETATM    3  C   UNL     1      -6.596  10.474  67.550  1.00  0.00    -0.066 C  
HETATM    4  C   UNL     1      -6.612   8.895  67.965  1.00  0.00    -0.061 C  
HETATM    5  C   UNL     1      -7.632   8.124  67.046  1.00  0.00    -0.096 C  
HETATM    6  C   UNL     1      -8.342   6.903  67.564  1.00  0.00    -0.123 C  
HETATM    7  C   UNL     1      -8.787   7.062  69.032  1.00  0.00    -0.134 C  
HETATM    8  C   UNL     1      -9.780   6.292  69.509  1.00  0.00    -0.169 C  
HETATM    9  C   UNL     1      -9.217   4.907  69.368  1.00  0.00    -0.109 C  
HETATM   10  C   UNL     1      -7.707   4.772  69.593  1.00  0.00    -0.059 C  
HETATM   11  O   UNL     1      -9.934   3.969  69.043  1.00  0.00    -0.073 OA 
HETATM   12  C   UNL     1      -6.930   5.877  69.822  1.00  0.00    -0.066 C  
HETATM   13  C   UNL     1      -7.572   7.258  69.967  1.00  0.00    -0.090 C  
HETATM   14  C   UNL     1      -7.831   7.318  71.504  1.00  0.00    -0.092 C  
HETATM   15  C   UNL     1      -7.122   8.692  69.449  1.00  0.00    -0.053 C  
HETATM   16  C   UNL     1      -6.539   9.709  70.434  1.00  0.00    -0.096 C  
HETATM   17  O   UNL     1      -5.126   9.804  70.382  1.00  0.00    -0.031 OA 
HETATM   18  C   UNL     1      -7.268  11.016  70.079  1.00  0.00     0.228 C  
HETATM   19  C   UNL     1      -7.149  11.396  68.589  1.00  0.00    -0.095 C  
HETATM   20  H   UNL     1      -4.764  10.435  70.993  1.00  0.00     0.000 HD 
HETATM   21  C   UNL     1      -5.918  12.492  68.680  1.00  0.00    -0.064 C  
HETATM   22  C   UNL     1      -8.632  11.642  67.649  1.00  0.00    -0.142 C  
HETATM   23  O   UNL     1      -9.528  12.299  68.457  1.00  0.00    -0.192 OA 
HETATM   24  O   UNL     1      -8.087  13.837  67.447  1.00  0.00    -0.171 OA 
HETATM   25  C   UNL     1      -8.975  13.598  68.586  1.00  0.00    -0.025 C  
ENDROOT
BRANCH  22  26
HETATM   26  C   UNL     1      -9.424  10.718  66.412  1.00  0.00    -0.171 C  
HETATM   27  O   UNL     1      -9.901   9.588  66.651  1.00  0.00    -0.197 OA 
BRANCH  26  28
HETATM   28  C   UNL     1      -9.565  11.183  64.948  1.00  0.00    -0.239 C  
BRANCH  28  29
HETATM   29  O   UNL     1      -8.406  10.765  64.099  1.00  0.00    -0.078 OA 
BRANCH  29  30
HETATM   30  C   UNL     1      -8.343   9.481  63.637  1.00  0.00    -0.176 C  
HETATM   31  C   UNL     1      -6.905   7.497  62.839  1.00  0.00    -0.070 C  
HETATM   32  C   UNL     1      -5.745   9.467  63.766  1.00  0.00    -0.086 C  
HETATM   33  O   UNL     1      -9.320   8.726  63.688  1.00  0.00     0.620 OA 
HETATM   34  C   UNL     1      -6.995   9.034  63.004  1.00  0.00    -0.088 C  
ENDBRANCH  29  30
ENDBRANCH  28  29
ENDBRANCH  26  28
ENDBRANCH  22  26
BRANCH  25  35
HETATM   35  C   UNL     1     -10.229  14.451  68.868  1.00  0.00    -0.215 C  
HETATM   36  C   UNL     1     -11.172  13.662  69.840  1.00  0.00    -0.023 C  
HETATM   37  C   UNL     1      -9.942  15.820  69.471  1.00  0.00    -0.283 C  
HETATM   38  C   UNL     1     -12.468  14.398  70.149  1.00  0.00    -0.395 C  
HETATM   39  C   UNL     1     -12.198  15.808  70.665  1.00  0.00    -0.422 C  
HETATM   40  C   UNL     1     -11.250  16.574  69.742  1.00  0.00    -0.166 C  
ENDBRANCH  25  35
TORSDOF 5
ENDMDL
MODEL      109
REMARK 921   NORMALIZED FREE ENERGY PREDICTED BY IDOCK:   -2.51 KCAL/MOL
REMARK 922        TOTAL FREE ENERGY PREDICTED BY IDOCK:   -3.57 KCAL/MOL
REMARK 923 INTER-LIGAND FREE ENERGY PREDICTED BY IDOCK:   -3.70 KCAL/MOL
REMARK 924 INTRA-LIGAND FREE ENERGY PREDICTED BY IDOCK:    0.13 KCAL/MOL
REMARK 927      BINDING AFFINITY PREDICTED BY RF-SCORE:    0.00 PKD
ROOT
HETATM    1  C   UNL     1      -7.066  11.287  67.283  1.00  0.00    -0.114 C  
HETATM    2  C   UNL     1      -5.478  10.641  67.536  1.00  0.00    -0.043 C  
HETATM    3  C   UNL     1      -5.668   9.533  68.736  1.00  0.00    -0.040 C  
HETATM    4  C   UNL     1      -5.492   7.989  69.240  1.00  0.00    -0.030 C  
HETATM    5  C   UNL     1      -5.927   7.011  68.086  1.00  0.00    -0.029 C  
HETATM    6  C   UNL     1      -6.494   5.657  68.417  1.00  0.00    -0.046 C  
HETATM    7  C   UNL     1      -7.455   5.704  69.622  1.00  0.00    -0.075 C  
HETATM    8  C   UNL     1      -8.363   4.724  69.781  1.00  0.00    -0.078 C  
HETATM    9  C   UNL     1      -7.503   3.506  69.952  1.00  0.00    -0.045 C  
HETATM   10  C   UNL     1      -6.181   3.717  70.697  1.00  0.00    -0.019 C  
HETATM   11  O   UNL     1      -7.838   2.430  69.470  1.00  0.00    -0.043 OA 
HETATM   12  C   UNL     1      -5.792   4.970  71.096  1.00  0.00    -0.017 C  
HETATM   13  C   UNL     1      -6.725   6.166  70.903  1.00  0.00    -0.061 C  
HETATM   14  C   UNL     1      -7.520   6.159  72.245  1.00  0.00    -0.095 C  
HETATM   15  C   UNL     1      -6.440   7.668  70.465  1.00  0.00    -0.038 C  
HETATM   16  C   UNL     1      -6.478   8.786  71.510  1.00  0.00    -0.074 C  
HETATM   17  O   UNL     1      -5.195   9.201  71.946  1.00  0.00    -0.044 OA 
HETATM   18  C   UNL     1      -7.296   9.894  70.825  1.00  0.00     0.115 C  
HETATM   19  C   UNL     1      -6.739  10.299  69.444  1.00  0.00    -0.063 C  
HETATM   20  H   UNL     1      -5.219   9.895  72.594  1.00  0.00     0.000 HD 
HETATM   21  C   UNL     1      -5.888  11.646  69.873  1.00  0.00    -0.125 C  
HETATM   22  C   UNL     1      -7.806  10.204  68.032  1.00  0.00    -0.096 C  
HETATM   23  O   UNL     1      -9.050  10.636  68.426  1.00  0.00    -0.143 OA 
HETATM   24  O   UNL     1      -7.711  12.467  67.864  1.00  0.00    -0.114 OA 
HETATM   25  C   UNL     1      -8.872  12.026  68.638  1.00  0.00    -0.021 C  
ENDROOT
BRANCH  22  26
HETATM   26  C   UNL     1      -7.888   9.130  66.672  1.00  0.00    -0.100 C  
HETATM   27  O   UNL     1      -7.715   9.545  65.506  1.00  0.00    -0.101 OA 
BRANCH  26  28
HETATM   28  C   UNL     1      -8.212   7.626  66.782  1.00  0.00    -0.124 C  
BRANCH  28  29
HETATM   29  O   UNL     1      -8.043   6.906  65.481  1.00  0.00    -0.119 OA 
BRANCH  29  30
HETATM   30  C   UNL     1      -8.448   5.606  65.378  1.00  0.00    -0.147 C  
HETATM   31  C   UNL     1      -7.832   3.134  64.991  1.00  0.00    -0.082 C  
HETATM   32  C   UNL     1      -5.992   4.761  65.220  1.00  0.00    -0.022 C  
HETATM   33  O   UNL     1      -9.574   5.248  65.738  1.00  0.00    -0.153 OA 
HETATM   34  C   UNL     1      -7.435   4.610  64.745  1.00  0.00    -0.072 C  
ENDBRANCH  29  30
ENDBRANCH  28  29
ENDBRANCH  26  28
ENDBRANCH  22  26
BRANCH  25  35
HETATM   35  C   UNL     1     -10.297  12.570  68.401  1.00  0.00    -0.237 C  
HETATM   36  C   UNL     1     -10.427  13.972  69.089  1.00  0.00    -0.103 C  
HETATM   37  C   UNL     1     -10.688  12.707  66.936  1.00  0.00    -0.264 C  
HETATM   38  C   UNL     1     -11.815  14.580  68.957  1.00  0.00    -0.354 C  
HETATM   39  C   UNL     1     -12.260  14.637  67.499  1.00  0.00    -0.081 C  
HETATM   40  C   UNL     1     -12.104  13.282  66.808  1.00  0.00    -0.403 C  
ENDBRANCH  25  35
TORSDOF 5
ENDMDL
MODEL      110
REMARK 921   NORMALIZED FREE ENERGY PREDICTED BY IDOCK:   -2.35 KCAL/MOL
REMARK 922        TOTAL FREE ENERGY PREDICTED BY IDOCK:   -3.36 KCAL/MOL
REMARK 923 INTER-LIGAND FREE ENERGY PREDICTED BY IDOCK:   -2.80 KCAL/MOL
REMARK 924 INTRA-LIGAND FREE ENERGY PREDICTED BY IDOCK:   -0.56 KCAL/MOL
REMARK 927      BINDING AFFINITY PREDICTED BY RF-SCORE:    0.00 PKD
ROOT
HETATM    1  C   UNL     1     -10.090   5.144  68.998  1.00  0.00    -0.187 C  
HETATM    2  C   UNL     1     -11.012   5.991  67.800  1.00  0.00    -0.333 C  
HETATM    3  C   UNL     1     -10.630   7.575  68.026  1.00  0.00    -0.217 C  
HETATM    4  C   UNL     1     -10.054   8.967  67.395  1.00  0.00    -0.288 C  
HETATM    5  C   UNL     1      -8.797   8.654  66.500  1.00  0.00    -0.163 C  
HETATM    6  C   UNL     1      -7.709   9.681  66.341  1.00  0.00    -0.101 C  
HETATM    7  C   UNL     1      -7.396  10.412  67.662  1.00  0.00    -0.088 C  
HETATM    8  C   UNL     1      -6.205  11.018  67.815  1.00  0.00    -0.051 C  
HETATM    9  C   UNL     1      -6.225  12.057  66.732  1.00  0.00     0.027 C  
HETATM   10  C   UNL     1      -7.589  12.686  66.430  1.00  0.00     0.915 C  
HETATM   11  O   UNL     1      -5.206  12.329  66.106  1.00  0.00     0.101 OA 
HETATM   12  C   UNL     1      -8.720  12.248  67.067  1.00  0.00    -0.199 C  
HETATM   13  C   UNL     1      -8.627  11.195  68.172  1.00  0.00    -0.140 C  
HETATM   14  C   UNL     1      -8.453  12.090  69.439  1.00  0.00     0.930 C  
HETATM   15  C   UNL     1      -9.550   9.951  68.527  1.00  0.00    -0.159 C  
HETATM   16  C   UNL     1     -10.491  10.019  69.732  1.00  0.00    -0.256 C  
HETATM   17  O   UNL     1     -11.840  10.280  69.386  1.00  0.00    -0.458 OA 
HETATM   18  C   UNL     1     -10.275   8.669  70.438  1.00  0.00    -0.218 C  
HETATM   19  C   UNL     1     -10.479   7.455  69.509  1.00  0.00    -0.236 C  
HETATM   20  H   UNL     1     -12.424  10.322  70.134  1.00  0.00     0.000 HD 
HETATM   21  C   UNL     1     -12.026   7.050  69.919  1.00  0.00     0.039 C  
HETATM   22  C   UNL     1      -9.159   6.286  69.328  1.00  0.00    -0.134 C  
HETATM   23  O   UNL     1      -8.587   6.117  70.566  1.00  0.00    -0.134 OA 
HETATM   24  O   UNL     1     -10.456   4.730  70.355  1.00  0.00    -0.186 OA 
HETATM   25  C   UNL     1      -9.576   5.417  71.301  1.00  0.00    -0.157 C  
ENDROOT
BRANCH  22  26
HETATM   26  C   UNL     1      -8.049   5.933  68.042  1.00  0.00    -0.105 C  
HETATM   27  O   UNL     1      -7.105   6.705  67.769  1.00  0.00    -0.079 OA 
BRANCH  26  28
HETATM   28  C   UNL     1      -8.157   4.694  67.129  1.00  0.00    -0.102 C  
BRANCH  28  29
HETATM   29  O   UNL     1      -7.273   4.791  65.925  1.00  0.00    -0.073 OA 
BRANCH  29  30
HETATM   30  C   UNL     1      -7.675   4.215  64.753  1.00  0.00    -0.078 C  
HETATM   31  C   UNL     1      -7.478   2.267  63.078  1.00  0.00    -0.049 C  
HETATM   32  C   UNL     1      -6.277   2.072  65.224  1.00  0.00    -0.023 C  
HETATM   33  O   UNL     1      -8.683   4.602  64.154  1.00  0.00    -0.137 OA 
HETATM   34  C   UNL     1      -6.772   3.081  64.190  1.00  0.00    -0.036 C  
ENDBRANCH  29  30
ENDBRANCH  28  29
ENDBRANCH  26  28
ENDBRANCH  22  26
BRANCH  25  35
HETATM   35  C   UNL     1      -8.725   4.673  72.352  1.00  0.00    -0.124 C  
HETATM   36  C   UNL     1      -7.476   4.046  71.643  1.00  0.00    -0.060 C  
HETATM   37  C   UNL     1      -8.247   5.539  73.510  1.00  0.00    -0.113 C  
HETATM   38  C   UNL     1      -6.589   3.245  72.585  1.00  0.00    -0.022 C  
HETATM   39  C   UNL     1      -6.178   4.072  73.800  1.00  0.00    -0.031 C  
HETATM   40  C   UNL     1      -7.388   4.717  74.478  1.00  0.00    -0.077 C  
ENDBRANCH  25  35
TORSDOF 5
ENDMDL
MODEL      111
REMARK 921   NORMALIZED FREE ENERGY PREDICTED BY IDOCK:   -2.27 KCAL/MOL
REMARK 922        TOTAL FREE ENERGY PREDICTED BY IDOCK:   -3.25 KCAL/MOL
REMARK 923 INTER-LIGAND FREE ENERGY PREDICTED BY IDOCK:   -2.68 KCAL/MOL
REMARK 924 INTRA-LIGAND FREE ENERGY PREDICTED BY IDOCK:   -0.57 KCAL/MOL
REMARK 927      BINDING AFFINITY PREDICTED BY RF-SCORE:    0.00 PKD
ROOT
HETATM    1  C   UNL     1     -10.145  11.373  67.114  1.00  0.00    -0.198 C  
HETATM    2  C   UNL     1      -8.653  10.912  66.362  1.00  0.00    -0.160 C  
HETATM    3  C   UNL     1      -7.766  10.245  67.575  1.00  0.00    -0.094 C  
HETATM    4  C   UNL     1      -6.937   8.957  68.141  1.00  0.00    -0.077 C  
HETATM    5  C   UNL     1      -7.739   7.639  67.824  1.00  0.00    -0.122 C  
HETATM    6  C   UNL     1      -7.614   6.443  68.727  1.00  0.00    -0.093 C  
HETATM    7  C   UNL     1      -7.580   6.836  70.218  1.00  0.00    -0.096 C  
HETATM    8  C   UNL     1      -7.908   5.923  71.150  1.00  0.00    -0.111 C  
HETATM    9  C   UNL     1      -6.863   4.863  70.950  1.00  0.00    -0.040 C  
HETATM   10  C   UNL     1      -5.472   5.361  70.543  1.00  0.00    -0.005 C  
HETATM   11  O   UNL     1      -7.145   3.676  71.063  1.00  0.00    -0.032 OA 
HETATM   12  C   UNL     1      -5.246   6.690  70.299  1.00  0.00    -0.014 C  
HETATM   13  C   UNL     1      -6.353   7.719  70.536  1.00  0.00    -0.037 C  
HETATM   14  C   UNL     1      -6.097   8.112  72.024  1.00  0.00    -0.047 C  
HETATM   15  C   UNL     1      -6.789   9.009  69.715  1.00  0.00    -0.050 C  
HETATM   16  C   UNL     1      -6.440  10.403  70.244  1.00  0.00    -0.141 C  
HETATM   17  O   UNL     1      -5.322  10.990  69.602  1.00  0.00    -0.041 OA 
HETATM   18  C   UNL     1      -7.748  11.193  70.074  1.00  0.00     0.863 C  
HETATM   19  C   UNL     1      -8.303  11.152  68.636  1.00  0.00    -0.154 C  
HETATM   20  H   UNL     1      -5.106  11.855  69.929  1.00  0.00     0.000 HD 
HETATM   21  C   UNL     1      -7.740  12.601  68.080  1.00  0.00    -0.142 C  
HETATM   22  C   UNL     1      -9.953  10.560  68.373  1.00  0.00    -0.164 C  
HETATM   23  O   UNL     1     -10.732  11.042  69.397  1.00  0.00    -0.229 OA 
HETATM   24  O   UNL     1     -10.550  12.649  67.709  1.00  0.00    -0.214 OA 
HETATM   25  C   UNL     1     -10.812  12.433  69.133  1.00  0.00    -0.097 C  
ENDROOT
BRANCH  22  26
HETATM   26  C   UNL     1     -10.600   9.101  67.692  1.00  0.00    -0.242 C  
HETATM   27  O   UNL     1     -11.046   9.072  66.525  1.00  0.00     0.349 OA 
BRANCH  26  28
HETATM   28  C   UNL     1     -10.712   7.769  68.461  1.00  0.00    -0.036 C  
BRANCH  28  29
HETATM   29  O   UNL     1     -11.449   6.720  67.688  1.00  0.00    -0.101 OA 
BRANCH  29  30
HETATM   30  C   UNL     1     -10.915   5.468  67.583  1.00  0.00     0.206 C  
HETATM   31  C   UNL     1      -9.373   3.832  66.323  1.00  0.00    -0.190 C  
HETATM   32  C   UNL     1      -9.351   6.202  65.638  1.00  0.00     0.121 C  
HETATM   33  O   UNL     1     -10.996   4.650  68.505  1.00  0.00     0.886 OA 
HETATM   34  C   UNL     1     -10.241   5.111  66.228  1.00  0.00    -0.289 C  
ENDBRANCH  29  30
ENDBRANCH  28  29
ENDBRANCH  26  28
ENDBRANCH  22  26
BRANCH  25  35
HETATM   35  C   UNL     1     -12.148  12.809  69.808  1.00  0.00    -0.305 C  
HETATM   36  C   UNL     1     -12.326  11.940  71.101  1.00  0.00    -0.303 C  
HETATM   37  C   UNL     1     -12.276  14.278  70.187  1.00  0.00    -0.407 C  
HETATM   38  C   UNL     1     -13.640  12.199  71.822  1.00  0.00    -0.038 C  
HETATM   39  C   UNL     1     -13.826  13.682  72.124  1.00  0.00    -0.642 C  
HETATM   40  C   UNL     1     -13.620  14.542  70.876  1.00  0.00    -0.196 C  
ENDBRANCH  25  35
TORSDOF 5
ENDMDL
MODEL      112
REMARK 921   NORMALIZED FREE ENERGY PREDICTED BY IDOCK:   -1.86 KCAL/MOL
REMARK 922        TOTAL FREE ENERGY PREDICTED BY IDOCK:   -2.73 KCAL/MOL
REMARK 923 INTER-LIGAND FREE ENERGY PREDICTED BY IDOCK:   -2.73 KCAL/MOL
REMARK 924 INTRA-LIGAND FREE ENERGY PREDICTED BY IDOCK:    0.00 KCAL/MOL
REMARK 927      BINDING AFFINITY PREDICTED BY RF-SCORE:    0.00 PKD
ROOT
HETATM    1  C   UNL     1     -10.079  12.818  68.317  1.00  0.00    -0.237 C  
HETATM    2  C   UNL     1      -9.547  12.556  69.944  1.00  0.00     2.619 C  
HETATM    3  C   UNL     1     -10.359  11.212  70.435  1.00  0.00     1.339 C  
HETATM    4  C   UNL     1     -10.295   9.694  71.033  1.00  0.00    -0.292 C  
HETATM    5  C   UNL     1      -9.144   8.897  70.312  1.00  0.00    -0.201 C  
HETATM    6  C   UNL     1      -9.250   7.406  70.142  1.00  0.00    -0.151 C  
HETATM    7  C   UNL     1     -10.678   6.959  69.769  1.00  0.00    -0.276 C  
HETATM    8  C   UNL     1     -10.862   5.771  69.166  1.00  0.00    -0.355 C  
HETATM    9  C   UNL     1     -10.351   4.801  70.192  1.00  0.00    -0.098 C  
HETATM   10  C   UNL     1     -10.598   5.181  71.656  1.00  0.00    -0.226 C  
HETATM   11  O   UNL     1      -9.733   3.799  69.854  1.00  0.00    -0.196 OA 
HETATM   12  C   UNL     1     -11.176   6.381  71.982  1.00  0.00    -0.324 C  
HETATM   13  C   UNL     1     -11.685   7.317  70.885  1.00  0.00    -0.348 C  
HETATM   14  C   UNL     1     -13.160   6.832  70.725  1.00  0.00     0.274 C  
HETATM   15  C   UNL     1     -11.630   8.898  70.735  1.00  0.00    -0.301 C  
HETATM   16  C   UNL     1     -12.894   9.731  70.964  1.00  0.00    -0.291 C  
HETATM   17  O   UNL     1     -12.940  10.357  72.234  1.00  0.00    -0.467 OA 
HETATM   18  C   UNL     1     -12.901  10.713  69.780  1.00  0.00     0.164 C  
HETATM   19  C   UNL     1     -11.594  11.520  69.650  1.00  0.00    -0.403 C  
HETATM   20  H   UNL     1     -13.724  10.873  72.376  1.00  0.00     0.000 HD 
HETATM   21  C   UNL     1     -12.058  12.921  70.390  1.00  0.00    -0.385 C  
HETATM   22  C   UNL     1     -10.696  11.453  68.123  1.00  0.00    -0.202 C  
HETATM   23  O   UNL     1     -11.617  11.465  67.103  1.00  0.00    -0.519 OA 
HETATM   24  O   UNL     1     -11.168  13.650  67.800  1.00  0.00    -0.266 OA 
HETATM   25  C   UNL     1     -12.144  12.781  67.142  1.00  0.00    -0.168 C  
ENDROOT
BRANCH  22  26
HETATM   26  C   UNL     1      -9.208  10.697  67.649  1.00  0.00    -0.146 C  
HETATM   27  O   UNL     1      -9.180   9.514  67.248  1.00  0.00    -0.132 OA 
BRANCH  26  28
HETATM   28  C   UNL     1      -7.832  11.389  67.720  1.00  0.00    -0.117 C  
BRANCH  28  29
HETATM   29  O   UNL     1      -6.851  10.633  68.561  1.00  0.00    -0.062 OA 
BRANCH  29  30
HETATM   30  C   UNL     1      -6.411  11.182  69.731  1.00  0.00    -0.137 C  
HETATM   31  C   UNL     1      -5.568  13.255  71.010  1.00  0.00    -0.189 C  
HETATM   32  C   UNL     1      -6.391  13.573  68.706  1.00  0.00    -0.093 C  
HETATM   33  O   UNL     1      -6.532  10.592  70.809  1.00  0.00    -0.323 OA 
HETATM   34  C   UNL     1      -5.710  12.567  69.630  1.00  0.00    -0.102 C  
ENDBRANCH  29  30
ENDBRANCH  28  29
ENDBRANCH  26  28
ENDBRANCH  22  26
BRANCH  25  35
HETATM   35  C   UNL     1     -12.603  12.984  65.683  1.00  0.00    -0.349 C  
HETATM   36  C   UNL     1     -12.315  14.465  65.260  1.00  0.00    -0.372 C  
HETATM   37  C   UNL     1     -11.944  12.051  64.675  1.00  0.00    -0.326 C  
HETATM   38  C   UNL     1     -12.775  14.787  63.846  1.00  0.00     0.526 C  
HETATM   39  C   UNL     1     -12.197  13.802  62.835  1.00  0.00     0.853 C  
HETATM   40  C   UNL     1     -12.442  12.353  63.256  1.00  0.00    -0.449 C  
ENDBRANCH  25  35
TORSDOF 5
ENDMDL
MODEL      113
REMARK 921   NORMALIZED FREE ENERGY PREDICTED BY IDOCK:   -1.61 KCAL/MOL
REMARK 922        TOTAL FREE ENERGY PREDICTED BY IDOCK:   -2.40 KCAL/MOL
REMARK 923 INTER-LIGAND FREE ENERGY PREDICTED BY IDOCK:   -3.36 KCAL/MOL
REMARK 924 INTRA-LIGAND FREE ENERGY PREDICTED BY IDOCK:    0.96 KCAL/MOL
REMARK 927      BINDING AFFINITY PREDICTED BY RF-SCORE:    0.00 PKD
ROOT
HETATM    1  C   UNL     1      -9.428  15.894  69.561  1.00  0.00    -0.219 C  
HETATM    2  C   UNL     1     -10.646  14.857  70.226  1.00  0.00    -0.024 C  
HETATM    3  C   UNL     1     -10.958  13.766  69.036  1.00  0.00    -0.277 C  
HETATM    4  C   UNL     1     -11.033  12.202  68.573  1.00  0.00    -0.276 C  
HETATM    5  C   UNL     1      -9.780  11.430  69.135  1.00  0.00     0.065 C  
HETATM    6  C   UNL     1      -9.226  10.245  68.392  1.00  0.00    -0.136 C  
HETATM    7  C   UNL     1      -9.220  10.463  66.865  1.00  0.00    -0.170 C  
HETATM    8  C   UNL     1      -8.389   9.736  66.098  1.00  0.00    -0.122 C  
HETATM    9  C   UNL     1      -8.866   8.333  66.339  1.00  0.00    -0.152 C  
HETATM   10  C   UNL     1     -10.374   8.164  66.546  1.00  0.00    -0.162 C  
HETATM   11  O   UNL     1      -8.069   7.404  66.412  1.00  0.00    -0.110 OA 
HETATM   12  C   UNL     1     -11.204   9.254  66.589  1.00  0.00     1.008 C  
HETATM   13  C   UNL     1     -10.653  10.655  66.321  1.00  0.00    -0.229 C  
HETATM   14  C   UNL     1     -10.842  10.772  64.776  1.00  0.00    -0.046 C  
HETATM   15  C   UNL     1     -10.962  12.060  66.999  1.00  0.00    -0.323 C  
HETATM   16  C   UNL     1     -11.818  13.091  66.260  1.00  0.00    -0.408 C  
HETATM   17  O   UNL     1     -13.159  13.146  66.712  1.00  0.00     0.496 OA 
HETATM   18  C   UNL     1     -11.040  14.406  66.443  1.00  0.00    -0.326 C  
HETATM   19  C   UNL     1     -10.737  14.735  67.919  1.00  0.00    -0.259 C  
HETATM   20  H   UNL     1     -13.690  13.786  66.254  1.00  0.00     0.000 HD 
HETATM   21  C   UNL     1     -11.962  15.799  68.222  1.00  0.00     0.032 C  
HETATM   22  C   UNL     1      -9.053  14.991  68.409  1.00  0.00    -0.184 C  
HETATM   23  O   UNL     1      -8.435  15.697  67.406  1.00  0.00    -0.155 OA 
HETATM   24  O   UNL     1      -9.556  17.163  68.841  1.00  0.00    -0.268 OA 
HETATM   25  C   UNL     1      -9.024  16.984  67.489  1.00  0.00    -0.219 C  
ENDROOT
BRANCH  22  26
HETATM   26  C   UNL     1      -7.927  14.050  69.335  1.00  0.00     0.369 C  
HETATM   27  O   UNL     1      -7.520  14.438  70.451  1.00  0.00     0.411 OA 
BRANCH  26  28
HETATM   28  C   UNL     1      -7.322  12.715  68.854  1.00  0.00    -0.016 C  
BRANCH  28  29
HETATM   29  O   UNL     1      -6.437  12.884  67.658  1.00  0.00    -0.129 OA 
BRANCH  29  30
HETATM   30  C   UNL     1      -5.973  11.777  67.008  1.00  0.00    -0.153 C  
HETATM   31  C   UNL     1      -5.152   9.337  67.127  1.00  0.00    -0.036 C  
HETATM   32  C   UNL     1      -6.066  10.351  69.182  1.00  0.00    -0.037 C  
HETATM   33  O   UNL     1      -6.037  11.674  65.779  1.00  0.00     0.146 OA 
HETATM   34  C   UNL     1      -5.320  10.674  67.889  1.00  0.00    -0.036 C  
ENDBRANCH  29  30
ENDBRANCH  28  29
ENDBRANCH  26  28
ENDBRANCH  22  26
BRANCH  25  35
HETATM   35  C   UNL     1      -7.916  17.880  66.896  1.00  0.00    -0.249 C  
HETATM   36  C   UNL     1      -7.466  18.918  67.980  1.00  0.00    -0.277 C  
HETATM   37  C   UNL     1      -6.688  17.127  66.402  1.00  0.00    -0.271 C  
HETATM   38  C   UNL     1      -6.405  19.887  67.481  1.00  0.00    -0.231 C  
HETATM   39  C   UNL     1      -5.207  19.146  66.895  1.00  0.00    -0.156 C  
HETATM   40  C   UNL     1      -5.638  18.105  65.861  1.00  0.00    -0.232 C  
ENDBRANCH  25  35
TORSDOF 5
ENDMDL
MODEL      114
REMARK 921   NORMALIZED FREE ENERGY PREDICTED BY IDOCK:   -1.51 KCAL/MOL
REMARK 922        TOTAL FREE ENERGY PREDICTED BY IDOCK:   -2.27 KCAL/MOL
REMARK 923 INTER-LIGAND FREE ENERGY PREDICTED BY IDOCK:   -5.25 KCAL/MOL
REMARK 924 INTRA-LIGAND FREE ENERGY PREDICTED BY IDOCK:    2.98 KCAL/MOL
REMARK 927      BINDING AFFINITY PREDICTED BY RF-SCORE:    0.00 PKD
ROOT
HETATM    1  C   UNL     1     -10.384  14.271  67.992  1.00  0.00    -0.229 C  
HETATM    2  C   UNL     1      -9.212  13.903  66.771  1.00  0.00    -0.267 C  
HETATM    3  C   UNL     1      -8.683  12.391  67.146  1.00  0.00    -0.195 C  
HETATM    4  C   UNL     1      -8.460  10.843  66.677  1.00  0.00    -0.151 C  
HETATM    5  C   UNL     1      -9.732  10.347  65.893  1.00  0.00    -0.272 C  
HETATM    6  C   UNL     1     -10.115   8.892  65.917  1.00  0.00     0.046 C  
HETATM    7  C   UNL     1      -9.927   8.261  67.312  1.00  0.00    -0.289 C  
HETATM    8  C   UNL     1     -10.605   7.143  67.627  1.00  0.00    -0.318 C  
HETATM    9  C   UNL     1     -10.089   6.153  66.623  1.00  0.00    -0.162 C  
HETATM   10  C   UNL     1      -8.615   6.302  66.232  1.00  0.00    -0.138 C  
HETATM   11  O   UNL     1     -10.836   5.319  66.125  1.00  0.00    -0.257 OA 
HETATM   12  C   UNL     1      -7.860   7.337  66.718  1.00  0.00    -0.113 C  
HETATM   13  C   UNL     1      -8.446   8.302  67.750  1.00  0.00    -0.131 C  
HETATM   14  C   UNL     1      -8.056   7.600  69.087  1.00  0.00    -0.125 C  
HETATM   15  C   UNL     1      -8.309   9.877  67.920  1.00  0.00    -0.114 C  
HETATM   16  C   UNL     1      -7.419  10.450  69.026  1.00  0.00    -0.106 C  
HETATM   17  O   UNL     1      -6.156  10.897  68.565  1.00  0.00    -0.043 OA 
HETATM   18  C   UNL     1      -8.285  11.556  69.653  1.00  0.00     0.913 C  
HETATM   19  C   UNL     1      -8.802  12.582  68.624  1.00  0.00     0.045 C  
HETATM   20  H   UNL     1      -5.604  11.252  69.251  1.00  0.00     0.000 HD 
HETATM   21  C   UNL     1      -7.690  13.781  68.846  1.00  0.00    -0.021 C  
HETATM   22  C   UNL     1     -10.549  12.857  68.495  1.00  0.00    -0.253 C  
HETATM   23  O   UNL     1     -11.063  12.840  69.769  1.00  0.00    -0.012 OA 
HETATM   24  O   UNL     1     -10.229  14.966  69.272  1.00  0.00    -0.229 OA 
HETATM   25  C   UNL     1     -10.563  14.033  70.349  1.00  0.00     1.084 C  
ENDROOT
BRANCH  22  26
HETATM   26  C   UNL     1     -11.736  12.427  67.306  1.00  0.00    -0.349 C  
HETATM   27  O   UNL     1     -11.748  11.293  66.780  1.00  0.00    -0.418 OA 
BRANCH  26  28
HETATM   28  C   UNL     1     -12.819  13.394  66.783  1.00  0.00     0.751 C  
BRANCH  28  29
HETATM   29  O   UNL     1     -12.586  13.804  65.363  1.00  0.00    -0.469 OA 
BRANCH  29  30
HETATM   30  C   UNL     1     -11.457  13.380  64.721  1.00  0.00    -0.336 C  
HETATM   31  C   UNL     1     -10.348  11.735  63.076  1.00  0.00    -0.237 C  
HETATM   32  C   UNL     1     -12.805  11.676  63.290  1.00  0.00    -0.073 C  
HETATM   33  O   UNL     1     -10.429  14.064  64.699  1.00  0.00    -0.434 OA 
HETATM   34  C   UNL     1     -11.520  11.974  64.059  1.00  0.00    -0.484 C  
ENDBRANCH  29  30
ENDBRANCH  28  29
ENDBRANCH  26  28
ENDBRANCH  22  26
BRANCH  25  35
HETATM   35  C   UNL     1     -11.627  14.335  71.425  1.00  0.00     0.151 C  
HETATM   36  C   UNL     1     -12.082  15.828  71.285  1.00  0.00    -0.487 C  
HETATM   37  C   UNL     1     -12.860  13.442  71.366  1.00  0.00    -0.420 C  
HETATM   38  C   UNL     1     -13.101  16.247  72.334  1.00  0.00     0.043 C  
HETATM   39  C   UNL     1     -14.301  15.304  72.351  1.00  0.00    -0.475 C  
HETATM   40  C   UNL     1     -13.866  13.841  72.452  1.00  0.00    -0.681 C  
ENDBRANCH  25  35
TORSDOF 5
ENDMDL
MODEL      115
REMARK 921   NORMALIZED FREE ENERGY PREDICTED BY IDOCK:   -1.20 KCAL/MOL
REMARK 922        TOTAL FREE ENERGY PREDICTED BY IDOCK:   -1.88 KCAL/MOL
REMARK 923 INTER-LIGAND FREE ENERGY PREDICTED BY IDOCK:   -2.56 KCAL/MOL
REMARK 924 INTRA-LIGAND FREE ENERGY PREDICTED BY IDOCK:    0.68 KCAL/MOL
REMARK 927      BINDING AFFINITY PREDICTED BY RF-SCORE:    0.00 PKD
ROOT
HETATM    1  C   UNL     1     -10.833  10.713  66.255  1.00  0.00    -0.027 C  
HETATM    2  C   UNL     1     -12.187  11.724  65.871  1.00  0.00     0.712 C  
HETATM    3  C   UNL     1     -11.856  13.157  66.606  1.00  0.00    -0.449 C  
HETATM    4  C   UNL     1     -11.649  14.771  66.470  1.00  0.00    -0.306 C  
HETATM    5  C   UNL     1     -10.793  15.081  65.185  1.00  0.00    -0.422 C  
HETATM    6  C   UNL     1      -9.913  16.300  65.139  1.00  0.00     0.253 C  
HETATM    7  C   UNL     1      -9.185  16.546  66.476  1.00  0.00    -0.300 C  
HETATM    8  C   UNL     1      -8.065  17.291  66.491  1.00  0.00    -0.313 C  
HETATM    9  C   UNL     1      -8.553  18.624  66.004  1.00  0.00    -0.001 C  
HETATM   10  C   UNL     1      -9.971  19.017  66.432  1.00  0.00    -0.447 C  
HETATM   11  O   UNL     1      -7.858  19.315  65.268  1.00  0.00    -0.209 OA 
HETATM   12  C   UNL     1     -10.755  18.147  67.144  1.00  0.00    -0.309 C  
HETATM   13  C   UNL     1     -10.189  16.809  67.620  1.00  0.00    -0.289 C  
HETATM   14  C   UNL     1      -9.621  17.193  69.022  1.00  0.00    -0.189 C  
HETATM   15  C   UNL     1     -10.830  15.355  67.690  1.00  0.00    -0.304 C  
HETATM   16  C   UNL     1     -11.262  14.777  69.041  1.00  0.00    -0.270 C  
HETATM   17  O   UNL     1     -12.658  14.855  69.272  1.00  0.00    -0.572 OA 
HETATM   18  C   UNL     1     -10.710  13.342  69.013  1.00  0.00    -0.156 C  
HETATM   19  C   UNL     1     -11.160  12.538  67.776  1.00  0.00    -0.291 C  
HETATM   20  H   UNL     1     -12.926  14.496  70.109  1.00  0.00     0.000 HD 
HETATM   21  C   UNL     1     -12.415  11.693  68.437  1.00  0.00     0.784 C  
HETATM   22  C   UNL     1      -9.925  11.824  66.725  1.00  0.00    -0.201 C  
HETATM   23  O   UNL     1      -8.926  11.339  67.535  1.00  0.00    -0.139 OA 
HETATM   24  O   UNL     1     -10.643   9.764  67.355  1.00  0.00    -0.251 OA 
HETATM   25  C   UNL     1      -9.525  10.227  68.177  1.00  0.00    -0.147 C  
ENDROOT
BRANCH  22  26
HETATM   26  C   UNL     1      -9.348  12.209  65.135  1.00  0.00     0.176 C  
HETATM   27  O   UNL     1     -10.081  12.780  64.299  1.00  0.00    -0.335 OA 
BRANCH  26  28
HETATM   28  C   UNL     1      -7.937  11.854  64.622  1.00  0.00     2.311 C  
BRANCH  28  29
HETATM   29  O   UNL     1      -7.946  11.373  63.205  1.00  0.00     0.411 OA 
BRANCH  29  30
HETATM   30  C   UNL     1      -8.430  10.127  62.924  1.00  0.00    -0.178 C  
HETATM   31  C   UNL     1      -7.974   7.612  62.592  1.00  0.00    -0.128 C  
HETATM   32  C   UNL     1      -6.125   9.024  63.413  1.00  0.00    -0.088 C  
HETATM   33  O   UNL     1      -9.641   9.885  62.935  1.00  0.00    -0.212 OA 
HETATM   34  C   UNL     1      -7.382   9.042  62.546  1.00  0.00    -0.098 C  
ENDBRANCH  29  30
ENDBRANCH  28  29
ENDBRANCH  26  28
ENDBRANCH  22  26
BRANCH  25  35
HETATM   35  C   UNL     1      -8.298   9.348  68.501  1.00  0.00    -0.118 C  
HETATM   36  C   UNL     1      -8.601   8.506  69.788  1.00  0.00    -0.131 C  
HETATM   37  C   UNL     1      -7.885   8.399  67.383  1.00  0.00    -0.099 C  
HETATM   38  C   UNL     1      -7.433   7.635  70.225  1.00  0.00    -0.083 C  
HETATM   39  C   UNL     1      -6.946   6.745  69.085  1.00  0.00    -0.078 C  
HETATM   40  C   UNL     1      -6.681   7.552  67.813  1.00  0.00    -0.066 C  
ENDBRANCH  25  35
TORSDOF 5
ENDMDL
MODEL      116
REMARK 921   NORMALIZED FREE ENERGY PREDICTED BY IDOCK:   -0.21 KCAL/MOL
REMARK 922        TOTAL FREE ENERGY PREDICTED BY IDOCK:   -0.59 KCAL/MOL
REMARK 923 INTER-LIGAND FREE ENERGY PREDICTED BY IDOCK:    0.22 KCAL/MOL
REMARK 924 INTRA-LIGAND FREE ENERGY PREDICTED BY IDOCK:   -0.81 KCAL/MOL
REMARK 927      BINDING AFFINITY PREDICTED BY RF-SCORE:    0.00 PKD
ROOT
HETATM    1  C   UNL     1     -12.588  11.546  69.266  1.00  0.00     0.358 C  
HETATM    2  C   UNL     1     -12.491  10.594  67.822  1.00  0.00     2.866 C  
HETATM    3  C   UNL     1     -10.882  10.333  67.605  1.00  0.00    -0.363 C  
HETATM    4  C   UNL     1      -9.663   9.262  67.420  1.00  0.00    -0.208 C  
HETATM    5  C   UNL     1      -9.854   8.073  68.435  1.00  0.00    -0.184 C  
HETATM    6  C   UNL     1      -8.657   7.332  68.964  1.00  0.00    -0.129 C  
HETATM    7  C   UNL     1      -7.480   8.275  69.287  1.00  0.00    -0.085 C  
HETATM    8  C   UNL     1      -6.529   7.872  70.148  1.00  0.00    -0.037 C  
HETATM    9  C   UNL     1      -5.952   6.670  69.460  1.00  0.00    -0.022 C  
HETATM   10  C   UNL     1      -5.893   6.737  67.930  1.00  0.00    -0.020 C  
HETATM   11  O   UNL     1      -5.603   5.687  70.103  1.00  0.00    -0.008 OA 
HETATM   12  C   UNL     1      -6.422   7.805  67.253  1.00  0.00    -0.056 C  
HETATM   13  C   UNL     1      -6.983   9.004  68.019  1.00  0.00    -0.077 C  
HETATM   14  C   UNL     1      -5.719   9.911  68.142  1.00  0.00    -0.039 C  
HETATM   15  C   UNL     1      -8.263   9.912  67.769  1.00  0.00    -0.114 C  
HETATM   16  C   UNL     1      -8.096  11.327  67.207  1.00  0.00    -0.140 C  
HETATM   17  O   UNL     1      -8.380  11.425  65.822  1.00  0.00    -0.362 OA 
HETATM   18  C   UNL     1      -9.016  12.181  68.097  1.00  0.00    -0.195 C  
HETATM   19  C   UNL     1     -10.466  11.660  68.154  1.00  0.00    -0.217 C  
HETATM   20  H   UNL     1      -8.276  12.302  65.473  1.00  0.00     0.000 HD 
HETATM   21  C   UNL     1     -11.163  12.659  67.040  1.00  0.00    -0.348 C  
HETATM   22  C   UNL     1     -11.176  11.282  69.733  1.00  0.00    -0.220 C  
HETATM   23  O   UNL     1     -10.757  12.249  70.615  1.00  0.00     2.022 OA 
HETATM   24  O   UNL     1     -12.632  13.000  69.439  1.00  0.00     0.094 OA 
HETATM   25  C   UNL     1     -11.446  13.413  70.190  1.00  0.00     0.013 C  
ENDROOT
BRANCH  22  26
HETATM   26  C   UNL     1     -11.574   9.796  70.535  1.00  0.00    -0.292 C  
HETATM   27  O   UNL     1     -12.591   9.141  70.220  1.00  0.00     0.319 OA 
BRANCH  26  28
HETATM   28  C   UNL     1     -10.753   9.198  71.696  1.00  0.00    -0.371 C  
BRANCH  28  29
HETATM   29  O   UNL     1     -11.117   7.775  71.983  1.00  0.00    -0.245 OA 
BRANCH  29  30
HETATM   30  C   UNL     1     -10.125   6.853  72.158  1.00  0.00    -0.181 C  
HETATM   31  C   UNL     1      -7.968   6.146  73.378  1.00  0.00    -0.106 C  
HETATM   32  C   UNL     1      -9.137   8.168  74.174  1.00  0.00     0.275 C  
HETATM   33  O   UNL     1     -10.214   5.711  71.697  1.00  0.00    -0.194 OA 
HETATM   34  C   UNL     1      -8.861   7.329  72.929  1.00  0.00    -0.163 C  
ENDBRANCH  29  30
ENDBRANCH  28  29
ENDBRANCH  26  28
ENDBRANCH  22  26
BRANCH  25  35
HETATM   35  C   UNL     1     -11.520  14.234  71.495  1.00  0.00     0.480 C  
HETATM   36  C   UNL     1     -11.702  15.748  71.134  1.00  0.00    -0.476 C  
HETATM   37  C   UNL     1     -12.638  13.820  72.442  1.00  0.00    -0.142 C  
HETATM   38  C   UNL     1     -11.739  16.657  72.353  1.00  0.00    -0.204 C  
HETATM   39  C   UNL     1     -12.793  16.198  73.357  1.00  0.00    -0.621 C  
HETATM   40  C   UNL     1     -12.645  14.712  73.689  1.00  0.00    -0.393 C  
ENDBRANCH  25  35
TORSDOF 5
ENDMDL
MODEL      117
REMARK 921   NORMALIZED FREE ENERGY PREDICTED BY IDOCK:   -0.12 KCAL/MOL
REMARK 922        TOTAL FREE ENERGY PREDICTED BY IDOCK:   -0.48 KCAL/MOL
REMARK 923 INTER-LIGAND FREE ENERGY PREDICTED BY IDOCK:    0.35 KCAL/MOL
REMARK 924 INTRA-LIGAND FREE ENERGY PREDICTED BY IDOCK:   -0.83 KCAL/MOL
REMARK 927      BINDING AFFINITY PREDICTED BY RF-SCORE:    0.00 PKD
ROOT
HETATM    1  C   UNL     1     -10.045  12.538  65.649  1.00  0.00    -0.269 C  
HETATM    2  C   UNL     1     -11.693  13.071  65.626  1.00  0.00    -0.418 C  
HETATM    3  C   UNL     1     -12.177  12.991  67.195  1.00  0.00    -0.200 C  
HETATM    4  C   UNL     1     -12.800  13.757  68.496  1.00  0.00     1.357 C  
HETATM    5  C   UNL     1     -12.130  15.176  68.636  1.00  0.00    -0.184 C  
HETATM    6  C   UNL     1     -11.980  15.810  69.992  1.00  0.00    -0.352 C  
HETATM    7  C   UNL     1     -11.567  14.789  71.073  1.00  0.00    -0.313 C  
HETATM    8  C   UNL     1     -10.976  15.224  72.200  1.00  0.00     0.138 C  
HETATM    9  C   UNL     1     -12.034  16.101  72.805  1.00  0.00    -0.536 C  
HETATM   10  C   UNL     1     -13.482  15.648  72.595  1.00  0.00    -0.655 C  
HETATM   11  O   UNL     1     -11.731  17.138  73.384  1.00  0.00    -0.125 OA 
HETATM   12  C   UNL     1     -13.770  14.552  71.825  1.00  0.00    -0.501 C  
HETATM   13  C   UNL     1     -12.642  13.694  71.249  1.00  0.00    -0.435 C  
HETATM   14  C   UNL     1     -12.441  12.644  72.385  1.00  0.00     0.826 C  
HETATM   15  C   UNL     1     -12.470  12.985  69.836  1.00  0.00    -0.061 C  
HETATM   16  C   UNL     1     -12.644  11.468  69.719  1.00  0.00     0.057 C  
HETATM   17  O   UNL     1     -13.902  11.080  69.196  1.00  0.00     2.546 OA 
HETATM   18  C   UNL     1     -11.446  11.032  68.859  1.00  0.00    -0.364 C  
HETATM   19  C   UNL     1     -11.347  11.791  67.520  1.00  0.00    -0.377 C  
HETATM   20  H   UNL     1     -14.010  10.139  69.123  1.00  0.00     0.000 HD 
HETATM   21  C   UNL     1     -12.049  10.681  66.520  1.00  0.00     2.800 C  
HETATM   22  C   UNL     1      -9.851  12.664  67.142  1.00  0.00    -0.212 C  
HETATM   23  O   UNL     1      -8.802  11.889  67.573  1.00  0.00    -0.158 OA 
HETATM   24  O   UNL     1      -9.479  11.202  65.445  1.00  0.00    -0.210 OA 
HETATM   25  C   UNL     1      -8.803  10.792  66.676  1.00  0.00    -0.145 C  
ENDROOT
BRANCH  22  26
HETATM   26  C   UNL     1      -9.439  14.348  67.084  1.00  0.00    -0.222 C  
HETATM   27  O   UNL     1      -9.643  15.031  66.057  1.00  0.00    -0.295 OA 
BRANCH  26  28
HETATM   28  C   UNL     1      -8.769  15.111  68.245  1.00  0.00    -0.171 C  
BRANCH  28  29
HETATM   29  O   UNL     1      -8.188  16.421  67.812  1.00  0.00    -0.152 OA 
BRANCH  29  30
HETATM   30  C   UNL     1      -8.820  17.580  68.161  1.00  0.00    -0.263 C  
HETATM   31  C   UNL     1      -8.690  19.924  69.225  1.00  0.00     0.224 C  
HETATM   32  C   UNL     1      -6.583  18.681  68.903  1.00  0.00    -0.282 C  
HETATM   33  O   UNL     1      -9.941  17.863  67.725  1.00  0.00    -0.303 OA 
HETATM   34  C   UNL     1      -8.077  18.503  69.167  1.00  0.00    -0.006 C  
ENDBRANCH  29  30
ENDBRANCH  28  29
ENDBRANCH  26  28
ENDBRANCH  22  26
BRANCH  25  35
HETATM   35  C   UNL     1      -7.326  10.346  66.716  1.00  0.00    -0.110 C  
HETATM   36  C   UNL     1      -7.121   9.374  67.929  1.00  0.00    -0.081 C  
HETATM   37  C   UNL     1      -6.837   9.656  65.450  1.00  0.00    -0.094 C  
HETATM   38  C   UNL     1      -5.682   8.909  68.090  1.00  0.00    -0.039 C  
HETATM   39  C   UNL     1      -5.146   8.300  66.798  1.00  0.00    -0.031 C  
HETATM   40  C   UNL     1      -5.373   9.225  65.602  1.00  0.00    -0.040 C  
ENDBRANCH  25  35
TORSDOF 5
ENDMDL
MODEL      118
REMARK 921   NORMALIZED FREE ENERGY PREDICTED BY IDOCK:    0.01 KCAL/MOL
REMARK 922        TOTAL FREE ENERGY PREDICTED BY IDOCK:   -0.31 KCAL/MOL
REMARK 923 INTER-LIGAND FREE ENERGY PREDICTED BY IDOCK:   -4.13 KCAL/MOL
REMARK 924 INTRA-LIGAND FREE ENERGY PREDICTED BY IDOCK:    3.82 KCAL/MOL
REMARK 927      BINDING AFFINITY PREDICTED BY RF-SCORE:    0.00 PKD
ROOT
HETATM    1  C   UNL     1      -7.416  11.617  67.445  1.00  0.00    -0.135 C  
HETATM    2  C   UNL     1      -5.996  10.687  67.793  1.00  0.00    -0.043 C  
HETATM    3  C   UNL     1      -6.543   9.408  68.670  1.00  0.00    -0.053 C  
HETATM    4  C   UNL     1      -6.656   7.787  68.838  1.00  0.00    -0.049 C  
HETATM    5  C   UNL     1      -6.985   7.140  67.441  1.00  0.00    -0.079 C  
HETATM    6  C   UNL     1      -7.766   5.856  67.368  1.00  0.00    -0.097 C  
HETATM    7  C   UNL     1      -8.923   5.817  68.388  1.00  0.00    -0.111 C  
HETATM    8  C   UNL     1      -9.958   4.984  68.180  1.00  0.00    -0.190 C  
HETATM    9  C   UNL     1      -9.302   3.634  68.207  1.00  0.00    -0.170 C  
HETATM   10  C   UNL     1      -8.127   3.479  69.178  1.00  0.00    -0.067 C  
HETATM   11  O   UNL     1      -9.672   2.743  67.451  1.00  0.00    -0.037 OA 
HETATM   12  C   UNL     1      -7.669   4.548  69.902  1.00  0.00    -0.057 C  
HETATM   13  C   UNL     1      -8.393   5.893  69.837  1.00  0.00    -0.121 C  
HETATM   14  C   UNL     1      -9.421   5.748  71.002  1.00  0.00    -0.195 C  
HETATM   15  C   UNL     1      -7.848   7.386  69.796  1.00  0.00    -0.116 C  
HETATM   16  C   UNL     1      -7.943   8.267  71.045  1.00  0.00    -0.101 C  
HETATM   17  O   UNL     1      -6.724   8.375  71.758  1.00  0.00    -0.063 OA 
HETATM   18  C   UNL     1      -8.475   9.605  70.505  1.00  0.00    -0.128 C  
HETATM   19  C   UNL     1      -7.625  10.180  69.354  1.00  0.00    -0.133 C  
HETATM   20  H   UNL     1      -6.782   8.922  72.532  1.00  0.00     0.000 HD 
HETATM   21  C   UNL     1      -6.709  11.261  70.201  1.00  0.00     0.091 C  
HETATM   22  C   UNL     1      -8.412  10.540  67.807  1.00  0.00    -0.114 C  
HETATM   23  O   UNL     1      -9.644  11.079  68.088  1.00  0.00    -0.160 OA 
HETATM   24  O   UNL     1      -8.008  12.746  68.166  1.00  0.00    -0.137 OA 
HETATM   25  C   UNL     1      -9.339  12.353  68.630  1.00  0.00     0.003 C  
ENDROOT
BRANCH  22  26
HETATM   26  C   UNL     1      -8.369   9.785  66.246  1.00  0.00    -0.116 C  
HETATM   27  O   UNL     1      -8.283  10.462  65.200  1.00  0.00    -0.158 OA 
BRANCH  26  28
HETATM   28  C   UNL     1      -8.472   8.262  66.025  1.00  0.00    -0.139 C  
BRANCH  28  29
HETATM   29  O   UNL     1      -7.755   7.811  64.791  1.00  0.00    -0.103 OA 
BRANCH  29  30
HETATM   30  C   UNL     1      -6.679   8.524  64.344  1.00  0.00    -0.066 C  
HETATM   31  C   UNL     1      -5.665  10.104  62.579  1.00  0.00    -0.110 C  
HETATM   32  C   UNL     1      -8.082   9.625  62.450  1.00  0.00    -0.140 C  
HETATM   33  O   UNL     1      -5.693   8.723  65.060  1.00  0.00    -0.050 OA 
HETATM   34  C   UNL     1      -6.741   9.031  62.875  1.00  0.00    -0.093 C  
ENDBRANCH  29  30
ENDBRANCH  28  29
ENDBRANCH  26  28
ENDBRANCH  22  26
BRANCH  25  35
HETATM   35  C   UNL     1     -10.616  13.154  68.301  1.00  0.00    -0.260 C  
HETATM   36  C   UNL     1     -10.775  14.310  69.347  1.00  0.00    -0.155 C  
HETATM   37  C   UNL     1     -10.644  13.754  66.901  1.00  0.00    -0.276 C  
HETATM   38  C   UNL     1     -12.035  15.138  69.141  1.00  0.00    -0.304 C  
HETATM   39  C   UNL     1     -12.124  15.668  67.713  1.00  0.00     0.464 C  
HETATM   40  C   UNL     1     -11.935  14.553  66.684  1.00  0.00    -0.358 C  
ENDBRANCH  25  35
TORSDOF 5
ENDMDL
MODEL      119
REMARK 921   NORMALIZED FREE ENERGY PREDICTED BY IDOCK:    0.33 KCAL/MOL
REMARK 922        TOTAL FREE ENERGY PREDICTED BY IDOCK:    0.10 KCAL/MOL
REMARK 923 INTER-LIGAND FREE ENERGY PREDICTED BY IDOCK:   -1.66 KCAL/MOL
REMARK 924 INTRA-LIGAND FREE ENERGY PREDICTED BY IDOCK:    1.76 KCAL/MOL
REMARK 927      BINDING AFFINITY PREDICTED BY RF-SCORE:    0.00 PKD
ROOT
HETATM    1  C   UNL     1      -7.103  13.973  67.242  1.00  0.00     0.089 C  
HETATM    2  C   UNL     1      -6.094  12.611  66.880  1.00  0.00     0.431 C  
HETATM    3  C   UNL     1      -6.448  11.510  68.049  1.00  0.00    -0.054 C  
HETATM    4  C   UNL     1      -6.952  10.004  68.429  1.00  0.00    -0.067 C  
HETATM    5  C   UNL     1      -8.164   9.610  67.505  1.00  0.00    -0.114 C  
HETATM    6  C   UNL     1      -9.216   8.656  68.003  1.00  0.00    -0.147 C  
HETATM    7  C   UNL     1      -9.584   8.909  69.479  1.00  0.00    -0.171 C  
HETATM    8  C   UNL     1     -10.765   8.473  69.949  1.00  0.00    -0.224 C  
HETATM    9  C   UNL     1     -10.659   6.986  69.771  1.00  0.00    -0.233 C  
HETATM   10  C   UNL     1      -9.265   6.384  69.976  1.00  0.00    -0.159 C  
HETATM   11  O   UNL     1     -11.633   6.324  69.433  1.00  0.00    -0.403 OA 
HETATM   12  C   UNL     1      -8.182   7.188  70.221  1.00  0.00    -0.131 C  
HETATM   13  C   UNL     1      -8.365   8.695  70.404  1.00  0.00    -0.133 C  
HETATM   14  C   UNL     1      -8.586   8.795  71.945  1.00  0.00    -0.169 C  
HETATM   15  C   UNL     1      -7.494   9.932  69.914  1.00  0.00    -0.156 C  
HETATM   16  C   UNL     1      -6.621  10.694  70.914  1.00  0.00     0.464 C  
HETATM   17  O   UNL     1      -5.249  10.348  70.849  1.00  0.00    -0.062 OA 
HETATM   18  C   UNL     1      -6.910  12.171  70.596  1.00  0.00     1.859 C  
HETATM   19  C   UNL     1      -6.685  12.532  69.114  1.00  0.00    -0.089 C  
HETATM   20  H   UNL     1      -4.707  10.820  71.470  1.00  0.00     0.000 HD 
HETATM   21  C   UNL     1      -5.175  13.190  69.216  1.00  0.00    -0.074 C  
HETATM   22  C   UNL     1      -8.022  13.248  68.197  1.00  0.00    -0.150 C  
HETATM   23  O   UNL     1      -8.667  14.130  69.029  1.00  0.00    -0.040 OA 
HETATM   24  O   UNL     1      -6.825  15.171  68.038  1.00  0.00    -0.114 OA 
HETATM   25  C   UNL     1      -7.739  15.190  69.180  1.00  0.00    -0.195 C  
ENDROOT
BRANCH  22  26
HETATM   26  C   UNL     1      -9.066  12.646  66.948  1.00  0.00    -0.218 C  
HETATM   27  O   UNL     1     -10.267  12.986  66.886  1.00  0.00    -0.239 OA 
BRANCH  26  28
HETATM   28  C   UNL     1      -8.622  11.638  65.868  1.00  0.00     0.065 C  
BRANCH  28  29
HETATM   29  O   UNL     1      -9.180  11.962  64.517  1.00  0.00     0.105 OA 
BRANCH  29  30
HETATM   30  C   UNL     1     -10.424  11.511  64.181  1.00  0.00    -0.353 C  
HETATM   31  C   UNL     1     -12.902  12.038  63.706  1.00  0.00    -0.440 C  
HETATM   32  C   UNL     1     -11.355  13.935  64.016  1.00  0.00    -0.109 C  
HETATM   33  O   UNL     1     -10.602  10.373  63.736  1.00  0.00     0.110 OA 
HETATM   34  C   UNL     1     -11.609  12.488  64.430  1.00  0.00    -0.419 C  
ENDBRANCH  29  30
ENDBRANCH  28  29
ENDBRANCH  26  28
ENDBRANCH  22  26
BRANCH  25  35
HETATM   35  C   UNL     1      -8.666  16.383  69.496  1.00  0.00     0.177 C  
HETATM   36  C   UNL     1      -8.298  17.577  68.550  1.00  0.00    -0.274 C  
HETATM   37  C   UNL     1     -10.153  16.086  69.353  1.00  0.00    -0.271 C  
HETATM   38  C   UNL     1      -9.125  18.827  68.810  1.00  0.00    -0.329 C  
HETATM   39  C   UNL     1     -10.620  18.525  68.763  1.00  0.00     0.127 C  
HETATM   40  C   UNL     1     -10.984  17.339  69.657  1.00  0.00     0.448 C  
ENDBRANCH  25  35
TORSDOF 5
ENDMDL
MODEL      120
REMARK 921   NORMALIZED FREE ENERGY PREDICTED BY IDOCK:    0.60 KCAL/MOL
REMARK 922        TOTAL FREE ENERGY PREDICTED BY IDOCK:    0.45 KCAL/MOL
REMARK 923 INTER-LIGAND FREE ENERGY PREDICTED BY IDOCK:   -2.03 KCAL/MOL
REMARK 924 INTRA-LIGAND FREE ENERGY PREDICTED BY IDOCK:    2.48 KCAL/MOL
REMARK 927      BINDING AFFINITY PREDICTED BY RF-SCORE:    0.00 PKD
ROOT
HETATM    1  C   UNL     1     -12.035  10.987  68.265  1.00  0.00    -0.039 C  
HETATM    2  C   UNL     1     -11.957   9.302  67.869  1.00  0.00     3.135 C  
HETATM    3  C   UNL     1     -10.360   8.924  67.974  1.00  0.00    -0.271 C  
HETATM    4  C   UNL     1      -9.196   7.989  68.635  1.00  0.00    -0.143 C  
HETATM    5  C   UNL     1      -9.473   7.822  70.176  1.00  0.00    -0.160 C  
HETATM    6  C   UNL     1      -8.329   7.616  71.131  1.00  0.00    -0.111 C  
HETATM    7  C   UNL     1      -7.111   8.496  70.784  1.00  0.00    -0.055 C  
HETATM    8  C   UNL     1      -6.202   8.770  71.737  1.00  0.00    -0.073 C  
HETATM    9  C   UNL     1      -5.675   7.409  72.087  1.00  0.00    -0.037 C  
HETATM   10  C   UNL     1      -5.580   6.409  70.931  1.00  0.00    -0.023 C  
HETATM   11  O   UNL     1      -5.393   7.125  73.246  1.00  0.00    -0.041 OA 
HETATM   12  C   UNL     1      -6.035   6.736  69.680  1.00  0.00    -0.019 C  
HETATM   13  C   UNL     1      -6.548   8.147  69.389  1.00  0.00    -0.035 C  
HETATM   14  C   UNL     1      -5.240   8.862  68.925  1.00  0.00    -0.037 C  
HETATM   15  C   UNL     1      -7.772   8.668  68.518  1.00  0.00    -0.100 C  
HETATM   16  C   UNL     1      -7.517   9.309  67.152  1.00  0.00    -0.091 C  
HETATM   17  O   UNL     1      -7.764   8.439  66.061  1.00  0.00    -0.086 OA 
HETATM   18  C   UNL     1      -8.409  10.563  67.168  1.00  0.00    -0.127 C  
HETATM   19  C   UNL     1      -9.886  10.257  67.489  1.00  0.00    -0.204 C  
HETATM   20  H   UNL     1      -7.606   8.837  65.213  1.00  0.00     0.000 HD 
HETATM   21  C   UNL     1     -10.503  10.238  65.958  1.00  0.00    -0.181 C  
HETATM   22  C   UNL     1     -10.650  11.081  68.860  1.00  0.00    -0.207 C  
HETATM   23  O   UNL     1     -10.199  12.379  68.864  1.00  0.00    -0.139 OA 
HETATM   24  O   UNL     1     -12.005  12.165  67.396  1.00  0.00    -0.563 OA 
HETATM   25  C   UNL     1     -10.815  12.952  67.723  1.00  0.00    -0.229 C  
ENDROOT
BRANCH  22  26
HETATM   26  C   UNL     1     -11.144  10.557  70.438  1.00  0.00    -0.244 C  
HETATM   27  O   UNL     1     -10.353   9.964  71.203  1.00  0.00    -0.154 OA 
BRANCH  26  28
HETATM   28  C   UNL     1     -12.571  10.737  70.997  1.00  0.00    -0.420 C  
BRANCH  28  29
HETATM   29  O   UNL     1     -13.111   9.482  71.608  1.00  0.00    -0.351 OA 
BRANCH  29  30
HETATM   30  C   UNL     1     -12.242   8.537  72.074  1.00  0.00    -0.366 C  
HETATM   31  C   UNL     1     -11.413   6.098  72.031  1.00  0.00    -0.366 C  
HETATM   32  C   UNL     1     -13.104   6.774  70.366  1.00  0.00     0.997 C  
HETATM   33  O   UNL     1     -11.239   8.845  72.726  1.00  0.00     0.079 OA 
HETATM   34  C   UNL     1     -12.605   7.053  71.782  1.00  0.00    -0.388 C  
ENDBRANCH  29  30
ENDBRANCH  28  29
ENDBRANCH  26  28
ENDBRANCH  22  26
BRANCH  25  35
HETATM   35  C   UNL     1     -10.874  14.445  68.109  1.00  0.00    -0.251 C  
HETATM   36  C   UNL     1     -12.099  14.677  69.058  1.00  0.00    -0.270 C  
HETATM   37  C   UNL     1      -9.620  14.973  68.793  1.00  0.00    -0.220 C  
HETATM   38  C   UNL     1     -12.278  16.133  69.463  1.00  0.00     0.171 C  
HETATM   39  C   UNL     1     -10.998  16.704  70.064  1.00  0.00    -0.148 C  
HETATM   40  C   UNL     1      -9.789  16.452  69.162  1.00  0.00    -0.272 C  
ENDBRANCH  25  35
TORSDOF 5
ENDMDL
MODEL      121
REMARK 921   NORMALIZED FREE ENERGY PREDICTED BY IDOCK:    1.02 KCAL/MOL
REMARK 922        TOTAL FREE ENERGY PREDICTED BY IDOCK:    1.00 KCAL/MOL
REMARK 923 INTER-LIGAND FREE ENERGY PREDICTED BY IDOCK:    0.12 KCAL/MOL
REMARK 924 INTRA-LIGAND FREE ENERGY PREDICTED BY IDOCK:    0.87 KCAL/MOL
REMARK 927      BINDING AFFINITY PREDICTED BY RF-SCORE:    0.00 PKD
ROOT
HETATM    1  C   UNL     1     -10.431   5.365  65.695  1.00  0.00     0.271 C  
HETATM    2  C   UNL     1     -10.943   3.854  66.368  1.00  0.00     2.270 C  
HETATM    3  C   UNL     1      -9.782   3.475  67.469  1.00  0.00    -0.067 C  
HETATM    4  C   UNL     1      -9.403   3.105  69.014  1.00  0.00    -0.230 C  
HETATM    5  C   UNL     1     -10.208   4.044  69.988  1.00  0.00     0.370 C  
HETATM    6  C   UNL     1      -9.635   4.409  71.331  1.00  0.00    -0.234 C  
HETATM    7  C   UNL     1      -8.121   4.693  71.264  1.00  0.00    -0.096 C  
HETATM    8  C   UNL     1      -7.545   5.434  72.227  1.00  0.00    -0.100 C  
HETATM    9  C   UNL     1      -7.784   4.612  73.459  1.00  0.00    -0.091 C  
HETATM   10  C   UNL     1      -7.747   3.092  73.269  1.00  0.00    -0.056 C  
HETATM   11  O   UNL     1      -8.040   5.149  74.531  1.00  0.00    -0.101 OA 
HETATM   12  C   UNL     1      -7.590   2.544  72.023  1.00  0.00    -0.045 C  
HETATM   13  C   UNL     1      -7.337   3.441  70.810  1.00  0.00    -0.037 C  
HETATM   14  C   UNL     1      -5.778   3.515  70.800  1.00  0.00    -0.013 C  
HETATM   15  C   UNL     1      -7.873   3.373  69.315  1.00  0.00    -0.054 C  
HETATM   16  C   UNL     1      -6.944   2.901  68.193  1.00  0.00    -0.049 C  
HETATM   17  O   UNL     1      -7.165   1.558  67.800  1.00  0.00    -0.038 OA 
HETATM   18  C   UNL     1      -7.179   3.929  67.073  1.00  0.00    -0.064 C  
HETATM   19  C   UNL     1      -8.663   4.079  66.683  1.00  0.00    -0.116 C  
HETATM   20  H   UNL     1      -6.589   1.266  67.104  1.00  0.00     0.000 HD 
HETATM   21  C   UNL     1      -8.698   3.106  65.349  1.00  0.00    -0.120 C  
HETATM   22  C   UNL     1      -9.410   5.684  66.762  1.00  0.00    -0.134 C  
HETATM   23  O   UNL     1      -8.485   6.592  66.308  1.00  0.00    -0.118 OA 
HETATM   24  O   UNL     1      -9.628   5.646  64.502  1.00  0.00     0.613 OA 
HETATM   25  C   UNL     1      -8.395   6.316  64.920  1.00  0.00    -0.076 C  
ENDROOT
BRANCH  22  26
HETATM   26  C   UNL     1     -10.562   6.409  67.839  1.00  0.00    -0.258 C  
HETATM   27  O   UNL     1     -10.859   5.873  68.928  1.00  0.00    -0.296 OA 
BRANCH  26  28
HETATM   28  C   UNL     1     -11.322   7.715  67.532  1.00  0.00     0.702 C  
BRANCH  28  29
HETATM   29  O   UNL     1     -10.430   8.917  67.551  1.00  0.00    -0.252 OA 
BRANCH  29  30
HETATM   30  C   UNL     1     -10.576   9.843  68.544  1.00  0.00    -0.217 C  
HETATM   31  C   UNL     1     -10.617  12.320  69.254  1.00  0.00     0.064 C  
HETATM   32  C   UNL     1     -10.485  11.810  66.843  1.00  0.00    -0.256 C  
HETATM   33  O   UNL     1     -11.034   9.540  69.650  1.00  0.00    -0.236 OA 
HETATM   34  C   UNL     1     -10.096  11.287  68.224  1.00  0.00    -0.198 C  
ENDBRANCH  29  30
ENDBRANCH  28  29
ENDBRANCH  26  28
ENDBRANCH  22  26
BRANCH  25  35
HETATM   35  C   UNL     1      -7.943   7.678  64.353  1.00  0.00    -0.123 C  
HETATM   36  C   UNL     1      -7.548   8.619  65.542  1.00  0.00    -0.087 C  
HETATM   37  C   UNL     1      -6.773   7.603  63.380  1.00  0.00    -0.058 C  
HETATM   38  C   UNL     1      -7.130  10.011  65.094  1.00  0.00    -0.135 C  
HETATM   39  C   UNL     1      -6.022   9.949  64.048  1.00  0.00    -0.121 C  
HETATM   40  C   UNL     1      -6.382   9.005  62.899  1.00  0.00    -0.090 C  
ENDBRANCH  25  35
TORSDOF 5
ENDMDL
MODEL      122
REMARK 921   NORMALIZED FREE ENERGY PREDICTED BY IDOCK:    1.05 KCAL/MOL
REMARK 922        TOTAL FREE ENERGY PREDICTED BY IDOCK:    1.03 KCAL/MOL
REMARK 923 INTER-LIGAND FREE ENERGY PREDICTED BY IDOCK:   -0.20 KCAL/MOL
REMARK 924 INTRA-LIGAND FREE ENERGY PREDICTED BY IDOCK:    1.24 KCAL/MOL
REMARK 927      BINDING AFFINITY PREDICTED BY RF-SCORE:    0.00 PKD
ROOT
HETATM    1  C   UNL     1     -10.244  15.349  69.431  1.00  0.00    -0.262 C  
HETATM    2  C   UNL     1     -10.709  13.844  70.151  1.00  0.00     0.633 C  
HETATM    3  C   UNL     1     -10.646  12.757  68.917  1.00  0.00    -0.154 C  
HETATM    4  C   UNL     1     -10.043  11.358  68.331  1.00  0.00    -0.207 C  
HETATM    5  C   UNL     1      -8.505  11.273  68.661  1.00  0.00    -0.143 C  
HETATM    6  C   UNL     1      -7.578  10.513  67.751  1.00  0.00    -0.088 C  
HETATM    7  C   UNL     1      -7.909  10.734  66.261  1.00  0.00    -0.156 C  
HETATM    8  C   UNL     1      -6.961  10.508  65.334  1.00  0.00    -0.074 C  
HETATM    9  C   UNL     1      -6.676   9.045  65.509  1.00  0.00    -0.072 C  
HETATM   10  C   UNL     1      -7.873   8.168  65.889  1.00  0.00    -0.094 C  
HETATM   11  O   UNL     1      -5.535   8.612  65.398  1.00  0.00    -0.035 OA 
HETATM   12  C   UNL     1      -9.102   8.725  66.132  1.00  0.00    -0.251 C  
HETATM   13  C   UNL     1      -9.327  10.223  65.921  1.00  0.00    -0.226 C  
HETATM   14  C   UNL     1      -9.782  10.261  64.429  1.00  0.00    -0.381 C  
HETATM   15  C   UNL     1     -10.155  11.294  66.754  1.00  0.00    -0.254 C  
HETATM   16  C   UNL     1     -11.498  11.800  66.222  1.00  0.00    -0.227 C  
HETATM   17  O   UNL     1     -12.619  11.196  66.843  1.00  0.00     1.855 OA 
HETATM   18  C   UNL     1     -11.417  13.323  66.422  1.00  0.00    -0.364 C  
HETATM   19  C   UNL     1     -11.084  13.732  67.871  1.00  0.00    -0.285 C  
HETATM   20  H   UNL     1     -13.453  11.510  66.514  1.00  0.00     0.000 HD 
HETATM   21  C   UNL     1     -12.604  14.072  68.419  1.00  0.00     0.536 C  
HETATM   22  C   UNL     1      -9.668  14.757  68.166  1.00  0.00    -0.217 C  
HETATM   23  O   UNL     1      -9.619  15.691  67.159  1.00  0.00    -0.215 OA 
HETATM   24  O   UNL     1     -11.064  16.413  68.848  1.00  0.00    -0.325 OA 
HETATM   25  C   UNL     1     -10.725  16.535  67.429  1.00  0.00    -0.260 C  
ENDROOT
BRANCH  22  26
HETATM   26  C   UNL     1      -8.105  14.457  68.856  1.00  0.00    -0.095 C  
HETATM   27  O   UNL     1      -7.959  14.287  70.085  1.00  0.00     0.670 OA 
BRANCH  26  28
HETATM   28  C   UNL     1      -6.797  14.418  68.038  1.00  0.00    -0.143 C  
BRANCH  28  29
HETATM   29  O   UNL     1      -5.757  15.352  68.573  1.00  0.00    -0.090 OA 
BRANCH  29  30
HETATM   30  C   UNL     1      -5.989  16.698  68.545  1.00  0.00    -0.125 C  
HETATM   31  C   UNL     1      -6.884  18.750  67.268  1.00  0.00    -0.207 C  
HETATM   32  C   UNL     1      -7.265  16.520  66.284  1.00  0.00     0.059 C  
HETATM   33  O   UNL     1      -5.920  17.388  69.566  1.00  0.00    -0.220 OA 
HETATM   34  C   UNL     1      -6.298  17.321  67.154  1.00  0.00    -0.195 C  
ENDBRANCH  29  30
ENDBRANCH  28  29
ENDBRANCH  26  28
ENDBRANCH  22  26
BRANCH  25  35
HETATM   35  C   UNL     1     -10.278  17.863  66.783  1.00  0.00    -0.360 C  
HETATM   36  C   UNL     1     -11.332  18.282  65.701  1.00  0.00     1.275 C  
HETATM   37  C   UNL     1     -10.098  19.016  67.761  1.00  0.00    -0.453 C  
HETATM   38  C   UNL     1     -10.961  19.561  64.964  1.00  0.00     0.876 C  
HETATM   39  C   UNL     1     -10.685  20.703  65.938  1.00  0.00     0.670 C  
HETATM   40  C   UNL     1      -9.684  20.293  67.019  1.00  0.00    -0.598 C  
ENDBRANCH  25  35
TORSDOF 5
ENDMDL
MODEL      123
REMARK 921   NORMALIZED FREE ENERGY PREDICTED BY IDOCK:    1.39 KCAL/MOL
REMARK 922        TOTAL FREE ENERGY PREDICTED BY IDOCK:    1.48 KCAL/MOL
REMARK 923 INTER-LIGAND FREE ENERGY PREDICTED BY IDOCK:    1.28 KCAL/MOL
REMARK 924 INTRA-LIGAND FREE ENERGY PREDICTED BY IDOCK:    0.19 KCAL/MOL
REMARK 927      BINDING AFFINITY PREDICTED BY RF-SCORE:    0.00 PKD
ROOT
HETATM    1  C   UNL     1      -8.269  13.658  65.845  1.00  0.00     2.126 C  
HETATM    2  C   UNL     1      -7.252  12.283  65.567  1.00  0.00     3.064 C  
HETATM    3  C   UNL     1      -7.395  11.378  66.932  1.00  0.00    -0.147 C  
HETATM    4  C   UNL     1      -7.770   9.940  67.611  1.00  0.00    -0.091 C  
HETATM    5  C   UNL     1      -9.073   9.369  66.936  1.00  0.00    -0.160 C  
HETATM    6  C   UNL     1     -10.002   8.480  67.718  1.00  0.00    -0.241 C  
HETATM    7  C   UNL     1     -10.184   8.960  69.172  1.00  0.00    -0.214 C  
HETATM    8  C   UNL     1     -11.271   8.574  69.863  1.00  0.00    -0.035 C  
HETATM    9  C   UNL     1     -11.116   7.082  69.909  1.00  0.00    -0.264 C  
HETATM   10  C   UNL     1      -9.680   6.559  70.012  1.00  0.00    -0.178 C  
HETATM   11  O   UNL     1     -12.093   6.348  69.817  1.00  0.00    -0.111 OA 
HETATM   12  C   UNL     1      -8.615   7.422  69.976  1.00  0.00    -0.140 C  
HETATM   13  C   UNL     1      -8.845   8.933  69.942  1.00  0.00    -0.154 C  
HETATM   14  C   UNL     1      -8.867   9.277  71.464  1.00  0.00     0.133 C  
HETATM   15  C   UNL     1      -8.108  10.097  69.148  1.00  0.00    -0.134 C  
HETATM   16  C   UNL     1      -7.149  11.034  69.886  1.00  0.00     0.016 C  
HETATM   17  O   UNL     1      -5.782  10.719  69.688  1.00  0.00    -0.039 OA 
HETATM   18  C   UNL     1      -7.550  12.432  69.383  1.00  0.00     0.489 C  
HETATM   19  C   UNL     1      -7.540  12.553  67.846  1.00  0.00    -0.133 C  
HETATM   20  H   UNL     1      -5.187  11.301  70.146  1.00  0.00     0.000 HD 
HETATM   21  C   UNL     1      -6.063  13.259  67.634  1.00  0.00    -0.140 C  
HETATM   22  C   UNL     1      -9.019  13.073  67.019  1.00  0.00    -0.225 C  
HETATM   23  O   UNL     1      -9.591  14.061  67.784  1.00  0.00    -0.206 OA 
HETATM   24  O   UNL     1      -7.948  14.976  66.396  1.00  0.00     0.199 OA 
HETATM   25  C   UNL     1      -8.704  15.157  67.636  1.00  0.00    -0.170 C  
ENDROOT
BRANCH  22  26
HETATM   26  C   UNL     1     -10.187  12.248  66.038  1.00  0.00    -0.243 C  
HETATM   27  O   UNL     1     -10.873  11.309  66.496  1.00  0.00    -0.271 OA 
BRANCH  26  28
HETATM   28  C   UNL     1     -10.440  12.567  64.550  1.00  0.00    -0.341 C  
BRANCH  28  29
HETATM   29  O   UNL     1      -9.437  11.921  63.646  1.00  0.00    -0.162 OA 
BRANCH  29  30
HETATM   30  C   UNL     1      -9.630  10.629  63.247  1.00  0.00    -0.344 C  
HETATM   31  C   UNL     1      -8.615   8.352  62.593  1.00  0.00    -0.037 C  
HETATM   32  C   UNL     1      -7.095  10.088  63.468  1.00  0.00    -0.130 C  
HETATM   33  O   UNL     1     -10.743  10.095  63.300  1.00  0.00     1.059 OA 
HETATM   34  C   UNL     1      -8.389   9.881  62.683  1.00  0.00    -0.161 C  
ENDBRANCH  29  30
ENDBRANCH  28  29
ENDBRANCH  26  28
ENDBRANCH  22  26
BRANCH  25  35
HETATM   35  C   UNL     1      -9.638  16.360  67.885  1.00  0.00    -0.228 C  
HETATM   36  C   UNL     1      -9.082  17.196  69.088  1.00  0.00    -0.029 C  
HETATM   37  C   UNL     1      -9.814  17.284  66.688  1.00  0.00    -0.299 C  
HETATM   38  C   UNL     1      -9.959  18.385  69.450  1.00  0.00     0.065 C  
HETATM   39  C   UNL     1     -10.222  19.272  68.236  1.00  0.00    -0.513 C  
HETATM   40  C   UNL     1     -10.732  18.460  67.045  1.00  0.00    -0.330 C  
ENDBRANCH  25  35
TORSDOF 5
ENDMDL
MODEL      124
REMARK 921   NORMALIZED FREE ENERGY PREDICTED BY IDOCK:    1.66 KCAL/MOL
REMARK 922        TOTAL FREE ENERGY PREDICTED BY IDOCK:    1.83 KCAL/MOL
REMARK 923 INTER-LIGAND FREE ENERGY PREDICTED BY IDOCK:    1.68 KCAL/MOL
REMARK 924 INTRA-LIGAND FREE ENERGY PREDICTED BY IDOCK:    0.15 KCAL/MOL
REMARK 927      BINDING AFFINITY PREDICTED BY RF-SCORE:    0.00 PKD
ROOT
HETATM    1  C   UNL     1     -10.685   8.766  67.076  1.00  0.00    -0.116 C  
HETATM    2  C   UNL     1     -12.146   9.684  67.220  1.00  0.00     4.482 C  
HETATM    3  C   UNL     1     -11.673  11.118  67.874  1.00  0.00    -0.260 C  
HETATM    4  C   UNL     1     -11.622  12.746  67.758  1.00  0.00    -0.405 C  
HETATM    5  C   UNL     1     -11.271  13.153  66.278  1.00  0.00    -0.328 C  
HETATM    6  C   UNL     1     -10.533  14.434  66.002  1.00  0.00    -0.307 C  
HETATM    7  C   UNL     1      -9.411  14.696  67.028  1.00  0.00    -0.249 C  
HETATM    8  C   UNL     1      -8.400  15.521  66.704  1.00  0.00    -0.286 C  
HETATM    9  C   UNL     1      -9.103  16.828  66.478  1.00  0.00    -0.273 C  
HETATM   10  C   UNL     1     -10.313  17.103  67.376  1.00  0.00    -0.333 C  
HETATM   11  O   UNL     1      -8.740  17.588  65.587  1.00  0.00    -0.421 OA 
HETATM   12  C   UNL     1     -10.757  16.158  68.265  1.00  0.00    -0.307 C  
HETATM   13  C   UNL     1      -9.984  14.853  68.455  1.00  0.00    -0.222 C  
HETATM   14  C   UNL     1      -9.000  15.239  69.602  1.00  0.00    -0.119 C  
HETATM   15  C   UNL     1     -10.475  13.355  68.662  1.00  0.00    -0.237 C  
HETATM   16  C   UNL     1     -10.390  12.709  70.047  1.00  0.00     1.887 C  
HETATM   17  O   UNL     1     -11.627  12.678  70.736  1.00  0.00    -0.305 OA 
HETATM   18  C   UNL     1      -9.795  11.320  69.764  1.00  0.00     0.749 C  
HETATM   19  C   UNL     1     -10.587  10.520  68.710  1.00  0.00    -0.233 C  
HETATM   20  H   UNL     1     -11.574  12.277  71.596  1.00  0.00     0.000 HD 
HETATM   21  C   UNL     1     -11.492   9.567  69.709  1.00  0.00    -0.048 C  
HETATM   22  C   UNL     1      -9.739   9.928  67.270  1.00  0.00    -0.171 C  
HETATM   23  O   UNL     1      -8.499   9.495  67.672  1.00  0.00    -0.121 OA 
HETATM   24  O   UNL     1     -10.077   7.804  67.999  1.00  0.00    -0.171 OA 
HETATM   25  C   UNL     1      -8.776   8.324  68.421  1.00  0.00    -0.133 C  
ENDROOT
BRANCH  22  26
HETATM   26  C   UNL     1      -9.758  10.398  65.601  1.00  0.00    -0.236 C  
HETATM   27  O   UNL     1     -10.501   9.828  64.774  1.00  0.00     0.368 OA 
BRANCH  26  28
HETATM   28  C   UNL     1      -8.855  11.499  65.007  1.00  0.00     0.244 C  
BRANCH  28  29
HETATM   29  O   UNL     1      -8.130  11.046  63.778  1.00  0.00     0.176 OA 
BRANCH  29  30
HETATM   30  C   UNL     1      -7.571   9.801  63.752  1.00  0.00    -0.131 C  
HETATM   31  C   UNL     1      -5.519   8.301  64.178  1.00  0.00    -0.051 C  
HETATM   32  C   UNL     1      -5.406  10.653  64.916  1.00  0.00    -0.140 C  
HETATM   33  O   UNL     1      -8.258   8.785  63.609  1.00  0.00    -0.164 OA 
HETATM   34  C   UNL     1      -6.021   9.732  63.865  1.00  0.00    -0.112 C  
ENDBRANCH  29  30
ENDBRANCH  28  29
ENDBRANCH  26  28
ENDBRANCH  22  26
BRANCH  25  35
HETATM   35  C   UNL     1      -7.463   7.530  68.270  1.00  0.00    -0.109 C  
HETATM   36  C   UNL     1      -7.493   6.306  69.248  1.00  0.00    -0.094 C  
HETATM   37  C   UNL     1      -7.188   7.021  66.861  1.00  0.00    -0.077 C  
HETATM   38  C   UNL     1      -6.217   5.477  69.213  1.00  0.00    -0.029 C  
HETATM   39  C   UNL     1      -5.878   5.039  67.792  1.00  0.00    -0.022 C  
HETATM   40  C   UNL     1      -5.880   6.221  66.822  1.00  0.00    -0.020 C  
ENDBRANCH  25  35
TORSDOF 5
ENDMDL
MODEL      125
REMARK 921   NORMALIZED FREE ENERGY PREDICTED BY IDOCK:    1.74 KCAL/MOL
REMARK 922        TOTAL FREE ENERGY PREDICTED BY IDOCK:    1.92 KCAL/MOL
REMARK 923 INTER-LIGAND FREE ENERGY PREDICTED BY IDOCK:   -2.69 KCAL/MOL
REMARK 924 INTRA-LIGAND FREE ENERGY PREDICTED BY IDOCK:    4.61 KCAL/MOL
REMARK 927      BINDING AFFINITY PREDICTED BY RF-SCORE:    0.00 PKD
ROOT
HETATM    1  C   UNL     1      -9.567   6.466  68.196  1.00  0.00    -0.115 C  
HETATM    2  C   UNL     1     -10.453   7.188  66.894  1.00  0.00    -0.364 C  
HETATM    3  C   UNL     1     -10.600   8.770  67.320  1.00  0.00    -0.303 C  
HETATM    4  C   UNL     1     -10.348  10.338  66.940  1.00  0.00    -0.298 C  
HETATM    5  C   UNL     1      -8.909  10.501  66.321  1.00  0.00    -0.172 C  
HETATM    6  C   UNL     1      -8.159  11.795  66.483  1.00  0.00    -0.035 C  
HETATM    7  C   UNL     1      -8.328  12.397  67.893  1.00  0.00    -0.165 C  
HETATM    8  C   UNL     1      -7.417  13.274  68.350  1.00  0.00    -0.124 C  
HETATM    9  C   UNL     1      -7.535  14.406  67.372  1.00  0.00    -0.159 C  
HETATM   10  C   UNL     1      -8.941  14.680  66.828  1.00  0.00    -0.283 C  
HETATM   11  O   UNL     1      -6.542  15.026  67.008  1.00  0.00    -0.207 OA 
HETATM   12  C   UNL     1      -9.994  13.870  67.166  1.00  0.00    -0.239 C  
HETATM   13  C   UNL     1      -9.807  12.742  68.180  1.00  0.00    -0.226 C  
HETATM   14  C   UNL     1     -10.144  13.469  69.519  1.00  0.00     0.669 C  
HETATM   15  C   UNL     1     -10.376  11.258  68.227  1.00  0.00    -0.200 C  
HETATM   16  C   UNL     1     -11.505  10.905  69.198  1.00  0.00    -0.303 C  
HETATM   17  O   UNL     1     -12.781  10.837  68.586  1.00  0.00    -0.437 OA 
HETATM   18  C   UNL     1     -11.041   9.580  69.828  1.00  0.00    -0.216 C  
HETATM   19  C   UNL     1     -10.703   8.495  68.786  1.00  0.00    -0.089 C  
HETATM   20  H   UNL     1     -13.482  10.618  69.189  1.00  0.00     0.000 HD 
HETATM   21  C   UNL     1     -12.112   7.636  68.815  1.00  0.00     2.447 C  
HETATM   22  C   UNL     1      -9.090   7.761  68.810  1.00  0.00    -0.140 C  
HETATM   23  O   UNL     1      -8.737   7.585  70.126  1.00  0.00    -0.140 OA 
HETATM   24  O   UNL     1     -10.044   5.788  69.404  1.00  0.00    -0.179 OA 
HETATM   25  C   UNL     1      -9.598   6.551  70.570  1.00  0.00    -0.169 C  
ENDROOT
BRANCH  22  26
HETATM   26  C   UNL     1      -7.704   7.899  67.775  1.00  0.00    -0.121 C  
HETATM   27  O   UNL     1      -7.069   8.971  67.680  1.00  0.00    -0.074 OA 
BRANCH  26  28
HETATM   28  C   UNL     1      -7.181   6.755  66.882  1.00  0.00    -0.081 C  
BRANCH  28  29
HETATM   29  O   UNL     1      -7.516   5.402  67.426  1.00  0.00    -0.082 OA 
BRANCH  29  30
HETATM   30  C   UNL     1      -6.934   4.986  68.590  1.00  0.00    -0.056 C  
HETATM   31  C   UNL     1      -5.167   5.369  70.426  1.00  0.00    -0.004 C  
HETATM   32  C   UNL     1      -5.483   7.141  68.738  1.00  0.00    -0.018 C  
HETATM   33  O   UNL     1      -7.452   4.117  69.298  1.00  0.00    -0.054 OA 
HETATM   34  C   UNL     1      -5.566   5.631  68.953  1.00  0.00    -0.011 C  
ENDBRANCH  29  30
ENDBRANCH  28  29
ENDBRANCH  26  28
ENDBRANCH  22  26
BRANCH  25  35
HETATM   35  C   UNL     1      -8.781   5.928  71.721  1.00  0.00    -0.139 C  
HETATM   36  C   UNL     1      -9.171   6.637  73.064  1.00  0.00    -0.144 C  
HETATM   37  C   UNL     1      -8.968   4.426  71.891  1.00  0.00    -0.154 C  
HETATM   38  C   UNL     1      -8.384   6.128  74.263  1.00  0.00    -0.116 C  
HETATM   39  C   UNL     1      -8.485   4.611  74.390  1.00  0.00    -0.104 C  
HETATM   40  C   UNL     1      -8.140   3.910  73.075  1.00  0.00    -0.088 C  
ENDBRANCH  25  35
TORSDOF 5
ENDMDL
MODEL      126
REMARK 921   NORMALIZED FREE ENERGY PREDICTED BY IDOCK:    1.92 KCAL/MOL
REMARK 922        TOTAL FREE ENERGY PREDICTED BY IDOCK:    2.16 KCAL/MOL
REMARK 923 INTER-LIGAND FREE ENERGY PREDICTED BY IDOCK:    3.91 KCAL/MOL
REMARK 924 INTRA-LIGAND FREE ENERGY PREDICTED BY IDOCK:   -1.75 KCAL/MOL
REMARK 927      BINDING AFFINITY PREDICTED BY RF-SCORE:    0.00 PKD
ROOT
HETATM    1  C   UNL     1      -5.664  14.836  69.572  1.00  0.00    -0.098 C  
HETATM    2  C   UNL     1      -6.425  13.280  69.609  1.00  0.00    -0.053 C  
HETATM    3  C   UNL     1      -8.015  13.588  69.328  1.00  0.00     0.471 C  
HETATM    4  C   UNL     1      -9.342  13.312  68.416  1.00  0.00    -0.157 C  
HETATM    5  C   UNL     1      -8.937  13.304  66.895  1.00  0.00    -0.212 C  
HETATM    6  C   UNL     1      -9.930  13.727  65.846  1.00  0.00    -0.308 C  
HETATM    7  C   UNL     1     -10.763  14.948  66.288  1.00  0.00    -0.320 C  
HETATM    8  C   UNL     1     -11.360  15.711  65.355  1.00  0.00    -0.089 C  
HETATM    9  C   UNL     1     -12.307  14.747  64.701  1.00  0.00    -0.333 C  
HETATM   10  C   UNL     1     -12.931  13.692  65.620  1.00  0.00    -0.296 C  
HETATM   11  O   UNL     1     -12.511  14.792  63.493  1.00  0.00    -0.642 OA 
HETATM   12  C   UNL     1     -12.564  13.603  66.937  1.00  0.00    -0.012 C  
HETATM   13  C   UNL     1     -11.604  14.627  67.543  1.00  0.00    -0.396 C  
HETATM   14  C   UNL     1     -12.597  15.715  68.059  1.00  0.00     1.344 C  
HETATM   15  C   UNL     1     -10.407  14.471  68.578  1.00  0.00    -0.242 C  
HETATM   16  C   UNL     1     -10.589  14.927  70.028  1.00  0.00    -0.086 C  
HETATM   17  O   UNL     1     -10.841  13.865  70.931  1.00  0.00     0.449 OA 
HETATM   18  C   UNL     1      -9.298  15.710  70.326  1.00  0.00     0.639 C  
HETATM   19  C   UNL     1      -8.016  14.901  70.044  1.00  0.00     0.351 C  
HETATM   20  H   UNL     1     -10.954  14.149  71.830  1.00  0.00     0.000 HD 
HETATM   21  C   UNL     1      -7.669  14.389  71.574  1.00  0.00     3.913 C  
HETATM   22  C   UNL     1      -6.815  15.567  68.922  1.00  0.00    -0.123 C  
HETATM   23  O   UNL     1      -6.739  16.919  69.155  1.00  0.00    -0.209 OA 
HETATM   24  O   UNL     1      -5.369  15.771  70.661  1.00  0.00    -0.158 OA 
HETATM   25  C   UNL     1      -6.117  17.006  70.426  1.00  0.00     0.242 C  
ENDROOT
BRANCH  22  26
HETATM   26  C   UNL     1      -6.341  15.155  67.305  1.00  0.00     0.187 C  
HETATM   27  O   UNL     1      -5.425  14.333  67.086  1.00  0.00    -0.103 OA 
BRANCH  26  28
HETATM   28  C   UNL     1      -6.963  15.781  66.040  1.00  0.00     2.649 C  
BRANCH  28  29
HETATM   29  O   UNL     1      -8.161  16.625  66.347  1.00  0.00    -0.271 OA 
BRANCH  29  30
HETATM   30  C   UNL     1      -8.086  17.978  66.184  1.00  0.00    -0.168 C  
HETATM   31  C   UNL     1      -8.867  20.328  66.899  1.00  0.00    -0.400 C  
HETATM   32  C   UNL     1      -9.612  18.401  68.248  1.00  0.00    -0.355 C  
HETATM   33  O   UNL     1      -7.183  18.502  65.524  1.00  0.00    -0.515 OA 
HETATM   34  C   UNL     1      -9.220  18.822  66.834  1.00  0.00    -0.316 C  
ENDBRANCH  29  30
ENDBRANCH  28  29
ENDBRANCH  26  28
ENDBRANCH  22  26
BRANCH  25  35
HETATM   35  C   UNL     1      -5.448  18.395  70.358  1.00  0.00    -0.242 C  
HETATM   36  C   UNL     1      -5.815  19.070  68.992  1.00  0.00    -0.234 C  
HETATM   37  C   UNL     1      -5.833  19.340  71.489  1.00  0.00    -0.017 C  
HETATM   38  C   UNL     1      -5.164  20.432  68.801  1.00  0.00    -0.265 C  
HETATM   39  C   UNL     1      -5.464  21.361  69.974  1.00  0.00     0.524 C  
HETATM   40  C   UNL     1      -5.142  20.698  71.314  1.00  0.00    -0.240 C  
ENDBRANCH  25  35
TORSDOF 5
ENDMDL
MODEL      127
REMARK 921   NORMALIZED FREE ENERGY PREDICTED BY IDOCK:    2.01 KCAL/MOL
REMARK 922        TOTAL FREE ENERGY PREDICTED BY IDOCK:    2.28 KCAL/MOL
REMARK 923 INTER-LIGAND FREE ENERGY PREDICTED BY IDOCK:    0.98 KCAL/MOL
REMARK 924 INTRA-LIGAND FREE ENERGY PREDICTED BY IDOCK:    1.30 KCAL/MOL
REMARK 927      BINDING AFFINITY PREDICTED BY RF-SCORE:    0.00 PKD
ROOT
HETATM    1  C   UNL     1     -10.263  16.006  70.552  1.00  0.00     0.432 C  
HETATM    2  C   UNL     1     -11.062  14.542  71.021  1.00  0.00     0.256 C  
HETATM    3  C   UNL     1     -11.228  13.694  69.621  1.00  0.00    -0.147 C  
HETATM    4  C   UNL     1     -10.947  12.316  68.792  1.00  0.00    -0.277 C  
HETATM    5  C   UNL     1      -9.471  11.837  69.062  1.00  0.00     0.172 C  
HETATM    6  C   UNL     1      -8.726  11.056  68.014  1.00  0.00    -0.138 C  
HETATM    7  C   UNL     1      -8.982  11.594  66.591  1.00  0.00    -0.189 C  
HETATM    8  C   UNL     1      -8.098  11.324  65.614  1.00  0.00     0.179 C  
HETATM    9  C   UNL     1      -8.148   9.826  65.533  1.00  0.00    -0.125 C  
HETATM   10  C   UNL     1      -9.516   9.186  65.792  1.00  0.00    -0.322 C  
HETATM   11  O   UNL     1      -7.132   9.175  65.321  1.00  0.00    -0.086 OA 
HETATM   12  C   UNL     1     -10.592   9.952  66.158  1.00  0.00    -0.050 C  
HETATM   13  C   UNL     1     -10.474  11.476  66.208  1.00  0.00    -0.294 C  
HETATM   14  C   UNL     1     -10.892  11.867  64.756  1.00  0.00    -0.359 C  
HETATM   15  C   UNL     1     -11.051  12.548  67.231  1.00  0.00    -0.319 C  
HETATM   16  C   UNL     1     -12.241  13.422  66.827  1.00  0.00    -0.312 C  
HETATM   17  O   UNL     1     -13.476  12.986  67.367  1.00  0.00     2.717 OA 
HETATM   18  C   UNL     1     -11.823  14.833  67.278  1.00  0.00    -0.316 C  
HETATM   19  C   UNL     1     -11.425  14.905  68.765  1.00  0.00    -0.328 C  
HETATM   20  H   UNL     1     -14.214  13.529  67.117  1.00  0.00     0.000 HD 
HETATM   21  C   UNL     1     -12.836  15.476  69.403  1.00  0.00     0.443 C  
HETATM   22  C   UNL     1      -9.819  15.524  69.191  1.00  0.00    -0.246 C  
HETATM   23  O   UNL     1      -9.551  16.581  68.355  1.00  0.00    -0.220 OA 
HETATM   24  O   UNL     1     -10.818  17.309  70.178  1.00  0.00     0.156 OA 
HETATM   25  C   UNL     1     -10.443  17.592  68.792  1.00  0.00    -0.318 C  
ENDROOT
BRANCH  22  26
HETATM   26  C   UNL     1      -8.371  14.772  69.779  1.00  0.00     0.268 C  
HETATM   27  O   UNL     1      -8.325  14.249  70.913  1.00  0.00     2.624 OA 
BRANCH  26  28
HETATM   28  C   UNL     1      -7.046  14.723  68.990  1.00  0.00    -0.127 C  
BRANCH  28  29
HETATM   29  O   UNL     1      -6.511  13.332  68.853  1.00  0.00    -0.088 OA 
BRANCH  29  30
HETATM   30  C   UNL     1      -6.179  12.629  69.975  1.00  0.00    -0.060 C  
HETATM   31  C   UNL     1      -5.685  10.354  71.082  1.00  0.00    -0.017 C  
HETATM   32  C   UNL     1      -5.966  10.411  68.632  1.00  0.00    -0.040 C  
HETATM   33  O   UNL     1      -5.753  13.191  70.989  1.00  0.00    -0.206 OA 
HETATM   34  C   UNL     1      -6.405  11.091  69.927  1.00  0.00    -0.137 C  
ENDBRANCH  29  30
ENDBRANCH  28  29
ENDBRANCH  26  28
ENDBRANCH  22  26
BRANCH  25  35
HETATM   35  C   UNL     1      -9.703  18.877  68.366  1.00  0.00    -0.432 C  
HETATM   36  C   UNL     1      -8.438  18.481  67.528  1.00  0.00    -0.272 C  
HETATM   37  C   UNL     1     -10.542  19.852  67.551  1.00  0.00    -0.492 C  
HETATM   38  C   UNL     1      -7.605  19.678  67.095  1.00  0.00    -0.282 C  
HETATM   39  C   UNL     1      -8.455  20.710  66.359  1.00  0.00     0.092 C  
HETATM   40  C   UNL     1      -9.710  21.077  67.153  1.00  0.00    -0.158 C  
ENDBRANCH  25  35
TORSDOF 5
ENDMDL
MODEL      128
REMARK 921   NORMALIZED FREE ENERGY PREDICTED BY IDOCK:    2.17 KCAL/MOL
REMARK 922        TOTAL FREE ENERGY PREDICTED BY IDOCK:    2.49 KCAL/MOL
REMARK 923 INTER-LIGAND FREE ENERGY PREDICTED BY IDOCK:    2.16 KCAL/MOL
REMARK 924 INTRA-LIGAND FREE ENERGY PREDICTED BY IDOCK:    0.32 KCAL/MOL
REMARK 927      BINDING AFFINITY PREDICTED BY RF-SCORE:    0.00 PKD
ROOT
HETATM    1  C   UNL     1      -8.090  10.914  69.508  1.00  0.00     0.101 C  
HETATM    2  C   UNL     1      -9.001   9.444  69.604  1.00  0.00    -0.181 C  
HETATM    3  C   UNL     1      -9.171   8.958  68.042  1.00  0.00    -0.147 C  
HETATM    4  C   UNL     1      -8.950   7.792  66.920  1.00  0.00    -0.153 C  
HETATM    5  C   UNL     1      -7.521   7.157  67.102  1.00  0.00    -0.098 C  
HETATM    6  C   UNL     1      -6.791   6.587  65.916  1.00  0.00    -0.053 C  
HETATM    7  C   UNL     1      -6.957   7.457  64.653  1.00  0.00    -0.051 C  
HETATM    8  C   UNL     1      -6.056   7.356  63.659  1.00  0.00    -0.049 C  
HETATM    9  C   UNL     1      -6.203   5.925  63.229  1.00  0.00    -0.025 C  
HETATM   10  C   UNL     1      -7.620   5.345  63.302  1.00  0.00    -0.070 C  
HETATM   11  O   UNL     1      -5.225   5.269  62.893  1.00  0.00    -0.012 OA 
HETATM   12  C   UNL     1      -8.655   6.083  63.814  1.00  0.00     0.253 C  
HETATM   13  C   UNL     1      -8.438   7.541  64.222  1.00  0.00     0.211 C  
HETATM   14  C   UNL     1      -8.774   8.287  62.893  1.00  0.00     0.209 C  
HETATM   15  C   UNL     1      -8.981   8.386  65.454  1.00  0.00    -0.103 C  
HETATM   16  C   UNL     1     -10.094   9.415  65.241  1.00  0.00     0.347 C  
HETATM   17  O   UNL     1     -11.374   8.957  65.638  1.00  0.00     2.822 OA 
HETATM   18  C   UNL     1      -9.600  10.648  66.017  1.00  0.00    -0.244 C  
HETATM   19  C   UNL     1      -9.254  10.345  67.489  1.00  0.00    -0.156 C  
HETATM   20  H   UNL     1     -12.065   9.596  65.507  1.00  0.00     0.000 HD 
HETATM   21  C   UNL     1     -10.648  10.855  68.212  1.00  0.00    -0.223 C  
HETATM   22  C   UNL     1      -7.628  10.729  68.081  1.00  0.00    -0.093 C  
HETATM   23  O   UNL     1      -7.259  11.928  67.520  1.00  0.00    -0.105 OA 
HETATM   24  O   UNL     1      -8.543  12.305  69.436  1.00  0.00     0.698 OA 
HETATM   25  C   UNL     1      -8.098  12.873  68.163  1.00  0.00    -0.158 C  
ENDROOT
BRANCH  22  26
HETATM   26  C   UNL     1      -6.256   9.757  68.507  1.00  0.00    -0.046 C  
HETATM   27  O   UNL     1      -5.686   9.033  67.663  1.00  0.00    -0.038 OA 
BRANCH  26  28
HETATM   28  C   UNL     1      -5.668   9.676  69.931  1.00  0.00    -0.040 C  
BRANCH  28  29
HETATM   29  O   UNL     1      -5.543   8.267  70.421  1.00  0.00    -0.022 OA 
BRANCH  29  30
HETATM   30  C   UNL     1      -6.669   7.573  70.757  1.00  0.00    -0.043 C  
HETATM   31  C   UNL     1      -8.665   7.258  72.358  1.00  0.00    -0.138 C  
HETATM   32  C   UNL     1      -7.242   9.252  72.660  1.00  0.00     0.781 C  
HETATM   33  O   UNL     1      -7.200   6.780  69.973  1.00  0.00    -0.072 OA 
HETATM   34  C   UNL     1      -7.223   7.798  72.193  1.00  0.00    -0.079 C  
ENDBRANCH  29  30
ENDBRANCH  28  29
ENDBRANCH  26  28
ENDBRANCH  22  26
BRANCH  25  35
HETATM   35  C   UNL     1      -7.258  14.164  68.064  1.00  0.00    -0.146 C  
HETATM   36  C   UNL     1      -8.053  15.339  68.730  1.00  0.00    -0.165 C  
HETATM   37  C   UNL     1      -5.882  14.076  68.711  1.00  0.00    -0.085 C  
HETATM   38  C   UNL     1      -7.332  16.676  68.646  1.00  0.00    -0.203 C  
HETATM   39  C   UNL     1      -5.916  16.580  69.205  1.00  0.00    -0.165 C  
HETATM   40  C   UNL     1      -5.143  15.414  68.587  1.00  0.00    -0.095 C  
ENDBRANCH  25  35
TORSDOF 5
ENDMDL
MODEL      129
REMARK 921   NORMALIZED FREE ENERGY PREDICTED BY IDOCK:    2.19 KCAL/MOL
REMARK 922        TOTAL FREE ENERGY PREDICTED BY IDOCK:    2.50 KCAL/MOL
REMARK 923 INTER-LIGAND FREE ENERGY PREDICTED BY IDOCK:   -0.11 KCAL/MOL
REMARK 924 INTRA-LIGAND FREE ENERGY PREDICTED BY IDOCK:    2.61 KCAL/MOL
REMARK 927      BINDING AFFINITY PREDICTED BY RF-SCORE:    0.00 PKD
ROOT
HETATM    1  C   UNL     1      -8.552  11.823  68.489  1.00  0.00    -0.123 C  
HETATM    2  C   UNL     1      -8.357  10.579  69.679  1.00  0.00    -0.010 C  
HETATM    3  C   UNL     1      -9.124   9.271  69.041  1.00  0.00    -0.147 C  
HETATM    4  C   UNL     1      -9.046   7.709  68.575  1.00  0.00    -0.131 C  
HETATM    5  C   UNL     1      -7.698   7.462  67.799  1.00  0.00    -0.112 C  
HETATM    6  C   UNL     1      -7.624   6.405  66.731  1.00  0.00    -0.098 C  
HETATM    7  C   UNL     1      -8.891   6.371  65.852  1.00  0.00    -0.142 C  
HETATM    8  C   UNL     1      -8.828   5.824  64.625  1.00  0.00     0.152 C  
HETATM    9  C   UNL     1      -8.459   4.400  64.920  1.00  0.00    -0.126 C  
HETATM   10  C   UNL     1      -9.047   3.806  66.204  1.00  0.00    -0.151 C  
HETATM   11  O   UNL     1      -7.691   3.787  64.187  1.00  0.00    -0.080 OA 
HETATM   12  C   UNL     1      -9.792   4.579  67.058  1.00  0.00    -0.232 C  
HETATM   13  C   UNL     1     -10.142   6.021  66.688  1.00  0.00    -0.226 C  
HETATM   14  C   UNL     1     -11.496   5.828  65.937  1.00  0.00     1.495 C  
HETATM   15  C   UNL     1     -10.205   7.349  67.560  1.00  0.00    -0.289 C  
HETATM   16  C   UNL     1     -11.562   7.934  67.959  1.00  0.00     1.570 C  
HETATM   17  O   UNL     1     -11.937   7.642  69.294  1.00  0.00     0.313 OA 
HETATM   18  C   UNL     1     -11.409   9.437  67.666  1.00  0.00     0.576 C  
HETATM   19  C   UNL     1     -10.186  10.072  68.358  1.00  0.00    -0.196 C  
HETATM   20  H   UNL     1     -12.779   8.005  69.541  1.00  0.00     0.000 HD 
HETATM   21  C   UNL     1     -10.929  10.738  69.674  1.00  0.00    -0.320 C  
HETATM   22  C   UNL     1      -8.982  10.911  67.365  1.00  0.00    -0.136 C  
HETATM   23  O   UNL     1      -9.661  11.606  66.394  1.00  0.00    -0.203 OA 
HETATM   24  O   UNL     1      -9.580  12.860  68.364  1.00  0.00    -0.221 OA 
HETATM   25  C   UNL     1     -10.306  12.644  67.113  1.00  0.00    -0.231 C  
ENDROOT
BRANCH  22  26
HETATM   26  C   UNL     1      -7.362  10.524  66.878  1.00  0.00    -0.110 C  
HETATM   27  O   UNL     1      -7.096  10.214  65.697  1.00  0.00    -0.119 OA 
BRANCH  26  28
HETATM   28  C   UNL     1      -6.159  10.490  67.842  1.00  0.00    -0.047 C  
BRANCH  28  29
HETATM   29  O   UNL     1      -5.759  11.855  68.309  1.00  0.00    -0.049 OA 
BRANCH  29  30
HETATM   30  C   UNL     1      -5.883  12.173  69.631  1.00  0.00    -0.107 C  
HETATM   31  C   UNL     1      -6.519  13.910  71.426  1.00  0.00     0.837 C  
HETATM   32  C   UNL     1      -6.996  14.457  69.068  1.00  0.00    -0.114 C  
HETATM   33  O   UNL     1      -5.839  11.309  70.512  1.00  0.00    -0.142 OA 
HETATM   34  C   UNL     1      -6.039  13.683  69.971  1.00  0.00    -0.137 C  
ENDBRANCH  29  30
ENDBRANCH  28  29
ENDBRANCH  26  28
ENDBRANCH  22  26
BRANCH  25  35
HETATM   35  C   UNL     1     -10.461  13.733  66.031  1.00  0.00    -0.297 C  
HETATM   36  C   UNL     1     -11.471  13.230  64.943  1.00  0.00    -0.342 C  
HETATM   37  C   UNL     1     -10.937  15.083  66.552  1.00  0.00    -0.327 C  
HETATM   38  C   UNL     1     -11.661  14.214  63.798  1.00  0.00     0.142 C  
HETATM   39  C   UNL     1     -12.047  15.597  64.312  1.00  0.00    -0.071 C  
HETATM   40  C   UNL     1     -11.087  16.083  65.399  1.00  0.00    -0.159 C  
ENDBRANCH  25  35
TORSDOF 5
ENDMDL
MODEL      130
REMARK 921   NORMALIZED FREE ENERGY PREDICTED BY IDOCK:    2.72 KCAL/MOL
REMARK 922        TOTAL FREE ENERGY PREDICTED BY IDOCK:    3.19 KCAL/MOL
REMARK 923 INTER-LIGAND FREE ENERGY PREDICTED BY IDOCK:    2.19 KCAL/MOL
REMARK 924 INTRA-LIGAND FREE ENERGY PREDICTED BY IDOCK:    1.00 KCAL/MOL
REMARK 927      BINDING AFFINITY PREDICTED BY RF-SCORE:    0.00 PKD
ROOT
HETATM    1  C   UNL     1     -10.844   5.598  68.956  1.00  0.00    -0.181 C  
HETATM    2  C   UNL     1     -11.742   6.475  67.761  1.00  0.00     0.955 C  
HETATM    3  C   UNL     1     -11.413   8.056  68.073  1.00  0.00     1.182 C  
HETATM    4  C   UNL     1     -10.853   9.490  67.529  1.00  0.00    -0.239 C  
HETATM    5  C   UNL     1      -9.554   9.252  66.671  1.00  0.00    -0.263 C  
HETATM    6  C   UNL     1      -8.489  10.312  66.601  1.00  0.00    -0.124 C  
HETATM    7  C   UNL     1      -8.248  10.991  67.965  1.00  0.00    -0.123 C  
HETATM    8  C   UNL     1      -7.082  11.620  68.193  1.00  0.00    -0.078 C  
HETATM    9  C   UNL     1      -7.088  12.706  67.157  1.00  0.00    -0.028 C  
HETATM   10  C   UNL     1      -8.456  13.313  66.830  1.00  0.00    -0.074 C  
HETATM   11  O   UNL     1      -6.054  13.033  66.586  1.00  0.00     0.342 OA 
HETATM   12  C   UNL     1      -9.599  12.817  67.401  1.00  0.00    -0.199 C  
HETATM   13  C   UNL     1      -9.519  11.717  68.461  1.00  0.00    -0.165 C  
HETATM   14  C   UNL     1      -9.420  12.557  69.772  1.00  0.00     2.269 C  
HETATM   15  C   UNL     1     -10.420  10.434  68.722  1.00  0.00    -0.219 C  
HETATM   16  C   UNL     1     -11.409  10.422  69.891  1.00  0.00    -0.302 C  
HETATM   17  O   UNL     1     -12.750  10.664  69.503  1.00  0.00    -0.630 OA 
HETATM   18  C   UNL     1     -11.183   9.048  70.544  1.00  0.00    -0.301 C  
HETATM   19  C   UNL     1     -11.316   7.873  69.554  1.00  0.00     0.249 C  
HETATM   20  H   UNL     1     -13.364  10.656  70.228  1.00  0.00     0.000 HD 
HETATM   21  C   UNL     1     -12.866   7.409  69.883  1.00  0.00     1.664 C  
HETATM   22  C   UNL     1      -9.958   6.748  69.374  1.00  0.00    -0.157 C  
HETATM   23  O   UNL     1      -9.430   6.537  70.624  1.00  0.00    -0.165 OA 
HETATM   24  O   UNL     1     -11.250   5.113  70.277  1.00  0.00     0.282 OA 
HETATM   25  C   UNL     1     -10.427   5.779  71.288  1.00  0.00    -0.235 C  
ENDROOT
BRANCH  22  26
HETATM   26  C   UNL     1      -8.791   6.484  68.118  1.00  0.00    -0.115 C  
HETATM   27  O   UNL     1      -8.684   5.373  67.555  1.00  0.00    -0.109 OA 
BRANCH  26  28
HETATM   28  C   UNL     1      -7.790   7.553  67.635  1.00  0.00    -0.113 C  
BRANCH  28  29
HETATM   29  O   UNL     1      -6.435   7.390  68.250  1.00  0.00    -0.042 OA 
BRANCH  29  30
HETATM   30  C   UNL     1      -6.073   8.191  69.295  1.00  0.00    -0.038 C  
HETATM   31  C   UNL     1      -5.673   8.459  71.827  1.00  0.00    -0.041 C  
HETATM   32  C   UNL     1      -6.132   6.194  70.962  1.00  0.00    -0.035 C  
HETATM   33  O   UNL     1      -5.531   9.286  69.114  1.00  0.00    -0.036 OA 
HETATM   34  C   UNL     1      -6.420   7.674  70.721  1.00  0.00    -0.038 C  
ENDBRANCH  29  30
ENDBRANCH  28  29
ENDBRANCH  26  28
ENDBRANCH  22  26
BRANCH  25  35
HETATM   35  C   UNL     1      -9.597   5.010  72.337  1.00  0.00    -0.178 C  
HETATM   36  C   UNL     1      -9.332   3.558  71.810  1.00  0.00    -0.198 C  
HETATM   37  C   UNL     1      -8.262   5.654  72.686  1.00  0.00    -0.113 C  
HETATM   38  C   UNL     1      -8.558   2.693  72.794  1.00  0.00    -0.073 C  
HETATM   39  C   UNL     1      -7.260   3.370  73.227  1.00  0.00    -0.054 C  
HETATM   40  C   UNL     1      -7.504   4.800  73.710  1.00  0.00    -0.090 C  
ENDBRANCH  25  35
TORSDOF 5
ENDMDL
MODEL      131
REMARK 921   NORMALIZED FREE ENERGY PREDICTED BY IDOCK:    2.84 KCAL/MOL
REMARK 922        TOTAL FREE ENERGY PREDICTED BY IDOCK:    3.35 KCAL/MOL
REMARK 923 INTER-LIGAND FREE ENERGY PREDICTED BY IDOCK:    1.24 KCAL/MOL
REMARK 924 INTRA-LIGAND FREE ENERGY PREDICTED BY IDOCK:    2.11 KCAL/MOL
REMARK 927      BINDING AFFINITY PREDICTED BY RF-SCORE:    0.00 PKD
ROOT
HETATM    1  C   UNL     1     -11.261  11.617  65.848  1.00  0.00    -0.238 C  
HETATM    2  C   UNL     1     -10.648  10.472  64.702  1.00  0.00    -0.041 C  
HETATM    3  C   UNL     1      -9.222   9.964  65.345  1.00  0.00    -0.264 C  
HETATM    4  C   UNL     1      -8.297   8.719  65.858  1.00  0.00    -0.131 C  
HETATM    5  C   UNL     1      -9.183   7.718  66.690  1.00  0.00    -0.220 C  
HETATM    6  C   UNL     1      -8.565   6.897  67.789  1.00  0.00    -0.122 C  
HETATM    7  C   UNL     1      -7.546   7.704  68.620  1.00  0.00    -0.109 C  
HETATM    8  C   UNL     1      -7.237   7.295  69.863  1.00  0.00    -0.081 C  
HETATM    9  C   UNL     1      -6.635   5.941  69.622  1.00  0.00    -0.047 C  
HETATM   10  C   UNL     1      -5.820   5.790  68.333  1.00  0.00    -0.016 C  
HETATM   11  O   UNL     1      -6.840   5.017  70.400  1.00  0.00    -0.041 OA 
HETATM   12  C   UNL     1      -5.735   6.818  67.432  1.00  0.00    -0.013 C  
HETATM   13  C   UNL     1      -6.362   8.177  67.747  1.00  0.00    -0.053 C  
HETATM   14  C   UNL     1      -5.177   8.908  68.452  1.00  0.00    -0.034 C  
HETATM   15  C   UNL     1      -7.156   9.211  66.838  1.00  0.00    -0.082 C  
HETATM   16  C   UNL     1      -6.471  10.498  66.371  1.00  0.00    -0.105 C  
HETATM   17  O   UNL     1      -6.012  10.444  65.032  1.00  0.00    -0.123 OA 
HETATM   18  C   UNL     1      -7.529  11.585  66.628  1.00  0.00    -0.078 C  
HETATM   19  C   UNL     1      -8.888  11.283  65.965  1.00  0.00    -0.189 C  
HETATM   20  H   UNL     1      -5.587  11.243  64.742  1.00  0.00     0.000 HD 
HETATM   21  C   UNL     1      -8.744  12.207  64.605  1.00  0.00     1.302 C  
HETATM   22  C   UNL     1     -10.340  11.227  66.980  1.00  0.00    -0.227 C  
HETATM   23  O   UNL     1     -10.235  12.238  67.905  1.00  0.00    -0.191 OA 
HETATM   24  O   UNL     1     -11.109  13.073  65.905  1.00  0.00    -0.276 OA 
HETATM   25  C   UNL     1     -10.392  13.417  67.134  1.00  0.00    -0.246 C  
ENDROOT
BRANCH  22  26
HETATM   26  C   UNL     1     -11.353   9.934  67.539  1.00  0.00     0.332 C  
HETATM   27  O   UNL     1     -12.566   9.886  67.244  1.00  0.00     4.878 OA 
BRANCH  26  28
HETATM   28  C   UNL     1     -10.864   8.791  68.452  1.00  0.00     0.034 C  
BRANCH  28  29
HETATM   29  O   UNL     1      -9.935   9.271  69.524  1.00  0.00    -0.174 OA 
BRANCH  29  30
HETATM   30  C   UNL     1     -10.110   8.833  70.806  1.00  0.00    -0.210 C  
HETATM   31  C   UNL     1     -11.694   8.447  72.803  1.00  0.00    -0.245 C  
HETATM   32  C   UNL     1     -12.687   9.162  70.660  1.00  0.00     0.183 C  
HETATM   33  O   UNL     1      -9.251   8.160  71.383  1.00  0.00    -0.137 OA 
HETATM   34  C   UNL     1     -11.426   9.265  71.515  1.00  0.00    -0.454 C  
ENDBRANCH  29  30
ENDBRANCH  28  29
ENDBRANCH  26  28
ENDBRANCH  22  26
BRANCH  25  35
HETATM   35  C   UNL     1     -10.942  14.410  68.179  1.00  0.00    -0.265 C  
HETATM   36  C   UNL     1     -12.227  13.798  68.836  1.00  0.00    -0.235 C  
HETATM   37  C   UNL     1      -9.959  14.780  69.282  1.00  0.00    -0.146 C  
HETATM   38  C   UNL     1     -12.880  14.722  69.853  1.00  0.00    -0.023 C  
HETATM   39  C   UNL     1     -11.881  15.177  70.913  1.00  0.00    -0.373 C  
HETATM   40  C   UNL     1     -10.608  15.743  70.282  1.00  0.00    -0.297 C  
ENDBRANCH  25  35
TORSDOF 5
ENDMDL
MODEL      132
REMARK 921   NORMALIZED FREE ENERGY PREDICTED BY IDOCK:    3.73 KCAL/MOL
REMARK 922        TOTAL FREE ENERGY PREDICTED BY IDOCK:    4.49 KCAL/MOL
REMARK 923 INTER-LIGAND FREE ENERGY PREDICTED BY IDOCK:    0.88 KCAL/MOL
REMARK 924 INTRA-LIGAND FREE ENERGY PREDICTED BY IDOCK:    3.61 KCAL/MOL
REMARK 927      BINDING AFFINITY PREDICTED BY RF-SCORE:    0.00 PKD
ROOT
HETATM    1  C   UNL     1      -8.419  10.399  69.702  1.00  0.00    -0.049 C  
HETATM    2  C   UNL     1      -7.440   9.055  70.189  1.00  0.00    -0.072 C  
HETATM    3  C   UNL     1      -8.138   7.751  69.470  1.00  0.00    -0.126 C  
HETATM    4  C   UNL     1      -7.980   6.462  68.479  1.00  0.00    -0.106 C  
HETATM    5  C   UNL     1      -7.140   6.877  67.214  1.00  0.00    -0.084 C  
HETATM    6  C   UNL     1      -7.370   6.189  65.896  1.00  0.00    -0.080 C  
HETATM    7  C   UNL     1      -8.866   5.931  65.623  1.00  0.00    -0.126 C  
HETATM    8  C   UNL     1      -9.284   5.740  64.359  1.00  0.00     0.644 C  
HETATM    9  C   UNL     1      -8.543   4.499  63.954  1.00  0.00    -0.126 C  
HETATM   10  C   UNL     1      -8.321   3.459  65.057  1.00  0.00    -0.097 C  
HETATM   11  O   UNL     1      -8.108   4.373  62.815  1.00  0.00    -0.070 OA 
HETATM   12  C   UNL     1      -8.711   3.711  66.347  1.00  0.00    -0.121 C  
HETATM   13  C   UNL     1      -9.474   4.991  66.688  1.00  0.00    -0.148 C  
HETATM   14  C   UNL     1     -10.953   4.529  66.501  1.00  0.00     0.956 C  
HETATM   15  C   UNL     1      -9.382   5.976  67.933  1.00  0.00    -0.110 C  
HETATM   16  C   UNL     1     -10.475   5.955  69.005  1.00  0.00    -0.265 C  
HETATM   17  O   UNL     1     -10.107   5.250  70.177  1.00  0.00    -0.218 OA 
HETATM   18  C   UNL     1     -10.782   7.444  69.239  1.00  0.00    -0.197 C  
HETATM   19  C   UNL     1      -9.533   8.277  69.586  1.00  0.00    -0.163 C  
HETATM   20  H   UNL     1     -10.784   5.236  70.842  1.00  0.00     0.000 HD 
HETATM   21  C   UNL     1      -9.681   8.325  71.230  1.00  0.00    -0.225 C  
HETATM   22  C   UNL     1      -9.137   9.683  68.582  1.00  0.00    -0.132 C  
HETATM   23  O   UNL     1     -10.318  10.311  68.269  1.00  0.00    -0.165 OA 
HETATM   24  O   UNL     1      -9.567  11.023  70.365  1.00  0.00     1.347 OA 
HETATM   25  C   UNL     1     -10.739  10.870  69.503  1.00  0.00    -0.206 C  
ENDROOT
BRANCH  22  26
HETATM   26  C   UNL     1      -7.900   9.995  67.406  1.00  0.00    -0.099 C  
HETATM   27  O   UNL     1      -7.630   9.165  66.512  1.00  0.00    -0.092 OA 
BRANCH  26  28
HETATM   28  C   UNL     1      -7.029  11.268  67.392  1.00  0.00    -0.101 C  
BRANCH  28  29
HETATM   29  O   UNL     1      -5.874  11.163  66.445  1.00  0.00    -0.124 OA 
BRANCH  29  30
HETATM   30  C   UNL     1      -5.649   9.984  65.793  1.00  0.00    -0.061 C  
HETATM   31  C   UNL     1      -5.198   8.744  63.579  1.00  0.00    -0.062 C  
HETATM   32  C   UNL     1      -5.188  11.211  63.546  1.00  0.00     0.263 C  
HETATM   33  O   UNL     1      -5.370   8.948  66.406  1.00  0.00    -0.033 OA 
HETATM   34  C   UNL     1      -5.806  10.002  64.246  1.00  0.00    -0.124 C  
ENDBRANCH  29  30
ENDBRANCH  28  29
ENDBRANCH  26  28
ENDBRANCH  22  26
BRANCH  25  35
HETATM   35  C   UNL     1     -11.601  12.061  69.035  1.00  0.00    -0.370 C  
HETATM   36  C   UNL     1     -12.588  12.457  70.187  1.00  0.00     0.046 C  
HETATM   37  C   UNL     1     -10.808  13.296  68.626  1.00  0.00    -0.285 C  
HETATM   38  C   UNL     1     -13.522  13.598  69.812  1.00  0.00     1.984 C  
HETATM   39  C   UNL     1     -12.745  14.811  69.309  1.00  0.00     0.256 C  
HETATM   40  C   UNL     1     -11.754  14.429  68.209  1.00  0.00    -0.376 C  
ENDBRANCH  25  35
TORSDOF 5
ENDMDL
MODEL      133
REMARK 921   NORMALIZED FREE ENERGY PREDICTED BY IDOCK:    4.72 KCAL/MOL
REMARK 922        TOTAL FREE ENERGY PREDICTED BY IDOCK:    5.78 KCAL/MOL
REMARK 923 INTER-LIGAND FREE ENERGY PREDICTED BY IDOCK:    5.61 KCAL/MOL
REMARK 924 INTRA-LIGAND FREE ENERGY PREDICTED BY IDOCK:    0.17 KCAL/MOL
REMARK 927      BINDING AFFINITY PREDICTED BY RF-SCORE:    0.00 PKD
ROOT
HETATM    1  C   UNL     1     -10.923   9.322  67.367  1.00  0.00     0.048 C  
HETATM    2  C   UNL     1     -12.153   8.236  67.923  1.00  0.00     4.329 C  
HETATM    3  C   UNL     1     -11.361   6.822  68.203  1.00  0.00    -0.022 C  
HETATM    4  C   UNL     1     -10.976   5.631  69.253  1.00  0.00    -0.224 C  
HETATM    5  C   UNL     1     -10.617   6.263  70.649  1.00  0.00    -0.301 C  
HETATM    6  C   UNL     1      -9.640   5.572  71.562  1.00  0.00    -0.188 C  
HETATM    7  C   UNL     1      -8.443   4.975  70.795  1.00  0.00    -0.119 C  
HETATM    8  C   UNL     1      -7.297   4.723  71.452  1.00  0.00    -0.068 C  
HETATM    9  C   UNL     1      -7.721   3.701  72.467  1.00  0.00    -0.067 C  
HETATM   10  C   UNL     1      -8.805   2.717  72.016  1.00  0.00    -0.112 C  
HETATM   11  O   UNL     1      -7.250   3.709  73.599  1.00  0.00    -0.052 OA 
HETATM   12  C   UNL     1      -9.395   2.838  70.785  1.00  0.00    -0.221 C  
HETATM   13  C   UNL     1      -8.904   3.893  69.793  1.00  0.00    -0.143 C  
HETATM   14  C   UNL     1      -7.809   3.100  69.014  1.00  0.00    -0.054 C  
HETATM   15  C   UNL     1      -9.687   4.842  68.786  1.00  0.00    -0.235 C  
HETATM   16  C   UNL     1      -9.674   4.537  67.286  1.00  0.00    -0.186 C  
HETATM   17  O   UNL     1     -10.858   3.911  66.823  1.00  0.00     0.694 OA 
HETATM   18  C   UNL     1      -9.396   5.906  66.640  1.00  0.00    -0.156 C  
HETATM   19  C   UNL     1     -10.386   7.002  67.083  1.00  0.00    -0.351 C  
HETATM   20  H   UNL     1     -10.850   3.722  65.892  1.00  0.00     0.000 HD 
HETATM   21  C   UNL     1     -11.423   6.974  65.799  1.00  0.00     4.656 C  
HETATM   22  C   UNL     1      -9.748   8.485  67.814  1.00  0.00    -0.162 C  
HETATM   23  O   UNL     1      -8.608   8.825  67.127  1.00  0.00    -0.116 OA 
HETATM   24  O   UNL     1     -10.488   9.642  66.005  1.00  0.00    -0.157 OA 
HETATM   25  C   UNL     1      -9.089   9.238  65.859  1.00  0.00    -0.197 C  
ENDROOT
BRANCH  22  26
HETATM   26  C   UNL     1      -9.745   9.109  69.433  1.00  0.00    -0.170 C  
HETATM   27  O   UNL     1     -10.811   9.305  70.055  1.00  0.00    -0.227 OA 
BRANCH  26  28
HETATM   28  C   UNL     1      -8.466   9.499  70.202  1.00  0.00    -0.205 C  
BRANCH  28  29
HETATM   29  O   UNL     1      -7.440  10.141  69.321  1.00  0.00    -0.088 OA 
BRANCH  29  30
HETATM   30  C   UNL     1      -6.675  11.157  69.817  1.00  0.00    -0.121 C  
HETATM   31  C   UNL     1      -6.265  13.691  70.052  1.00  0.00    -0.109 C  
HETATM   32  C   UNL     1      -8.369  12.953  68.996  1.00  0.00     0.422 C  
HETATM   33  O   UNL     1      -5.818  10.959  70.684  1.00  0.00    -0.126 OA 
HETATM   34  C   UNL     1      -6.906  12.567  69.202  1.00  0.00    -0.062 C  
ENDBRANCH  29  30
ENDBRANCH  28  29
ENDBRANCH  26  28
ENDBRANCH  22  26
BRANCH  25  35
HETATM   35  C   UNL     1      -7.979  10.204  65.396  1.00  0.00    -0.144 C  
HETATM   36  C   UNL     1      -6.868  10.268  66.499  1.00  0.00    -0.101 C  
HETATM   37  C   UNL     1      -7.328   9.833  64.069  1.00  0.00    -0.128 C  
HETATM   38  C   UNL     1      -5.741  11.234  66.163  1.00  0.00    -0.085 C  
HETATM   39  C   UNL     1      -5.142  10.934  64.793  1.00  0.00    -0.064 C  
HETATM   40  C   UNL     1      -6.221  10.834  63.714  1.00  0.00     0.224 C  
ENDBRANCH  25  35
TORSDOF 5
ENDMDL
MODEL      134
REMARK 921   NORMALIZED FREE ENERGY PREDICTED BY IDOCK:    5.21 KCAL/MOL
REMARK 922        TOTAL FREE ENERGY PREDICTED BY IDOCK:    6.41 KCAL/MOL
REMARK 923 INTER-LIGAND FREE ENERGY PREDICTED BY IDOCK:    6.16 KCAL/MOL
REMARK 924 INTRA-LIGAND FREE ENERGY PREDICTED BY IDOCK:    0.25 KCAL/MOL
REMARK 927      BINDING AFFINITY PREDICTED BY RF-SCORE:    0.00 PKD
ROOT
HETATM    1  C   UNL     1      -8.629   9.909  70.378  1.00  0.00     0.086 C  
HETATM    2  C   UNL     1      -7.854  11.437  70.121  1.00  0.00     1.742 C  
HETATM    3  C   UNL     1      -8.190  11.816  68.557  1.00  0.00    -0.134 C  
HETATM    4  C   UNL     1      -8.826  12.879  67.492  1.00  0.00    -0.192 C  
HETATM    5  C   UNL     1     -10.187  13.434  68.058  1.00  0.00    -0.243 C  
HETATM    6  C   UNL     1     -11.277  13.867  67.116  1.00  0.00    -0.328 C  
HETATM    7  C   UNL     1     -11.418  12.917  65.909  1.00  0.00    -0.387 C  
HETATM    8  C   UNL     1     -12.575  12.887  65.225  1.00  0.00    -0.502 C  
HETATM    9  C   UNL     1     -12.680  14.288  64.696  1.00  0.00    -0.113 C  
HETATM   10  C   UNL     1     -11.357  14.961  64.314  1.00  0.00    -0.086 C  
HETATM   11  O   UNL     1     -13.764  14.855  64.633  1.00  0.00     1.044 OA 
HETATM   12  C   UNL     1     -10.160  14.330  64.531  1.00  0.00     0.263 C  
HETATM   13  C   UNL     1     -10.127  12.896  65.060  1.00  0.00    -0.235 C  
HETATM   14  C   UNL     1     -10.135  12.076  63.732  1.00  0.00    -0.419 C  
HETATM   15  C   UNL     1      -9.178  12.181  66.117  1.00  0.00    -0.155 C  
HETATM   16  C   UNL     1      -8.096  11.211  65.636  1.00  0.00     0.085 C  
HETATM   17  O   UNL     1      -6.797  11.778  65.609  1.00  0.00     0.174 OA 
HETATM   18  C   UNL     1      -8.236  10.010  66.587  1.00  0.00    -0.122 C  
HETATM   19  C   UNL     1      -8.159  10.400  68.077  1.00  0.00    -0.110 C  
HETATM   20  H   UNL     1      -6.126  11.176  65.310  1.00  0.00     0.000 HD 
HETATM   21  C   UNL     1      -6.578  10.034  68.377  1.00  0.00    -0.054 C  
HETATM   22  C   UNL     1      -9.502   9.958  69.146  1.00  0.00    -0.196 C  
HETATM   23  O   UNL     1      -9.920   8.700  68.784  1.00  0.00    -0.172 OA 
HETATM   24  O   UNL     1      -8.104   8.548  70.247  1.00  0.00    -0.097 OA 
HETATM   25  C   UNL     1      -8.854   7.861  69.196  1.00  0.00    -0.142 C  
ENDROOT
BRANCH  22  26
HETATM   26  C   UNL     1     -10.764  10.870  69.911  1.00  0.00    -0.075 C  
HETATM   27  O   UNL     1     -11.968  10.572  69.753  1.00  0.00    -0.272 OA 
BRANCH  26  28
HETATM   28  C   UNL     1     -10.516  12.113  70.791  1.00  0.00     4.314 C  
BRANCH  28  29
HETATM   29  O   UNL     1     -11.736  12.533  71.548  1.00  0.00     1.120 OA 
BRANCH  29  30
HETATM   30  C   UNL     1     -11.798  13.792  72.073  1.00  0.00     1.055 C  
HETATM   31  C   UNL     1     -13.059  16.030  72.283  1.00  0.00    -0.347 C  
HETATM   32  C   UNL     1     -14.182  14.176  71.105  1.00  0.00     0.072 C  
HETATM   33  O   UNL     1     -11.060  14.144  72.999  1.00  0.00     2.003 OA 
HETATM   34  C   UNL     1     -12.811  14.772  71.415  1.00  0.00    -0.409 C  
ENDBRANCH  29  30
ENDBRANCH  28  29
ENDBRANCH  26  28
ENDBRANCH  22  26
BRANCH  25  35
HETATM   35  C   UNL     1      -9.576   6.515  69.420  1.00  0.00    -0.149 C  
HETATM   36  C   UNL     1      -8.732   5.370  68.761  1.00  0.00    -0.098 C  
HETATM   37  C   UNL     1      -9.821   6.162  70.881  1.00  0.00    -0.215 C  
HETATM   38  C   UNL     1      -9.382   3.999  68.883  1.00  0.00    -0.230 C  
HETATM   39  C   UNL     1      -9.720   3.672  70.334  1.00  0.00    -0.201 C  
HETATM   40  C   UNL     1     -10.513   4.799  70.996  1.00  0.00    -0.114 C  
ENDBRANCH  25  35
TORSDOF 5
ENDMDL
MODEL      135
REMARK 921   NORMALIZED FREE ENERGY PREDICTED BY IDOCK:    5.33 KCAL/MOL
REMARK 922        TOTAL FREE ENERGY PREDICTED BY IDOCK:    6.56 KCAL/MOL
REMARK 923 INTER-LIGAND FREE ENERGY PREDICTED BY IDOCK:   -1.62 KCAL/MOL
REMARK 924 INTRA-LIGAND FREE ENERGY PREDICTED BY IDOCK:    8.18 KCAL/MOL
REMARK 927      BINDING AFFINITY PREDICTED BY RF-SCORE:    0.00 PKD
ROOT
HETATM    1  C   UNL     1      -6.465  12.678  67.181  1.00  0.00     0.004 C  
HETATM    2  C   UNL     1      -5.449  12.160  68.485  1.00  0.00    -0.053 C  
HETATM    3  C   UNL     1      -6.156  10.782  69.039  1.00  0.00    -0.041 C  
HETATM    4  C   UNL     1      -6.017   9.190  69.376  1.00  0.00    -0.037 C  
HETATM    5  C   UNL     1      -5.232   8.478  68.211  1.00  0.00    -0.034 C  
HETATM    6  C   UNL     1      -5.502   7.032  67.892  1.00  0.00    -0.016 C  
HETATM    7  C   UNL     1      -7.004   6.687  67.966  1.00  0.00    -0.080 C  
HETATM    8  C   UNL     1      -7.466   5.609  67.309  1.00  0.00    -0.084 C  
HETATM    9  C   UNL     1      -6.724   4.482  67.966  1.00  0.00    -0.051 C  
HETATM   10  C   UNL     1      -6.446   4.646  69.464  1.00  0.00    -0.032 C  
HETATM   11  O   UNL     1      -6.330   3.524  67.311  1.00  0.00    -0.035 OA 
HETATM   12  C   UNL     1      -6.789   5.799  70.120  1.00  0.00    -0.053 C  
HETATM   13  C   UNL     1      -7.557   6.903  69.392  1.00  0.00    -0.099 C  
HETATM   14  C   UNL     1      -9.035   6.490  69.676  1.00  0.00    -0.141 C  
HETATM   15  C   UNL     1      -7.432   8.487  69.442  1.00  0.00    -0.088 C  
HETATM   16  C   UNL     1      -8.483   9.311  70.191  1.00  0.00    -0.191 C  
HETATM   17  O   UNL     1      -8.060   9.741  71.473  1.00  0.00     0.006 OA 
HETATM   18  C   UNL     1      -8.802  10.460  69.218  1.00  0.00    -0.166 C  
HETATM   19  C   UNL     1      -7.552  11.239  68.763  1.00  0.00    -0.130 C  
HETATM   20  H   UNL     1      -8.712  10.253  71.937  1.00  0.00     0.000 HD 
HETATM   21  C   UNL     1      -7.638  12.526  69.794  1.00  0.00     1.192 C  
HETATM   22  C   UNL     1      -7.215  11.376  67.028  1.00  0.00    -0.141 C  
HETATM   23  O   UNL     1      -8.416  11.568  66.389  1.00  0.00    -0.175 OA 
HETATM   24  O   UNL     1      -7.596  13.610  67.175  1.00  0.00    -0.104 OA 
HETATM   25  C   UNL     1      -8.798  12.877  66.776  1.00  0.00    -0.147 C  
ENDROOT
BRANCH  22  26
HETATM   26  C   UNL     1      -6.028  10.658  65.986  1.00  0.00    -0.128 C  
HETATM   27  O   UNL     1      -5.696  11.200  64.910  1.00  0.00    -0.006 OA 
BRANCH  26  28
HETATM   28  C   UNL     1      -5.335   9.310  66.273  1.00  0.00    -0.040 C  
BRANCH  28  29
HETATM   29  O   UNL     1      -5.258   8.435  65.061  1.00  0.00    -0.035 OA 
BRANCH  29  30
HETATM   30  C   UNL     1      -6.334   8.355  64.225  1.00  0.00    -0.067 C  
HETATM   31  C   UNL     1      -8.788   7.657  63.855  1.00  0.00     0.856 C  
HETATM   32  C   UNL     1      -7.875   7.507  66.142  1.00  0.00    -0.096 C  
HETATM   33  O   UNL     1      -6.370   8.971  63.155  1.00  0.00    -0.090 OA 
HETATM   34  C   UNL     1      -7.492   7.415  64.667  1.00  0.00    -0.093 C  
ENDBRANCH  29  30
ENDBRANCH  28  29
ENDBRANCH  26  28
ENDBRANCH  22  26
BRANCH  25  35
HETATM   35  C   UNL     1      -9.694  13.309  65.596  1.00  0.00    -0.101 C  
HETATM   36  C   UNL     1     -11.115  12.675  65.779  1.00  0.00    -0.332 C  
HETATM   37  C   UNL     1      -9.849  14.816  65.436  1.00  0.00    -0.295 C  
HETATM   38  C   UNL     1     -12.069  13.001  64.639  1.00  0.00    -0.463 C  
HETATM   39  C   UNL     1     -12.162  14.505  64.405  1.00  0.00    -0.480 C  
HETATM   40  C   UNL     1     -10.778  15.140  64.261  1.00  0.00     0.452 C  
ENDBRANCH  25  35
TORSDOF 5
ENDMDL
MODEL      136
REMARK 921   NORMALIZED FREE ENERGY PREDICTED BY IDOCK:    6.70 KCAL/MOL
REMARK 922        TOTAL FREE ENERGY PREDICTED BY IDOCK:    8.33 KCAL/MOL
REMARK 923 INTER-LIGAND FREE ENERGY PREDICTED BY IDOCK:    7.69 KCAL/MOL
REMARK 924 INTRA-LIGAND FREE ENERGY PREDICTED BY IDOCK:    0.64 KCAL/MOL
REMARK 927      BINDING AFFINITY PREDICTED BY RF-SCORE:    0.00 PKD
ROOT
HETATM    1  C   UNL     1      -7.516   7.043  66.767  1.00  0.00    -0.082 C  
HETATM    2  C   UNL     1      -7.335   8.380  65.681  1.00  0.00    -0.076 C  
HETATM    3  C   UNL     1      -8.612   9.361  66.015  1.00  0.00    -0.154 C  
HETATM    4  C   UNL     1      -9.148  10.840  66.453  1.00  0.00    -0.188 C  
HETATM    5  C   UNL     1      -8.244  11.399  67.615  1.00  0.00    -0.128 C  
HETATM    6  C   UNL     1      -8.820  12.347  68.632  1.00  0.00     0.035 C  
HETATM    7  C   UNL     1     -10.249  11.951  69.057  1.00  0.00    -0.016 C  
HETATM    8  C   UNL     1     -10.736  12.395  70.229  1.00  0.00     1.710 C  
HETATM    9  C   UNL     1     -10.730  13.884  70.042  1.00  0.00     0.516 C  
HETATM   10  C   UNL     1     -11.036  14.384  68.626  1.00  0.00    -0.269 C  
HETATM   11  O   UNL     1     -10.445  14.631  70.971  1.00  0.00     0.496 OA 
HETATM   12  C   UNL     1     -11.215  13.501  67.594  1.00  0.00    -0.304 C  
HETATM   13  C   UNL     1     -11.222  11.994  67.858  1.00  0.00    -0.323 C  
HETATM   14  C   UNL     1     -12.736  11.735  68.131  1.00  0.00     2.041 C  
HETATM   15  C   UNL     1     -10.617  10.775  67.036  1.00  0.00    -0.312 C  
HETATM   16  C   UNL     1     -11.546   9.861  66.233  1.00  0.00     2.450 C  
HETATM   17  O   UNL     1     -11.555  10.138  64.844  1.00  0.00     1.879 OA 
HETATM   18  C   UNL     1     -11.057   8.446  66.587  1.00  0.00     1.028 C  
HETATM   19  C   UNL     1      -9.549   8.241  66.336  1.00  0.00    -0.300 C  
HETATM   20  H   UNL     1     -12.131   9.571  64.346  1.00  0.00     0.000 HD 
HETATM   21  C   UNL     1      -9.614   7.496  64.864  1.00  0.00     1.873 C  
HETATM   22  C   UNL     1      -8.523   7.705  67.678  1.00  0.00    -0.117 C  
HETATM   23  O   UNL     1      -9.235   6.771  68.392  1.00  0.00    -0.126 OA 
HETATM   24  O   UNL     1      -8.178   5.750  66.575  1.00  0.00    -0.105 OA 
HETATM   25  C   UNL     1      -9.288   5.652  67.523  1.00  0.00    -0.109 C  
ENDROOT
BRANCH  22  26
HETATM   26  C   UNL     1      -7.326   8.497  68.651  1.00  0.00    -0.088 C  
HETATM   27  O   UNL     1      -6.105   8.328  68.445  1.00  0.00    -0.043 OA 
BRANCH  26  28
HETATM   28  C   UNL     1      -7.658   9.418  69.843  1.00  0.00    -0.109 C  
BRANCH  28  29
HETATM   29  O   UNL     1      -8.600   8.780  70.816  1.00  0.00    -0.150 OA 
BRANCH  29  30
HETATM   30  C   UNL     1      -8.188   8.561  72.100  1.00  0.00    -0.112 C  
HETATM   31  C   UNL     1      -8.193   7.044  74.183  1.00  0.00    -0.162 C  
HETATM   32  C   UNL     1      -9.222   6.173  72.117  1.00  0.00    -0.142 C  
HETATM   33  O   UNL     1      -7.285   9.229  72.613  1.00  0.00    -0.110 OA 
HETATM   34  C   UNL     1      -8.944   7.458  72.894  1.00  0.00    -0.182 C  
ENDBRANCH  29  30
ENDBRANCH  28  29
ENDBRANCH  26  28
ENDBRANCH  22  26
BRANCH  25  35
HETATM   35  C   UNL     1      -9.444   4.483  68.518  1.00  0.00    -0.213 C  
HETATM   36  C   UNL     1      -8.048   3.800  68.723  1.00  0.00    -0.076 C  
HETATM   37  C   UNL     1      -9.998   4.879  69.881  1.00  0.00    -0.317 C  
HETATM   38  C   UNL     1      -8.098   2.598  69.655  1.00  0.00    -0.057 C  
HETATM   39  C   UNL     1      -8.738   2.958  70.992  1.00  0.00    -0.122 C  
HETATM   40  C   UNL     1     -10.085   3.657  70.803  1.00  0.00     0.149 C  
ENDBRANCH  25  35
TORSDOF 5
ENDMDL
MODEL      137
REMARK 921   NORMALIZED FREE ENERGY PREDICTED BY IDOCK:    6.83 KCAL/MOL
REMARK 922        TOTAL FREE ENERGY PREDICTED BY IDOCK:    8.50 KCAL/MOL
REMARK 923 INTER-LIGAND FREE ENERGY PREDICTED BY IDOCK:    5.49 KCAL/MOL
REMARK 924 INTRA-LIGAND FREE ENERGY PREDICTED BY IDOCK:    3.01 KCAL/MOL
REMARK 927      BINDING AFFINITY PREDICTED BY RF-SCORE:    0.00 PKD
ROOT
HETATM    1  C   UNL     1      -5.830  14.738  69.862  1.00  0.00    -0.123 C  
HETATM    2  C   UNL     1      -6.647  13.211  69.913  1.00  0.00     0.116 C  
HETATM    3  C   UNL     1      -8.205  13.560  69.522  1.00  0.00     0.995 C  
HETATM    4  C   UNL     1      -9.483  13.291  68.542  1.00  0.00    -0.113 C  
HETATM    5  C   UNL     1      -8.988  13.205  67.050  1.00  0.00    -0.228 C  
HETATM    6  C   UNL     1      -9.900  13.616  65.926  1.00  0.00    -0.263 C  
HETATM    7  C   UNL     1     -10.713  14.882  66.266  1.00  0.00    -0.320 C  
HETATM    8  C   UNL     1     -11.226  15.625  65.269  1.00  0.00    -0.236 C  
HETATM    9  C   UNL     1     -12.165  14.666  64.596  1.00  0.00    -0.434 C  
HETATM   10  C   UNL     1     -12.881  13.672  65.516  1.00  0.00    -0.443 C  
HETATM   11  O   UNL     1     -12.294  14.667  63.377  1.00  0.00    -0.500 OA 
HETATM   12  C   UNL     1     -12.598  13.626  66.856  1.00  0.00    -0.012 C  
HETATM   13  C   UNL     1     -11.640  14.642  67.479  1.00  0.00    -0.396 C  
HETATM   14  C   UNL     1     -12.623  15.783  67.888  1.00  0.00     1.584 C  
HETATM   15  C   UNL     1     -10.514  14.490  68.591  1.00  0.00    -0.247 C  
HETATM   16  C   UNL     1     -10.766  15.012  70.008  1.00  0.00    -0.192 C  
HETATM   17  O   UNL     1     -11.111  13.998  70.935  1.00  0.00    -0.194 OA 
HETATM   18  C   UNL     1      -9.469  15.763  70.353  1.00  0.00     0.859 C  
HETATM   19  C   UNL     1      -8.202  14.901  70.183  1.00  0.00     0.632 C  
HETATM   20  H   UNL     1     -11.267  14.323  71.814  1.00  0.00     0.000 HD 
HETATM   21  C   UNL     1      -7.967  14.443  71.752  1.00  0.00     5.175 C  
HETATM   22  C   UNL     1      -6.912  15.479  69.113  1.00  0.00    -0.158 C  
HETATM   23  O   UNL     1      -6.802  16.836  69.296  1.00  0.00    -0.218 OA 
HETATM   24  O   UNL     1      -5.567  15.707  70.928  1.00  0.00    -0.102 OA 
HETATM   25  C   UNL     1      -6.255  16.956  70.598  1.00  0.00     0.764 C  
ENDROOT
BRANCH  22  26
HETATM   26  C   UNL     1      -6.356  14.984  67.546  1.00  0.00    -0.061 C  
HETATM   27  O   UNL     1      -6.826  15.485  66.502  1.00  0.00     0.135 OA 
BRANCH  26  28
HETATM   28  C   UNL     1      -5.296  13.888  67.316  1.00  0.00     0.575 C  
BRANCH  28  29
HETATM   29  O   UNL     1      -5.492  12.703  68.209  1.00  0.00    -0.055 OA 
BRANCH  29  30
HETATM   30  C   UNL     1      -5.888  11.514  67.666  1.00  0.00    -0.055 C  
HETATM   31  C   UNL     1      -6.241   8.976  67.944  1.00  0.00    -0.051 C  
HETATM   32  C   UNL     1      -5.626  10.285  69.944  1.00  0.00    -0.045 C  
HETATM   33  O   UNL     1      -6.521  11.465  66.606  1.00  0.00    -0.132 OA 
HETATM   34  C   UNL     1      -5.464  10.226  68.426  1.00  0.00    -0.038 C  
ENDBRANCH  29  30
ENDBRANCH  28  29
ENDBRANCH  26  28
ENDBRANCH  22  26
BRANCH  25  35
HETATM   35  C   UNL     1      -5.534  18.318  70.517  1.00  0.00    -0.243 C  
HETATM   36  C   UNL     1      -5.887  18.999  69.150  1.00  0.00    -0.242 C  
HETATM   37  C   UNL     1      -5.873  19.283  71.645  1.00  0.00    -0.007 C  
HETATM   38  C   UNL     1      -5.186  20.334  68.945  1.00  0.00    -0.241 C  
HETATM   39  C   UNL     1      -5.439  21.280  70.115  1.00  0.00     0.279 C  
HETATM   40  C   UNL     1      -5.132  20.613  71.457  1.00  0.00    -0.272 C  
ENDBRANCH  25  35
TORSDOF 5
ENDMDL
MODEL      138
REMARK 921   NORMALIZED FREE ENERGY PREDICTED BY IDOCK:    6.87 KCAL/MOL
REMARK 922        TOTAL FREE ENERGY PREDICTED BY IDOCK:    8.55 KCAL/MOL
REMARK 923 INTER-LIGAND FREE ENERGY PREDICTED BY IDOCK:    6.13 KCAL/MOL
REMARK 924 INTRA-LIGAND FREE ENERGY PREDICTED BY IDOCK:    2.42 KCAL/MOL
REMARK 927      BINDING AFFINITY PREDICTED BY RF-SCORE:    0.00 PKD
ROOT
HETATM    1  C   UNL     1      -7.483  10.690  68.533  1.00  0.00    -0.093 C  
HETATM    2  C   UNL     1      -6.809  11.796  67.382  1.00  0.00    -0.122 C  
HETATM    3  C   UNL     1      -7.957  11.928  66.213  1.00  0.00     0.230 C  
HETATM    4  C   UNL     1      -8.945  12.893  65.341  1.00  0.00     0.925 C  
HETATM    5  C   UNL     1      -9.601  13.964  66.292  1.00  0.00    -0.274 C  
HETATM    6  C   UNL     1     -10.963  14.520  65.978  1.00  0.00    -0.324 C  
HETATM    7  C   UNL     1     -11.931  13.437  65.458  1.00  0.00    -0.433 C  
HETATM    8  C   UNL     1     -13.258  13.641  65.545  1.00  0.00     0.059 C  
HETATM    9  C   UNL     1     -13.458  14.858  64.689  1.00  0.00     1.824 C  
HETATM   10  C   UNL     1     -12.550  14.971  63.460  1.00  0.00     1.066 C  
HETATM   11  O   UNL     1     -14.271  15.719  65.004  1.00  0.00     2.323 OA 
HETATM   12  C   UNL     1     -11.564  14.047  63.229  1.00  0.00     0.912 C  
HETATM   13  C   UNL     1     -11.424  12.823  64.134  1.00  0.00    -0.450 C  
HETATM   14  C   UNL     1     -12.341  11.792  63.405  1.00  0.00    -0.476 C  
HETATM   15  C   UNL     1     -10.145  12.076  64.711  1.00  0.00    -0.286 C  
HETATM   16  C   UNL     1      -9.716  10.731  64.120  1.00  0.00    -0.309 C  
HETATM   17  O   UNL     1      -8.629  10.828  63.218  1.00  0.00    -0.253 OA 
HETATM   18  C   UNL     1      -9.427   9.866  65.359  1.00  0.00    -0.319 C  
HETATM   19  C   UNL     1      -8.420  10.511  66.332  1.00  0.00    -0.143 C  
HETATM   20  H   UNL     1      -8.362   9.993  62.851  1.00  0.00     0.000 HD 
HETATM   21  C   UNL     1      -7.045   9.725  65.868  1.00  0.00    -0.102 C  
HETATM   22  C   UNL     1      -8.901  10.761  68.020  1.00  0.00    -0.132 C  
HETATM   23  O   UNL     1      -9.625   9.660  68.409  1.00  0.00    -0.143 OA 
HETATM   24  O   UNL     1      -7.339   9.237  68.645  1.00  0.00    -0.074 OA 
HETATM   25  C   UNL     1      -8.657   8.626  68.470  1.00  0.00    -0.135 C  
ENDROOT
BRANCH  22  26
HETATM   26  C   UNL     1      -9.310  12.171  68.945  1.00  0.00     0.210 C  
HETATM   27  O   UNL     1     -10.250  12.921  68.604  1.00  0.00    -0.229 OA 
BRANCH  26  28
HETATM   28  C   UNL     1      -8.545  12.625  70.205  1.00  0.00     4.145 C  
BRANCH  28  29
HETATM   29  O   UNL     1      -7.644  13.791  69.940  1.00  0.00     0.532 OA 
BRANCH  29  30
HETATM   30  C   UNL     1      -8.035  14.749  69.049  1.00  0.00    -0.152 C  
HETATM   31  C   UNL     1      -7.394  16.430  67.203  1.00  0.00    -0.230 C  
HETATM   32  C   UNL     1      -5.655  14.875  68.006  1.00  0.00    -0.142 C  
HETATM   33  O   UNL     1      -9.225  14.928  68.771  1.00  0.00    -0.184 OA 
HETATM   34  C   UNL     1      -6.909  15.631  68.438  1.00  0.00    -0.115 C  
ENDBRANCH  29  30
ENDBRANCH  28  29
ENDBRANCH  26  28
ENDBRANCH  22  26
BRANCH  25  35
HETATM   35  C   UNL     1      -9.282   7.665  69.503  1.00  0.00    -0.150 C  
HETATM   36  C   UNL     1      -8.995   6.188  69.062  1.00  0.00    -0.125 C  
HETATM   37  C   UNL     1      -8.784   7.854  70.929  1.00  0.00    -0.139 C  
HETATM   38  C   UNL     1      -9.612   5.153  69.990  1.00  0.00    -0.247 C  
HETATM   39  C   UNL     1      -9.196   5.387  71.439  1.00  0.00    -0.171 C  
HETATM   40  C   UNL     1      -9.440   6.835  71.869  1.00  0.00    -0.146 C  
ENDBRANCH  25  35
TORSDOF 5
ENDMDL
MODEL      139
REMARK 921   NORMALIZED FREE ENERGY PREDICTED BY IDOCK:    7.92 KCAL/MOL
REMARK 922        TOTAL FREE ENERGY PREDICTED BY IDOCK:    9.91 KCAL/MOL
REMARK 923 INTER-LIGAND FREE ENERGY PREDICTED BY IDOCK:    8.74 KCAL/MOL
REMARK 924 INTRA-LIGAND FREE ENERGY PREDICTED BY IDOCK:    1.17 KCAL/MOL
REMARK 927      BINDING AFFINITY PREDICTED BY RF-SCORE:    0.00 PKD
ROOT
HETATM    1  C   UNL     1      -6.838  15.980  69.103  1.00  0.00    -0.180 C  
HETATM    2  C   UNL     1      -7.460  15.282  70.562  1.00  0.00     0.845 C  
HETATM    3  C   UNL     1      -8.808  14.467  70.090  1.00  0.00     1.212 C  
HETATM    4  C   UNL     1      -9.625  13.055  70.029  1.00  0.00     3.030 C  
HETATM    5  C   UNL     1      -8.631  11.892  69.656  1.00  0.00     1.524 C  
HETATM    6  C   UNL     1      -9.127  10.685  68.907  1.00  0.00    -0.181 C  
HETATM    7  C   UNL     1     -10.133  11.056  67.799  1.00  0.00    -0.201 C  
HETATM    8  C   UNL     1     -10.335  10.204  66.779  1.00  0.00    -0.285 C  
HETATM    9  C   UNL     1     -10.875   8.986  67.472  1.00  0.00    -0.060 C  
HETATM   10  C   UNL     1     -11.762   9.248  68.693  1.00  0.00     1.042 C  
HETATM   11  O   UNL     1     -10.566   7.862  67.094  1.00  0.00    -0.320 OA 
HETATM   12  C   UNL     1     -11.965  10.522  69.154  1.00  0.00    -0.149 C  
HETATM   13  C   UNL     1     -11.397  11.720  68.390  1.00  0.00    -0.328 C  
HETATM   14  C   UNL     1     -12.572  12.054  67.420  1.00  0.00     1.811 C  
HETATM   15  C   UNL     1     -10.725  13.070  68.892  1.00  0.00    -0.201 C  
HETATM   16  C   UNL     1     -11.511  14.382  68.829  1.00  0.00    -0.289 C  
HETATM   17  O   UNL     1     -12.054  14.780  70.075  1.00  0.00    -0.293 OA 
HETATM   18  C   UNL     1     -10.502  15.381  68.237  1.00  0.00    -0.241 C  
HETATM   19  C   UNL     1      -9.175  15.444  69.019  1.00  0.00    -0.235 C  
HETATM   20  H   UNL     1     -12.542  15.594  70.036  1.00  0.00     0.000 HD 
HETATM   21  C   UNL     1      -9.461  16.782  69.942  1.00  0.00     0.815 C  
HETATM   22  C   UNL     1      -7.658  15.137  68.154  1.00  0.00    -0.112 C  
HETATM   23  O   UNL     1      -7.759  15.735  66.921  1.00  0.00    -0.220 OA 
HETATM   24  O   UNL     1      -7.068  17.301  68.513  1.00  0.00    -0.199 OA 
HETATM   25  C   UNL     1      -7.720  17.121  67.216  1.00  0.00    -0.174 C  
ENDROOT
BRANCH  22  26
HETATM   26  C   UNL     1      -6.539  13.812  68.148  1.00  0.00    -0.126 C  
HETATM   27  O   UNL     1      -5.332  13.980  68.426  1.00  0.00    -0.088 OA 
BRANCH  26  28
HETATM   28  C   UNL     1      -6.920  12.366  67.769  1.00  0.00    -0.118 C  
BRANCH  28  29
HETATM   29  O   UNL     1      -6.929  12.144  66.289  1.00  0.00     0.411 OA 
BRANCH  29  30
HETATM   30  C   UNL     1      -8.093  12.305  65.595  1.00  0.00     1.441 C  
HETATM   31  C   UNL     1      -9.734  11.423  63.813  1.00  0.00    -0.314 C  
HETATM   32  C   UNL     1      -7.851   9.971  64.471  1.00  0.00    -0.145 C  
HETATM   33  O   UNL     1      -8.946  13.129  65.943  1.00  0.00     0.194 OA 
HETATM   34  C   UNL     1      -8.271  11.432  64.320  1.00  0.00     0.887 C  
ENDBRANCH  29  30
ENDBRANCH  28  29
ENDBRANCH  26  28
ENDBRANCH  22  26
BRANCH  25  35
HETATM   35  C   UNL     1      -7.160  17.710  65.904  1.00  0.00    -0.250 C  
HETATM   36  C   UNL     1      -7.652  19.191  65.760  1.00  0.00    -0.156 C  
HETATM   37  C   UNL     1      -5.641  17.688  65.796  1.00  0.00    -0.117 C  
HETATM   38  C   UNL     1      -7.193  19.855  64.470  1.00  0.00     0.828 C  
HETATM   39  C   UNL     1      -5.680  19.757  64.302  1.00  0.00    -0.298 C  
HETATM   40  C   UNL     1      -5.186  18.320  64.475  1.00  0.00    -0.021 C  
ENDBRANCH  25  35
TORSDOF 5
ENDMDL
MODEL      140
REMARK 921   NORMALIZED FREE ENERGY PREDICTED BY IDOCK:    8.12 KCAL/MOL
REMARK 922        TOTAL FREE ENERGY PREDICTED BY IDOCK:   10.17 KCAL/MOL
REMARK 923 INTER-LIGAND FREE ENERGY PREDICTED BY IDOCK:    5.71 KCAL/MOL
REMARK 924 INTRA-LIGAND FREE ENERGY PREDICTED BY IDOCK:    4.46 KCAL/MOL
REMARK 927      BINDING AFFINITY PREDICTED BY RF-SCORE:    0.00 PKD
ROOT
HETATM    1  C   UNL     1      -7.865  11.598  69.458  1.00  0.00     0.532 C  
HETATM    2  C   UNL     1      -8.816  10.162  69.636  1.00  0.00    -0.184 C  
HETATM    3  C   UNL     1      -9.052   9.626  68.099  1.00  0.00    -0.123 C  
HETATM    4  C   UNL     1      -8.903   8.415  67.014  1.00  0.00    -0.146 C  
HETATM    5  C   UNL     1      -7.488   7.743  67.173  1.00  0.00    -0.096 C  
HETATM    6  C   UNL     1      -6.815   7.109  65.986  1.00  0.00    -0.057 C  
HETATM    7  C   UNL     1      -6.995   7.939  64.699  1.00  0.00    -0.067 C  
HETATM    8  C   UNL     1      -6.131   7.776  63.681  1.00  0.00    -0.058 C  
HETATM    9  C   UNL     1      -6.335   6.336  63.308  1.00  0.00    -0.029 C  
HETATM   10  C   UNL     1      -7.765   5.803  63.447  1.00  0.00    -0.089 C  
HETATM   11  O   UNL     1      -5.388   5.638  62.964  1.00  0.00    -0.013 OA 
HETATM   12  C   UNL     1      -8.760   6.590  63.964  1.00  0.00     0.558 C  
HETATM   13  C   UNL     1      -8.486   8.054  64.311  1.00  0.00     0.083 C  
HETATM   14  C   UNL     1      -8.844   8.762  62.968  1.00  0.00     0.098 C  
HETATM   15  C   UNL     1      -8.963   8.958  65.529  1.00  0.00    -0.246 C  
HETATM   16  C   UNL     1     -10.052  10.013  65.314  1.00  0.00    -0.229 C  
HETATM   17  O   UNL     1     -11.332   9.609  65.768  1.00  0.00     1.523 OA 
HETATM   18  C   UNL     1      -9.497  11.257  66.029  1.00  0.00    -0.240 C  
HETATM   19  C   UNL     1      -9.112  10.995  67.499  1.00  0.00    -0.138 C  
HETATM   20  H   UNL     1     -12.007  10.264  65.635  1.00  0.00     0.000 HD 
HETATM   21  C   UNL     1     -10.465  11.573  68.247  1.00  0.00    -0.219 C  
HETATM   22  C   UNL     1      -7.457  11.349  68.025  1.00  0.00    -0.100 C  
HETATM   23  O   UNL     1      -7.070  12.516  67.410  1.00  0.00    -0.138 OA 
HETATM   24  O   UNL     1      -8.279  13.000  69.351  1.00  0.00     0.618 OA 
HETATM   25  C   UNL     1      -7.859  13.508  68.044  1.00  0.00    -0.147 C  
ENDROOT
BRANCH  22  26
HETATM   26  C   UNL     1      -6.101  10.351  68.443  1.00  0.00    -0.044 C  
HETATM   27  O   UNL     1      -5.580   9.581  67.607  1.00  0.00    -0.037 OA 
BRANCH  26  28
HETATM   28  C   UNL     1      -5.469  10.302  69.849  1.00  0.00    -0.039 C  
BRANCH  28  29
HETATM   29  O   UNL     1      -6.003  11.367  70.755  1.00  0.00    -0.326 OA 
BRANCH  29  30
HETATM   30  C   UNL     1      -5.694  12.673  70.507  1.00  0.00    -0.169 C  
HETATM   31  C   UNL     1      -5.372  15.068  71.404  1.00  0.00    -0.064 C  
HETATM   32  C   UNL     1      -5.741  13.260  73.041  1.00  0.00     0.719 C  
HETATM   33  O   UNL     1      -5.179  13.026  69.441  1.00  0.00    -0.074 OA 
HETATM   34  C   UNL     1      -6.065  13.700  71.615  1.00  0.00     0.469 C  
ENDBRANCH  29  30
ENDBRANCH  28  29
ENDBRANCH  26  28
ENDBRANCH  22  26
BRANCH  25  35
HETATM   35  C   UNL     1      -6.985  14.768  67.873  1.00  0.00    -0.173 C  
HETATM   36  C   UNL     1      -6.750  15.019  66.343  1.00  0.00     2.747 C  
HETATM   37  C   UNL     1      -7.567  16.033  68.491  1.00  0.00    -0.155 C  
HETATM   38  C   UNL     1      -5.856  16.218  66.062  1.00  0.00     2.165 C  
HETATM   39  C   UNL     1      -6.375  17.474  66.754  1.00  0.00    -0.228 C  
HETATM   40  C   UNL     1      -6.642  17.229  68.240  1.00  0.00    -0.171 C  
ENDBRANCH  25  35
TORSDOF 5
ENDMDL
MODEL      141
REMARK 921   NORMALIZED FREE ENERGY PREDICTED BY IDOCK:    9.65 KCAL/MOL
REMARK 922        TOTAL FREE ENERGY PREDICTED BY IDOCK:   12.15 KCAL/MOL
REMARK 923 INTER-LIGAND FREE ENERGY PREDICTED BY IDOCK:   12.63 KCAL/MOL
REMARK 924 INTRA-LIGAND FREE ENERGY PREDICTED BY IDOCK:   -0.48 KCAL/MOL
REMARK 927      BINDING AFFINITY PREDICTED BY RF-SCORE:    0.00 PKD
ROOT
HETATM    1  C   UNL     1      -9.260  13.467  68.785  1.00  0.00     0.082 C  
HETATM    2  C   UNL     1      -7.788  12.813  68.147  1.00  0.00    -0.146 C  
HETATM    3  C   UNL     1      -7.703  11.295  68.774  1.00  0.00    -0.138 C  
HETATM    4  C   UNL     1      -7.578   9.689  68.507  1.00  0.00    -0.080 C  
HETATM    5  C   UNL     1      -8.516   9.285  67.308  1.00  0.00    -0.125 C  
HETATM    6  C   UNL     1      -9.114   7.906  67.248  1.00  0.00    -0.152 C  
HETATM    7  C   UNL     1      -9.584   7.412  68.632  1.00  0.00    -0.146 C  
HETATM    8  C   UNL     1     -10.507   6.436  68.706  1.00  0.00    -0.260 C  
HETATM    9  C   UNL     1      -9.817   5.282  68.038  1.00  0.00    -0.149 C  
HETATM   10  C   UNL     1      -8.303   5.188  68.256  1.00  0.00    -0.096 C  
HETATM   11  O   UNL     1     -10.443   4.506  67.325  1.00  0.00    -0.018 OA 
HETATM   12  C   UNL     1      -7.633   6.160  68.951  1.00  0.00    -0.092 C  
HETATM   13  C   UNL     1      -8.400   7.302  69.618  1.00  0.00    -0.132 C  
HETATM   14  C   UNL     1      -8.676   6.705  71.033  1.00  0.00    -0.138 C  
HETATM   15  C   UNL     1      -8.079   8.854  69.753  1.00  0.00    -0.109 C  
HETATM   16  C   UNL     1      -7.600   9.419  71.092  1.00  0.00     0.084 C  
HETATM   17  O   UNL     1      -6.202   9.640  71.148  1.00  0.00    -0.112 OA 
HETATM   18  C   UNL     1      -8.443  10.694  71.270  1.00  0.00     4.689 C  
HETATM   19  C   UNL     1      -8.348  11.661  70.073  1.00  0.00     2.289 C  
HETATM   20  H   UNL     1      -5.904   9.991  71.979  1.00  0.00     0.000 HD 
HETATM   21  C   UNL     1      -7.223  12.717  70.659  1.00  0.00     2.997 C  
HETATM   22  C   UNL     1      -9.839  12.151  69.249  1.00  0.00     0.548 C  
HETATM   23  O   UNL     1     -10.797  12.344  70.214  1.00  0.00     0.820 OA 
HETATM   24  O   UNL     1      -9.496  14.271  69.987  1.00  0.00     0.829 OA 
HETATM   25  C   UNL     1     -10.368  13.515  70.887  1.00  0.00     4.237 C  
ENDROOT
BRANCH  22  26
HETATM   26  C   UNL     1     -10.532  11.757  67.708  1.00  0.00    -0.194 C  
HETATM   27  O   UNL     1     -11.388  10.854  67.594  1.00  0.00    -0.372 OA 
BRANCH  26  28
HETATM   28  C   UNL     1     -10.132  12.440  66.385  1.00  0.00    -0.236 C  
BRANCH  28  29
HETATM   29  O   UNL     1     -11.126  13.469  65.946  1.00  0.00    -0.284 OA 
BRANCH  29  30
HETATM   30  C   UNL     1     -11.613  14.361  66.858  1.00  0.00    -0.388 C  
HETATM   31  C   UNL     1     -11.556  16.733  67.865  1.00  0.00     0.391 C  
HETATM   32  C   UNL     1     -10.215  16.304  65.839  1.00  0.00    -0.384 C  
HETATM   33  O   UNL     1     -12.655  14.142  67.485  1.00  0.00    -0.018 OA 
HETATM   34  C   UNL     1     -10.766  15.642  67.100  1.00  0.00    -0.314 C  
ENDBRANCH  29  30
ENDBRANCH  28  29
ENDBRANCH  26  28
ENDBRANCH  22  26
BRANCH  25  35
HETATM   35  C   UNL     1     -11.697  14.073  71.436  1.00  0.00     0.253 C  
HETATM   36  C   UNL     1     -11.711  15.629  71.250  1.00  0.00    -0.478 C  
HETATM   37  C   UNL     1     -12.946  13.493  70.786  1.00  0.00    -0.168 C  
HETATM   38  C   UNL     1     -12.964  16.290  71.805  1.00  0.00     0.438 C  
HETATM   39  C   UNL     1     -14.227  15.654  71.233  1.00  0.00    -0.083 C  
HETATM   40  C   UNL     1     -14.208  14.132  71.378  1.00  0.00    -0.211 C  
ENDBRANCH  25  35
TORSDOF 5
ENDMDL
MODEL      142
REMARK 921   NORMALIZED FREE ENERGY PREDICTED BY IDOCK:   10.68 KCAL/MOL
REMARK 922        TOTAL FREE ENERGY PREDICTED BY IDOCK:   13.48 KCAL/MOL
REMARK 923 INTER-LIGAND FREE ENERGY PREDICTED BY IDOCK:   13.12 KCAL/MOL
REMARK 924 INTRA-LIGAND FREE ENERGY PREDICTED BY IDOCK:    0.35 KCAL/MOL
REMARK 927      BINDING AFFINITY PREDICTED BY RF-SCORE:    0.00 PKD
ROOT
HETATM    1  C   UNL     1     -10.557   9.599  66.144  1.00  0.00     0.085 C  
HETATM    2  C   UNL     1     -11.541   8.847  67.356  1.00  0.00     2.129 C  
HETATM    3  C   UNL     1     -10.466   8.198  68.418  1.00  0.00    -0.205 C  
HETATM    4  C   UNL     1      -9.924   8.097  69.955  1.00  0.00    -0.192 C  
HETATM    5  C   UNL     1      -9.885   9.537  70.591  1.00  0.00    -0.328 C  
HETATM    6  C   UNL     1      -8.878   9.865  71.660  1.00  0.00     2.311 C  
HETATM    7  C   UNL     1      -7.494   9.249  71.368  1.00  0.00     0.078 C  
HETATM    8  C   UNL     1      -6.402   9.776  71.949  1.00  0.00     0.418 C  
HETATM    9  C   UNL     1      -6.676   9.569  73.410  1.00  0.00     1.062 C  
HETATM   10  C   UNL     1      -7.432   8.288  73.776  1.00  0.00    -0.195 C  
HETATM   11  O   UNL     1      -6.349  10.415  74.235  1.00  0.00     0.555 OA 
HETATM   12  C   UNL     1      -7.893   7.442  72.801  1.00  0.00    -0.108 C  
HETATM   13  C   UNL     1      -7.566   7.706  71.331  1.00  0.00    -0.080 C  
HETATM   14  C   UNL     1      -6.232   6.913  71.164  1.00  0.00    -0.037 C  
HETATM   15  C   UNL     1      -8.438   7.556  70.011  1.00  0.00    -0.137 C  
HETATM   16  C   UNL     1      -8.186   6.383  69.059  1.00  0.00    -0.115 C  
HETATM   17  O   UNL     1      -9.124   5.330  69.194  1.00  0.00    -0.104 OA 
HETATM   18  C   UNL     1      -8.178   7.040  67.668  1.00  0.00    -0.117 C  
HETATM   19  C   UNL     1      -9.446   7.867  67.376  1.00  0.00    -0.179 C  
HETATM   20  H   UNL     1      -8.967   4.602  68.604  1.00  0.00     0.000 HD 
HETATM   21  C   UNL     1     -10.296   6.764  66.489  1.00  0.00    -0.116 C  
HETATM   22  C   UNL     1      -9.271   9.575  66.936  1.00  0.00    -0.143 C  
HETATM   23  O   UNL     1      -8.178   9.677  66.110  1.00  0.00    -0.114 OA 
HETATM   24  O   UNL     1     -10.064   9.077  64.867  1.00  0.00     0.726 OA 
HETATM   25  C   UNL     1      -8.601   9.049  64.912  1.00  0.00    -0.180 C  
ENDROOT
BRANCH  22  26
HETATM   26  C   UNL     1      -9.599  11.059  67.773  1.00  0.00    -0.170 C  
HETATM   27  O   UNL     1     -10.443  11.874  67.343  1.00  0.00    -0.210 OA 
BRANCH  26  28
HETATM   28  C   UNL     1      -8.867  11.502  69.057  1.00  0.00     0.152 C  
BRANCH  28  29
HETATM   29  O   UNL     1      -7.867  12.586  68.802  1.00  0.00    -0.079 OA 
BRANCH  29  30
HETATM   30  C   UNL     1      -7.782  13.636  69.672  1.00  0.00     0.745 C  
HETATM   31  C   UNL     1      -8.687  15.915  70.465  1.00  0.00     1.938 C  
HETATM   32  C   UNL     1      -9.960  14.705  68.732  1.00  0.00    -0.235 C  
HETATM   33  O   UNL     1      -7.100  13.572  70.699  1.00  0.00     0.901 OA 
HETATM   34  C   UNL     1      -8.552  14.929  69.279  1.00  0.00    -0.106 C  
ENDBRANCH  29  30
ENDBRANCH  28  29
ENDBRANCH  26  28
ENDBRANCH  22  26
BRANCH  25  35
HETATM   35  C   UNL     1      -7.713   9.742  63.858  1.00  0.00    -0.136 C  
HETATM   36  C   UNL     1      -7.362  11.185  64.358  1.00  0.00     1.007 C  
HETATM   37  C   UNL     1      -6.418   9.007  63.537  1.00  0.00    -0.089 C  
HETATM   38  C   UNL     1      -6.524  11.977  63.366  1.00  0.00     4.462 C  
HETATM   39  C   UNL     1      -5.268  11.211  62.962  1.00  0.00     0.020 C  
HETATM   40  C   UNL     1      -5.596   9.789  62.506  1.00  0.00    -0.090 C  
ENDBRANCH  25  35
TORSDOF 5
ENDMDL
MODEL      143
REMARK 921   NORMALIZED FREE ENERGY PREDICTED BY IDOCK:   11.05 KCAL/MOL
REMARK 922        TOTAL FREE ENERGY PREDICTED BY IDOCK:   13.95 KCAL/MOL
REMARK 923 INTER-LIGAND FREE ENERGY PREDICTED BY IDOCK:   12.95 KCAL/MOL
REMARK 924 INTRA-LIGAND FREE ENERGY PREDICTED BY IDOCK:    1.00 KCAL/MOL
REMARK 927      BINDING AFFINITY PREDICTED BY RF-SCORE:    0.00 PKD
ROOT
HETATM    1  C   UNL     1      -8.736  12.085  67.916  1.00  0.00    -0.170 C  
HETATM    2  C   UNL     1      -8.136  12.069  69.541  1.00  0.00     0.969 C  
HETATM    3  C   UNL     1      -8.646  10.632  70.157  1.00  0.00     0.870 C  
HETATM    4  C   UNL     1      -8.262   9.211  70.865  1.00  0.00    -0.220 C  
HETATM    5  C   UNL     1      -6.983   8.611  70.170  1.00  0.00    -0.043 C  
HETATM    6  C   UNL     1      -6.781   7.121  70.116  1.00  0.00    -0.051 C  
HETATM    7  C   UNL     1      -8.092   6.363  69.823  1.00  0.00    -0.121 C  
HETATM    8  C   UNL     1      -8.036   5.118  69.317  1.00  0.00    -0.084 C  
HETATM    9  C   UNL     1      -7.322   4.358  70.396  1.00  0.00    -0.049 C  
HETATM   10  C   UNL     1      -7.619   4.796  71.834  1.00  0.00    -0.089 C  
HETATM   11  O   UNL     1      -6.515   3.479  70.115  1.00  0.00    -0.031 OA 
HETATM   12  C   UNL     1      -8.426   5.874  72.087  1.00  0.00    -0.125 C  
HETATM   13  C   UNL     1      -9.135   6.595  70.940  1.00  0.00    -0.154 C  
HETATM   14  C   UNL     1     -10.480   5.809  70.863  1.00  0.00    -0.317 C  
HETATM   15  C   UNL     1      -9.408   8.138  70.670  1.00  0.00    -0.165 C  
HETATM   16  C   UNL     1     -10.813   8.710  70.876  1.00  0.00    -0.239 C  
HETATM   17  O   UNL     1     -10.968   9.413  72.096  1.00  0.00    -0.122 OA 
HETATM   18  C   UNL     1     -11.040   9.573  69.622  1.00  0.00    -0.196 C  
HETATM   19  C   UNL     1      -9.930  10.617  69.390  1.00  0.00    -0.183 C  
HETATM   20  H   UNL     1     -11.839   9.768  72.223  1.00  0.00     0.000 HD 
HETATM   21  C   UNL     1     -10.662  11.947  70.037  1.00  0.00     0.784 C  
HETATM   22  C   UNL     1      -9.062  10.612  67.845  1.00  0.00    -0.145 C  
HETATM   23  O   UNL     1      -9.981  10.355  66.857  1.00  0.00    -0.190 OA 
HETATM   24  O   UNL     1      -9.981  12.634  67.373  1.00  0.00    -0.202 OA 
HETATM   25  C   UNL     1     -10.767  11.534  66.813  1.00  0.00    -0.270 C  
ENDROOT
BRANCH  22  26
HETATM   26  C   UNL     1      -7.457  10.141  67.382  1.00  0.00    -0.094 C  
HETATM   27  O   UNL     1      -7.245   9.071  66.772  1.00  0.00    -0.084 OA 
BRANCH  26  28
HETATM   28  C   UNL     1      -6.192  10.959  67.713  1.00  0.00    -0.051 C  
BRANCH  28  29
HETATM   29  O   UNL     1      -5.817  11.905  66.615  1.00  0.00    -0.221 OA 
BRANCH  29  30
HETATM   30  C   UNL     1      -6.617  12.981  66.358  1.00  0.00     2.465 C  
HETATM   31  C   UNL     1      -7.235  15.433  66.856  1.00  0.00     0.096 C  
HETATM   32  C   UNL     1      -5.196  14.519  67.902  1.00  0.00    -0.068 C  
HETATM   33  O   UNL     1      -7.354  13.018  65.367  1.00  0.00     4.189 OA 
HETATM   34  C   UNL     1      -6.586  14.136  67.399  1.00  0.00     0.058 C  
ENDBRANCH  29  30
ENDBRANCH  28  29
ENDBRANCH  26  28
ENDBRANCH  22  26
BRANCH  25  35
HETATM   35  C   UNL     1     -11.280  11.521  65.358  1.00  0.00    -0.207 C  
HETATM   36  C   UNL     1     -10.536  12.636  64.547  1.00  0.00    -0.379 C  
HETATM   37  C   UNL     1     -11.105  10.192  64.635  1.00  0.00     2.101 C  
HETATM   38  C   UNL     1     -11.003  12.743  63.103  1.00  0.00     0.252 C  
HETATM   39  C   UNL     1     -10.922  11.395  62.392  1.00  0.00     1.467 C  
HETATM   40  C   UNL     1     -11.616  10.292  63.193  1.00  0.00     3.970 C  
ENDBRANCH  25  35
TORSDOF 5
ENDMDL
MODEL      144
REMARK 921   NORMALIZED FREE ENERGY PREDICTED BY IDOCK:   11.60 KCAL/MOL
REMARK 922        TOTAL FREE ENERGY PREDICTED BY IDOCK:   14.67 KCAL/MOL
REMARK 923 INTER-LIGAND FREE ENERGY PREDICTED BY IDOCK:   11.52 KCAL/MOL
REMARK 924 INTRA-LIGAND FREE ENERGY PREDICTED BY IDOCK:    3.14 KCAL/MOL
REMARK 927      BINDING AFFINITY PREDICTED BY RF-SCORE:    0.00 PKD
ROOT
HETATM    1  C   UNL     1      -9.688  10.893  68.078  1.00  0.00    -0.165 C  
HETATM    2  C   UNL     1      -8.515   9.698  67.632  1.00  0.00    -0.125 C  
HETATM    3  C   UNL     1      -8.156   8.924  69.038  1.00  0.00    -0.115 C  
HETATM    4  C   UNL     1      -8.075   7.518  69.866  1.00  0.00    -0.129 C  
HETATM    5  C   UNL     1      -9.361   6.661  69.567  1.00  0.00    -0.145 C  
HETATM    6  C   UNL     1      -9.890   5.706  70.602  1.00  0.00    -0.244 C  
HETATM    7  C   UNL     1      -9.819   6.290  72.028  1.00  0.00    -0.173 C  
HETATM    8  C   UNL     1     -10.618   5.790  72.987  1.00  0.00    -0.272 C  
HETATM    9  C   UNL     1     -10.168   4.360  73.074  1.00  0.00    -0.168 C  
HETATM   10  C   UNL     1      -8.674   4.112  72.847  1.00  0.00    -0.102 C  
HETATM   11  O   UNL     1     -10.977   3.460  73.267  1.00  0.00    -0.191 OA 
HETATM   12  C   UNL     1      -7.836   5.141  72.501  1.00  0.00    -0.101 C  
HETATM   13  C   UNL     1      -8.359   6.577  72.443  1.00  0.00    -0.108 C  
HETATM   14  C   UNL     1      -8.092   7.062  73.901  1.00  0.00    -0.138 C  
HETATM   15  C   UNL     1      -8.069   7.766  71.428  1.00  0.00    -0.103 C  
HETATM   16  C   UNL     1      -7.167   8.928  71.853  1.00  0.00     0.052 C  
HETATM   17  O   UNL     1      -5.849   8.841  71.340  1.00  0.00    -0.039 OA 
HETATM   18  C   UNL     1      -7.939  10.175  71.389  1.00  0.00     2.337 C  
HETATM   19  C   UNL     1      -8.311  10.140  69.893  1.00  0.00    -0.110 C  
HETATM   20  H   UNL     1      -5.289   9.561  71.604  1.00  0.00     0.000 HD 
HETATM   21  C   UNL     1      -7.091  11.071  69.283  1.00  0.00    -0.123 C  
HETATM   22  C   UNL     1     -10.014  10.306  69.432  1.00  0.00    -0.233 C  
HETATM   23  O   UNL     1     -10.574  11.250  70.259  1.00  0.00     0.409 OA 
HETATM   24  O   UNL     1      -9.511  12.296  68.459  1.00  0.00    -0.192 OA 
HETATM   25  C   UNL     1      -9.978  12.464  69.836  1.00  0.00     2.095 C  
ENDROOT
BRANCH  22  26
HETATM   26  C   UNL     1     -11.194   9.194  68.816  1.00  0.00     0.273 C  
HETATM   27  O   UNL     1     -11.938   9.499  67.859  1.00  0.00     1.266 OA 
BRANCH  26  28
HETATM   28  C   UNL     1     -11.445   7.791  69.408  1.00  0.00     0.452 C  
BRANCH  28  29
HETATM   29  O   UNL     1     -12.253   6.920  68.498  1.00  0.00     1.586 OA 
BRANCH  29  30
HETATM   30  C   UNL     1     -11.667   5.831  67.920  1.00  0.00     2.159 C  
HETATM   31  C   UNL     1     -10.278   4.848  65.984  1.00  0.00    -0.287 C  
HETATM   32  C   UNL     1     -10.538   7.299  66.092  1.00  0.00     0.961 C  
HETATM   33  O   UNL     1     -11.523   4.770  68.535  1.00  0.00     2.579 OA 
HETATM   34  C   UNL     1     -11.231   5.982  66.434  1.00  0.00     0.335 C  
ENDBRANCH  29  30
ENDBRANCH  28  29
ENDBRANCH  26  28
ENDBRANCH  22  26
BRANCH  25  35
HETATM   35  C   UNL     1     -11.045  13.502  70.242  1.00  0.00     0.503 C  
HETATM   36  C   UNL     1     -12.214  12.766  70.983  1.00  0.00    -0.202 C  
HETATM   37  C   UNL     1     -10.532  14.624  71.135  1.00  0.00     1.186 C  
HETATM   38  C   UNL     1     -13.349  13.695  71.388  1.00  0.00    -0.321 C  
HETATM   39  C   UNL     1     -12.835  14.878  72.204  1.00  0.00    -0.402 C  
HETATM   40  C   UNL     1     -11.671  15.582  71.505  1.00  0.00    -0.479 C  
ENDBRANCH  25  35
TORSDOF 5
ENDMDL
MODEL      145
REMARK 921   NORMALIZED FREE ENERGY PREDICTED BY IDOCK:   11.66 KCAL/MOL
REMARK 922        TOTAL FREE ENERGY PREDICTED BY IDOCK:   14.74 KCAL/MOL
REMARK 923 INTER-LIGAND FREE ENERGY PREDICTED BY IDOCK:   10.90 KCAL/MOL
REMARK 924 INTRA-LIGAND FREE ENERGY PREDICTED BY IDOCK:    3.84 KCAL/MOL
REMARK 927      BINDING AFFINITY PREDICTED BY RF-SCORE:    0.00 PKD
ROOT
HETATM    1  C   UNL     1      -7.782  10.362  70.628  1.00  0.00     1.024 C  
HETATM    2  C   UNL     1      -6.757   9.121  71.268  1.00  0.00    -0.073 C  
HETATM    3  C   UNL     1      -7.598   7.728  71.037  1.00  0.00    -0.082 C  
HETATM    4  C   UNL     1      -7.646   6.226  70.397  1.00  0.00    -0.096 C  
HETATM    5  C   UNL     1      -7.042   6.258  68.943  1.00  0.00    -0.082 C  
HETATM    6  C   UNL     1      -7.519   5.280  67.904  1.00  0.00    -0.076 C  
HETATM    7  C   UNL     1      -9.044   5.060  67.966  1.00  0.00    -0.128 C  
HETATM    8  C   UNL     1      -9.687   4.589  66.883  1.00  0.00    -0.226 C  
HETATM    9  C   UNL     1      -9.056   3.241  66.688  1.00  0.00    -0.165 C  
HETATM   10  C   UNL     1      -8.658   2.496  67.967  1.00  0.00    -0.117 C  
HETATM   11  O   UNL     1      -8.836   2.808  65.563  1.00  0.00    -0.122 OA 
HETATM   12  C   UNL     1      -8.803   3.084  69.196  1.00  0.00    -0.155 C  
HETATM   13  C   UNL     1      -9.468   4.455  69.323  1.00  0.00    -0.249 C  
HETATM   14  C   UNL     1     -10.965   4.057  69.514  1.00  0.00     3.499 C  
HETATM   15  C   UNL     1      -9.134   5.711  70.239  1.00  0.00    -0.163 C  
HETATM   16  C   UNL     1     -10.015   6.026  71.451  1.00  0.00    -0.186 C  
HETATM   17  O   UNL     1      -9.454   5.612  72.684  1.00  0.00    -0.147 OA 
HETATM   18  C   UNL     1     -10.246   7.544  71.345  1.00  0.00    -0.201 C  
HETATM   19  C   UNL     1      -8.939   8.355  71.250  1.00  0.00    -0.224 C  
HETATM   20  H   UNL     1     -10.001   5.808  73.436  1.00  0.00     0.000 HD 
HETATM   21  C   UNL     1      -8.786   8.819  72.827  1.00  0.00     0.151 C  
HETATM   22  C   UNL     1      -8.704   9.439  69.867  1.00  0.00    -0.197 C  
HETATM   23  O   UNL     1      -9.910  10.045  69.610  1.00  0.00    -0.214 OA 
HETATM   24  O   UNL     1      -8.779  11.204  71.294  1.00  0.00     5.357 OA 
HETATM   25  C   UNL     1     -10.090  10.918  70.712  1.00  0.00     2.339 C  
ENDROOT
BRANCH  22  26
HETATM   26  C   UNL     1      -7.694   9.369  68.458  1.00  0.00    -0.085 C  
HETATM   27  O   UNL     1      -7.922   8.557  67.536  1.00  0.00    -0.105 OA 
BRANCH  26  28
HETATM   28  C   UNL     1      -6.444  10.248  68.251  1.00  0.00    -0.056 C  
BRANCH  28  29
HETATM   29  O   UNL     1      -5.615   9.803  67.088  1.00  0.00    -0.045 OA 
BRANCH  29  30
HETATM   30  C   UNL     1      -5.987   8.691  66.388  1.00  0.00    -0.052 C  
HETATM   31  C   UNL     1      -7.522   7.615  64.619  1.00  0.00    -0.096 C  
HETATM   32  C   UNL     1      -7.627  10.063  64.906  1.00  0.00    -0.139 C  
HETATM   33  O   UNL     1      -5.289   7.672  66.372  1.00  0.00    -0.024 OA 
HETATM   34  C   UNL     1      -7.355   8.758  65.650  1.00  0.00    -0.085 C  
ENDBRANCH  29  30
ENDBRANCH  28  29
ENDBRANCH  26  28
ENDBRANCH  22  26
BRANCH  25  35
HETATM   35  C   UNL     1     -11.000  12.009  70.109  1.00  0.00     0.672 C  
HETATM   36  C   UNL     1     -10.107  13.200  69.619  1.00  0.00     1.114 C  
HETATM   37  C   UNL     1     -11.869  11.541  68.949  1.00  0.00    -0.406 C  
HETATM   38  C   UNL     1     -10.912  14.358  69.047  1.00  0.00    -0.274 C  
HETATM   39  C   UNL     1     -11.858  13.888  67.946  1.00  0.00    -0.413 C  
HETATM   40  C   UNL     1     -12.709  12.702  68.403  1.00  0.00     1.424 C  
ENDBRANCH  25  35
TORSDOF 5
ENDMDL
MODEL      146
REMARK 921   NORMALIZED FREE ENERGY PREDICTED BY IDOCK:   11.95 KCAL/MOL
REMARK 922        TOTAL FREE ENERGY PREDICTED BY IDOCK:   15.12 KCAL/MOL
REMARK 923 INTER-LIGAND FREE ENERGY PREDICTED BY IDOCK:   12.60 KCAL/MOL
REMARK 924 INTRA-LIGAND FREE ENERGY PREDICTED BY IDOCK:    2.52 KCAL/MOL
REMARK 927      BINDING AFFINITY PREDICTED BY RF-SCORE:    0.00 PKD
ROOT
HETATM    1  C   UNL     1      -7.273  11.405  66.991  1.00  0.00    -0.141 C  
HETATM    2  C   UNL     1      -8.441  11.649  65.735  1.00  0.00     0.203 C  
HETATM    3  C   UNL     1      -9.691  12.421  66.475  1.00  0.00    -0.245 C  
HETATM    4  C   UNL     1     -10.683  13.717  66.532  1.00  0.00    -0.284 C  
HETATM    5  C   UNL     1      -9.845  15.027  66.286  1.00  0.00    -0.307 C  
HETATM    6  C   UNL     1     -10.282  16.330  66.899  1.00  0.00    -0.288 C  
HETATM    7  C   UNL     1     -10.799  16.153  68.341  1.00  0.00    -0.318 C  
HETATM    8  C   UNL     1     -10.813  17.211  69.171  1.00  0.00    -0.082 C  
HETATM    9  C   UNL     1     -11.752  18.156  68.480  1.00  0.00     2.496 C  
HETATM   10  C   UNL     1     -12.922  17.511  67.731  1.00  0.00     6.226 C  
HETATM   11  O   UNL     1     -11.544  19.364  68.489  1.00  0.00     1.596 OA 
HETATM   12  C   UNL     1     -13.031  16.148  67.641  1.00  0.00     3.597 C  
HETATM   13  C   UNL     1     -12.046  15.243  68.381  1.00  0.00    -0.068 C  
HETATM   14  C   UNL     1     -12.771  15.050  69.750  1.00  0.00    -0.062 C  
HETATM   15  C   UNL     1     -11.341  13.881  67.961  1.00  0.00    -0.317 C  
HETATM   16  C   UNL     1     -11.819  12.557  68.563  1.00  0.00    -0.295 C  
HETATM   17  O   UNL     1     -12.652  11.807  67.696  1.00  0.00     0.404 OA 
HETATM   18  C   UNL     1     -10.513  11.843  68.951  1.00  0.00    -0.164 C  
HETATM   19  C   UNL     1      -9.516  11.715  67.782  1.00  0.00    -0.178 C  
HETATM   20  H   UNL     1     -12.948  10.986  68.069  1.00  0.00     0.000 HD 
HETATM   21  C   UNL     1      -9.839  10.166  67.312  1.00  0.00    -0.226 C  
HETATM   22  C   UNL     1      -7.883  12.375  67.975  1.00  0.00    -0.141 C  
HETATM   23  O   UNL     1      -7.477  12.101  69.259  1.00  0.00     0.048 OA 
HETATM   24  O   UNL     1      -7.064  10.260  67.880  1.00  0.00    -0.082 OA 
HETATM   25  C   UNL     1      -7.289  10.696  69.258  1.00  0.00    -0.119 C  
ENDROOT
BRANCH  22  26
HETATM   26  C   UNL     1      -7.075  13.762  67.317  1.00  0.00     0.077 C  
HETATM   27  O   UNL     1      -7.711  14.675  66.747  1.00  0.00     0.073 OA 
BRANCH  26  28
HETATM   28  C   UNL     1      -5.545  13.960  67.344  1.00  0.00     0.319 C  
BRANCH  28  29
HETATM   29  O   UNL     1      -5.144  15.376  67.075  1.00  0.00    -0.183 OA 
BRANCH  29  30
HETATM   30  C   UNL     1      -6.044  16.380  67.297  1.00  0.00    -0.166 C  
HETATM   31  C   UNL     1      -7.153  18.015  68.952  1.00  0.00    -0.268 C  
HETATM   32  C   UNL     1      -5.247  16.669  69.757  1.00  0.00    -0.156 C  
HETATM   33  O   UNL     1      -6.557  17.007  66.365  1.00  0.00    -0.225 OA 
HETATM   34  C   UNL     1      -6.421  16.661  68.779  1.00  0.00    -0.159 C  
ENDBRANCH  29  30
ENDBRANCH  28  29
ENDBRANCH  26  28
ENDBRANCH  22  26
BRANCH  25  35
HETATM   35  C   UNL     1      -6.244  10.514  70.379  1.00  0.00    -0.128 C  
HETATM   36  C   UNL     1      -6.224  11.804  71.269  1.00  0.00     1.347 C  
HETATM   37  C   UNL     1      -6.479   9.306  71.276  1.00  0.00    -0.066 C  
HETATM   38  C   UNL     1      -5.188  11.749  72.383  1.00  0.00     0.453 C  
HETATM   39  C   UNL     1      -5.353  10.494  73.234  1.00  0.00     0.501 C  
HETATM   40  C   UNL     1      -5.409   9.232  72.372  1.00  0.00    -0.076 C  
ENDBRANCH  25  35
TORSDOF 5
ENDMDL
MODEL      147
REMARK 921   NORMALIZED FREE ENERGY PREDICTED BY IDOCK:   13.44 KCAL/MOL
REMARK 922        TOTAL FREE ENERGY PREDICTED BY IDOCK:   17.04 KCAL/MOL
REMARK 923 INTER-LIGAND FREE ENERGY PREDICTED BY IDOCK:   14.14 KCAL/MOL
REMARK 924 INTRA-LIGAND FREE ENERGY PREDICTED BY IDOCK:    2.91 KCAL/MOL
REMARK 927      BINDING AFFINITY PREDICTED BY RF-SCORE:    0.00 PKD
ROOT
HETATM    1  C   UNL     1     -11.810  11.866  69.841  1.00  0.00    -0.343 C  
HETATM    2  C   UNL     1     -12.507  10.346  69.388  1.00  0.00     0.255 C  
HETATM    3  C   UNL     1     -11.738   9.937  67.992  1.00  0.00     0.883 C  
HETATM    4  C   UNL     1     -10.842   8.848  67.170  1.00  0.00    -0.069 C  
HETATM    5  C   UNL     1      -9.715   8.281  68.113  1.00  0.00    -0.178 C  
HETATM    6  C   UNL     1      -8.408   7.816  67.532  1.00  0.00    -0.120 C  
HETATM    7  C   UNL     1      -7.904   8.744  66.407  1.00  0.00    -0.099 C  
HETATM    8  C   UNL     1      -6.598   8.745  66.088  1.00  0.00    -0.065 C  
HETATM    9  C   UNL     1      -6.372   7.334  65.628  1.00  0.00    -0.041 C  
HETATM   10  C   UNL     1      -7.539   6.676  64.886  1.00  0.00    -0.101 C  
HETATM   11  O   UNL     1      -5.327   6.750  65.889  1.00  0.00    -0.021 OA 
HETATM   12  C   UNL     1      -8.736   7.328  64.740  1.00  0.00     0.334 C  
HETATM   13  C   UNL     1      -8.893   8.771  65.220  1.00  0.00    -0.205 C  
HETATM   14  C   UNL     1      -8.484   9.569  63.943  1.00  0.00    -0.195 C  
HETATM   15  C   UNL     1     -10.093   9.518  65.949  1.00  0.00    -0.284 C  
HETATM   16  C   UNL     1     -10.971  10.496  65.163  1.00  0.00     0.416 C  
HETATM   17  O   UNL     1     -12.216   9.949  64.767  1.00  0.00     5.401 OA 
HETATM   18  C   UNL     1     -11.089  11.710  66.101  1.00  0.00    -0.335 C  
HETATM   19  C   UNL     1     -11.602  11.346  67.509  1.00  0.00    -0.298 C  
HETATM   20  H   UNL     1     -12.761  10.556  64.280  1.00  0.00     0.000 HD 
HETATM   21  C   UNL     1     -13.195  11.740  67.333  1.00  0.00     6.294 C  
HETATM   22  C   UNL     1     -10.618  11.784  68.917  1.00  0.00    -0.180 C  
HETATM   23  O   UNL     1     -10.089  13.029  68.678  1.00  0.00    -0.218 OA 
HETATM   24  O   UNL     1     -12.248  13.233  69.549  1.00  0.00    -0.269 OA 
HETATM   25  C   UNL     1     -11.212  13.892  68.753  1.00  0.00    -0.272 C  
ENDROOT
BRANCH  22  26
HETATM   26  C   UNL     1      -9.650  10.865  70.025  1.00  0.00     0.912 C  
HETATM   27  O   UNL     1      -8.419  10.729  69.853  1.00  0.00     0.212 OA 
BRANCH  26  28
HETATM   28  C   UNL     1     -10.217  10.127  71.255  1.00  0.00     1.138 C  
BRANCH  28  29
HETATM   29  O   UNL     1      -9.335   9.005  71.707  1.00  0.00    -0.303 OA 
BRANCH  29  30
HETATM   30  C   UNL     1      -7.996   9.224  71.854  1.00  0.00     0.628 C  
HETATM   31  C   UNL     1      -5.819   8.756  73.153  1.00  0.00    -0.090 C  
HETATM   32  C   UNL     1      -7.821   7.439  73.739  1.00  0.00    -0.142 C  
HETATM   33  O   UNL     1      -7.327   9.765  70.968  1.00  0.00    -0.329 OA 
HETATM   34  C   UNL     1      -7.366   8.797  73.211  1.00  0.00     0.170 C  
ENDBRANCH  29  30
ENDBRANCH  28  29
ENDBRANCH  26  28
ENDBRANCH  22  26
BRANCH  25  35
HETATM   35  C   UNL     1     -10.560  15.229  69.162  1.00  0.00    -0.250 C  
HETATM   36  C   UNL     1      -9.209  14.932  69.898  1.00  0.00     0.303 C  
HETATM   37  C   UNL     1     -10.286  16.181  68.005  1.00  0.00    -0.271 C  
HETATM   38  C   UNL     1      -8.503  16.187  70.388  1.00  0.00     2.031 C  
HETATM   39  C   UNL     1      -8.306  17.192  69.258  1.00  0.00     0.137 C  
HETATM   40  C   UNL     1      -9.612  17.463  68.510  1.00  0.00    -0.298 C  
ENDBRANCH  25  35
TORSDOF 5
ENDMDL
MODEL      148
REMARK 921   NORMALIZED FREE ENERGY PREDICTED BY IDOCK:   14.44 KCAL/MOL
REMARK 922        TOTAL FREE ENERGY PREDICTED BY IDOCK:   18.33 KCAL/MOL
REMARK 923 INTER-LIGAND FREE ENERGY PREDICTED BY IDOCK:   13.93 KCAL/MOL
REMARK 924 INTRA-LIGAND FREE ENERGY PREDICTED BY IDOCK:    4.40 KCAL/MOL
REMARK 927      BINDING AFFINITY PREDICTED BY RF-SCORE:    0.00 PKD
ROOT
HETATM    1  C   UNL     1     -10.646   8.594  66.553  1.00  0.00     0.090 C  
HETATM    2  C   UNL     1     -11.905   9.243  67.550  1.00  0.00     3.049 C  
HETATM    3  C   UNL     1     -11.197  10.491  68.353  1.00  0.00    -0.339 C  
HETATM    4  C   UNL     1     -11.199  12.082  68.724  1.00  0.00    -0.316 C  
HETATM    5  C   UNL     1     -11.514  12.920  67.429  1.00  0.00    -0.388 C  
HETATM    6  C   UNL     1     -10.964  14.312  67.277  1.00  0.00    -0.302 C  
HETATM    7  C   UNL     1      -9.511  14.425  67.783  1.00  0.00    -0.211 C  
HETATM    8  C   UNL     1      -8.734  15.430  67.340  1.00  0.00    -0.194 C  
HETATM    9  C   UNL     1      -9.466  16.647  67.826  1.00  0.00    -0.227 C  
HETATM   10  C   UNL     1     -10.175  16.508  69.177  1.00  0.00    -0.298 C  
HETATM   11  O   UNL     1      -9.518  17.661  67.141  1.00  0.00    -0.257 OA 
HETATM   12  C   UNL     1     -10.197  15.308  69.838  1.00  0.00    -0.233 C  
HETATM   13  C   UNL     1      -9.419  14.110  69.292  1.00  0.00     0.281 C  
HETATM   14  C   UNL     1      -8.038  14.292  69.997  1.00  0.00     0.999 C  
HETATM   15  C   UNL     1      -9.775  12.563  69.219  1.00  0.00     0.697 C  
HETATM   16  C   UNL     1      -9.106  11.580  70.183  1.00  0.00     2.830 C  
HETATM   17  O   UNL     1      -9.930  11.202  71.272  1.00  0.00     3.252 OA 
HETATM   18  C   UNL     1      -8.690  10.409  69.276  1.00  0.00    -0.160 C  
HETATM   19  C   UNL     1      -9.858   9.833  68.450  1.00  0.00    -0.168 C  
HETATM   20  H   UNL     1      -9.515  10.593  71.870  1.00  0.00     0.000 HD 
HETATM   21  C   UNL     1     -10.249   8.535  69.393  1.00  0.00    -0.211 C  
HETATM   22  C   UNL     1      -9.707   9.770  66.685  1.00  0.00    -0.201 C  
HETATM   23  O   UNL     1      -8.414   9.408  66.395  1.00  0.00    -0.123 OA 
HETATM   24  O   UNL     1      -9.703   7.503  66.810  1.00  0.00    -0.190 OA 
HETATM   25  C   UNL     1      -8.346   8.051  66.800  1.00  0.00    -0.116 C  
ENDROOT
BRANCH  22  26
HETATM   26  C   UNL     1     -10.438  10.673  65.396  1.00  0.00    -0.184 C  
HETATM   27  O   UNL     1     -10.853  10.107  64.362  1.00  0.00     0.704 OA 
BRANCH  26  28
HETATM   28  C   UNL     1     -10.594  12.207  65.402  1.00  0.00    -0.272 C  
BRANCH  28  29
HETATM   29  O   UNL     1      -9.482  12.900  64.679  1.00  0.00     0.220 OA 
BRANCH  29  30
HETATM   30  C   UNL     1      -8.295  12.250  64.497  1.00  0.00     2.590 C  
HETATM   31  C   UNL     1      -6.130  11.295  65.518  1.00  0.00     0.430 C  
HETATM   32  C   UNL     1      -7.861  12.141  67.060  1.00  0.00    -0.123 C  
HETATM   33  O   UNL     1      -8.035  11.658  63.444  1.00  0.00     0.957 OA 
HETATM   34  C   UNL     1      -7.271  12.332  65.664  1.00  0.00     2.673 C  
ENDBRANCH  29  30
ENDBRANCH  28  29
ENDBRANCH  26  28
ENDBRANCH  22  26
BRANCH  25  35
HETATM   35  C   UNL     1      -7.224   7.504  65.894  1.00  0.00    -0.066 C  
HETATM   36  C   UNL     1      -7.108   5.955  66.107  1.00  0.00    -0.071 C  
HETATM   37  C   UNL     1      -7.418   7.779  64.408  1.00  0.00    -0.099 C  
HETATM   38  C   UNL     1      -5.993   5.318  65.291  1.00  0.00    -0.025 C  
HETATM   39  C   UNL     1      -6.120   5.664  63.810  1.00  0.00    -0.025 C  
HETATM   40  C   UNL     1      -6.270   7.170  63.594  1.00  0.00    -0.044 C  
ENDBRANCH  25  35
TORSDOF 5
ENDMDL
MODEL      149
REMARK 921   NORMALIZED FREE ENERGY PREDICTED BY IDOCK:   15.67 KCAL/MOL
REMARK 922        TOTAL FREE ENERGY PREDICTED BY IDOCK:   19.93 KCAL/MOL
REMARK 923 INTER-LIGAND FREE ENERGY PREDICTED BY IDOCK:   12.29 KCAL/MOL
REMARK 924 INTRA-LIGAND FREE ENERGY PREDICTED BY IDOCK:    7.64 KCAL/MOL
REMARK 927      BINDING AFFINITY PREDICTED BY RF-SCORE:    0.00 PKD
ROOT
HETATM    1  C   UNL     1     -11.322  14.977  65.093  1.00  0.00    -0.372 C  
HETATM    2  C   UNL     1     -11.256  13.352  64.499  1.00  0.00    -0.393 C  
HETATM    3  C   UNL     1     -10.222  12.579  65.518  1.00  0.00    -0.295 C  
HETATM    4  C   UNL     1      -9.961  11.346  66.557  1.00  0.00    -0.243 C  
HETATM    5  C   UNL     1     -11.220  11.171  67.487  1.00  0.00    -0.369 C  
HETATM    6  C   UNL     1     -11.059  10.632  68.882  1.00  0.00    -0.314 C  
HETATM    7  C   UNL     1      -9.808  11.194  69.586  1.00  0.00     0.397 C  
HETATM    8  C   UNL     1      -9.743  11.178  70.930  1.00  0.00     4.507 C  
HETATM    9  C   UNL     1      -9.801   9.711  71.242  1.00  0.00     0.184 C  
HETATM   10  C   UNL     1      -9.110   8.783  70.238  1.00  0.00    -0.185 C  
HETATM   11  O   UNL     1     -10.416   9.303  72.221  1.00  0.00    -0.019 OA 
HETATM   12  C   UNL     1      -8.554   9.282  69.089  1.00  0.00    -0.134 C  
HETATM   13  C   UNL     1      -8.517  10.790  68.840  1.00  0.00    -0.149 C  
HETATM   14  C   UNL     1      -7.147  11.176  69.480  1.00  0.00    -0.088 C  
HETATM   15  C   UNL     1      -8.745  11.649  67.522  1.00  0.00    -0.156 C  
HETATM   16  C   UNL     1      -7.547  12.279  66.805  1.00  0.00     0.104 C  
HETATM   17  O   UNL     1      -7.128  11.559  65.659  1.00  0.00    -0.164 OA 
HETATM   18  C   UNL     1      -8.015  13.714  66.509  1.00  0.00     0.860 C  
HETATM   19  C   UNL     1      -9.350  13.773  65.740  1.00  0.00     0.120 C  
HETATM   20  H   UNL     1      -6.385  11.950  65.215  1.00  0.00     0.000 HD 
HETATM   21  C   UNL     1      -8.777  13.993  64.207  1.00  0.00     6.646 C  
HETATM   22  C   UNL     1     -10.699  14.687  66.438  1.00  0.00    -0.309 C  
HETATM   23  O   UNL     1     -10.177  15.827  66.999  1.00  0.00    -0.267 OA 
HETATM   24  O   UNL     1     -10.539  16.156  64.714  1.00  0.00    -0.630 OA 
HETATM   25  C   UNL     1      -9.773  16.599  65.880  1.00  0.00    -0.237 C  
ENDROOT
BRANCH  22  26
HETATM   26  C   UNL     1     -12.195  14.220  67.182  1.00  0.00    -0.277 C  
HETATM   27  O   UNL     1     -12.961  13.396  66.638  1.00  0.00     0.128 OA 
BRANCH  26  28
HETATM   28  C   UNL     1     -12.708  14.796  68.518  1.00  0.00     0.776 C  
BRANCH  28  29
HETATM   29  O   UNL     1     -11.854  15.914  69.027  1.00  0.00    -0.389 OA 
BRANCH  29  30
HETATM   30  C   UNL     1     -10.805  15.632  69.854  1.00  0.00    -0.318 C  
HETATM   31  C   UNL     1      -8.367  16.093  70.554  1.00  0.00     2.456 C  
HETATM   32  C   UNL     1      -9.387  17.577  68.866  1.00  0.00    -0.169 C  
HETATM   33  O   UNL     1     -10.954  14.969  70.885  1.00  0.00    -0.237 OA 
HETATM   34  C   UNL     1      -9.408  16.149  69.408  1.00  0.00    -0.186 C  
ENDBRANCH  29  30
ENDBRANCH  28  29
ENDBRANCH  26  28
ENDBRANCH  22  26
BRANCH  25  35
HETATM   35  C   UNL     1      -9.847  18.035  66.439  1.00  0.00    -0.340 C  
HETATM   36  C   UNL     1     -10.207  19.017  65.272  1.00  0.00     0.836 C  
HETATM   37  C   UNL     1     -10.855  18.226  67.565  1.00  0.00    -0.282 C  
HETATM   38  C   UNL     1     -10.259  20.474  65.707  1.00  0.00     0.070 C  
HETATM   39  C   UNL     1     -11.194  20.666  66.897  1.00  0.00     1.914 C  
HETATM   40  C   UNL     1     -10.874  19.688  68.029  1.00  0.00    -0.182 C  
ENDBRANCH  25  35
TORSDOF 5
ENDMDL
MODEL      150
REMARK 921   NORMALIZED FREE ENERGY PREDICTED BY IDOCK:   16.40 KCAL/MOL
REMARK 922        TOTAL FREE ENERGY PREDICTED BY IDOCK:   20.88 KCAL/MOL
REMARK 923 INTER-LIGAND FREE ENERGY PREDICTED BY IDOCK:   19.89 KCAL/MOL
REMARK 924 INTRA-LIGAND FREE ENERGY PREDICTED BY IDOCK:    0.99 KCAL/MOL
REMARK 927      BINDING AFFINITY PREDICTED BY RF-SCORE:    0.00 PKD
ROOT
HETATM    1  C   UNL     1      -7.477   7.674  64.152  1.00  0.00    -0.102 C  
HETATM    2  C   UNL     1      -7.929   6.012  63.968  1.00  0.00    -0.117 C  
HETATM    3  C   UNL     1      -7.874   5.396  65.491  1.00  0.00    -0.098 C  
HETATM    4  C   UNL     1      -8.650   4.627  66.705  1.00  0.00    -0.108 C  
HETATM    5  C   UNL     1     -10.102   5.217  66.853  1.00  0.00    -0.258 C  
HETATM    6  C   UNL     1     -10.784   5.218  68.195  1.00  0.00     0.023 C  
HETATM    7  C   UNL     1      -9.819   5.581  69.342  1.00  0.00    -0.240 C  
HETATM    8  C   UNL     1     -10.316   6.049  70.500  1.00  0.00    -0.279 C  
HETATM    9  C   UNL     1     -11.160   4.904  70.980  1.00  0.00     0.645 C  
HETATM   10  C   UNL     1     -10.631   3.502  70.662  1.00  0.00     1.545 C  
HETATM   11  O   UNL     1     -12.228   5.107  71.546  1.00  0.00     1.425 OA 
HETATM   12  C   UNL     1      -9.499   3.333  69.908  1.00  0.00    -0.216 C  
HETATM   13  C   UNL     1      -8.679   4.544  69.462  1.00  0.00    -0.114 C  
HETATM   14  C   UNL     1      -7.675   4.692  70.648  1.00  0.00    -0.054 C  
HETATM   15  C   UNL     1      -7.936   4.872  68.096  1.00  0.00    -0.086 C  
HETATM   16  C   UNL     1      -6.410   4.777  68.017  1.00  0.00    -0.037 C  
HETATM   17  O   UNL     1      -5.945   3.589  67.401  1.00  0.00    -0.023 OA 
HETATM   18  C   UNL     1      -6.005   6.066  67.279  1.00  0.00    -0.018 C  
HETATM   19  C   UNL     1      -6.726   6.248  65.929  1.00  0.00    -0.049 C  
HETATM   20  H   UNL     1      -4.998   3.531  67.352  1.00  0.00     0.000 HD 
HETATM   21  C   UNL     1      -5.554   5.687  64.911  1.00  0.00    -0.017 C  
HETATM   22  C   UNL     1      -7.658   7.730  65.651  1.00  0.00    -0.085 C  
HETATM   23  O   UNL     1      -6.949   8.771  66.198  1.00  0.00    -0.078 OA 
HETATM   24  O   UNL     1      -6.164   8.316  64.044  1.00  0.00    -0.065 OA 
HETATM   25  C   UNL     1      -5.825   8.899  65.343  1.00  0.00    -0.047 C  
ENDROOT
BRANCH  22  26
HETATM   26  C   UNL     1      -9.358   8.069  65.569  1.00  0.00     0.270 C  
HETATM   27  O   UNL     1     -10.207   7.210  65.890  1.00  0.00     0.491 OA 
BRANCH  26  28
HETATM   28  C   UNL     1      -9.945   9.405  65.071  1.00  0.00     0.385 C  
BRANCH  28  29
HETATM   29  O   UNL     1     -11.331   9.649  65.582  1.00  0.00     1.819 OA 
BRANCH  29  30
HETATM   30  C   UNL     1     -11.516  10.505  66.630  1.00  0.00     0.708 C  
HETATM   31  C   UNL     1     -11.806  12.923  67.472  1.00  0.00    -0.407 C  
HETATM   32  C   UNL     1     -11.791  12.541  65.035  1.00  0.00    -0.445 C  
HETATM   33  O   UNL     1     -11.850  10.097  67.747  1.00  0.00     0.066 OA 
HETATM   34  C   UNL     1     -11.240  12.011  66.357  1.00  0.00    -0.389 C  
ENDBRANCH  29  30
ENDBRANCH  28  29
ENDBRANCH  26  28
ENDBRANCH  22  26
BRANCH  25  35
HETATM   35  C   UNL     1      -5.452  10.385  65.526  1.00  0.00    -0.099 C  
HETATM   36  C   UNL     1      -6.364  11.256  64.596  1.00  0.00     1.292 C  
HETATM   37  C   UNL     1      -5.579  10.899  66.954  1.00  0.00    -0.065 C  
HETATM   38  C   UNL     1      -6.045  12.743  64.663  1.00  0.00    10.195 C  
HETATM   39  C   UNL     1      -6.076  13.253  66.101  1.00  0.00     4.454 C  
HETATM   40  C   UNL     1      -5.217  12.388  67.025  1.00  0.00     0.064 C  
ENDBRANCH  25  35
TORSDOF 5
ENDMDL
MODEL      151
REMARK 921   NORMALIZED FREE ENERGY PREDICTED BY IDOCK:   16.76 KCAL/MOL
REMARK 922        TOTAL FREE ENERGY PREDICTED BY IDOCK:   21.33 KCAL/MOL
REMARK 923 INTER-LIGAND FREE ENERGY PREDICTED BY IDOCK:   20.96 KCAL/MOL
REMARK 924 INTRA-LIGAND FREE ENERGY PREDICTED BY IDOCK:    0.37 KCAL/MOL
REMARK 927      BINDING AFFINITY PREDICTED BY RF-SCORE:    0.00 PKD
ROOT
HETATM    1  C   UNL     1     -12.976  10.984  70.659  1.00  0.00    -0.131 C  
HETATM    2  C   UNL     1     -13.497   9.657  69.673  1.00  0.00     2.418 C  
HETATM    3  C   UNL     1     -12.488   9.684  68.375  1.00  0.00     3.871 C  
HETATM    4  C   UNL     1     -11.406   8.892  67.443  1.00  0.00     1.029 C  
HETATM    5  C   UNL     1     -10.416   8.085  68.363  1.00  0.00    -0.205 C  
HETATM    6  C   UNL     1      -9.005   7.824  67.909  1.00  0.00    -0.125 C  
HETATM    7  C   UNL     1      -8.381   9.046  67.204  1.00  0.00    -0.110 C  
HETATM    8  C   UNL     1      -7.043   9.153  67.131  1.00  0.00    -0.082 C  
HETATM    9  C   UNL     1      -6.661   7.942  66.331  1.00  0.00    -0.050 C  
HETATM   10  C   UNL     1      -7.649   7.519  65.240  1.00  0.00    -0.097 C  
HETATM   11  O   UNL     1      -5.639   7.317  66.590  1.00  0.00    -0.022 OA 
HETATM   12  C   UNL     1      -8.843   8.174  65.082  1.00  0.00     0.024 C  
HETATM   13  C   UNL     1      -9.163   9.411  65.923  1.00  0.00    -0.269 C  
HETATM   14  C   UNL     1      -8.600  10.553  65.020  1.00  0.00    -0.184 C  
HETATM   15  C   UNL     1     -10.509   9.899  66.615  1.00  0.00    -0.239 C  
HETATM   16  C   UNL     1     -11.304  11.056  66.004  1.00  0.00     0.269 C  
HETATM   17  O   UNL     1     -12.432  10.638  65.257  1.00  0.00     2.981 OA 
HETATM   18  C   UNL     1     -11.646  11.940  67.216  1.00  0.00    -0.364 C  
HETATM   19  C   UNL     1     -12.359  11.173  68.348  1.00  0.00     0.443 C  
HETATM   20  H   UNL     1     -12.926  11.356  64.879  1.00  0.00     0.000 HD 
HETATM   21  C   UNL     1     -13.923  11.587  68.019  1.00  0.00    12.166 C  
HETATM   22  C   UNL     1     -11.647  11.188  69.971  1.00  0.00    -0.338 C  
HETATM   23  O   UNL     1     -11.162  12.454  70.196  1.00  0.00     0.086 OA 
HETATM   24  O   UNL     1     -13.442  12.372  70.700  1.00  0.00     0.619 OA 
HETATM   25  C   UNL     1     -12.332  13.245  70.320  1.00  0.00    -0.264 C  
ENDROOT
BRANCH  22  26
HETATM   26  C   UNL     1     -10.819   9.994  70.918  1.00  0.00    -0.206 C  
HETATM   27  O   UNL     1     -11.350   9.484  71.928  1.00  0.00    -0.329 OA 
BRANCH  26  28
HETATM   28  C   UNL     1      -9.385   9.506  70.626  1.00  0.00    -0.199 C  
BRANCH  28  29
HETATM   29  O   UNL     1      -8.568   9.345  71.870  1.00  0.00    -0.154 OA 
BRANCH  29  30
HETATM   30  C   UNL     1      -7.210   9.467  71.798  1.00  0.00     0.472 C  
HETATM   31  C   UNL     1      -5.149  10.464  70.616  1.00  0.00    -0.059 C  
HETATM   32  C   UNL     1      -7.379  11.244  69.905  1.00  0.00     0.370 C  
HETATM   33  O   UNL     1      -6.478   9.107  72.726  1.00  0.00    -0.313 OA 
HETATM   34  C   UNL     1      -6.631  10.040  70.473  1.00  0.00    -0.122 C  
ENDBRANCH  29  30
ENDBRANCH  28  29
ENDBRANCH  26  28
ENDBRANCH  22  26
BRANCH  25  35
HETATM   35  C   UNL     1     -11.837  14.410  71.203  1.00  0.00    -0.316 C  
HETATM   36  C   UNL     1     -12.039  15.757  70.428  1.00  0.00    -0.399 C  
HETATM   37  C   UNL     1     -12.527  14.517  72.557  1.00  0.00    -0.340 C  
HETATM   38  C   UNL     1     -11.537  16.972  71.194  1.00  0.00     1.056 C  
HETATM   39  C   UNL     1     -12.149  17.041  72.590  1.00  0.00     0.615 C  
HETATM   40  C   UNL     1     -11.988  15.719  73.342  1.00  0.00    -0.542 C  
ENDBRANCH  25  35
TORSDOF 5
ENDMDL
MODEL      152
REMARK 921   NORMALIZED FREE ENERGY PREDICTED BY IDOCK:   17.63 KCAL/MOL
REMARK 922        TOTAL FREE ENERGY PREDICTED BY IDOCK:   22.46 KCAL/MOL
REMARK 923 INTER-LIGAND FREE ENERGY PREDICTED BY IDOCK:   20.83 KCAL/MOL
REMARK 924 INTRA-LIGAND FREE ENERGY PREDICTED BY IDOCK:    1.63 KCAL/MOL
REMARK 927      BINDING AFFINITY PREDICTED BY RF-SCORE:    0.00 PKD
ROOT
HETATM    1  C   UNL     1      -7.768   7.008  66.979  1.00  0.00    -0.107 C  
HETATM    2  C   UNL     1      -8.456   5.839  68.057  1.00  0.00    -0.106 C  
HETATM    3  C   UNL     1      -8.755   6.676  69.441  1.00  0.00    -0.135 C  
HETATM    4  C   UNL     1      -9.836   7.151  70.569  1.00  0.00    -0.181 C  
HETATM    5  C   UNL     1     -11.174   7.585  69.860  1.00  0.00    -0.124 C  
HETATM    6  C   UNL     1     -12.056   8.631  70.486  1.00  0.00     0.120 C  
HETATM    7  C   UNL     1     -11.244   9.789  71.100  1.00  0.00    -0.444 C  
HETATM    8  C   UNL     1     -11.839  10.979  71.299  1.00  0.00     0.028 C  
HETATM    9  C   UNL     1     -12.929  10.641  72.274  1.00  0.00    -0.032 C  
HETATM   10  C   UNL     1     -12.598   9.552  73.300  1.00  0.00     2.454 C  
HETATM   11  O   UNL     1     -14.026  11.182  72.200  1.00  0.00     0.155 OA 
HETATM   12  C   UNL     1     -11.402   8.883  73.252  1.00  0.00     2.084 C  
HETATM   13  C   UNL     1     -10.330   9.289  72.240  1.00  0.00     0.492 C  
HETATM   14  C   UNL     1      -9.522  10.349  73.053  1.00  0.00    10.976 C  
HETATM   15  C   UNL     1      -9.328   8.424  71.359  1.00  0.00    -0.247 C  
HETATM   16  C   UNL     1      -7.848   8.348  71.740  1.00  0.00    -0.126 C  
HETATM   17  O   UNL     1      -7.494   7.151  72.410  1.00  0.00    -0.086 OA 
HETATM   18  C   UNL     1      -7.118   8.557  70.402  1.00  0.00    -0.038 C  
HETATM   19  C   UNL     1      -7.568   7.574  69.302  1.00  0.00    -0.100 C  
HETATM   20  H   UNL     1      -6.575   7.104  72.646  1.00  0.00     0.000 HD 
HETATM   21  C   UNL     1      -6.355   6.460  69.414  1.00  0.00    -0.035 C  
HETATM   22  C   UNL     1      -8.181   8.226  67.772  1.00  0.00    -0.127 C  
HETATM   23  O   UNL     1      -7.406   9.314  67.448  1.00  0.00    -0.086 OA 
HETATM   24  O   UNL     1      -6.367   7.350  66.723  1.00  0.00    -0.042 OA 
HETATM   25  C   UNL     1      -6.152   8.745  67.109  1.00  0.00    -0.055 C  
ENDROOT
BRANCH  22  26
HETATM   26  C   UNL     1      -9.763   8.319  67.066  1.00  0.00    -0.211 C  
HETATM   27  O   UNL     1     -10.344   7.298  66.639  1.00  0.00    -0.239 OA 
BRANCH  26  28
HETATM   28  C   UNL     1     -10.544   9.635  66.875  1.00  0.00    -0.171 C  
BRANCH  28  29
HETATM   29  O   UNL     1     -10.698  10.007  65.434  1.00  0.00     0.099 OA 
BRANCH  29  30
HETATM   30  C   UNL     1      -9.786   9.553  64.524  1.00  0.00     0.259 C  
HETATM   31  C   UNL     1      -8.098  10.080  62.650  1.00  0.00    -0.146 C  
HETATM   32  C   UNL     1      -9.102  11.976  63.868  1.00  0.00     0.523 C  
HETATM   33  O   UNL     1      -9.343   8.401  64.571  1.00  0.00     0.618 OA 
HETATM   34  C   UNL     1      -9.368  10.546  63.403  1.00  0.00    -0.335 C  
ENDBRANCH  29  30
ENDBRANCH  28  29
ENDBRANCH  26  28
ENDBRANCH  22  26
BRANCH  25  35
HETATM   35  C   UNL     1      -5.571   9.804  66.149  1.00  0.00    -0.052 C  
HETATM   36  C   UNL     1      -5.827   9.346  64.672  1.00  0.00    -0.070 C  
HETATM   37  C   UNL     1      -6.138  11.205  66.331  1.00  0.00    -0.137 C  
HETATM   38  C   UNL     1      -5.249  10.301  63.638  1.00  0.00    -0.129 C  
HETATM   39  C   UNL     1      -5.735  11.729  63.866  1.00  0.00     3.175 C  
HETATM   40  C   UNL     1      -5.522  12.173  65.314  1.00  0.00     3.407 C  
ENDBRANCH  25  35
TORSDOF 5
ENDMDL
MODEL      153
REMARK 921   NORMALIZED FREE ENERGY PREDICTED BY IDOCK:   19.61 KCAL/MOL
REMARK 922        TOTAL FREE ENERGY PREDICTED BY IDOCK:   25.02 KCAL/MOL
REMARK 923 INTER-LIGAND FREE ENERGY PREDICTED BY IDOCK:   18.69 KCAL/MOL
REMARK 924 INTRA-LIGAND FREE ENERGY PREDICTED BY IDOCK:    6.33 KCAL/MOL
REMARK 927      BINDING AFFINITY PREDICTED BY RF-SCORE:    0.00 PKD
ROOT
HETATM    1  C   UNL     1     -10.998  14.155  65.345  1.00  0.00    -0.327 C  
HETATM    2  C   UNL     1     -10.704  12.736  64.397  1.00  0.00    -0.398 C  
HETATM    3  C   UNL     1     -10.049  11.659  65.454  1.00  0.00    -0.299 C  
HETATM    4  C   UNL     1     -10.119  10.186  66.156  1.00  0.00    -0.314 C  
HETATM    5  C   UNL     1     -11.611   9.865  66.546  1.00  0.00     2.057 C  
HETATM    6  C   UNL     1     -11.909   8.976  67.723  1.00  0.00     2.922 C  
HETATM    7  C   UNL     1     -10.974   9.253  68.917  1.00  0.00    -0.050 C  
HETATM    8  C   UNL     1     -11.357   8.889  70.154  1.00  0.00    -0.119 C  
HETATM    9  C   UNL     1     -11.484   7.398  70.031  1.00  0.00    -0.065 C  
HETATM   10  C   UNL     1     -10.478   6.714  69.099  1.00  0.00    -0.250 C  
HETATM   11  O   UNL     1     -12.378   6.795  70.613  1.00  0.00    -0.359 OA 
HETATM   12  C   UNL     1      -9.585   7.452  68.367  1.00  0.00    -0.149 C  
HETATM   13  C   UNL     1      -9.500   8.968  68.552  1.00  0.00    -0.148 C  
HETATM   14  C   UNL     1      -8.429   9.083  69.680  1.00  0.00    -0.128 C  
HETATM   15  C   UNL     1      -9.298  10.149  67.508  1.00  0.00    -0.168 C  
HETATM   16  C   UNL     1      -7.945  10.859  67.412  1.00  0.00    -0.113 C  
HETATM   17  O   UNL     1      -7.154  10.431  66.317  1.00  0.00    -0.108 OA 
HETATM   18  C   UNL     1      -8.320  12.350  67.370  1.00  0.00    -0.180 C  
HETATM   19  C   UNL     1      -9.326  12.695  66.254  1.00  0.00    -0.162 C  
HETATM   20  H   UNL     1      -6.315  10.871  66.258  1.00  0.00     0.000 HD 
HETATM   21  C   UNL     1      -8.283  13.262  65.106  1.00  0.00     4.290 C  
HETATM   22  C   UNL     1     -10.849  13.489  66.692  1.00  0.00    -0.283 C  
HETATM   23  O   UNL     1     -10.567  14.409  67.672  1.00  0.00    -0.256 OA 
HETATM   24  O   UNL     1     -10.160  15.336  65.566  1.00  0.00    -0.339 OA 
HETATM   25  C   UNL     1      -9.833  15.412  66.990  1.00  0.00    -0.232 C  
ENDROOT
BRANCH  22  26
HETATM   26  C   UNL     1     -12.497  12.948  66.758  1.00  0.00     0.309 C  
HETATM   27  O   UNL     1     -13.151  12.730  65.716  1.00  0.00    -0.045 OA 
BRANCH  26  28
HETATM   28  C   UNL     1     -13.281  12.738  68.070  1.00  0.00     4.379 C  
BRANCH  28  29
HETATM   29  O   UNL     1     -12.444  12.988  69.285  1.00  0.00    -0.032 OA 
BRANCH  29  30
HETATM   30  C   UNL     1     -11.711  11.965  69.816  1.00  0.00    -0.331 C  
HETATM   31  C   UNL     1      -9.481  11.138  70.808  1.00  0.00     4.318 C  
HETATM   32  C   UNL     1      -9.728  13.554  70.371  1.00  0.00     3.702 C  
HETATM   33  O   UNL     1     -12.242  10.913  70.186  1.00  0.00    -0.300 OA 
HETATM   34  C   UNL     1     -10.172  12.175  69.889  1.00  0.00     1.510 C  
ENDBRANCH  29  30
ENDBRANCH  28  29
ENDBRANCH  26  28
ENDBRANCH  22  26
BRANCH  25  35
HETATM   35  C   UNL     1     -10.119  16.658  67.854  1.00  0.00    -0.270 C  
HETATM   36  C   UNL     1      -9.151  16.657  69.086  1.00  0.00    -0.157 C  
HETATM   37  C   UNL     1      -9.973  17.985  67.121  1.00  0.00    -0.326 C  
HETATM   38  C   UNL     1      -9.382  17.824  70.034  1.00  0.00     1.716 C  
HETATM   39  C   UNL     1      -9.332  19.158  69.295  1.00  0.00    -0.116 C  
HETATM   40  C   UNL     1     -10.247  19.158  68.070  1.00  0.00    -0.489 C  
ENDBRANCH  25  35
TORSDOF 5
ENDMDL
MODEL      154
REMARK 921   NORMALIZED FREE ENERGY PREDICTED BY IDOCK:   23.09 KCAL/MOL
REMARK 922        TOTAL FREE ENERGY PREDICTED BY IDOCK:   29.51 KCAL/MOL
REMARK 923 INTER-LIGAND FREE ENERGY PREDICTED BY IDOCK:   27.34 KCAL/MOL
REMARK 924 INTRA-LIGAND FREE ENERGY PREDICTED BY IDOCK:    2.18 KCAL/MOL
REMARK 927      BINDING AFFINITY PREDICTED BY RF-SCORE:    0.00 PKD
ROOT
HETATM    1  C   UNL     1      -7.500  10.707  68.554  1.00  0.00    -0.093 C  
HETATM    2  C   UNL     1      -6.806  11.922  67.533  1.00  0.00    -0.124 C  
HETATM    3  C   UNL     1      -7.965  12.230  66.408  1.00  0.00     0.333 C  
HETATM    4  C   UNL     1      -8.932  13.323  65.677  1.00  0.00     0.798 C  
HETATM    5  C   UNL     1      -9.539  14.291  66.760  1.00  0.00    -0.290 C  
HETATM    6  C   UNL     1     -10.887  14.923  66.539  1.00  0.00    -0.322 C  
HETATM    7  C   UNL     1     -11.897  13.942  65.910  1.00  0.00    -0.399 C  
HETATM    8  C   UNL     1     -13.215  14.175  66.044  1.00  0.00     0.540 C  
HETATM    9  C   UNL     1     -13.387  15.492  65.344  1.00  0.00     2.155 C  
HETATM   10  C   UNL     1     -12.492  15.724  64.122  1.00  0.00     0.388 C  
HETATM   11  O   UNL     1     -14.167  16.333  65.775  1.00  0.00     5.674 OA 
HETATM   12  C   UNL     1     -11.540  14.805  63.764  1.00  0.00     0.546 C  
HETATM   13  C   UNL     1     -11.429  13.476  64.513  1.00  0.00    -0.407 C  
HETATM   14  C   UNL     1     -12.389  12.570  63.681  1.00  0.00    -0.618 C  
HETATM   15  C   UNL     1     -10.167  12.626  64.974  1.00  0.00    -0.294 C  
HETATM   16  C   UNL     1      -9.790  11.349  64.218  1.00  0.00    -0.261 C  
HETATM   17  O   UNL     1      -8.713  11.521  63.315  1.00  0.00    -0.455 OA 
HETATM   18  C   UNL     1      -9.513  10.333  65.339  1.00  0.00    -0.287 C  
HETATM   19  C   UNL     1      -8.472  10.824  66.365  1.00  0.00    -0.158 C  
HETATM   20  H   UNL     1      -8.479  10.728  62.846  1.00  0.00     0.000 HD 
HETATM   21  C   UNL     1      -7.130  10.057  65.785  1.00  0.00    -0.117 C  
HETATM   22  C   UNL     1      -8.922  10.883  68.078  1.00  0.00    -0.145 C  
HETATM   23  O   UNL     1      -9.676   9.766  68.344  1.00  0.00    -0.146 OA 
HETATM   24  O   UNL     1      -7.402   9.246  68.488  1.00  0.00    -0.075 OA 
HETATM   25  C   UNL     1      -8.742   8.702  68.264  1.00  0.00    -0.142 C  
ENDROOT
BRANCH  22  26
HETATM   26  C   UNL     1      -9.272  12.183  69.173  1.00  0.00     0.577 C  
HETATM   27  O   UNL     1     -10.448  12.490  69.461  1.00  0.00     0.243 OA 
BRANCH  26  28
HETATM   28  C   UNL     1      -8.193  13.067  69.830  1.00  0.00     1.996 C  
BRANCH  28  29
HETATM   29  O   UNL     1      -8.775  14.099  70.745  1.00  0.00     2.903 OA 
BRANCH  29  30
HETATM   30  C   UNL     1      -9.913  13.809  71.442  1.00  0.00     6.630 C  
HETATM   31  C   UNL     1     -12.174  14.601  72.393  1.00  0.00    -0.312 C  
HETATM   32  C   UNL     1     -10.936  16.143  70.917  1.00  0.00    -0.103 C  
HETATM   33  O   UNL     1     -10.237  12.644  71.697  1.00  0.00     8.406 OA 
HETATM   34  C   UNL     1     -10.755  15.020  71.936  1.00  0.00     0.762 C  
ENDBRANCH  29  30
ENDBRANCH  28  29
ENDBRANCH  26  28
ENDBRANCH  22  26
BRANCH  25  35
HETATM   35  C   UNL     1      -9.385   7.643  69.184  1.00  0.00    -0.147 C  
HETATM   36  C   UNL     1     -10.944   7.728  69.045  1.00  0.00     0.056 C  
HETATM   37  C   UNL     1      -8.947   6.211  68.905  1.00  0.00    -0.124 C  
HETATM   38  C   UNL     1     -11.681   6.753  69.950  1.00  0.00    -0.279 C  
HETATM   39  C   UNL     1     -11.186   5.324  69.750  1.00  0.00     0.889 C  
HETATM   40  C   UNL     1      -9.662   5.236  69.848  1.00  0.00    -0.260 C  
ENDBRANCH  25  35
TORSDOF 5
ENDMDL
MODEL      155
REMARK 921   NORMALIZED FREE ENERGY PREDICTED BY IDOCK:   26.27 KCAL/MOL
REMARK 922        TOTAL FREE ENERGY PREDICTED BY IDOCK:   33.63 KCAL/MOL
REMARK 923 INTER-LIGAND FREE ENERGY PREDICTED BY IDOCK:   27.27 KCAL/MOL
REMARK 924 INTRA-LIGAND FREE ENERGY PREDICTED BY IDOCK:    6.36 KCAL/MOL
REMARK 927      BINDING AFFINITY PREDICTED BY RF-SCORE:    0.00 PKD
ROOT
HETATM    1  C   UNL     1     -13.067  10.695  70.906  1.00  0.00    -0.256 C  
HETATM    2  C   UNL     1     -13.830   9.358  70.112  1.00  0.00     1.402 C  
HETATM    3  C   UNL     1     -12.709   8.819  69.037  1.00  0.00     4.677 C  
HETATM    4  C   UNL     1     -11.802   7.579  68.483  1.00  0.00     1.717 C  
HETATM    5  C   UNL     1     -11.210   6.779  69.704  1.00  0.00    -0.345 C  
HETATM    6  C   UNL     1      -9.894   6.062  69.571  1.00  0.00    -0.202 C  
HETATM    7  C   UNL     1      -8.860   6.881  68.772  1.00  0.00    -0.132 C  
HETATM    8  C   UNL     1      -7.550   6.618  68.924  1.00  0.00    -0.101 C  
HETATM    9  C   UNL     1      -7.445   5.197  68.451  1.00  0.00    -0.075 C  
HETATM   10  C   UNL     1      -8.375   4.804  67.298  1.00  0.00    -0.105 C  
HETATM   11  O   UNL     1      -6.690   4.406  69.004  1.00  0.00    -0.044 OA 
HETATM   12  C   UNL     1      -9.297   5.691  66.806  1.00  0.00    -0.139 C  
HETATM   13  C   UNL     1      -9.339   7.129  67.325  1.00  0.00    -0.156 C  
HETATM   14  C   UNL     1      -8.362   7.842  66.339  1.00  0.00    -0.129 C  
HETATM   15  C   UNL     1     -10.556   8.097  67.656  1.00  0.00    -0.258 C  
HETATM   16  C   UNL     1     -10.898   9.245  66.704  1.00  0.00     0.148 C  
HETATM   17  O   UNL     1     -12.001   8.973  65.858  1.00  0.00     5.093 OA 
HETATM   18  C   UNL     1     -11.110  10.444  67.644  1.00  0.00    -0.361 C  
HETATM   19  C   UNL     1     -12.147  10.175  68.752  1.00  0.00     0.642 C  
HETATM   20  H   UNL     1     -12.213   9.685  65.267  1.00  0.00     0.000 HD 
HETATM   21  C   UNL     1     -13.470  10.892  68.073  1.00  0.00     8.630 C  
HETATM   22  C   UNL     1     -11.663  10.382  70.445  1.00  0.00    -0.331 C  
HETATM   23  O   UNL     1     -10.859  11.495  70.510  1.00  0.00     0.724 OA 
HETATM   24  O   UNL     1     -13.107  12.127  70.599  1.00  0.00     0.100 OA 
HETATM   25  C   UNL     1     -11.752  12.569  70.268  1.00  0.00    -0.116 C  
ENDROOT
BRANCH  22  26
HETATM   26  C   UNL     1     -11.341   9.268  71.735  1.00  0.00    -0.367 C  
HETATM   27  O   UNL     1     -11.990   9.306  72.803  1.00  0.00     0.190 OA 
BRANCH  26  28
HETATM   28  C   UNL     1     -10.233   8.196  71.690  1.00  0.00    -0.206 C  
BRANCH  28  29
HETATM   29  O   UNL     1      -9.587   7.982  73.023  1.00  0.00    -0.248 OA 
BRANCH  29  30
HETATM   30  C   UNL     1      -8.403   7.305  73.092  1.00  0.00    -0.114 C  
HETATM   31  C   UNL     1      -6.275   6.467  71.903  1.00  0.00    -0.042 C  
HETATM   32  C   UNL     1      -7.771   7.986  70.662  1.00  0.00    -0.089 C  
HETATM   33  O   UNL     1      -7.895   6.997  74.175  1.00  0.00    -0.106 OA 
HETATM   34  C   UNL     1      -7.752   6.903  71.738  1.00  0.00    -0.095 C  
ENDBRANCH  29  30
ENDBRANCH  28  29
ENDBRANCH  26  28
ENDBRANCH  22  26
BRANCH  25  35
HETATM   35  C   UNL     1     -11.048  13.737  70.989  1.00  0.00     1.555 C  
HETATM   36  C   UNL     1      -9.814  14.192  70.135  1.00  0.00     1.433 C  
HETATM   37  C   UNL     1     -11.934  14.948  71.249  1.00  0.00    -0.393 C  
HETATM   38  C   UNL     1      -9.017  15.314  70.783  1.00  0.00     1.910 C  
HETATM   39  C   UNL     1      -9.911  16.499  71.136  1.00  0.00     3.273 C  
HETATM   40  C   UNL     1     -11.136  16.061  71.939  1.00  0.00     0.188 C  
ENDBRANCH  25  35
TORSDOF 5
ENDMDL
MODEL      156
REMARK 921   NORMALIZED FREE ENERGY PREDICTED BY IDOCK:   27.43 KCAL/MOL
REMARK 922        TOTAL FREE ENERGY PREDICTED BY IDOCK:   35.13 KCAL/MOL
REMARK 923 INTER-LIGAND FREE ENERGY PREDICTED BY IDOCK:   33.17 KCAL/MOL
REMARK 924 INTRA-LIGAND FREE ENERGY PREDICTED BY IDOCK:    1.95 KCAL/MOL
REMARK 927      BINDING AFFINITY PREDICTED BY RF-SCORE:    0.00 PKD
ROOT
HETATM    1  C   UNL     1     -11.140  17.398  70.019  1.00  0.00     1.084 C  
HETATM    2  C   UNL     1     -11.500  16.225  71.242  1.00  0.00    -0.369 C  
HETATM    3  C   UNL     1     -11.419  14.778  70.465  1.00  0.00    -0.300 C  
HETATM    4  C   UNL     1     -10.761  13.286  70.376  1.00  0.00     1.776 C  
HETATM    5  C   UNL     1      -9.211  13.383  70.639  1.00  0.00     6.084 C  
HETATM    6  C   UNL     1      -8.274  12.388  70.008  1.00  0.00     2.968 C  
HETATM    7  C   UNL     1      -8.665  12.058  68.553  1.00  0.00    -0.095 C  
HETATM    8  C   UNL     1      -7.737  11.557  67.718  1.00  0.00    -0.124 C  
HETATM    9  C   UNL     1      -7.367  10.261  68.380  1.00  0.00    -0.084 C  
HETATM   10  C   UNL     1      -8.503   9.528  69.101  1.00  0.00    -0.131 C  
HETATM   11  O   UNL     1      -6.209   9.862  68.372  1.00  0.00    -0.049 OA 
HETATM   12  C   UNL     1      -9.751  10.087  69.194  1.00  0.00    -0.217 C  
HETATM   13  C   UNL     1     -10.063  11.405  68.484  1.00  0.00    -0.211 C  
HETATM   14  C   UNL     1     -10.568  10.897  67.097  1.00  0.00    -0.302 C  
HETATM   15  C   UNL     1     -10.920  12.668  68.929  1.00  0.00    -0.273 C  
HETATM   16  C   UNL     1     -12.306  12.901  68.321  1.00  0.00     0.267 C  
HETATM   17  O   UNL     1     -13.371  12.511  69.168  1.00  0.00     2.122 OA 
HETATM   18  C   UNL     1     -12.299  14.399  67.970  1.00  0.00     0.001 C  
HETATM   19  C   UNL     1     -11.942  15.304  69.167  1.00  0.00    -0.308 C  
HETATM   20  H   UNL     1     -14.231  12.656  68.791  1.00  0.00     0.000 HD 
HETATM   21  C   UNL     1     -13.459  15.755  69.635  1.00  0.00     1.755 C  
HETATM   22  C   UNL     1     -10.575  16.422  69.014  1.00  0.00    -0.308 C  
HETATM   23  O   UNL     1     -10.609  16.943  67.743  1.00  0.00    -0.329 OA 
HETATM   24  O   UNL     1     -12.035  18.156  69.141  1.00  0.00     3.368 OA 
HETATM   25  C   UNL     1     -11.749  17.785  67.755  1.00  0.00     1.479 C  
ENDROOT
BRANCH  22  26
HETATM   26  C   UNL     1      -8.976  16.445  69.687  1.00  0.00     0.330 C  
HETATM   27  O   UNL     1      -8.700  17.152  70.680  1.00  0.00     3.564 OA 
BRANCH  26  28
HETATM   28  C   UNL     1      -7.787  15.650  69.109  1.00  0.00    -0.220 C  
BRANCH  28  29
HETATM   29  O   UNL     1      -6.669  16.537  68.659  1.00  0.00    -0.140 OA 
BRANCH  29  30
HETATM   30  C   UNL     1      -6.879  17.882  68.561  1.00  0.00    -0.236 C  
HETATM   31  C   UNL     1      -7.074  19.977  67.073  1.00  0.00    -0.261 C  
HETATM   32  C   UNL     1      -6.891  17.782  65.961  1.00  0.00    -0.327 C  
HETATM   33  O   UNL     1      -7.327  18.538  69.507  1.00  0.00    -0.039 OA 
HETATM   34  C   UNL     1      -6.483  18.553  67.215  1.00  0.00    -0.202 C  
ENDBRANCH  29  30
ENDBRANCH  28  29
ENDBRANCH  26  28
ENDBRANCH  22  26
BRANCH  25  35
HETATM   35  C   UNL     1     -11.395  18.816  66.663  1.00  0.00     0.736 C  
HETATM   36  C   UNL     1     -11.768  20.249  67.178  1.00  0.00     2.043 C  
HETATM   37  C   UNL     1      -9.932  18.815  66.240  1.00  0.00    -0.418 C  
HETATM   38  C   UNL     1     -11.503  21.343  66.154  1.00  0.00     6.591 C  
HETATM   39  C   UNL     1     -10.064  21.295  65.650  1.00  0.00     2.885 C  
HETATM   40  C   UNL     1      -9.678  19.892  65.178  1.00  0.00     1.061 C  
ENDBRANCH  25  35
TORSDOF 5
ENDMDL
MODEL      157
REMARK 921   NORMALIZED FREE ENERGY PREDICTED BY IDOCK:   28.58 KCAL/MOL
REMARK 922        TOTAL FREE ENERGY PREDICTED BY IDOCK:   36.60 KCAL/MOL
REMARK 923 INTER-LIGAND FREE ENERGY PREDICTED BY IDOCK:   34.01 KCAL/MOL
REMARK 924 INTRA-LIGAND FREE ENERGY PREDICTED BY IDOCK:    2.59 KCAL/MOL
REMARK 927      BINDING AFFINITY PREDICTED BY RF-SCORE:    0.00 PKD
ROOT
HETATM    1  C   UNL     1      -7.562  10.121  69.039  1.00  0.00    -0.096 C  
HETATM    2  C   UNL     1      -6.685  11.256  70.012  1.00  0.00    -0.013 C  
HETATM    3  C   UNL     1      -7.014  12.720  69.338  1.00  0.00     0.110 C  
HETATM    4  C   UNL     1      -7.587  14.237  69.528  1.00  0.00     0.149 C  
HETATM    5  C   UNL     1      -8.899  14.194  70.398  1.00  0.00     2.662 C  
HETATM    6  C   UNL     1      -9.967  15.236  70.206  1.00  0.00     0.061 C  
HETATM    7  C   UNL     1     -10.189  15.579  68.718  1.00  0.00    -0.212 C  
HETATM    8  C   UNL     1     -11.353  16.131  68.334  1.00  0.00    -0.345 C  
HETATM    9  C   UNL     1     -11.367  17.427  69.091  1.00  0.00     0.949 C  
HETATM   10  C   UNL     1     -10.005  18.102  69.289  1.00  0.00    -0.088 C  
HETATM   11  O   UNL     1     -12.410  17.870  69.556  1.00  0.00     5.330 OA 
HETATM   12  C   UNL     1      -8.852  17.495  68.865  1.00  0.00    -0.136 C  
HETATM   13  C   UNL     1      -8.913  16.180  68.087  1.00  0.00    -0.185 C  
HETATM   14  C   UNL     1      -8.994  16.694  66.616  1.00  0.00    -0.285 C  
HETATM   15  C   UNL     1      -8.003  14.877  68.142  1.00  0.00    -0.130 C  
HETATM   16  C   UNL     1      -6.996  14.602  67.022  1.00  0.00     0.543 C  
HETATM   17  O   UNL     1      -5.662  14.935  67.364  1.00  0.00    -0.342 OA 
HETATM   18  C   UNL     1      -7.208  13.112  66.702  1.00  0.00     1.134 C  
HETATM   19  C   UNL     1      -7.087  12.199  67.938  1.00  0.00    -0.101 C  
HETATM   20  H   UNL     1      -5.038  14.764  66.669  1.00  0.00     0.000 HD 
HETATM   21  C   UNL     1      -5.531  11.681  67.748  1.00  0.00    -0.053 C  
HETATM   22  C   UNL     1      -8.444  11.137  68.354  1.00  0.00    -0.151 C  
HETATM   23  O   UNL     1      -8.952  10.640  67.178  1.00  0.00    -0.137 OA 
HETATM   24  O   UNL     1      -7.134   9.346  67.872  1.00  0.00    -0.079 OA 
HETATM   25  C   UNL     1      -7.942   9.755  66.723  1.00  0.00    -0.105 C  
ENDROOT
BRANCH  22  26
HETATM   26  C   UNL     1      -9.631  11.162  69.619  1.00  0.00     0.571 C  
HETATM   27  O   UNL     1      -9.857  10.150  70.317  1.00  0.00    -0.169 OA 
BRANCH  26  28
HETATM   28  C   UNL     1     -10.508  12.386  69.951  1.00  0.00     1.264 C  
BRANCH  28  29
HETATM   29  O   UNL     1     -11.891  12.003  70.376  1.00  0.00    -0.322 OA 
BRANCH  29  30
HETATM   30  C   UNL     1     -12.933  12.841  70.098  1.00  0.00     0.615 C  
HETATM   31  C   UNL     1     -14.110  14.409  68.425  1.00  0.00     9.762 C  
HETATM   32  C   UNL     1     -12.181  13.098  67.621  1.00  0.00    -0.150 C  
HETATM   33  O   UNL     1     -13.938  12.884  70.814  1.00  0.00     1.318 OA 
HETATM   34  C   UNL     1     -12.769  13.768  68.860  1.00  0.00     0.766 C  
ENDBRANCH  29  30
ENDBRANCH  28  29
ENDBRANCH  26  28
ENDBRANCH  22  26
BRANCH  25  35
HETATM   35  C   UNL     1      -8.753   8.759  65.867  1.00  0.00    -0.198 C  
HETATM   36  C   UNL     1      -8.667   7.338  66.523  1.00  0.00    -0.141 C  
HETATM   37  C   UNL     1     -10.221   9.125  65.688  1.00  0.00     0.352 C  
HETATM   38  C   UNL     1      -9.397   6.265  65.730  1.00  0.00     0.069 C  
HETATM   39  C   UNL     1     -10.845   6.661  65.460  1.00  0.00     3.152 C  
HETATM   40  C   UNL     1     -10.943   8.061  64.852  1.00  0.00     8.637 C  
ENDBRANCH  25  35
TORSDOF 5
ENDMDL
MODEL      158
REMARK 921   NORMALIZED FREE ENERGY PREDICTED BY IDOCK:   32.04 KCAL/MOL
REMARK 922        TOTAL FREE ENERGY PREDICTED BY IDOCK:   41.09 KCAL/MOL
REMARK 923 INTER-LIGAND FREE ENERGY PREDICTED BY IDOCK:   39.47 KCAL/MOL
REMARK 924 INTRA-LIGAND FREE ENERGY PREDICTED BY IDOCK:    1.62 KCAL/MOL
REMARK 927      BINDING AFFINITY PREDICTED BY RF-SCORE:    0.00 PKD
ROOT
HETATM    1  C   UNL     1      -7.227  15.676  69.396  1.00  0.00    -0.212 C  
HETATM    2  C   UNL     1      -7.447  15.101  71.015  1.00  0.00     1.795 C  
HETATM    3  C   UNL     1      -9.050  14.748  71.115  1.00  0.00     3.258 C  
HETATM    4  C   UNL     1     -10.210  13.644  71.432  1.00  0.00     6.149 C  
HETATM    5  C   UNL     1      -9.813  12.267  70.780  1.00  0.00     6.800 C  
HETATM    6  C   UNL     1     -10.881  11.308  70.330  1.00  0.00     0.455 C  
HETATM    7  C   UNL     1     -12.065  12.027  69.652  1.00  0.00    -0.295 C  
HETATM    8  C   UNL     1     -12.869  11.337  68.823  1.00  0.00     1.614 C  
HETATM    9  C   UNL     1     -13.450  10.290  69.728  1.00  0.00     1.372 C  
HETATM   10  C   UNL     1     -13.709  10.722  71.175  1.00  0.00     0.540 C  
HETATM   11  O   UNL     1     -13.648   9.151  69.321  1.00  0.00     3.907 OA 
HETATM   12  C   UNL     1     -13.343  11.969  71.611  1.00  0.00    -0.237 C  
HETATM   13  C   UNL     1     -12.768  12.993  70.631  1.00  0.00    -0.175 C  
HETATM   14  C   UNL     1     -14.062  13.717  70.146  1.00  0.00     3.000 C  
HETATM   15  C   UNL     1     -11.593  14.053  70.780  1.00  0.00    -0.064 C  
HETATM   16  C   UNL     1     -11.923  15.539  70.943  1.00  0.00    -0.375 C  
HETATM   17  O   UNL     1     -11.827  15.999  72.279  1.00  0.00    -0.457 OA 
HETATM   18  C   UNL     1     -10.954  16.233  69.970  1.00  0.00    -0.356 C  
HETATM   19  C   UNL     1      -9.478  15.855  70.205  1.00  0.00     0.498 C  
HETATM   20  H   UNL     1     -12.032  16.921  72.381  1.00  0.00     0.000 HD 
HETATM   21  C   UNL     1      -8.997  17.158  71.098  1.00  0.00     7.016 C  
HETATM   22  C   UNL     1      -8.546  15.173  68.860  1.00  0.00    -0.200 C  
HETATM   23  O   UNL     1      -8.910  15.851  67.722  1.00  0.00    -0.173 OA 
HETATM   24  O   UNL     1      -7.256  17.041  68.864  1.00  0.00    -0.219 OA 
HETATM   25  C   UNL     1      -8.360  17.143  67.909  1.00  0.00    -0.207 C  
ENDROOT
BRANCH  22  26
HETATM   26  C   UNL     1      -7.952  13.581  68.511  1.00  0.00    -0.119 C  
HETATM   27  O   UNL     1      -6.794  13.401  68.076  1.00  0.00    -0.099 OA 
BRANCH  26  28
HETATM   28  C   UNL     1      -8.792  12.296  68.664  1.00  0.00     0.025 C  
BRANCH  28  29
HETATM   29  O   UNL     1      -8.008  11.058  68.361  1.00  0.00    -0.116 OA 
BRANCH  29  30
HETATM   30  C   UNL     1      -8.141  10.464  67.139  1.00  0.00    -0.115 C  
HETATM   31  C   UNL     1      -7.927   8.345  65.687  1.00  0.00    -0.115 C  
HETATM   32  C   UNL     1      -7.590   8.118  68.121  1.00  0.00    -0.105 C  
HETATM   33  O   UNL     1      -8.760  11.007  66.219  1.00  0.00    -0.165 OA 
HETATM   34  C   UNL     1      -7.436   9.090  66.953  1.00  0.00    -0.090 C  
ENDBRANCH  29  30
ENDBRANCH  28  29
ENDBRANCH  26  28
ENDBRANCH  22  26
BRANCH  25  35
HETATM   35  C   UNL     1      -8.172  17.623  66.455  1.00  0.00    -0.298 C  
HETATM   36  C   UNL     1      -8.163  19.191  66.434  1.00  0.00    -0.323 C  
HETATM   37  C   UNL     1      -6.904  17.119  65.779  1.00  0.00     0.346 C  
HETATM   38  C   UNL     1      -8.030  19.772  65.034  1.00  0.00     1.089 C  
HETATM   39  C   UNL     1      -6.815  19.204  64.309  1.00  0.00     1.430 C  
HETATM   40  C   UNL     1      -6.795  17.675  64.354  1.00  0.00     4.693 C  
ENDBRANCH  25  35
TORSDOF 5
ENDMDL
MODEL      159
REMARK 921   NORMALIZED FREE ENERGY PREDICTED BY IDOCK:   35.83 KCAL/MOL
REMARK 922        TOTAL FREE ENERGY PREDICTED BY IDOCK:   45.97 KCAL/MOL
REMARK 923 INTER-LIGAND FREE ENERGY PREDICTED BY IDOCK:   36.59 KCAL/MOL
REMARK 924 INTRA-LIGAND FREE ENERGY PREDICTED BY IDOCK:    9.39 KCAL/MOL
REMARK 927      BINDING AFFINITY PREDICTED BY RF-SCORE:    0.00 PKD
ROOT
HETATM    1  C   UNL     1      -9.900  12.061  64.951  1.00  0.00    -0.175 C  
HETATM    2  C   UNL     1     -11.369  12.964  65.116  1.00  0.00    -0.331 C  
HETATM    3  C   UNL     1     -11.975  12.507  66.575  1.00  0.00    -0.367 C  
HETATM    4  C   UNL     1     -12.496  12.944  68.059  1.00  0.00     0.520 C  
HETATM    5  C   UNL     1     -11.522  14.029  68.655  1.00  0.00    -0.337 C  
HETATM    6  C   UNL     1     -11.329  14.135  70.143  1.00  0.00    -0.147 C  
HETATM    7  C   UNL     1     -11.251  12.753  70.824  1.00  0.00     1.700 C  
HETATM    8  C   UNL     1     -10.661  12.642  72.027  1.00  0.00     9.377 C  
HETATM    9  C   UNL     1     -11.524  13.511  72.895  1.00  0.00     4.128 C  
HETATM   10  C   UNL     1     -13.019  13.523  72.558  1.00  0.00    -0.359 C  
HETATM   11  O   UNL     1     -11.030  14.198  73.781  1.00  0.00     2.231 OA 
HETATM   12  C   UNL     1     -13.498  12.840  71.471  1.00  0.00    -0.098 C  
HETATM   13  C   UNL     1     -12.565  11.962  70.636  1.00  0.00    -0.269 C  
HETATM   14  C   UNL     1     -12.704  10.587  71.361  1.00  0.00    -0.547 C  
HETATM   15  C   UNL     1     -12.460  11.725  69.068  1.00  0.00     0.313 C  
HETATM   16  C   UNL     1     -12.978  10.420  68.458  1.00  0.00     3.975 C  
HETATM   17  O   UNL     1     -14.249  10.544  67.845  1.00  0.00    11.039 OA 
HETATM   18  C   UNL     1     -11.855  10.000  67.493  1.00  0.00     1.839 C  
HETATM   19  C   UNL     1     -11.479  11.099  66.480  1.00  0.00     0.115 C  
HETATM   20  H   UNL     1     -14.570   9.735  67.466  1.00  0.00     0.000 HD 
HETATM   21  C   UNL     1     -12.346  10.581  65.174  1.00  0.00     5.112 C  
HETATM   22  C   UNL     1      -9.795  11.649  66.400  1.00  0.00    -0.207 C  
HETATM   23  O   UNL     1      -8.994  10.542  66.544  1.00  0.00    -0.152 OA 
HETATM   24  O   UNL     1      -9.652  10.766  64.313  1.00  0.00    -0.234 OA 
HETATM   25  C   UNL     1      -9.187   9.827  65.335  1.00  0.00    -0.227 C  
ENDROOT
BRANCH  22  26
HETATM   26  C   UNL     1      -8.994  13.104  66.898  1.00  0.00    -0.209 C  
HETATM   27  O   UNL     1      -7.752  13.223  66.814  1.00  0.00     0.172 OA 
BRANCH  26  28
HETATM   28  C   UNL     1      -9.720  14.322  67.505  1.00  0.00    -0.223 C  
BRANCH  28  29
HETATM   29  O   UNL     1      -8.775  15.308  68.117  1.00  0.00    -0.157 OA 
BRANCH  29  30
HETATM   30  C   UNL     1      -7.555  14.881  68.556  1.00  0.00    -0.121 C  
HETATM   31  C   UNL     1      -6.131  13.024  69.635  1.00  0.00    -0.122 C  
HETATM   32  C   UNL     1      -8.467  12.494  69.046  1.00  0.00     0.439 C  
HETATM   33  O   UNL     1      -6.515  15.479  68.261  1.00  0.00    -0.105 OA 
HETATM   34  C   UNL     1      -7.547  13.632  69.482  1.00  0.00     0.480 C  
ENDBRANCH  29  30
ENDBRANCH  28  29
ENDBRANCH  26  28
ENDBRANCH  22  26
BRANCH  25  35
HETATM   35  C   UNL     1      -7.865   9.041  65.215  1.00  0.00    -0.102 C  
HETATM   36  C   UNL     1      -7.735   8.074  66.442  1.00  0.00    -0.092 C  
HETATM   37  C   UNL     1      -7.724   8.226  63.936  1.00  0.00    -0.141 C  
HETATM   38  C   UNL     1      -6.437   7.281  66.448  1.00  0.00    -0.048 C  
HETATM   39  C   UNL     1      -6.236   6.533  65.133  1.00  0.00    -0.034 C  
HETATM   40  C   UNL     1      -6.396   7.461  63.928  1.00  0.00    -0.048 C  
ENDBRANCH  25  35
TORSDOF 5
ENDMDL
MODEL      160
REMARK 921   NORMALIZED FREE ENERGY PREDICTED BY IDOCK:   35.86 KCAL/MOL
REMARK 922        TOTAL FREE ENERGY PREDICTED BY IDOCK:   46.01 KCAL/MOL
REMARK 923 INTER-LIGAND FREE ENERGY PREDICTED BY IDOCK:   35.31 KCAL/MOL
REMARK 924 INTRA-LIGAND FREE ENERGY PREDICTED BY IDOCK:   10.70 KCAL/MOL
REMARK 927      BINDING AFFINITY PREDICTED BY RF-SCORE:    0.00 PKD
ROOT
HETATM    1  C   UNL     1      -7.769   7.011  66.981  1.00  0.00    -0.107 C  
HETATM    2  C   UNL     1      -8.464   5.851  68.064  1.00  0.00    -0.110 C  
HETATM    3  C   UNL     1      -8.756   6.695  69.445  1.00  0.00    -0.135 C  
HETATM    4  C   UNL     1      -9.833   7.181  70.572  1.00  0.00    -0.181 C  
HETATM    5  C   UNL     1     -11.168   7.622  69.862  1.00  0.00    -0.097 C  
HETATM    6  C   UNL     1     -12.042   8.676  70.485  1.00  0.00     0.120 C  
HETATM    7  C   UNL     1     -11.222   9.831  71.094  1.00  0.00    -0.444 C  
HETATM    8  C   UNL     1     -11.808  11.026  71.289  1.00  0.00     0.028 C  
HETATM    9  C   UNL     1     -12.900  10.699  72.266  1.00  0.00     0.074 C  
HETATM   10  C   UNL     1     -12.575   9.611  73.296  1.00  0.00     2.809 C  
HETATM   11  O   UNL     1     -13.993  11.248  72.191  1.00  0.00     0.143 OA 
HETATM   12  C   UNL     1     -11.385   8.934  73.250  1.00  0.00     2.084 C  
HETATM   13  C   UNL     1     -10.310   9.329  72.236  1.00  0.00     0.492 C  
HETATM   14  C   UNL     1      -9.495  10.386  73.044  1.00  0.00    10.976 C  
HETATM   15  C   UNL     1      -9.315   8.454  71.356  1.00  0.00    -0.247 C  
HETATM   16  C   UNL     1      -7.835   8.369  71.737  1.00  0.00    -0.126 C  
HETATM   17  O   UNL     1      -7.489   7.172  72.411  1.00  0.00    -0.086 OA 
HETATM   18  C   UNL     1      -7.105   8.568  70.397  1.00  0.00    -0.038 C  
HETATM   19  C   UNL     1      -7.563   7.584  69.301  1.00  0.00    -0.100 C  
HETATM   20  H   UNL     1      -6.570   7.120  72.647  1.00  0.00     0.000 HD 
HETATM   21  C   UNL     1      -6.358   6.461  69.416  1.00  0.00    -0.035 C  
HETATM   22  C   UNL     1      -8.172   8.235  67.769  1.00  0.00    -0.127 C  
HETATM   23  O   UNL     1      -7.390   9.316  67.441  1.00  0.00    -0.086 OA 
HETATM   24  O   UNL     1      -6.366   7.342  66.722  1.00  0.00    -0.044 OA 
HETATM   25  C   UNL     1      -6.141   8.737  67.103  1.00  0.00    -0.055 C  
ENDROOT
BRANCH  22  26
HETATM   26  C   UNL     1      -9.754   8.335  67.064  1.00  0.00    -0.211 C  
HETATM   27  O   UNL     1      -9.963   9.005  66.030  1.00  0.00    -0.283 OA 
BRANCH  26  28
HETATM   28  C   UNL     1     -11.006   7.660  67.661  1.00  0.00     0.011 C  
BRANCH  28  29
HETATM   29  O   UNL     1     -11.996   8.650  68.190  1.00  0.00     2.228 OA 
BRANCH  29  30
HETATM   30  C   UNL     1     -11.706   9.983  68.129  1.00  0.00     0.652 C  
HETATM   31  C   UNL     1     -12.511  12.423  68.341  1.00  0.00     0.722 C  
HETATM   32  C   UNL     1     -14.072  10.628  68.998  1.00  0.00     7.275 C  
HETATM   33  O   UNL     1     -10.541  10.392  68.098  1.00  0.00    -0.182 OA 
HETATM   34  C   UNL     1     -12.917  10.956  68.054  1.00  0.00     4.782 C  
ENDBRANCH  29  30
ENDBRANCH  28  29
ENDBRANCH  26  28
ENDBRANCH  22  26
BRANCH  25  35
HETATM   35  C   UNL     1      -5.553   9.788  66.138  1.00  0.00    -0.052 C  
HETATM   36  C   UNL     1      -5.814   9.327  64.663  1.00  0.00    -0.065 C  
HETATM   37  C   UNL     1      -6.110  11.194  66.316  1.00  0.00    -0.117 C  
HETATM   38  C   UNL     1      -5.230  10.274  63.625  1.00  0.00    -0.129 C  
HETATM   39  C   UNL     1      -5.706  11.706  63.849  1.00  0.00     2.568 C  
HETATM   40  C   UNL     1      -5.488  12.153  65.295  1.00  0.00     3.407 C  
ENDBRANCH  25  35
TORSDOF 5
ENDMDL
MODEL      161
REMARK 921   NORMALIZED FREE ENERGY PREDICTED BY IDOCK:   45.89 KCAL/MOL
REMARK 922        TOTAL FREE ENERGY PREDICTED BY IDOCK:   58.99 KCAL/MOL
REMARK 923 INTER-LIGAND FREE ENERGY PREDICTED BY IDOCK:   59.33 KCAL/MOL
REMARK 924 INTRA-LIGAND FREE ENERGY PREDICTED BY IDOCK:   -0.35 KCAL/MOL
REMARK 927      BINDING AFFINITY PREDICTED BY RF-SCORE:    0.00 PKD
ROOT
HETATM    1  C   UNL     1      -7.868  14.149  69.856  1.00  0.00     0.764 C  
HETATM    2  C   UNL     1      -7.746  13.266  71.341  1.00  0.00     7.365 C  
HETATM    3  C   UNL     1      -9.287  12.795  71.672  1.00  0.00    16.989 C  
HETATM    4  C   UNL     1     -10.329  11.576  71.978  1.00  0.00    10.800 C  
HETATM    5  C   UNL     1     -10.030  10.376  71.004  1.00  0.00     1.611 C  
HETATM    6  C   UNL     1     -11.139   9.450  70.584  1.00  0.00    -0.351 C  
HETATM    7  C   UNL     1     -12.454  10.203  70.298  1.00  0.00    -0.174 C  
HETATM    8  C   UNL     1     -13.386   9.629  69.517  1.00  0.00     2.713 C  
HETATM    9  C   UNL     1     -13.746   8.394  70.290  1.00  0.00     1.920 C  
HETATM   10  C   UNL     1     -13.725   8.529  71.816  1.00  0.00    -0.444 C  
HETATM   11  O   UNL     1     -13.989   7.342  69.712  1.00  0.00     3.190 OA 
HETATM   12  C   UNL     1     -13.315   9.693  72.413  1.00  0.00    -0.426 C  
HETATM   13  C   UNL     1     -12.975  10.918  71.564  1.00  0.00    -0.556 C  
HETATM   14  C   UNL     1     -14.360  11.634  71.485  1.00  0.00     2.594 C  
HETATM   15  C   UNL     1     -11.824  12.007  71.693  1.00  0.00     1.553 C  
HETATM   16  C   UNL     1     -12.157  13.411  72.206  1.00  0.00     1.096 C  
HETATM   17  O   UNL     1     -11.812  13.617  73.564  1.00  0.00     1.347 OA 
HETATM   18  C   UNL     1     -11.421  14.339  71.224  1.00  0.00     0.251 C  
HETATM   19  C   UNL     1      -9.918  14.022  71.096  1.00  0.00     4.440 C  
HETATM   20  H   UNL     1     -12.018  14.488  73.882  1.00  0.00     0.000 HD 
HETATM   21  C   UNL     1      -9.306  15.163  72.121  1.00  0.00     5.405 C  
HETATM   22  C   UNL     1      -9.253  13.669  69.491  1.00  0.00     1.146 C  
HETATM   23  O   UNL     1      -9.855  14.523  68.599  1.00  0.00    -0.224 OA 
HETATM   24  O   UNL     1      -8.041  15.585  69.619  1.00  0.00    -0.218 OA 
HETATM   25  C   UNL     1      -9.315  15.791  68.930  1.00  0.00    -0.228 C  
ENDROOT
BRANCH  22  26
HETATM   26  C   UNL     1      -8.695  12.214  68.728  1.00  0.00     0.114 C  
HETATM   27  O   UNL     1      -7.681  11.612  69.141  1.00  0.00    -0.055 OA 
BRANCH  26  28
HETATM   28  C   UNL     1      -9.362  11.583  67.488  1.00  0.00    -0.166 C  
BRANCH  28  29
HETATM   29  O   UNL     1      -8.572  10.440  66.932  1.00  0.00    -0.126 OA 
BRANCH  29  30
HETATM   30  C   UNL     1      -8.111  10.507  65.648  1.00  0.00    -0.161 C  
HETATM   31  C   UNL     1      -6.911   9.358  63.677  1.00  0.00    -0.095 C  
HETATM   32  C   UNL     1      -7.450   7.991  65.659  1.00  0.00    -0.081 C  
HETATM   33  O   UNL     1      -8.452  11.416  64.884  1.00  0.00     0.220 OA 
HETATM   34  C   UNL     1      -7.099   9.409  65.213  1.00  0.00    -0.092 C  
ENDBRANCH  29  30
ENDBRANCH  28  29
ENDBRANCH  26  28
ENDBRANCH  22  26
BRANCH  25  35
HETATM   35  C   UNL     1      -9.434  16.547  67.590  1.00  0.00    -0.225 C  
HETATM   36  C   UNL     1     -10.453  17.726  67.761  1.00  0.00    -0.402 C  
HETATM   37  C   UNL     1      -8.121  17.109  67.060  1.00  0.00    -0.228 C  
HETATM   38  C   UNL     1     -10.681  18.513  66.478  1.00  0.00    -0.263 C  
HETATM   39  C   UNL     1      -9.364  19.003  65.884  1.00  0.00     0.088 C  
HETATM   40  C   UNL     1      -8.350  17.866  65.747  1.00  0.00     0.242 C  
ENDBRANCH  25  35
TORSDOF 5
ENDMDL
MODEL      162
REMARK 921   NORMALIZED FREE ENERGY PREDICTED BY IDOCK:   47.69 KCAL/MOL
REMARK 922        TOTAL FREE ENERGY PREDICTED BY IDOCK:   61.31 KCAL/MOL
REMARK 923 INTER-LIGAND FREE ENERGY PREDICTED BY IDOCK:   60.18 KCAL/MOL
REMARK 924 INTRA-LIGAND FREE ENERGY PREDICTED BY IDOCK:    1.13 KCAL/MOL
REMARK 927      BINDING AFFINITY PREDICTED BY RF-SCORE:    0.00 PKD
ROOT
HETATM    1  C   UNL     1      -7.868  14.149  69.856  1.00  0.00     0.764 C  
HETATM    2  C   UNL     1      -7.746  13.266  71.341  1.00  0.00     7.365 C  
HETATM    3  C   UNL     1      -9.287  12.795  71.672  1.00  0.00    16.989 C  
HETATM    4  C   UNL     1     -10.329  11.576  71.978  1.00  0.00    10.800 C  
HETATM    5  C   UNL     1     -10.030  10.376  71.004  1.00  0.00     1.611 C  
HETATM    6  C   UNL     1     -11.139   9.450  70.584  1.00  0.00    -0.351 C  
HETATM    7  C   UNL     1     -12.454  10.203  70.298  1.00  0.00    -0.174 C  
HETATM    8  C   UNL     1     -13.386   9.629  69.517  1.00  0.00     2.713 C  
HETATM    9  C   UNL     1     -13.746   8.394  70.290  1.00  0.00     1.920 C  
HETATM   10  C   UNL     1     -13.725   8.529  71.816  1.00  0.00    -0.444 C  
HETATM   11  O   UNL     1     -13.989   7.342  69.712  1.00  0.00     3.190 OA 
HETATM   12  C   UNL     1     -13.315   9.693  72.413  1.00  0.00    -0.426 C  
HETATM   13  C   UNL     1     -12.975  10.918  71.564  1.00  0.00    -0.556 C  
HETATM   14  C   UNL     1     -14.360  11.634  71.485  1.00  0.00     2.594 C  
HETATM   15  C   UNL     1     -11.824  12.007  71.693  1.00  0.00     1.553 C  
HETATM   16  C   UNL     1     -12.157  13.411  72.206  1.00  0.00     1.096 C  
HETATM   17  O   UNL     1     -11.812  13.617  73.564  1.00  0.00     1.347 OA 
HETATM   18  C   UNL     1     -11.421  14.339  71.224  1.00  0.00     0.251 C  
HETATM   19  C   UNL     1      -9.918  14.022  71.096  1.00  0.00     4.440 C  
HETATM   20  H   UNL     1     -12.018  14.488  73.882  1.00  0.00     0.000 HD 
HETATM   21  C   UNL     1      -9.306  15.163  72.121  1.00  0.00     5.405 C  
HETATM   22  C   UNL     1      -9.253  13.669  69.491  1.00  0.00     1.146 C  
HETATM   23  O   UNL     1      -9.855  14.523  68.599  1.00  0.00    -0.224 OA 
HETATM   24  O   UNL     1      -8.041  15.585  69.619  1.00  0.00    -0.218 OA 
HETATM   25  C   UNL     1      -9.315  15.791  68.930  1.00  0.00    -0.228 C  
ENDROOT
BRANCH  22  26
HETATM   26  C   UNL     1      -8.695  12.214  68.728  1.00  0.00     0.114 C  
HETATM   27  O   UNL     1      -9.357  11.660  67.824  1.00  0.00    -0.169 OA 
BRANCH  26  28
HETATM   28  C   UNL     1      -7.395  11.481  69.119  1.00  0.00    -0.057 C  
BRANCH  28  29
HETATM   29  O   UNL     1      -7.250  10.162  68.428  1.00  0.00    -0.074 OA 
BRANCH  29  30
HETATM   30  C   UNL     1      -7.639   9.023  69.073  1.00  0.00    -0.078 C  
HETATM   31  C   UNL     1      -7.840   7.700  71.276  1.00  0.00    -0.090 C  
HETATM   32  C   UNL     1      -7.098  10.049  71.401  1.00  0.00     0.932 C  
HETATM   33  O   UNL     1      -8.368   8.187  68.528  1.00  0.00    -0.124 OA 
HETATM   34  C   UNL     1      -7.081   8.810  70.509  1.00  0.00    -0.050 C  
ENDBRANCH  29  30
ENDBRANCH  28  29
ENDBRANCH  26  28
ENDBRANCH  22  26
BRANCH  25  35
HETATM   35  C   UNL     1      -9.434  16.547  67.590  1.00  0.00    -0.225 C  
HETATM   36  C   UNL     1     -10.453  17.726  67.761  1.00  0.00    -0.402 C  
HETATM   37  C   UNL     1      -8.121  17.109  67.060  1.00  0.00    -0.228 C  
HETATM   38  C   UNL     1     -10.681  18.513  66.478  1.00  0.00    -0.263 C  
HETATM   39  C   UNL     1      -9.364  19.003  65.884  1.00  0.00     0.088 C  
HETATM   40  C   UNL     1      -8.350  17.866  65.747  1.00  0.00     0.242 C  
ENDBRANCH  25  35
TORSDOF 5
ENDMDL
MODEL      163
REMARK 921   NORMALIZED FREE ENERGY PREDICTED BY IDOCK:   49.98 KCAL/MOL
REMARK 922        TOTAL FREE ENERGY PREDICTED BY IDOCK:   64.26 KCAL/MOL
REMARK 923 INTER-LIGAND FREE ENERGY PREDICTED BY IDOCK:   38.71 KCAL/MOL
REMARK 924 INTRA-LIGAND FREE ENERGY PREDICTED BY IDOCK:   25.56 KCAL/MOL
REMARK 927      BINDING AFFINITY PREDICTED BY RF-SCORE:    0.00 PKD
ROOT
HETATM    1  C   UNL     1      -9.170  13.409  69.176  1.00  0.00     0.582 C  
HETATM    2  C   UNL     1      -7.730  12.668  68.561  1.00  0.00    -0.114 C  
HETATM    3  C   UNL     1      -7.476  11.374  69.545  1.00  0.00     0.133 C  
HETATM    4  C   UNL     1      -7.269   9.761  69.690  1.00  0.00    -0.097 C  
HETATM    5  C   UNL     1      -8.295   9.017  68.755  1.00  0.00    -0.122 C  
HETATM    6  C   UNL     1      -8.800   7.649  69.126  1.00  0.00    -0.139 C  
HETATM    7  C   UNL     1      -9.089   7.521  70.635  1.00  0.00    -0.155 C  
HETATM    8  C   UNL     1      -9.930   6.565  71.068  1.00  0.00    -0.203 C  
HETATM    9  C   UNL     1      -9.235   5.303  70.645  1.00  0.00    -0.148 C  
HETATM   10  C   UNL     1      -7.704   5.330  70.700  1.00  0.00    -0.084 C  
HETATM   11  O   UNL     1      -9.875   4.342  70.236  1.00  0.00    -0.200 OA 
HETATM   12  C   UNL     1      -7.033   6.477  71.036  1.00  0.00    -0.068 C  
HETATM   13  C   UNL     1      -7.805   7.724  71.470  1.00  0.00    -0.090 C  
HETATM   14  C   UNL     1      -7.892   7.512  73.014  1.00  0.00    -0.124 C  
HETATM   15  C   UNL     1      -7.580   9.267  71.160  1.00  0.00    -0.045 C  
HETATM   16  C   UNL     1      -7.005  10.186  72.241  1.00  0.00     2.511 C  
HETATM   17  O   UNL     1      -5.627  10.468  72.073  1.00  0.00    -0.310 OA 
HETATM   18  C   UNL     1      -7.912  11.427  72.180  1.00  0.00    12.846 C  
HETATM   19  C   UNL     1      -8.007  12.045  70.771  1.00  0.00     6.082 C  
HETATM   20  H   UNL     1      -5.271  11.039  72.744  1.00  0.00     0.000 HD 
HETATM   21  C   UNL     1      -6.903  13.263  70.928  1.00  0.00     1.911 C  
HETATM   22  C   UNL     1      -9.605  12.241  70.030  1.00  0.00     3.037 C  
HETATM   23  O   UNL     1     -10.470  12.644  71.018  1.00  0.00     4.370 OA 
HETATM   24  O   UNL     1      -9.335  14.492  70.147  1.00  0.00     0.678 OA 
HETATM   25  C   UNL     1     -10.055  13.968  71.309  1.00  0.00     4.579 C  
ENDROOT
BRANCH  22  26
HETATM   26  C   UNL     1     -10.425  11.425  68.736  1.00  0.00    -0.204 C  
HETATM   27  O   UNL     1      -9.918  10.433  68.170  1.00  0.00    -0.145 OA 
BRANCH  26  28
HETATM   28  C   UNL     1     -11.788  11.869  68.167  1.00  0.00    -0.270 C  
BRANCH  28  29
HETATM   29  O   UNL     1     -12.941  11.357  68.973  1.00  0.00     0.329 OA 
BRANCH  29  30
HETATM   30  C   UNL     1     -12.875  11.400  70.336  1.00  0.00     0.011 C  
HETATM   31  C   UNL     1     -13.384  12.663  72.525  1.00  0.00    -0.232 C  
HETATM   32  C   UNL     1     -14.304  13.573  70.424  1.00  0.00     3.509 C  
HETATM   33  O   UNL     1     -12.591  10.401  71.003  1.00  0.00    -0.329 OA 
HETATM   34  C   UNL     1     -13.132  12.783  71.002  1.00  0.00    -0.062 C  
ENDBRANCH  29  30
ENDBRANCH  28  29
ENDBRANCH  26  28
ENDBRANCH  22  26
BRANCH  25  35
HETATM   35  C   UNL     1     -11.356  14.599  71.847  1.00  0.00     0.274 C  
HETATM   36  C   UNL     1     -11.512  16.036  71.243  1.00  0.00    -0.475 C  
HETATM   37  C   UNL     1     -12.619  13.803  71.546  1.00  0.00    -0.405 C  
HETATM   38  C   UNL     1     -12.745  16.770  71.749  1.00  0.00     2.214 C  
HETATM   39  C   UNL     1     -14.010  15.943  71.539  1.00  0.00     0.234 C  
HETATM   40  C   UNL     1     -13.855  14.526  72.094  1.00  0.00    -0.574 C  
ENDBRANCH  25  35
TORSDOF 5
ENDMDL
MODEL      164
REMARK 921   NORMALIZED FREE ENERGY PREDICTED BY IDOCK:   52.49 KCAL/MOL
REMARK 922        TOTAL FREE ENERGY PREDICTED BY IDOCK:   67.51 KCAL/MOL
REMARK 923 INTER-LIGAND FREE ENERGY PREDICTED BY IDOCK:   64.78 KCAL/MOL
REMARK 924 INTRA-LIGAND FREE ENERGY PREDICTED BY IDOCK:    2.73 KCAL/MOL
REMARK 927      BINDING AFFINITY PREDICTED BY RF-SCORE:    0.00 PKD
ROOT
HETATM    1  C   UNL     1      -7.333   7.885  68.133  1.00  0.00    -0.099 C  
HETATM    2  C   UNL     1      -6.730   6.273  68.331  1.00  0.00    -0.068 C  
HETATM    3  C   UNL     1      -7.315   5.787  69.789  1.00  0.00    -0.071 C  
HETATM    4  C   UNL     1      -8.179   4.697  70.643  1.00  0.00    -0.083 C  
HETATM    5  C   UNL     1      -9.486   4.327  69.846  1.00  0.00    -0.260 C  
HETATM    6  C   UNL     1     -10.731   3.916  70.585  1.00  0.00     1.515 C  
HETATM    7  C   UNL     1     -10.964   4.760  71.854  1.00  0.00     0.096 C  
HETATM    8  C   UNL     1     -12.201   4.838  72.377  1.00  0.00     1.027 C  
HETATM    9  C   UNL     1     -12.493   3.410  72.739  1.00  0.00     1.818 C  
HETATM   10  C   UNL     1     -11.297   2.583  73.223  1.00  0.00    -0.179 C  
HETATM   11  O   UNL     1     -13.618   2.946  72.598  1.00  0.00     1.959 OA 
HETATM   12  C   UNL     1     -10.034   3.114  73.233  1.00  0.00    -0.183 C  
HETATM   13  C   UNL     1      -9.810   4.581  72.865  1.00  0.00    -0.185 C  
HETATM   14  C   UNL     1      -9.940   5.273  74.258  1.00  0.00    -0.234 C  
HETATM   15  C   UNL     1      -8.666   5.296  72.024  1.00  0.00    -0.133 C  
HETATM   16  C   UNL     1      -7.587   6.111  72.743  1.00  0.00    -0.101 C  
HETATM   17  O   UNL     1      -6.356   5.424  72.884  1.00  0.00    -0.054 OA 
HETATM   18  C   UNL     1      -7.492   7.401  71.911  1.00  0.00    -0.080 C  
HETATM   19  C   UNL     1      -7.237   7.144  70.412  1.00  0.00    -0.070 C  
HETATM   20  H   UNL     1      -5.687   5.929  73.330  1.00  0.00     0.000 HD 
HETATM   21  C   UNL     1      -5.604   7.384  70.365  1.00  0.00    -0.024 C  
HETATM   22  C   UNL     1      -8.374   7.807  69.225  1.00  0.00    -0.136 C  
HETATM   23  O   UNL     1      -8.734   9.061  69.656  1.00  0.00    -0.132 OA 
HETATM   24  O   UNL     1      -6.723   9.172  68.472  1.00  0.00    -0.058 OA 
HETATM   25  C   UNL     1      -7.556   9.829  69.480  1.00  0.00    -0.114 C  
ENDROOT
BRANCH  22  26
HETATM   26  C   UNL     1      -9.584   7.093  68.209  1.00  0.00    -0.136 C  
HETATM   27  O   UNL     1      -9.578   7.265  66.971  1.00  0.00    -0.148 OA 
BRANCH  26  28
HETATM   28  C   UNL     1     -10.759   6.243  68.737  1.00  0.00    -0.297 C  
BRANCH  28  29
HETATM   29  O   UNL     1     -11.489   5.530  67.642  1.00  0.00     0.834 OA 
BRANCH  29  30
HETATM   30  C   UNL     1     -11.819   6.209  66.505  1.00  0.00     1.951 C  
HETATM   31  C   UNL     1     -13.119   8.137  65.392  1.00  0.00    20.594 C  
HETATM   32  C   UNL     1     -13.096   8.029  67.857  1.00  0.00    13.720 C  
HETATM   33  O   UNL     1     -11.202   6.043  65.448  1.00  0.00     1.936 OA 
HETATM   34  C   UNL     1     -13.041   7.168  66.597  1.00  0.00    13.367 C  
ENDBRANCH  29  30
ENDBRANCH  28  29
ENDBRANCH  26  28
ENDBRANCH  22  26
BRANCH  25  35
HETATM   35  C   UNL     1      -8.127  11.252  69.302  1.00  0.00     0.103 C  
HETATM   36  C   UNL     1      -9.692  11.181  69.350  1.00  0.00     0.145 C  
HETATM   37  C   UNL     1      -7.652  12.260  70.340  1.00  0.00     3.239 C  
HETATM   38  C   UNL     1     -10.361  12.531  69.136  1.00  0.00     0.149 C  
HETATM   39  C   UNL     1      -9.826  13.577  70.109  1.00  0.00     2.543 C  
HETATM   40  C   UNL     1      -8.298  13.629  70.096  1.00  0.00     2.629 C  
ENDBRANCH  25  35
TORSDOF 5
ENDMDL
MODEL      165
REMARK 921   NORMALIZED FREE ENERGY PREDICTED BY IDOCK:   53.79 KCAL/MOL
REMARK 922        TOTAL FREE ENERGY PREDICTED BY IDOCK:   69.19 KCAL/MOL
REMARK 923 INTER-LIGAND FREE ENERGY PREDICTED BY IDOCK:   61.85 KCAL/MOL
REMARK 924 INTRA-LIGAND FREE ENERGY PREDICTED BY IDOCK:    7.35 KCAL/MOL
REMARK 927      BINDING AFFINITY PREDICTED BY RF-SCORE:    0.00 PKD
ROOT
HETATM    1  C   UNL     1      -8.191  13.064  70.737  1.00  0.00     6.893 C  
HETATM    2  C   UNL     1      -6.887  11.941  70.532  1.00  0.00     1.395 C  
HETATM    3  C   UNL     1      -7.608  10.463  70.544  1.00  0.00     0.613 C  
HETATM    4  C   UNL     1      -7.873   9.043  69.783  1.00  0.00    -0.086 C  
HETATM    5  C   UNL     1      -8.150   9.312  68.256  1.00  0.00    -0.107 C  
HETATM    6  C   UNL     1      -9.033   8.379  67.472  1.00  0.00    -0.142 C  
HETATM    7  C   UNL     1     -10.262   7.918  68.281  1.00  0.00    -0.240 C  
HETATM    8  C   UNL     1     -11.347   7.461  67.631  1.00  0.00     0.413 C  
HETATM    9  C   UNL     1     -10.815   6.254  66.914  1.00  0.00    -0.354 C  
HETATM   10  C   UNL     1      -9.734   5.458  67.653  1.00  0.00    -0.155 C  
HETATM   11  O   UNL     1     -11.202   5.975  65.786  1.00  0.00     0.967 OA 
HETATM   12  C   UNL     1      -9.241   5.892  68.856  1.00  0.00    -0.126 C  
HETATM   13  C   UNL     1      -9.839   7.124  69.537  1.00  0.00    -0.162 C  
HETATM   14  C   UNL     1     -10.961   6.480  70.411  1.00  0.00    -0.353 C  
HETATM   15  C   UNL     1      -9.165   8.319  70.340  1.00  0.00    -0.153 C  
HETATM   16  C   UNL     1      -9.277   8.372  71.866  1.00  0.00    -0.238 C  
HETATM   17  O   UNL     1      -8.110   7.931  72.537  1.00  0.00    -0.106 OA 
HETATM   18  C   UNL     1      -9.649   9.838  72.151  1.00  0.00     2.714 C  
HETATM   19  C   UNL     1      -8.667  10.849  71.525  1.00  0.00     7.716 C  
HETATM   20  H   UNL     1      -8.180   7.964  73.483  1.00  0.00     0.000 HD 
HETATM   21  C   UNL     1      -7.728  11.173  72.843  1.00  0.00    13.140 C  
HETATM   22  C   UNL     1      -9.301  12.087  70.427  1.00  0.00     5.054 C  
HETATM   23  O   UNL     1     -10.499  12.519  70.941  1.00  0.00     3.850 OA 
HETATM   24  O   UNL     1      -8.735  13.669  71.954  1.00  0.00     9.106 OA 
HETATM   25  C   UNL     1     -10.127  13.240  72.103  1.00  0.00    12.055 C  
ENDROOT
BRANCH  22  26
HETATM   26  C   UNL     1      -9.206  12.315  68.709  1.00  0.00     0.116 C  
HETATM   27  O   UNL     1     -10.054  13.000  68.098  1.00  0.00    -0.225 OA 
BRANCH  26  28
HETATM   28  C   UNL     1      -8.124  11.677  67.815  1.00  0.00    -0.139 C  
BRANCH  28  29
HETATM   29  O   UNL     1      -7.939  12.411  66.524  1.00  0.00     0.066 OA 
BRANCH  29  30
HETATM   30  C   UNL     1      -8.948  12.409  65.603  1.00  0.00     0.390 C  
HETATM   31  C   UNL     1     -10.930  11.173  64.514  1.00  0.00    -0.255 C  
HETATM   32  C   UNL     1      -9.875  10.147  66.494  1.00  0.00    -0.268 C  
HETATM   33  O   UNL     1      -9.304  13.443  65.030  1.00  0.00     0.356 OA 
HETATM   34  C   UNL     1      -9.593  11.031  65.281  1.00  0.00    -0.270 C  
ENDBRANCH  29  30
ENDBRANCH  28  29
ENDBRANCH  26  28
ENDBRANCH  22  26
BRANCH  25  35
HETATM   35  C   UNL     1     -11.301  14.230  72.254  1.00  0.00     1.403 C  
HETATM   36  C   UNL     1     -12.500  13.735  71.374  1.00  0.00    -0.404 C  
HETATM   37  C   UNL     1     -11.790  14.420  73.684  1.00  0.00     0.354 C  
HETATM   38  C   UNL     1     -13.700  14.669  71.414  1.00  0.00    -0.474 C  
HETATM   39  C   UNL     1     -14.144  14.945  72.847  1.00  0.00     0.050 C  
HETATM   40  C   UNL     1     -12.974  15.395  73.723  1.00  0.00    -0.546 C  
ENDBRANCH  25  35
TORSDOF 5
ENDMDL
MODEL      166
REMARK 921   NORMALIZED FREE ENERGY PREDICTED BY IDOCK:   57.71 KCAL/MOL
REMARK 922        TOTAL FREE ENERGY PREDICTED BY IDOCK:   74.25 KCAL/MOL
REMARK 923 INTER-LIGAND FREE ENERGY PREDICTED BY IDOCK:   69.43 KCAL/MOL
REMARK 924 INTRA-LIGAND FREE ENERGY PREDICTED BY IDOCK:    4.82 KCAL/MOL
REMARK 927      BINDING AFFINITY PREDICTED BY RF-SCORE:    0.00 PKD
ROOT
HETATM    1  C   UNL     1      -9.014   9.329  69.936  1.00  0.00    -0.183 C  
HETATM    2  C   UNL     1      -8.103  10.785  69.710  1.00  0.00     0.240 C  
HETATM    3  C   UNL     1      -8.541  11.321  68.219  1.00  0.00    -0.153 C  
HETATM    4  C   UNL     1      -9.153  12.527  67.302  1.00  0.00    -0.189 C  
HETATM    5  C   UNL     1     -10.385  13.171  68.041  1.00  0.00    -0.240 C  
HETATM    6  C   UNL     1     -11.505  13.788  67.248  1.00  0.00    -0.367 C  
HETATM    7  C   UNL     1     -11.862  12.959  65.997  1.00  0.00    -0.485 C  
HETATM    8  C   UNL     1     -13.074  13.102  65.434  1.00  0.00     0.140 C  
HETATM    9  C   UNL     1     -13.073  14.545  65.019  1.00  0.00     0.339 C  
HETATM   10  C   UNL     1     -11.726  15.107  64.552  1.00  0.00    -0.331 C  
HETATM   11  O   UNL     1     -14.090  15.223  65.107  1.00  0.00     1.546 OA 
HETATM   12  C   UNL     1     -10.591  14.342  64.602  1.00  0.00    -0.364 C  
HETATM   13  C   UNL     1     -10.666  12.874  65.022  1.00  0.00    -0.326 C  
HETATM   14  C   UNL     1     -10.889  12.169  63.648  1.00  0.00    -0.523 C  
HETATM   15  C   UNL     1      -9.707  11.982  65.924  1.00  0.00    -0.256 C  
HETATM   16  C   UNL     1      -8.787  10.949  65.268  1.00  0.00    -0.167 C  
HETATM   17  O   UNL     1      -7.443  11.379  65.149  1.00  0.00     0.023 OA 
HETATM   18  C   UNL     1      -8.969   9.696  66.142  1.00  0.00    -0.186 C  
HETATM   19  C   UNL     1      -8.711   9.953  67.640  1.00  0.00    -0.121 C  
HETATM   20  H   UNL     1      -6.872  10.738  64.742  1.00  0.00     0.000 HD 
HETATM   21  C   UNL     1      -7.158   9.404  67.751  1.00  0.00    -0.082 C  
HETATM   22  C   UNL     1      -9.988   9.566  68.806  1.00  0.00    -0.174 C  
HETATM   23  O   UNL     1     -10.573   8.391  68.401  1.00  0.00    -0.190 OA 
HETATM   24  O   UNL     1      -8.656   7.936  69.657  1.00  0.00    -0.131 OA 
HETATM   25  C   UNL     1      -9.573   7.416  68.642  1.00  0.00    -0.146 C  
ENDROOT
BRANCH  22  26
HETATM   26  C   UNL     1     -11.065  10.538  69.758  1.00  0.00    -0.295 C  
HETATM   27  O   UNL     1     -12.286  10.598  69.498  1.00  0.00    -0.263 OA 
BRANCH  26  28
HETATM   28  C   UNL     1     -10.612  11.415  70.943  1.00  0.00     2.970 C  
BRANCH  28  29
HETATM   29  O   UNL     1      -9.131  11.378  71.151  1.00  0.00     5.871 OA 
BRANCH  29  30
HETATM   30  C   UNL     1      -8.607  11.857  72.318  1.00  0.00    20.160 C  
HETATM   31  C   UNL     1      -7.140  11.456  74.398  1.00  0.00     6.038 C  
HETATM   32  C   UNL     1      -7.148   9.726  72.640  1.00  0.00     1.914 C  
HETATM   33  O   UNL     1      -8.639  13.059  72.597  1.00  0.00    15.100 OA 
HETATM   34  C   UNL     1      -8.008  10.805  73.295  1.00  0.00    11.781 C  
ENDBRANCH  29  30
ENDBRANCH  28  29
ENDBRANCH  26  28
ENDBRANCH  22  26
BRANCH  25  35
HETATM   35  C   UNL     1     -10.414   6.138  68.842  1.00  0.00    -0.293 C  
HETATM   36  C   UNL     1      -9.750   4.963  68.046  1.00  0.00    -0.202 C  
HETATM   37  C   UNL     1     -10.582   5.711  70.294  1.00  0.00    -0.370 C  
HETATM   38  C   UNL     1     -10.530   3.659  68.138  1.00  0.00     1.677 C  
HETATM   39  C   UNL     1     -10.789   3.267  69.589  1.00  0.00     4.006 C  
HETATM   40  C   UNL     1     -11.404   4.419  70.384  1.00  0.00     3.662 C  
ENDBRANCH  25  35
TORSDOF 5
ENDMDL
MODEL      167
REMARK 921   NORMALIZED FREE ENERGY PREDICTED BY IDOCK:   58.83 KCAL/MOL
REMARK 922        TOTAL FREE ENERGY PREDICTED BY IDOCK:   75.70 KCAL/MOL
REMARK 923 INTER-LIGAND FREE ENERGY PREDICTED BY IDOCK:   73.02 KCAL/MOL
REMARK 924 INTRA-LIGAND FREE ENERGY PREDICTED BY IDOCK:    2.68 KCAL/MOL
REMARK 927      BINDING AFFINITY PREDICTED BY RF-SCORE:    0.00 PKD
ROOT
HETATM    1  C   UNL     1     -10.867  14.809  64.907  1.00  0.00    -0.416 C  
HETATM    2  C   UNL     1     -12.285  13.818  64.984  1.00  0.00    -0.448 C  
HETATM    3  C   UNL     1     -12.250  13.161  66.492  1.00  0.00    -0.358 C  
HETATM    4  C   UNL     1     -13.002  12.932  67.923  1.00  0.00     2.636 C  
HETATM    5  C   UNL     1     -13.672  14.281  68.382  1.00  0.00     6.596 C  
HETATM    6  C   UNL     1     -13.842  14.580  69.847  1.00  0.00     2.174 C  
HETATM    7  C   UNL     1     -12.616  14.151  70.678  1.00  0.00    -0.421 C  
HETATM    8  C   UNL     1     -12.403  14.716  71.880  1.00  0.00    -0.410 C  
HETATM    9  C   UNL     1     -13.622  14.306  72.654  1.00  0.00    -0.501 C  
HETATM   10  C   UNL     1     -14.186  12.918  72.333  1.00  0.00    -0.066 C  
HETATM   11  O   UNL     1     -14.145  15.076  73.451  1.00  0.00     0.169 OA 
HETATM   12  C   UNL     1     -13.641  12.153  71.334  1.00  0.00     0.447 C  
HETATM   13  C   UNL     1     -12.389  12.625  70.595  1.00  0.00    -0.375 C  
HETATM   14  C   UNL     1     -11.258  12.003  71.471  1.00  0.00     3.909 C  
HETATM   15  C   UNL     1     -11.974  12.546  69.062  1.00  0.00    -0.280 C  
HETATM   16  C   UNL     1     -10.923  11.530  68.609  1.00  0.00    -0.223 C  
HETATM   17  O   UNL     1     -11.474  10.376  67.999  1.00  0.00    -0.551 OA 
HETATM   18  C   UNL     1     -10.002  12.347  67.686  1.00  0.00    -0.200 C  
HETATM   19  C   UNL     1     -10.759  13.066  66.551  1.00  0.00    -0.290 C  
HETATM   20  H   UNL     1     -10.821   9.745  67.717  1.00  0.00     0.000 HD 
HETATM   21  C   UNL     1     -10.495  11.996  65.322  1.00  0.00    -0.323 C  
HETATM   22  C   UNL     1     -10.593  14.824  66.392  1.00  0.00    -0.300 C  
HETATM   23  O   UNL     1      -9.282  15.138  66.652  1.00  0.00    -0.234 OA 
HETATM   24  O   UNL     1      -9.522  14.500  64.416  1.00  0.00     0.921 OA 
HETATM   25  C   UNL     1      -8.583  14.619  65.533  1.00  0.00     2.177 C  
ENDROOT
BRANCH  22  26
HETATM   26  C   UNL     1     -11.660  16.153  66.714  1.00  0.00     0.634 C  
HETATM   27  O   UNL     1     -11.842  16.573  67.877  1.00  0.00     0.190 OA 
BRANCH  26  28
HETATM   28  C   UNL     1     -12.481  16.880  65.628  1.00  0.00     4.681 C  
BRANCH  28  29
HETATM   29  O   UNL     1     -12.695  18.327  65.944  1.00  0.00     7.130 OA 
BRANCH  29  30
HETATM   30  C   UNL     1     -12.600  18.751  67.238  1.00  0.00     5.387 C  
HETATM   31  C   UNL     1     -11.116  19.544  69.191  1.00  0.00     1.768 C  
HETATM   32  C   UNL     1     -10.061  19.256  66.980  1.00  0.00    -0.468 C  
HETATM   33  O   UNL     1     -13.596  19.099  67.881  1.00  0.00     6.091 OA 
HETATM   34  C   UNL     1     -11.181  18.731  67.875  1.00  0.00     0.314 C  
ENDBRANCH  29  30
ENDBRANCH  28  29
ENDBRANCH  26  28
ENDBRANCH  22  26
BRANCH  25  35
HETATM   35  C   UNL     1      -7.333  15.523  65.489  1.00  0.00     5.430 C  
HETATM   36  C   UNL     1      -6.929  15.759  63.993  1.00  0.00    18.928 C  
HETATM   37  C   UNL     1      -7.505  16.876  66.168  1.00  0.00    -0.194 C  
HETATM   38  C   UNL     1      -5.674  16.604  63.836  1.00  0.00     9.023 C  
HETATM   39  C   UNL     1      -5.794  17.925  64.591  1.00  0.00     0.718 C  
HETATM   40  C   UNL     1      -6.223  17.707  66.043  1.00  0.00    -0.247 C  
ENDBRANCH  25  35
TORSDOF 5
ENDMDL
MODEL      168
REMARK 921   NORMALIZED FREE ENERGY PREDICTED BY IDOCK:   88.27 KCAL/MOL
REMARK 922        TOTAL FREE ENERGY PREDICTED BY IDOCK:  113.75 KCAL/MOL
REMARK 923 INTER-LIGAND FREE ENERGY PREDICTED BY IDOCK:   99.65 KCAL/MOL
REMARK 924 INTRA-LIGAND FREE ENERGY PREDICTED BY IDOCK:   14.10 KCAL/MOL
REMARK 927      BINDING AFFINITY PREDICTED BY RF-SCORE:    0.00 PKD
ROOT
HETATM    1  C   UNL     1      -6.336  12.738  70.551  1.00  0.00     0.388 C  
HETATM    2  C   UNL     1      -6.326  11.594  71.853  1.00  0.00     3.043 C  
HETATM    3  C   UNL     1      -7.905  11.179  72.053  1.00  0.00     9.891 C  
HETATM    4  C   UNL     1      -9.034  10.001  72.104  1.00  0.00     4.600 C  
HETATM    5  C   UNL     1      -8.775   8.979  70.935  1.00  0.00    -0.280 C  
HETATM    6  C   UNL     1      -9.924   8.223  70.324  1.00  0.00    -0.188 C  
HETATM    7  C   UNL     1     -11.177   9.105  70.148  1.00  0.00    -0.211 C  
HETATM    8  C   UNL     1     -12.115   8.749  69.252  1.00  0.00     1.806 C  
HETATM    9  C   UNL     1     -12.581   7.422  69.777  1.00  0.00     1.529 C  
HETATM   10  C   UNL     1     -12.609   7.276  71.302  1.00  0.00    -0.402 C  
HETATM   11  O   UNL     1     -12.869   6.511  69.009  1.00  0.00     3.318 OA 
HETATM   12  C   UNL     1     -12.148   8.282  72.111  1.00  0.00    -0.425 C  
HETATM   13  C   UNL     1     -11.699   9.614  71.510  1.00  0.00    -0.472 C  
HETATM   14  C   UNL     1     -13.031  10.426  71.528  1.00  0.00    -0.562 C  
HETATM   15  C   UNL     1     -10.487  10.579  71.866  1.00  0.00     4.241 C  
HETATM   16  C   UNL     1     -10.749  11.886  72.618  1.00  0.00    13.773 C  
HETATM   17  O   UNL     1     -10.442  11.818  73.999  1.00  0.00    17.465 OA 
HETATM   18  C   UNL     1      -9.919  12.923  71.842  1.00  0.00    13.751 C  
HETATM   19  C   UNL     1      -8.435  12.531  71.695  1.00  0.00    16.023 C  
HETATM   20  H   UNL     1     -10.604  12.629  74.466  1.00  0.00     0.000 HD 
HETATM   21  C   UNL     1      -7.791  13.422  72.927  1.00  0.00    11.194 C  
HETATM   22  C   UNL     1      -7.734  12.429  70.070  1.00  0.00     2.134 C  
HETATM   23  O   UNL     1      -8.247  13.470  69.335  1.00  0.00     0.468 OA 
HETATM   24  O   UNL     1      -6.408  14.201  70.578  1.00  0.00    -0.160 OA 
HETATM   25  C   UNL     1      -7.640  14.616  69.906  1.00  0.00     0.183 C  
ENDROOT
BRANCH  22  26
HETATM   26  C   UNL     1      -7.242  11.101  69.068  1.00  0.00    -0.118 C  
HETATM   27  O   UNL     1      -7.448   9.917  69.412  1.00  0.00    -0.086 OA 
BRANCH  26  28
HETATM   28  C   UNL     1      -6.496  11.265  67.728  1.00  0.00    -0.060 C  
BRANCH  28  29
HETATM   29  O   UNL     1      -6.027   9.958  67.169  1.00  0.00    -0.051 OA 
BRANCH  29  30
HETATM   30  C   UNL     1      -6.895   8.905  67.110  1.00  0.00    -0.074 C  
HETATM   31  C   UNL     1      -9.234   7.951  67.619  1.00  0.00    -0.147 C  
HETATM   32  C   UNL     1      -8.855  10.356  68.018  1.00  0.00    -0.130 C  
HETATM   33  O   UNL     1      -6.667   7.917  66.405  1.00  0.00    -0.053 OA 
HETATM   34  C   UNL     1      -8.160   8.996  68.010  1.00  0.00    -0.105 C  
ENDBRANCH  29  30
ENDBRANCH  28  29
ENDBRANCH  26  28
ENDBRANCH  22  26
BRANCH  25  35
HETATM   35  C   UNL     1      -7.660  15.609  68.725  1.00  0.00    -0.162 C  
HETATM   36  C   UNL     1      -6.396  16.532  68.814  1.00  0.00    -0.145 C  
HETATM   37  C   UNL     1      -7.692  14.958  67.348  1.00  0.00    -0.231 C  
HETATM   38  C   UNL     1      -6.341  17.585  67.718  1.00  0.00    -0.163 C  
HETATM   39  C   UNL     1      -6.468  16.954  66.334  1.00  0.00    -0.083 C  
HETATM   40  C   UNL     1      -7.679  16.025  66.247  1.00  0.00     0.154 C  
ENDBRANCH  25  35
TORSDOF 5
ENDMDL
MODEL      169
REMARK 921   NORMALIZED FREE ENERGY PREDICTED BY IDOCK:  108.27 KCAL/MOL
REMARK 922        TOTAL FREE ENERGY PREDICTED BY IDOCK:  139.59 KCAL/MOL
REMARK 923 INTER-LIGAND FREE ENERGY PREDICTED BY IDOCK:   -0.19 KCAL/MOL
REMARK 924 INTRA-LIGAND FREE ENERGY PREDICTED BY IDOCK:  139.78 KCAL/MOL
REMARK 927      BINDING AFFINITY PREDICTED BY RF-SCORE:    0.00 PKD
ROOT
HETATM    1  C   UNL     1      -6.876  12.594  67.297  1.00  0.00    -0.098 C  
HETATM    2  C   UNL     1      -5.776  11.727  68.316  1.00  0.00    -0.045 C  
HETATM    3  C   UNL     1      -6.444  10.231  68.471  1.00  0.00    -0.052 C  
HETATM    4  C   UNL     1      -6.282   8.616  68.299  1.00  0.00    -0.054 C  
HETATM    5  C   UNL     1      -5.576   8.304  66.927  1.00  0.00    -0.037 C  
HETATM    6  C   UNL     1      -5.866   7.018  66.203  1.00  0.00    -0.035 C  
HETATM    7  C   UNL     1      -7.359   6.636  66.263  1.00  0.00    -0.073 C  
HETATM    8  C   UNL     1      -7.863   5.797  65.341  1.00  0.00    -0.107 C  
HETATM    9  C   UNL     1      -7.078   4.540  65.578  1.00  0.00    -0.067 C  
HETATM   10  C   UNL     1      -6.702   4.249  67.035  1.00  0.00    -0.051 C  
HETATM   11  O   UNL     1      -6.729   3.833  64.640  1.00  0.00    -0.042 OA 
HETATM   12  C   UNL     1      -7.002   5.143  68.029  1.00  0.00    -0.061 C  
HETATM   13  C   UNL     1      -7.817   6.399  67.720  1.00  0.00    -0.104 C  
HETATM   14  C   UNL     1      -9.273   5.889  67.957  1.00  0.00    -0.112 C  
HETATM   15  C   UNL     1      -7.689   7.896  68.239  1.00  0.00    -0.121 C  
HETATM   16  C   UNL     1      -8.688   8.434  69.267  1.00  0.00    -0.138 C  
HETATM   17  O   UNL     1      -8.182   8.465  70.589  1.00  0.00    -0.103 OA 
HETATM   18  C   UNL     1      -9.072   9.816  68.710  1.00  0.00    -0.136 C  
HETATM   19  C   UNL     1      -7.856  10.722  68.434  1.00  0.00    -0.120 C  
HETATM   20  H   UNL     1      -8.802   8.799  71.227  1.00  0.00     0.000 HD 
HETATM   21  C   UNL     1      -7.874  11.635  69.810  1.00  0.00     1.000 C  
HETATM   22  C   UNL     1      -7.634  11.383  66.805  1.00  0.00    -0.143 C  
HETATM   23  O   UNL     1      -8.875  11.734  66.331  1.00  0.00    -0.194 OA 
HETATM   24  O   UNL     1      -8.005  13.460  67.645  1.00  0.00    -0.147 OA 
HETATM   25  C   UNL     1      -9.231  12.857  67.119  1.00  0.00    -0.225 C  
ENDROOT
BRANCH  22  26
HETATM   26  C   UNL     1      -6.519  11.038  65.522  1.00  0.00     0.171 C  
HETATM   27  O   UNL     1      -6.683  11.506  64.375  1.00  0.00     1.508 OA 
BRANCH  26  28
HETATM   28  C   UNL     1      -5.290  10.118  65.674  1.00  0.00    -0.063 C  
BRANCH  28  29
HETATM   29  O   UNL     1      -5.471   9.093  66.750  1.00  0.00    -0.038 OA 
BRANCH  29  30
HETATM   30  C   UNL     1      -6.321   9.353  67.787  1.00  0.00    -0.058 C  
HETATM   31  C   UNL     1      -7.213  11.025  69.534  1.00  0.00    -0.091 C  
HETATM   32  C   UNL     1      -5.652  11.868  67.819  1.00  0.00    -0.063 C  
HETATM   33  O   UNL     1      -7.257   8.596  68.062  1.00  0.00    -0.084 OA 
HETATM   34  C   UNL     1      -6.022  10.626  68.628  1.00  0.00    -0.040 C  
ENDBRANCH  29  30
ENDBRANCH  28  29
ENDBRANCH  26  28
ENDBRANCH  22  26
BRANCH  25  35
HETATM   35  C   UNL     1     -10.203  13.608  66.185  1.00  0.00    -0.306 C  
HETATM   36  C   UNL     1      -9.812  13.307  64.697  1.00  0.00    -0.000 C  
HETATM   37  C   UNL     1     -11.672  13.256  66.384  1.00  0.00    -0.418 C  
HETATM   38  C   UNL     1     -10.683  14.040  63.687  1.00  0.00     1.493 C  
HETATM   39  C   UNL     1     -12.165  13.772  63.933  1.00  0.00    -0.402 C  
HETATM   40  C   UNL     1     -12.550  14.028  65.391  1.00  0.00    -0.529 C  
ENDBRANCH  25  35
TORSDOF 5
ENDMDL
