MODEL        1
REMARK 921   NORMALIZED FREE ENERGY PREDICTED BY IDOCK:   -6.29 KCAL/MOL
REMARK 922        TOTAL FREE ENERGY PREDICTED BY IDOCK:   -9.07 KCAL/MOL
REMARK 923 INTER-LIGAND FREE ENERGY PREDICTED BY IDOCK:   -8.13 KCAL/MOL
REMARK 924 INTRA-LIGAND FREE ENERGY PREDICTED BY IDOCK:   -0.94 KCAL/MOL
REMARK 927      BINDING AFFINITY PREDICTED BY RF-SCORE:    0.00 PKD
ROOT
HETATM    1  N   UNL     1     -13.112  16.107  74.017  1.00  0.00    -0.941 NA 
HETATM    2  H1  UNL     1     -12.819  17.080  74.117  1.00  0.00     0.000 HD 
HETATM    3  C   UNL     1     -12.722  15.465  72.882  1.00  0.00    -0.427 C  
HETATM    4  H2  UNL     1     -13.670  15.640  74.731  1.00  0.00     0.000 HD 
HETATM    5  N   UNL     1     -13.095  14.228  72.755  1.00  0.00    -0.493 N  
HETATM    6  C   UNL     1     -12.803  13.536  71.605  1.00  0.00    -0.329 C  
HETATM    7  H   UNL     1     -13.606  13.769  73.510  1.00  0.00     0.000 HD 
HETATM    8  N   UNL     1     -12.161  14.222  70.570  1.00  0.00    -0.333 N  
HETATM    9  O   UNL     1     -13.119  12.355  71.472  1.00  0.00    -0.378 OA 
HETATM   10  C   UNL     1     -11.930  16.178  71.864  1.00  0.00    -0.583 C  
HETATM   11  C   UNL     1     -11.708  15.508  70.728  1.00  0.00    -0.362 C  
ENDROOT
BRANCH   8  12
HETATM   12  C   UNL     1     -12.151  13.614  69.249  1.00  0.00    -0.314 C  
BRANCH  12  13
HETATM   13  C   UNL     1     -10.855  12.883  68.836  1.00  0.00    -0.200 C  
BRANCH  13  14
HETATM   14  O   UNL     1     -10.546  13.151  67.430  1.00  0.00    -0.240 OA 
BRANCH  14  15
HETATM   15  C   UNL     1     -11.599  13.933  66.837  1.00  0.00    -0.378 C  
HETATM   16  P   UNL     1     -11.965  13.443  65.112  1.00  0.00    -0.436 P  
HETATM   17  O   UNL     1     -12.372  11.973  65.742  1.00  0.00    -0.469 OA 
HETATM   18  O   UNL     1     -13.384  14.251  65.324  1.00  0.00    -0.660 OA 
HETATM   19  O   UNL     1     -12.275  13.029  63.654  1.00  0.00    -0.552 OA 
ENDBRANCH  14  15
ENDBRANCH  13  14
BRANCH  13  20
HETATM   20  C   UNL     1     -10.985  11.363  69.023  1.00  0.00    -0.236 C  
HETATM   21  O   UNL     1     -12.297  10.931  68.654  1.00  0.00    -0.805 OA 
HETATM   22  H   UNL     1     -12.377   9.991  68.770  1.00  0.00     0.000 HD 
ENDBRANCH  13  20
ENDBRANCH  12  13
ENDBRANCH   8  12
TORSDOF 5
ENDMDL
MODEL        2
REMARK 921   NORMALIZED FREE ENERGY PREDICTED BY IDOCK:   -6.03 KCAL/MOL
REMARK 922        TOTAL FREE ENERGY PREDICTED BY IDOCK:   -8.73 KCAL/MOL
REMARK 923 INTER-LIGAND FREE ENERGY PREDICTED BY IDOCK:   -8.42 KCAL/MOL
REMARK 924 INTRA-LIGAND FREE ENERGY PREDICTED BY IDOCK:   -0.30 KCAL/MOL
REMARK 927      BINDING AFFINITY PREDICTED BY RF-SCORE:    0.00 PKD
ROOT
HETATM    1  N   UNL     1     -13.737  16.316  73.637  1.00  0.00    -0.812 NA 
HETATM    2  H1  UNL     1     -13.445  17.293  73.601  1.00  0.00     0.000 HD 
HETATM    3  C   UNL     1     -13.171  15.475  72.728  1.00  0.00    -0.508 C  
HETATM    4  H2  UNL     1     -14.418  15.985  74.320  1.00  0.00     0.000 HD 
HETATM    5  N   UNL     1     -13.541  14.232  72.774  1.00  0.00    -0.495 N  
HETATM    6  C   UNL     1     -13.070  13.339  71.843  1.00  0.00    -0.388 C  
HETATM    7  H   UNL     1     -14.183  13.918  73.502  1.00  0.00     0.000 HD 
HETATM    8  N   UNL     1     -12.247  13.825  70.824  1.00  0.00    -0.361 N  
HETATM    9  O   UNL     1     -13.383  12.150  71.883  1.00  0.00    -0.463 OA 
HETATM   10  C   UNL     1     -12.202  15.992  71.746  1.00  0.00    -0.535 C  
HETATM   11  C   UNL     1     -11.801  15.123  70.812  1.00  0.00    -0.324 C  
ENDROOT
BRANCH   8  12
HETATM   12  C   UNL     1     -12.022  12.978  69.663  1.00  0.00    -0.302 C  
BRANCH  12  13
HETATM   13  C   UNL     1     -11.511  13.680  68.386  1.00  0.00    -0.311 C  
BRANCH  13  14
HETATM   14  O   UNL     1     -12.122  13.082  67.197  1.00  0.00    -0.362 OA 
BRANCH  14  15
HETATM   15  C   UNL     1     -12.212  14.064  66.148  1.00  0.00    -0.465 C  
HETATM   16  P   UNL     1     -11.885  13.362  64.489  1.00  0.00    -0.444 P  
HETATM   17  O   UNL     1     -13.208  12.415  64.759  1.00  0.00    -0.784 OA 
HETATM   18  O   UNL     1     -12.616  14.722  63.915  1.00  0.00    -0.834 OA 
HETATM   19  O   UNL     1     -11.608  12.770  63.086  1.00  0.00    -0.445 OA 
ENDBRANCH  14  15
ENDBRANCH  13  14
BRANCH  13  20
HETATM   20  C   UNL     1      -9.984  13.564  68.256  1.00  0.00    -0.237 C  
HETATM   21  O   UNL     1      -9.549  12.273  68.690  1.00  0.00    -0.354 OA 
HETATM   22  H   UNL     1      -8.604  12.201  68.610  1.00  0.00     0.000 HD 
ENDBRANCH  13  20
ENDBRANCH  12  13
ENDBRANCH   8  12
TORSDOF 5
ENDMDL
MODEL        3
REMARK 921   NORMALIZED FREE ENERGY PREDICTED BY IDOCK:   -5.91 KCAL/MOL
REMARK 922        TOTAL FREE ENERGY PREDICTED BY IDOCK:   -8.57 KCAL/MOL
REMARK 923 INTER-LIGAND FREE ENERGY PREDICTED BY IDOCK:   -7.76 KCAL/MOL
REMARK 924 INTRA-LIGAND FREE ENERGY PREDICTED BY IDOCK:   -0.81 KCAL/MOL
REMARK 927      BINDING AFFINITY PREDICTED BY RF-SCORE:    0.00 PKD
ROOT
HETATM    1  N   UNL     1     -12.911  12.260  63.534  1.00  0.00    -0.775 NA 
HETATM    2  H1  UNL     1     -12.721  11.286  63.771  1.00  0.00     0.000 HD 
HETATM    3  C   UNL     1     -12.059  13.191  64.043  1.00  0.00    -0.446 C  
HETATM    4  H2  UNL     1     -13.701  12.523  62.945  1.00  0.00     0.000 HD 
HETATM    5  N   UNL     1     -12.301  14.430  63.741  1.00  0.00    -1.079 N  
HETATM    6  C   UNL     1     -11.529  15.432  64.276  1.00  0.00    -0.171 C  
HETATM    7  H   UNL     1     -13.065  14.660  63.106  1.00  0.00     0.000 HD 
HETATM    8  N   UNL     1     -10.536  15.077  65.193  1.00  0.00    -0.400 N  
HETATM    9  O   UNL     1     -11.719  16.611  63.983  1.00  0.00    -1.143 OA 
HETATM   10  C   UNL     1     -10.937  12.774  64.903  1.00  0.00    -0.324 C  
HETATM   11  C   UNL     1     -10.235  13.766  65.462  1.00  0.00    -0.316 C  
ENDROOT
BRANCH   8  12
HETATM   12  C   UNL     1      -9.951  16.130  66.009  1.00  0.00    -0.348 C  
BRANCH  12  13
HETATM   13  C   UNL     1     -10.774  16.594  67.230  1.00  0.00    -0.227 C  
BRANCH  13  14
HETATM   14  O   UNL     1     -10.664  18.045  67.396  1.00  0.00    -0.390 OA 
BRANCH  14  15
HETATM   15  C   UNL     1      -9.863  18.600  66.336  1.00  0.00    -0.367 C  
HETATM   16  P   UNL     1      -8.604  19.783  66.941  1.00  0.00    -0.363 P  
HETATM   17  O   UNL     1      -7.978  18.506  67.777  1.00  0.00    -0.244 OA 
HETATM   18  O   UNL     1      -7.879  19.553  65.480  1.00  0.00    -0.402 OA 
HETATM   19  O   UNL     1      -7.538  20.783  67.451  1.00  0.00    -0.346 OA 
ENDBRANCH  14  15
ENDBRANCH  13  14
BRANCH  13  20
HETATM   20  C   UNL     1     -10.288  15.920  68.523  1.00  0.00    -0.232 C  
HETATM   21  O   UNL     1      -8.873  16.068  68.655  1.00  0.00    -0.189 OA 
HETATM   22  H   UNL     1      -8.572  15.651  69.454  1.00  0.00     0.000 HD 
ENDBRANCH  13  20
ENDBRANCH  12  13
ENDBRANCH   8  12
TORSDOF 5
ENDMDL
MODEL        4
REMARK 921   NORMALIZED FREE ENERGY PREDICTED BY IDOCK:   -5.90 KCAL/MOL
REMARK 922        TOTAL FREE ENERGY PREDICTED BY IDOCK:   -8.57 KCAL/MOL
REMARK 923 INTER-LIGAND FREE ENERGY PREDICTED BY IDOCK:   -7.95 KCAL/MOL
REMARK 924 INTRA-LIGAND FREE ENERGY PREDICTED BY IDOCK:   -0.62 KCAL/MOL
REMARK 927      BINDING AFFINITY PREDICTED BY RF-SCORE:    0.00 PKD
ROOT
HETATM    1  N   UNL     1     -14.131  15.687  72.541  1.00  0.00    -0.549 NA 
HETATM    2  H1  UNL     1     -14.448  15.073  73.292  1.00  0.00     0.000 HD 
HETATM    3  C   UNL     1     -13.407  15.110  71.543  1.00  0.00    -0.448 C  
HETATM    4  H2  UNL     1     -14.346  16.684  72.538  1.00  0.00     0.000 HD 
HETATM    5  N   UNL     1     -13.004  15.891  70.588  1.00  0.00    -0.686 N  
HETATM    6  C   UNL     1     -12.207  15.396  69.585  1.00  0.00    -0.282 C  
HETATM    7  H   UNL     1     -13.280  16.873  70.583  1.00  0.00     0.000 HD 
HETATM    8  N   UNL     1     -11.798  14.063  69.668  1.00  0.00    -0.309 N  
HETATM    9  O   UNL     1     -11.837  16.109  68.654  1.00  0.00    -0.321 OA 
HETATM   10  C   UNL     1     -13.101  13.669  71.590  1.00  0.00    -0.455 C  
HETATM   11  C   UNL     1     -12.275  13.220  70.640  1.00  0.00    -0.338 C  
ENDROOT
BRANCH   8  12
HETATM   12  C   UNL     1     -10.701  13.629  68.816  1.00  0.00    -0.244 C  
BRANCH  12  13
HETATM   13  C   UNL     1     -11.077  12.755  67.601  1.00  0.00    -0.258 C  
BRANCH  13  14
HETATM   14  O   UNL     1     -12.455  13.027  67.184  1.00  0.00    -0.242 OA 
BRANCH  14  15
HETATM   15  C   UNL     1     -12.458  13.940  66.071  1.00  0.00    -0.461 C  
HETATM   16  P   UNL     1     -11.810  13.188  64.533  1.00  0.00    -0.433 P  
HETATM   17  O   UNL     1     -13.073  12.135  64.656  1.00  0.00    -0.673 OA 
HETATM   18  O   UNL     1     -12.553  14.441  63.765  1.00  0.00    -0.829 OA 
HETATM   19  O   UNL     1     -11.262  12.554  63.232  1.00  0.00    -0.452 OA 
ENDBRANCH  14  15
ENDBRANCH  13  14
BRANCH  13  20
HETATM   20  C   UNL     1     -10.956  11.258  67.928  1.00  0.00    -0.248 C  
HETATM   21  O   UNL     1     -12.254  10.685  68.104  1.00  0.00    -0.719 OA 
HETATM   22  H   UNL     1     -12.179   9.760  68.307  1.00  0.00     0.000 HD 
ENDBRANCH  13  20
ENDBRANCH  12  13
ENDBRANCH   8  12
TORSDOF 5
ENDMDL
MODEL        5
REMARK 921   NORMALIZED FREE ENERGY PREDICTED BY IDOCK:   -5.89 KCAL/MOL
REMARK 922        TOTAL FREE ENERGY PREDICTED BY IDOCK:   -8.54 KCAL/MOL
REMARK 923 INTER-LIGAND FREE ENERGY PREDICTED BY IDOCK:   -7.95 KCAL/MOL
REMARK 924 INTRA-LIGAND FREE ENERGY PREDICTED BY IDOCK:   -0.60 KCAL/MOL
REMARK 927      BINDING AFFINITY PREDICTED BY RF-SCORE:    0.00 PKD
ROOT
HETATM    1  N   UNL     1     -13.675   9.079  72.987  1.00  0.00    -1.040 NA 
HETATM    2  H1  UNL     1     -13.487   8.094  72.796  1.00  0.00     0.000 HD 
HETATM    3  C   UNL     1     -13.236   9.976  72.062  1.00  0.00    -0.443 C  
HETATM    4  H2  UNL     1     -14.168   9.376  73.829  1.00  0.00     0.000 HD 
HETATM    5  N   UNL     1     -13.476  11.228  72.305  1.00  0.00    -0.521 N  
HETATM    6  C   UNL     1     -13.000  12.197  71.456  1.00  0.00    -0.295 C  
HETATM    7  H   UNL     1     -14.018  11.494  73.127  1.00  0.00     0.000 HD 
HETATM    8  N   UNL     1     -12.205  11.794  70.379  1.00  0.00    -0.348 N  
HETATM    9  O   UNL     1     -13.238  13.388  71.648  1.00  0.00    -0.375 OA 
HETATM   10  C   UNL     1     -12.514   9.510  70.866  1.00  0.00    -0.277 C  
HETATM   11  C   UNL     1     -12.006  10.469  70.084  1.00  0.00    -0.316 C  
ENDROOT
BRANCH   8  12
HETATM   12  C   UNL     1     -11.429  12.809  69.684  1.00  0.00    -0.185 C  
BRANCH  12  13
HETATM   13  C   UNL     1     -12.124  13.520  68.503  1.00  0.00    -0.268 C  
BRANCH  13  14
HETATM   14  O   UNL     1     -11.639  12.984  67.229  1.00  0.00    -0.315 OA 
BRANCH  14  15
HETATM   15  C   UNL     1     -11.236  14.062  66.365  1.00  0.00    -0.319 C  
HETATM   16  P   UNL     1     -11.933  13.920  64.678  1.00  0.00    -0.448 P  
HETATM   17  O   UNL     1     -13.409  14.040  65.406  1.00  0.00    -0.721 OA 
HETATM   18  O   UNL     1     -11.554  15.516  64.531  1.00  0.00    -0.399 OA 
HETATM   19  O   UNL     1     -12.521  13.801  63.252  1.00  0.00    -0.819 OA 
ENDBRANCH  14  15
ENDBRANCH  13  14
BRANCH  13  20
HETATM   20  C   UNL     1     -11.857  15.034  68.524  1.00  0.00    -0.291 C  
HETATM   21  O   UNL     1     -12.683  15.666  69.504  1.00  0.00    -0.567 OA 
HETATM   22  H   UNL     1     -12.518  16.602  69.518  1.00  0.00     0.000 HD 
ENDBRANCH  13  20
ENDBRANCH  12  13
ENDBRANCH   8  12
TORSDOF 5
ENDMDL
MODEL        6
REMARK 921   NORMALIZED FREE ENERGY PREDICTED BY IDOCK:   -5.87 KCAL/MOL
REMARK 922        TOTAL FREE ENERGY PREDICTED BY IDOCK:   -8.53 KCAL/MOL
REMARK 923 INTER-LIGAND FREE ENERGY PREDICTED BY IDOCK:   -8.06 KCAL/MOL
REMARK 924 INTRA-LIGAND FREE ENERGY PREDICTED BY IDOCK:   -0.47 KCAL/MOL
REMARK 927      BINDING AFFINITY PREDICTED BY RF-SCORE:    0.00 PKD
ROOT
HETATM    1  N   UNL     1     -11.746  16.297  63.740  1.00  0.00    -1.488 NA 
HETATM    2  H1  UNL     1     -12.457  15.991  63.075  1.00  0.00     0.000 HD 
HETATM    3  C   UNL     1     -11.398  15.412  64.714  1.00  0.00    -0.376 C  
HETATM    4  H2  UNL     1     -11.318  17.221  63.678  1.00  0.00     0.000 HD 
HETATM    5  N   UNL     1     -10.493  15.802  65.559  1.00  0.00    -0.379 N  
HETATM    6  C   UNL     1     -10.143  14.994  66.613  1.00  0.00    -0.261 C  
HETATM    7  H   UNL     1     -10.042  16.710  65.441  1.00  0.00     0.000 HD 
HETATM    8  N   UNL     1     -10.833  13.789  66.775  1.00  0.00    -0.283 N  
HETATM    9  O   UNL     1      -9.268  15.327  67.410  1.00  0.00    -0.189 OA 
HETATM   10  C   UNL     1     -12.051  14.093  64.781  1.00  0.00    -0.454 C  
HETATM   11  C   UNL     1     -11.741  13.346  65.846  1.00  0.00    -0.356 C  
ENDROOT
BRANCH   8  12
HETATM   12  C   UNL     1     -10.713  13.098  68.049  1.00  0.00    -0.233 C  
BRANCH  12  13
HETATM   13  C   UNL     1     -12.023  12.868  68.834  1.00  0.00    -0.250 C  
BRANCH  13  14
HETATM   14  O   UNL     1     -12.370  14.063  69.607  1.00  0.00    -0.334 OA 
BRANCH  14  15
HETATM   15  C   UNL     1     -12.699  13.694  70.958  1.00  0.00    -0.332 C  
HETATM   16  P   UNL     1     -12.513  15.079  72.140  1.00  0.00    -0.387 P  
HETATM   17  O   UNL     1     -13.680  15.836  71.253  1.00  0.00    -0.560 OA 
HETATM   18  O   UNL     1     -13.455  14.175  73.144  1.00  0.00    -0.619 OA 
HETATM   19  O   UNL     1     -12.356  16.250  73.140  1.00  0.00    -0.478 OA 
ENDBRANCH  14  15
ENDBRANCH  13  14
BRANCH  13  20
HETATM   20  C   UNL     1     -11.894  11.684  69.805  1.00  0.00    -0.357 C  
HETATM   21  O   UNL     1     -12.326  10.478  69.171  1.00  0.00    -0.724 OA 
HETATM   22  H   UNL     1     -12.247   9.745  69.771  1.00  0.00     0.000 HD 
ENDBRANCH  13  20
ENDBRANCH  12  13
ENDBRANCH   8  12
TORSDOF 5
ENDMDL
MODEL        7
REMARK 921   NORMALIZED FREE ENERGY PREDICTED BY IDOCK:   -5.85 KCAL/MOL
REMARK 922        TOTAL FREE ENERGY PREDICTED BY IDOCK:   -8.50 KCAL/MOL
REMARK 923 INTER-LIGAND FREE ENERGY PREDICTED BY IDOCK:   -8.05 KCAL/MOL
REMARK 924 INTRA-LIGAND FREE ENERGY PREDICTED BY IDOCK:   -0.45 KCAL/MOL
REMARK 927      BINDING AFFINITY PREDICTED BY RF-SCORE:    0.00 PKD
ROOT
HETATM    1  N   UNL     1     -13.990   8.864  73.028  1.00  0.00    -1.134 NA 
HETATM    2  H1  UNL     1     -14.661   9.433  73.546  1.00  0.00     0.000 HD 
HETATM    3  C   UNL     1     -13.169   9.522  72.165  1.00  0.00    -0.451 C  
HETATM    4  H2  UNL     1     -13.937   7.853  73.152  1.00  0.00     0.000 HD 
HETATM    5  N   UNL     1     -12.315   8.798  71.508  1.00  0.00    -0.316 N  
HETATM    6  C   UNL     1     -11.503   9.380  70.565  1.00  0.00    -0.262 C  
HETATM    7  H   UNL     1     -12.246   7.797  71.692  1.00  0.00     0.000 HD 
HETATM    8  N   UNL     1     -11.676  10.740  70.298  1.00  0.00    -0.324 N  
HETATM    9  O   UNL     1     -10.665   8.721  69.950  1.00  0.00    -0.223 OA 
HETATM   10  C   UNL     1     -13.285  10.981  72.001  1.00  0.00    -0.447 C  
HETATM   11  C   UNL     1     -12.530  11.519  71.037  1.00  0.00    -0.356 C  
ENDROOT
BRANCH   8  12
HETATM   12  C   UNL     1     -11.074  11.282  69.089  1.00  0.00    -0.253 C  
BRANCH  12  13
HETATM   13  C   UNL     1     -11.919  12.303  68.297  1.00  0.00    -0.200 C  
BRANCH  13  14
HETATM   14  O   UNL     1     -11.983  11.922  66.884  1.00  0.00    -0.614 OA 
BRANCH  14  15
HETATM   15  C   UNL     1     -11.163  12.808  66.100  1.00  0.00    -0.298 C  
HETATM   16  P   UNL     1     -11.909  13.220  64.480  1.00  0.00    -0.437 P  
HETATM   17  O   UNL     1     -13.138  13.893  65.351  1.00  0.00    -0.752 OA 
HETATM   18  O   UNL     1     -10.847  14.479  64.460  1.00  0.00    -0.351 OA 
HETATM   19  O   UNL     1     -12.539  13.570  63.110  1.00  0.00    -0.762 OA 
ENDBRANCH  14  15
ENDBRANCH  13  14
BRANCH  13  20
HETATM   20  C   UNL     1     -11.323  13.717  68.391  1.00  0.00    -0.295 C  
HETATM   21  O   UNL     1     -12.347  14.663  68.707  1.00  0.00    -0.573 OA 
HETATM   22  H   UNL     1     -11.979  15.537  68.765  1.00  0.00     0.000 HD 
ENDBRANCH  13  20
ENDBRANCH  12  13
ENDBRANCH   8  12
TORSDOF 5
ENDMDL
MODEL        8
REMARK 921   NORMALIZED FREE ENERGY PREDICTED BY IDOCK:   -5.83 KCAL/MOL
REMARK 922        TOTAL FREE ENERGY PREDICTED BY IDOCK:   -8.47 KCAL/MOL
REMARK 923 INTER-LIGAND FREE ENERGY PREDICTED BY IDOCK:   -8.07 KCAL/MOL
REMARK 924 INTRA-LIGAND FREE ENERGY PREDICTED BY IDOCK:   -0.40 KCAL/MOL
REMARK 927      BINDING AFFINITY PREDICTED BY RF-SCORE:    0.00 PKD
ROOT
HETATM    1  N   UNL     1     -13.039  12.266  63.648  1.00  0.00    -0.760 NA 
HETATM    2  H1  UNL     1     -13.131  11.351  64.091  1.00  0.00     0.000 HD 
HETATM    3  C   UNL     1     -12.332  13.208  64.331  1.00  0.00    -0.360 C  
HETATM    4  H2  UNL     1     -13.456  12.465  62.739  1.00  0.00     0.000 HD 
HETATM    5  N   UNL     1     -12.215  14.371  63.767  1.00  0.00    -1.040 N  
HETATM    6  C   UNL     1     -11.580  15.395  64.426  1.00  0.00    -0.264 C  
HETATM    7  H   UNL     1     -12.595  14.526  62.833  1.00  0.00     0.000 HD 
HETATM    8  N   UNL     1     -11.134  15.159  65.730  1.00  0.00    -0.344 N  
HETATM    9  O   UNL     1     -11.430  16.497  63.902  1.00  0.00    -1.145 OA 
HETATM   10  C   UNL     1     -11.758  12.889  65.650  1.00  0.00    -0.430 C  
HETATM   11  C   UNL     1     -11.197  13.914  66.302  1.00  0.00    -0.309 C  
ENDROOT
BRANCH   8  12
HETATM   12  C   UNL     1     -10.773  16.307  66.547  1.00  0.00    -0.187 C  
BRANCH  12  13
HETATM   13  C   UNL     1     -10.397  16.016  68.016  1.00  0.00    -0.266 C  
BRANCH  13  14
HETATM   14  O   UNL     1     -11.595  16.021  68.859  1.00  0.00    -0.372 OA 
BRANCH  14  15
HETATM   15  C   UNL     1     -11.526  14.945  69.813  1.00  0.00    -0.295 C  
HETATM   16  P   UNL     1     -11.985  15.466  71.507  1.00  0.00    -0.481 P  
HETATM   17  O   UNL     1     -13.464  15.822  70.868  1.00  0.00    -0.568 OA 
HETATM   18  O   UNL     1     -12.180  13.858  71.805  1.00  0.00    -0.204 OA 
HETATM   19  O   UNL     1     -12.374  15.905  72.939  1.00  0.00    -0.400 OA 
ENDBRANCH  14  15
ENDBRANCH  13  14
BRANCH  13  20
HETATM   20  C   UNL     1      -9.416  17.066  68.562  1.00  0.00    -0.269 C  
HETATM   21  O   UNL     1     -10.132  18.203  69.050  1.00  0.00    -0.377 OA 
HETATM   22  H   UNL     1      -9.526  18.853  69.387  1.00  0.00     0.000 HD 
ENDBRANCH  13  20
ENDBRANCH  12  13
ENDBRANCH   8  12
TORSDOF 5
ENDMDL
MODEL        9
REMARK 921   NORMALIZED FREE ENERGY PREDICTED BY IDOCK:   -5.82 KCAL/MOL
REMARK 922        TOTAL FREE ENERGY PREDICTED BY IDOCK:   -8.46 KCAL/MOL
REMARK 923 INTER-LIGAND FREE ENERGY PREDICTED BY IDOCK:   -8.08 KCAL/MOL
REMARK 924 INTRA-LIGAND FREE ENERGY PREDICTED BY IDOCK:   -0.37 KCAL/MOL
REMARK 927      BINDING AFFINITY PREDICTED BY RF-SCORE:    0.00 PKD
ROOT
HETATM    1  N   UNL     1     -11.483  16.589  63.857  1.00  0.00    -1.599 NA 
HETATM    2  H1  UNL     1     -10.976  17.464  63.994  1.00  0.00     0.000 HD 
HETATM    3  C   UNL     1     -11.394  15.668  64.855  1.00  0.00    -0.315 C  
HETATM    4  H2  UNL     1     -12.029  16.413  63.014  1.00  0.00     0.000 HD 
HETATM    5  N   UNL     1     -12.040  14.555  64.681  1.00  0.00    -0.459 N  
HETATM    6  C   UNL     1     -11.939  13.549  65.610  1.00  0.00    -0.397 C  
HETATM    7  H   UNL     1     -12.622  14.428  63.853  1.00  0.00     0.000 HD 
HETATM    8  N   UNL     1     -11.077  13.739  66.694  1.00  0.00    -0.307 N  
HETATM    9  O   UNL     1     -12.563  12.497  65.483  1.00  0.00    -0.642 OA 
HETATM   10  C   UNL     1     -10.582  15.951  66.052  1.00  0.00    -0.331 C  
HETATM   11  C   UNL     1     -10.447  14.938  66.914  1.00  0.00    -0.280 C  
ENDROOT
BRANCH   8  12
HETATM   12  C   UNL     1     -10.707  12.577  67.486  1.00  0.00    -0.225 C  
BRANCH  12  13
HETATM   13  C   UNL     1     -11.610  12.249  68.694  1.00  0.00    -0.323 C  
BRANCH  13  14
HETATM   14  O   UNL     1     -11.372  13.201  69.781  1.00  0.00    -0.176 OA 
BRANCH  14  15
HETATM   15  C   UNL     1     -12.498  14.089  69.910  1.00  0.00    -0.246 C  
HETATM   16  P   UNL     1     -13.078  14.254  71.639  1.00  0.00    -0.392 P  
HETATM   17  O   UNL     1     -11.582  14.873  71.957  1.00  0.00    -0.363 OA 
HETATM   18  O   UNL     1     -13.846  15.612  71.111  1.00  0.00    -0.583 OA 
HETATM   19  O   UNL     1     -13.570  14.395  73.099  1.00  0.00    -0.602 OA 
ENDBRANCH  14  15
ENDBRANCH  13  14
BRANCH  13  20
HETATM   20  C   UNL     1     -11.344  10.831  69.225  1.00  0.00    -0.286 C  
HETATM   21  O   UNL     1     -11.719   9.859  68.246  1.00  0.00    -0.558 OA 
HETATM   22  H   UNL     1     -11.554   8.983  68.574  1.00  0.00     0.000 HD 
ENDBRANCH  13  20
ENDBRANCH  12  13
ENDBRANCH   8  12
TORSDOF 5
ENDMDL
MODEL       10
REMARK 921   NORMALIZED FREE ENERGY PREDICTED BY IDOCK:   -5.79 KCAL/MOL
REMARK 922        TOTAL FREE ENERGY PREDICTED BY IDOCK:   -8.42 KCAL/MOL
REMARK 923 INTER-LIGAND FREE ENERGY PREDICTED BY IDOCK:   -7.65 KCAL/MOL
REMARK 924 INTRA-LIGAND FREE ENERGY PREDICTED BY IDOCK:   -0.77 KCAL/MOL
REMARK 927      BINDING AFFINITY PREDICTED BY RF-SCORE:    0.00 PKD
ROOT
HETATM    1  N   UNL     1     -12.420  13.397  63.016  1.00  0.00    -0.884 NA 
HETATM    2  H1  UNL     1     -12.872  12.482  63.020  1.00  0.00     0.000 HD 
HETATM    3  C   UNL     1     -12.020  13.887  64.221  1.00  0.00    -0.444 C  
HETATM    4  H2  UNL     1     -12.275  13.919  62.151  1.00  0.00     0.000 HD 
HETATM    5  N   UNL     1     -11.445  15.050  64.216  1.00  0.00    -0.662 N  
HETATM    6  C   UNL     1     -11.080  15.643  65.400  1.00  0.00    -0.267 C  
HETATM    7  H   UNL     1     -11.263  15.525  63.331  1.00  0.00     0.000 HD 
HETATM    8  N   UNL     1     -11.408  14.988  66.591  1.00  0.00    -0.326 N  
HETATM    9  O   UNL     1     -10.507  16.731  65.420  1.00  0.00    -0.592 OA 
HETATM   10  C   UNL     1     -12.262  13.112  65.451  1.00  0.00    -0.510 C  
HETATM   11  C   UNL     1     -11.956  13.730  66.596  1.00  0.00    -0.431 C  
ENDROOT
BRANCH   8  12
HETATM   12  C   UNL     1     -11.336  15.746  67.830  1.00  0.00    -0.277 C  
BRANCH  12  13
HETATM   13  C   UNL     1     -10.162  15.412  68.775  1.00  0.00    -0.217 C  
BRANCH  13  14
HETATM   14  O   UNL     1     -10.663  15.077  70.110  1.00  0.00    -0.227 OA 
BRANCH  14  15
HETATM   15  C   UNL     1     -12.101  15.139  70.123  1.00  0.00    -0.343 C  
HETATM   16  P   UNL     1     -12.808  14.894  71.794  1.00  0.00    -0.395 P  
HETATM   17  O   UNL     1     -11.984  16.260  72.214  1.00  0.00    -0.511 OA 
HETATM   18  O   UNL     1     -14.177  15.563  71.168  1.00  0.00    -0.528 OA 
HETATM   19  O   UNL     1     -13.407  14.687  73.206  1.00  0.00    -0.585 OA 
ENDBRANCH  14  15
ENDBRANCH  13  14
BRANCH  13  20
HETATM   20  C   UNL     1      -9.192  16.597  68.905  1.00  0.00    -0.244 C  
HETATM   21  O   UNL     1      -8.578  16.872  67.644  1.00  0.00    -0.204 OA 
HETATM   22  H   UNL     1      -7.978  17.604  67.724  1.00  0.00     0.000 HD 
ENDBRANCH  13  20
ENDBRANCH  12  13
ENDBRANCH   8  12
TORSDOF 5
ENDMDL
MODEL       11
REMARK 921   NORMALIZED FREE ENERGY PREDICTED BY IDOCK:   -5.78 KCAL/MOL
REMARK 922        TOTAL FREE ENERGY PREDICTED BY IDOCK:   -8.41 KCAL/MOL
REMARK 923 INTER-LIGAND FREE ENERGY PREDICTED BY IDOCK:   -7.98 KCAL/MOL
REMARK 924 INTRA-LIGAND FREE ENERGY PREDICTED BY IDOCK:   -0.43 KCAL/MOL
REMARK 927      BINDING AFFINITY PREDICTED BY RF-SCORE:    0.00 PKD
ROOT
HETATM    1  N   UNL     1     -13.308  16.107  74.038  1.00  0.00    -0.894 NA 
HETATM    2  H1  UNL     1     -14.029  15.565  74.516  1.00  0.00     0.000 HD 
HETATM    3  C   UNL     1     -12.969  15.701  72.784  1.00  0.00    -0.480 C  
HETATM    4  H2  UNL     1     -12.865  16.913  74.478  1.00  0.00     0.000 HD 
HETATM    5  N   UNL     1     -12.053  16.390  72.175  1.00  0.00    -0.619 N  
HETATM    6  C   UNL     1     -11.606  15.998  70.938  1.00  0.00    -0.418 C  
HETATM    7  H   UNL     1     -11.666  17.225  72.617  1.00  0.00     0.000 HD 
HETATM    8  N   UNL     1     -12.115  14.813  70.400  1.00  0.00    -0.299 N  
HETATM    9  O   UNL     1     -10.760  16.651  70.328  1.00  0.00    -0.202 OA 
HETATM   10  C   UNL     1     -13.620  14.521  72.188  1.00  0.00    -0.516 C  
HETATM   11  C   UNL     1     -13.130  14.120  71.011  1.00  0.00    -0.302 C  
ENDROOT
BRANCH   8  12
HETATM   12  C   UNL     1     -11.417  14.218  69.271  1.00  0.00    -0.289 C  
BRANCH  12  13
HETATM   13  C   UNL     1     -11.672  14.855  67.888  1.00  0.00    -0.321 C  
BRANCH  13  14
HETATM   14  O   UNL     1     -12.261  13.872  66.976  1.00  0.00    -0.421 OA 
BRANCH  14  15
HETATM   15  C   UNL     1     -12.309  14.410  65.642  1.00  0.00    -0.337 C  
HETATM   16  P   UNL     1     -11.884  13.174  64.361  1.00  0.00    -0.444 P  
HETATM   17  O   UNL     1     -13.206  12.343  64.893  1.00  0.00    -0.714 OA 
HETATM   18  O   UNL     1     -12.604  14.214  63.306  1.00  0.00    -0.766 OA 
HETATM   19  O   UNL     1     -11.526  12.129  63.277  1.00  0.00    -0.398 OA 
ENDBRANCH  14  15
ENDBRANCH  13  14
BRANCH  13  20
HETATM   20  C   UNL     1     -10.370  15.378  67.262  1.00  0.00    -0.271 C  
HETATM   21  O   UNL     1     -10.290  16.798  67.404  1.00  0.00    -0.290 OA 
HETATM   22  H   UNL     1      -9.484  17.122  67.017  1.00  0.00     0.000 HD 
ENDBRANCH  13  20
ENDBRANCH  12  13
ENDBRANCH   8  12
TORSDOF 5
ENDMDL
MODEL       12
REMARK 921   NORMALIZED FREE ENERGY PREDICTED BY IDOCK:   -5.76 KCAL/MOL
REMARK 922        TOTAL FREE ENERGY PREDICTED BY IDOCK:   -8.38 KCAL/MOL
REMARK 923 INTER-LIGAND FREE ENERGY PREDICTED BY IDOCK:   -7.68 KCAL/MOL
REMARK 924 INTRA-LIGAND FREE ENERGY PREDICTED BY IDOCK:   -0.70 KCAL/MOL
REMARK 927      BINDING AFFINITY PREDICTED BY RF-SCORE:    0.00 PKD
ROOT
HETATM    1  N   UNL     1     -10.948  10.748  70.125  1.00  0.00    -0.458 NA 
HETATM    2  H1  UNL     1     -10.795   9.841  69.685  1.00  0.00     0.000 HD 
HETATM    3  C   UNL     1     -11.276  11.781  69.302  1.00  0.00    -0.256 C  
HETATM    4  H2  UNL     1     -10.859  10.875  71.134  1.00  0.00     0.000 HD 
HETATM    5  N   UNL     1     -11.470  12.935  69.863  1.00  0.00    -0.515 N  
HETATM    6  C   UNL     1     -11.732  14.040  69.090  1.00  0.00    -0.333 C  
HETATM    7  H   UNL     1     -11.428  13.022  70.879  1.00  0.00     0.000 HD 
HETATM    8  N   UNL     1     -11.713  13.890  67.701  1.00  0.00    -0.347 N  
HETATM    9  O   UNL     1     -11.948  15.139  69.599  1.00  0.00    -0.307 OA 
HETATM   10  C   UNL     1     -11.378  11.563  67.848  1.00  0.00    -0.372 C  
HETATM   11  C   UNL     1     -11.573  12.660  67.109  1.00  0.00    -0.368 C  
ENDROOT
BRANCH   8  12
HETATM   12  C   UNL     1     -11.651  15.092  66.884  1.00  0.00    -0.223 C  
BRANCH  12  13
HETATM   13  C   UNL     1     -10.822  15.000  65.584  1.00  0.00    -0.349 C  
BRANCH  13  14
HETATM   14  O   UNL     1      -9.839  16.084  65.530  1.00  0.00    -0.411 OA 
BRANCH  14  15
HETATM   15  C   UNL     1     -10.019  16.964  66.655  1.00  0.00    -0.296 C  
HETATM   16  P   UNL     1      -9.738  18.724  66.233  1.00  0.00    -0.210 P  
HETATM   17  O   UNL     1     -11.007  18.553  65.191  1.00  0.00    -0.571 OA 
HETATM   18  O   UNL     1     -10.552  19.050  67.627  1.00  0.00    -0.429 OA 
HETATM   19  O   UNL     1      -9.502  20.211  65.877  1.00  0.00    -0.334 OA 
ENDBRANCH  14  15
ENDBRANCH  13  14
BRANCH  13  20
HETATM   20  C   UNL     1     -11.718  15.095  64.339  1.00  0.00    -0.295 C  
HETATM   21  O   UNL     1     -11.594  16.386  63.739  1.00  0.00    -1.605 OA 
HETATM   22  H   UNL     1     -12.148  16.444  62.970  1.00  0.00     0.000 HD 
ENDBRANCH  13  20
ENDBRANCH  12  13
ENDBRANCH   8  12
TORSDOF 5
ENDMDL
MODEL       13
REMARK 921   NORMALIZED FREE ENERGY PREDICTED BY IDOCK:   -5.75 KCAL/MOL
REMARK 922        TOTAL FREE ENERGY PREDICTED BY IDOCK:   -8.37 KCAL/MOL
REMARK 923 INTER-LIGAND FREE ENERGY PREDICTED BY IDOCK:   -7.89 KCAL/MOL
REMARK 924 INTRA-LIGAND FREE ENERGY PREDICTED BY IDOCK:   -0.49 KCAL/MOL
REMARK 927      BINDING AFFINITY PREDICTED BY RF-SCORE:    0.00 PKD
ROOT
HETATM    1  N   UNL     1     -12.401  13.820  63.300  1.00  0.00    -1.124 NA 
HETATM    2  H1  UNL     1     -12.168  14.616  62.706  1.00  0.00     0.000 HD 
HETATM    3  C   UNL     1     -11.998  13.888  64.599  1.00  0.00    -0.419 C  
HETATM    4  H2  UNL     1     -12.909  13.013  62.940  1.00  0.00     0.000 HD 
HETATM    5  N   UNL     1     -12.294  12.876  65.355  1.00  0.00    -0.480 N  
HETATM    6  C   UNL     1     -11.858  12.840  66.657  1.00  0.00    -0.393 C  
HETATM    7  H   UNL     1     -12.851  12.107  64.983  1.00  0.00     0.000 HD 
HETATM    8  N   UNL     1     -11.042  13.881  67.106  1.00  0.00    -0.294 N  
HETATM    9  O   UNL     1     -12.150  11.906  67.403  1.00  0.00    -0.577 OA 
HETATM   10  C   UNL     1     -11.251  15.064  65.080  1.00  0.00    -0.413 C  
HETATM   11  C   UNL     1     -10.783  14.983  66.330  1.00  0.00    -0.322 C  
ENDROOT
BRANCH   8  12
HETATM   12  C   UNL     1     -10.308  13.690  68.348  1.00  0.00    -0.248 C  
BRANCH  12  13
HETATM   13  C   UNL     1     -10.814  14.476  69.576  1.00  0.00    -0.184 C  
BRANCH  13  14
HETATM   14  O   UNL     1     -12.278  14.538  69.574  1.00  0.00    -0.308 OA 
BRANCH  14  15
HETATM   15  C   UNL     1     -12.803  13.727  70.640  1.00  0.00    -0.192 C  
HETATM   16  P   UNL     1     -12.963  14.642  72.217  1.00  0.00    -0.414 P  
HETATM   17  O   UNL     1     -14.023  15.614  71.409  1.00  0.00    -0.540 OA 
HETATM   18  O   UNL     1     -13.975  13.424  72.668  1.00  0.00    -0.755 OA 
HETATM   19  O   UNL     1     -13.098  15.415  73.551  1.00  0.00    -0.498 OA 
ENDBRANCH  14  15
ENDBRANCH  13  14
BRANCH  13  20
HETATM   20  C   UNL     1     -10.269  15.913  69.585  1.00  0.00    -0.280 C  
HETATM   21  O   UNL     1     -11.245  16.808  70.122  1.00  0.00    -0.446 OA 
HETATM   22  H   UNL     1     -10.908  17.697  70.127  1.00  0.00     0.000 HD 
ENDBRANCH  13  20
ENDBRANCH  12  13
ENDBRANCH   8  12
TORSDOF 5
ENDMDL
MODEL       14
REMARK 921   NORMALIZED FREE ENERGY PREDICTED BY IDOCK:   -5.75 KCAL/MOL
REMARK 922        TOTAL FREE ENERGY PREDICTED BY IDOCK:   -8.37 KCAL/MOL
REMARK 923 INTER-LIGAND FREE ENERGY PREDICTED BY IDOCK:   -7.96 KCAL/MOL
REMARK 924 INTRA-LIGAND FREE ENERGY PREDICTED BY IDOCK:   -0.41 KCAL/MOL
REMARK 927      BINDING AFFINITY PREDICTED BY RF-SCORE:    0.00 PKD
ROOT
HETATM    1  N   UNL     1     -14.037   8.817  73.182  1.00  0.00    -1.183 NA 
HETATM    2  H1  UNL     1     -14.658   9.473  73.657  1.00  0.00     0.000 HD 
HETATM    3  C   UNL     1     -13.204   9.336  72.240  1.00  0.00    -0.460 C  
HETATM    4  H2  UNL     1     -14.040   7.821  73.404  1.00  0.00     0.000 HD 
HETATM    5  N   UNL     1     -12.413   8.501  71.637  1.00  0.00    -0.316 N  
HETATM    6  C   UNL     1     -11.596   8.938  70.623  1.00  0.00    -0.215 C  
HETATM    7  H   UNL     1     -12.399   7.520  71.917  1.00  0.00     0.000 HD 
HETATM    8  N   UNL     1     -11.697  10.274  70.227  1.00  0.00    -0.287 N  
HETATM    9  O   UNL     1     -10.817   8.173  70.056  1.00  0.00    -0.247 OA 
HETATM   10  C   UNL     1     -13.239  10.777  71.935  1.00  0.00    -0.524 C  
HETATM   11  C   UNL     1     -12.482  11.172  70.906  1.00  0.00    -0.409 C  
ENDROOT
BRANCH   8  12
HETATM   12  C   UNL     1     -11.100  10.659  68.958  1.00  0.00    -0.254 C  
BRANCH  12  13
HETATM   13  C   UNL     1     -11.667  11.928  68.285  1.00  0.00    -0.321 C  
BRANCH  13  14
HETATM   14  O   UNL     1     -11.934  11.676  66.867  1.00  0.00    -0.567 OA 
BRANCH  14  15
HETATM   15  C   UNL     1     -11.074  12.496  66.054  1.00  0.00    -0.294 C  
HETATM   16  P   UNL     1     -11.918  13.158  64.571  1.00  0.00    -0.438 P  
HETATM   17  O   UNL     1     -12.921  13.927  65.631  1.00  0.00    -0.599 OA 
HETATM   18  O   UNL     1     -10.678  14.240  64.512  1.00  0.00    -0.388 OA 
HETATM   19  O   UNL     1     -12.631  13.719  63.317  1.00  0.00    -0.830 OA 
ENDBRANCH  14  15
ENDBRANCH  13  14
BRANCH  13  20
HETATM   20  C   UNL     1     -10.685  13.106  68.392  1.00  0.00    -0.253 C  
HETATM   21  O   UNL     1      -9.449  12.667  68.960  1.00  0.00    -0.377 OA 
HETATM   22  H   UNL     1      -8.842  13.395  69.026  1.00  0.00     0.000 HD 
ENDBRANCH  13  20
ENDBRANCH  12  13
ENDBRANCH   8  12
TORSDOF 5
ENDMDL
MODEL       15
REMARK 921   NORMALIZED FREE ENERGY PREDICTED BY IDOCK:   -5.70 KCAL/MOL
REMARK 922        TOTAL FREE ENERGY PREDICTED BY IDOCK:   -8.31 KCAL/MOL
REMARK 923 INTER-LIGAND FREE ENERGY PREDICTED BY IDOCK:   -7.63 KCAL/MOL
REMARK 924 INTRA-LIGAND FREE ENERGY PREDICTED BY IDOCK:   -0.68 KCAL/MOL
REMARK 927      BINDING AFFINITY PREDICTED BY RF-SCORE:    0.00 PKD
ROOT
HETATM    1  N   UNL     1     -12.563  11.494  62.881  1.00  0.00    -0.874 NA 
HETATM    2  H1  UNL     1     -12.272  10.541  63.101  1.00  0.00     0.000 HD 
HETATM    3  C   UNL     1     -12.081  12.481  63.685  1.00  0.00    -0.554 C  
HETATM    4  H2  UNL     1     -13.184  11.697  62.097  1.00  0.00     0.000 HD 
HETATM    5  N   UNL     1     -12.451  13.693  63.404  1.00  0.00    -1.016 N  
HETATM    6  C   UNL     1     -12.066  14.734  64.214  1.00  0.00    -0.394 C  
HETATM    7  H   UNL     1     -13.028  13.873  62.582  1.00  0.00     0.000 HD 
HETATM    8  N   UNL     1     -11.333  14.435  65.365  1.00  0.00    -0.328 N  
HETATM    9  O   UNL     1     -12.378  15.895  63.953  1.00  0.00    -0.776 OA 
HETATM   10  C   UNL     1     -11.200  12.147  64.817  1.00  0.00    -0.373 C  
HETATM   11  C   UNL     1     -10.886  13.164  65.627  1.00  0.00    -0.278 C  
ENDROOT
BRANCH   8  12
HETATM   12  C   UNL     1     -11.214  15.463  66.387  1.00  0.00    -0.164 C  
BRANCH  12  13
HETATM   13  C   UNL     1      -9.964  16.367  66.313  1.00  0.00    -0.323 C  
BRANCH  13  14
HETATM   14  O   UNL     1      -9.144  16.201  67.515  1.00  0.00    -0.200 OA 
BRANCH  14  15
HETATM   15  C   UNL     1      -8.955  17.476  68.158  1.00  0.00    -0.266 C  
HETATM   16  P   UNL     1      -7.207  17.799  68.594  1.00  0.00    -0.256 P  
HETATM   17  O   UNL     1      -6.910  17.713  66.973  1.00  0.00    -0.156 OA 
HETATM   18  O   UNL     1      -7.668  19.375  68.720  1.00  0.00    -0.347 OA 
HETATM   19  O   UNL     1      -5.729  18.073  68.963  1.00  0.00    -0.192 OA 
ENDBRANCH  14  15
ENDBRANCH  13  14
BRANCH  13  20
HETATM   20  C   UNL     1     -10.351  17.849  66.191  1.00  0.00    -0.352 C  
HETATM   21  O   UNL     1     -11.025  18.082  64.952  1.00  0.00    -0.776 OA 
HETATM   22  H   UNL     1     -11.264  18.999  64.876  1.00  0.00     0.000 HD 
ENDBRANCH  13  20
ENDBRANCH  12  13
ENDBRANCH   8  12
TORSDOF 5
ENDMDL
MODEL       16
REMARK 921   NORMALIZED FREE ENERGY PREDICTED BY IDOCK:   -5.67 KCAL/MOL
REMARK 922        TOTAL FREE ENERGY PREDICTED BY IDOCK:   -8.27 KCAL/MOL
REMARK 923 INTER-LIGAND FREE ENERGY PREDICTED BY IDOCK:   -7.94 KCAL/MOL
REMARK 924 INTRA-LIGAND FREE ENERGY PREDICTED BY IDOCK:   -0.33 KCAL/MOL
REMARK 927      BINDING AFFINITY PREDICTED BY RF-SCORE:    0.00 PKD
ROOT
HETATM    1  N   UNL     1     -12.599  11.349  62.725  1.00  0.00    -0.763 NA 
HETATM    2  H1  UNL     1     -12.102  10.537  62.357  1.00  0.00     0.000 HD 
HETATM    3  C   UNL     1     -12.069  11.942  63.829  1.00  0.00    -0.443 C  
HETATM    4  H2  UNL     1     -13.450  11.699  62.286  1.00  0.00     0.000 HD 
HETATM    5  N   UNL     1     -12.700  12.976  64.295  1.00  0.00    -0.687 N  
HETATM    6  C   UNL     1     -12.268  13.583  65.449  1.00  0.00    -0.447 C  
HETATM    7  H   UNL     1     -13.518  13.338  63.805  1.00  0.00     0.000 HD 
HETATM    8  N   UNL     1     -11.184  13.015  66.124  1.00  0.00    -0.284 N  
HETATM    9  O   UNL     1     -12.831  14.581  65.895  1.00  0.00    -0.259 OA 
HETATM   10  C   UNL     1     -10.846  11.398  64.445  1.00  0.00    -0.397 C  
HETATM   11  C   UNL     1     -10.476  11.963  65.599  1.00  0.00    -0.262 C  
ENDROOT
BRANCH   8  12
HETATM   12  C   UNL     1     -10.936  13.434  67.495  1.00  0.00    -0.267 C  
BRANCH  12  13
HETATM   13  C   UNL     1     -11.983  13.007  68.547  1.00  0.00    -0.261 C  
BRANCH  13  14
HETATM   14  O   UNL     1     -12.059  14.000  69.621  1.00  0.00    -0.321 OA 
BRANCH  14  15
HETATM   15  C   UNL     1     -12.532  13.377  70.830  1.00  0.00    -0.341 C  
HETATM   16  P   UNL     1     -12.946  14.589  72.138  1.00  0.00    -0.395 P  
HETATM   17  O   UNL     1     -14.079  15.161  71.085  1.00  0.00    -0.442 OA 
HETATM   18  O   UNL     1     -13.791  13.355  72.828  1.00  0.00    -0.720 OA 
HETATM   19  O   UNL     1     -13.297  15.612  73.245  1.00  0.00    -0.522 OA 
ENDBRANCH  14  15
ENDBRANCH  13  14
BRANCH  13  20
HETATM   20  C   UNL     1     -11.630  11.646  69.169  1.00  0.00    -0.314 C  
HETATM   21  O   UNL     1     -12.387  10.607  68.544  1.00  0.00    -0.814 OA 
HETATM   22  H   UNL     1     -12.168   9.766  68.928  1.00  0.00     0.000 HD 
ENDBRANCH  13  20
ENDBRANCH  12  13
ENDBRANCH   8  12
TORSDOF 5
ENDMDL
MODEL       17
REMARK 921   NORMALIZED FREE ENERGY PREDICTED BY IDOCK:   -5.65 KCAL/MOL
REMARK 922        TOTAL FREE ENERGY PREDICTED BY IDOCK:   -8.23 KCAL/MOL
REMARK 923 INTER-LIGAND FREE ENERGY PREDICTED BY IDOCK:   -7.80 KCAL/MOL
REMARK 924 INTRA-LIGAND FREE ENERGY PREDICTED BY IDOCK:   -0.43 KCAL/MOL
REMARK 927      BINDING AFFINITY PREDICTED BY RF-SCORE:    0.00 PKD
ROOT
HETATM    1  N   UNL     1     -10.044  10.574  62.494  1.00  0.00    -0.752 NA 
HETATM    2  H1  UNL     1      -9.506   9.767  62.812  1.00  0.00     0.000 HD 
HETATM    3  C   UNL     1     -10.546  11.393  63.458  1.00  0.00    -0.402 C  
HETATM    4  H2  UNL     1     -10.197  10.758  61.503  1.00  0.00     0.000 HD 
HETATM    5  N   UNL     1     -11.229  12.420  63.053  1.00  0.00    -0.674 N  
HETATM    6  C   UNL     1     -11.829  13.251  63.968  1.00  0.00    -0.455 C  
HETATM    7  H   UNL     1     -11.320  12.610  62.055  1.00  0.00     0.000 HD 
HETATM    8  N   UNL     1     -11.734  12.916  65.321  1.00  0.00    -0.344 N  
HETATM    9  O   UNL     1     -12.457  14.246  63.611  1.00  0.00    -0.816 OA 
HETATM   10  C   UNL     1     -10.317  11.086  64.881  1.00  0.00    -0.378 C  
HETATM   11  C   UNL     1     -10.958  11.870  65.754  1.00  0.00    -0.311 C  
ENDROOT
BRANCH   8  12
HETATM   12  C   UNL     1     -12.630  13.580  66.255  1.00  0.00    -0.239 C  
BRANCH  12  13
HETATM   13  C   UNL     1     -11.995  14.630  67.192  1.00  0.00    -0.283 C  
BRANCH  13  14
HETATM   14  O   UNL     1     -10.690  15.049  66.676  1.00  0.00    -0.300 OA 
BRANCH  14  15
HETATM   15  C   UNL     1     -10.211  16.184  67.420  1.00  0.00    -0.272 C  
HETATM   16  P   UNL     1      -8.989  17.180  66.489  1.00  0.00    -0.259 P  
HETATM   17  O   UNL     1     -10.205  17.440  65.404  1.00  0.00    -0.603 OA 
HETATM   18  O   UNL     1      -9.321  18.366  67.583  1.00  0.00    -0.264 OA 
HETATM   19  O   UNL     1      -7.956  18.023  65.703  1.00  0.00    -0.514 OA 
ENDBRANCH  14  15
ENDBRANCH  13  14
BRANCH  13  20
HETATM   20  C   UNL     1     -11.799  14.071  68.610  1.00  0.00    -0.361 C  
HETATM   21  O   UNL     1     -12.753  14.648  69.504  1.00  0.00    -0.576 OA 
HETATM   22  H   UNL     1     -12.632  14.302  70.381  1.00  0.00     0.000 HD 
ENDBRANCH  13  20
ENDBRANCH  12  13
ENDBRANCH   8  12
TORSDOF 5
ENDMDL
MODEL       18
REMARK 921   NORMALIZED FREE ENERGY PREDICTED BY IDOCK:   -5.60 KCAL/MOL
REMARK 922        TOTAL FREE ENERGY PREDICTED BY IDOCK:   -8.18 KCAL/MOL
REMARK 923 INTER-LIGAND FREE ENERGY PREDICTED BY IDOCK:   -7.63 KCAL/MOL
REMARK 924 INTRA-LIGAND FREE ENERGY PREDICTED BY IDOCK:   -0.55 KCAL/MOL
REMARK 927      BINDING AFFINITY PREDICTED BY RF-SCORE:    0.00 PKD
ROOT
HETATM    1  N   UNL     1     -12.529  14.079  63.104  1.00  0.00    -1.070 NA 
HETATM    2  H1  UNL     1     -13.374  13.517  63.005  1.00  0.00     0.000 HD 
HETATM    3  C   UNL     1     -11.972  14.134  64.345  1.00  0.00    -0.457 C  
HETATM    4  H2  UNL     1     -12.120  14.576  62.313  1.00  0.00     0.000 HD 
HETATM    5  N   UNL     1     -10.897  14.849  64.471  1.00  0.00    -0.628 N  
HETATM    6  C   UNL     1     -10.320  15.012  65.707  1.00  0.00    -0.335 C  
HETATM    7  H   UNL     1     -10.479  15.290  63.651  1.00  0.00     0.000 HD 
HETATM    8  N   UNL     1     -10.962  14.446  66.812  1.00  0.00    -0.308 N  
HETATM    9  O   UNL     1      -9.284  15.661  65.848  1.00  0.00    -0.340 OA 
HETATM   10  C   UNL     1     -12.600  13.416  65.469  1.00  0.00    -0.520 C  
HETATM   11  C   UNL     1     -12.060  13.636  66.672  1.00  0.00    -0.411 C  
ENDROOT
BRANCH   8  12
HETATM   12  C   UNL     1     -10.559  14.888  68.138  1.00  0.00    -0.244 C  
BRANCH  12  13
HETATM   13  C   UNL     1     -11.446  15.960  68.806  1.00  0.00    -0.393 C  
BRANCH  13  14
HETATM   14  O   UNL     1     -11.125  17.288  68.278  1.00  0.00    -0.281 OA 
BRANCH  14  15
HETATM   15  C   UNL     1      -9.757  17.618  68.580  1.00  0.00    -0.332 C  
HETATM   16  P   UNL     1      -9.208  19.172  67.783  1.00  0.00    -0.316 P  
HETATM   17  O   UNL     1     -10.383  19.907  68.678  1.00  0.00    -0.446 OA 
HETATM   18  O   UNL     1      -7.982  19.146  68.882  1.00  0.00    -0.345 OA 
HETATM   19  O   UNL     1      -8.742  20.485  67.110  1.00  0.00    -0.336 OA 
ENDBRANCH  14  15
ENDBRANCH  13  14
BRANCH  13  20
HETATM   20  C   UNL     1     -11.245  15.984  70.330  1.00  0.00    -0.389 C  
HETATM   21  O   UNL     1     -11.318  14.657  70.857  1.00  0.00    -0.478 OA 
HETATM   22  H   UNL     1     -11.194  14.672  71.799  1.00  0.00     0.000 HD 
ENDBRANCH  13  20
ENDBRANCH  12  13
ENDBRANCH   8  12
TORSDOF 5
ENDMDL
MODEL       19
REMARK 921   NORMALIZED FREE ENERGY PREDICTED BY IDOCK:   -5.57 KCAL/MOL
REMARK 922        TOTAL FREE ENERGY PREDICTED BY IDOCK:   -8.14 KCAL/MOL
REMARK 923 INTER-LIGAND FREE ENERGY PREDICTED BY IDOCK:   -7.31 KCAL/MOL
REMARK 924 INTRA-LIGAND FREE ENERGY PREDICTED BY IDOCK:   -0.83 KCAL/MOL
REMARK 927      BINDING AFFINITY PREDICTED BY RF-SCORE:    0.00 PKD
ROOT
HETATM    1  N   UNL     1     -10.362  20.045  68.389  1.00  0.00    -0.407 NA 
HETATM    2  H1  UNL     1     -10.243  20.704  67.618  1.00  0.00     0.000 HD 
HETATM    3  C   UNL     1     -10.300  18.722  68.077  1.00  0.00    -0.387 C  
HETATM    4  H2  UNL     1     -10.519  20.363  69.345  1.00  0.00     0.000 HD 
HETATM    5  N   UNL     1     -10.451  17.884  69.057  1.00  0.00    -0.416 N  
HETATM    6  C   UNL     1     -10.474  16.533  68.810  1.00  0.00    -0.309 C  
HETATM    7  H   UNL     1     -10.552  18.229  70.012  1.00  0.00     0.000 HD 
HETATM    8  N   UNL     1     -10.400  16.107  67.481  1.00  0.00    -0.280 N  
HETATM    9  O   UNL     1     -10.587  15.719  69.724  1.00  0.00    -0.264 OA 
HETATM   10  C   UNL     1     -10.088  18.301  66.681  1.00  0.00    -0.386 C  
HETATM   11  C   UNL     1     -10.174  16.986  66.451  1.00  0.00    -0.326 C  
ENDROOT
BRANCH   8  12
HETATM   12  C   UNL     1     -10.759  14.729  67.183  1.00  0.00    -0.299 C  
BRANCH  12  13
HETATM   13  C   UNL     1      -9.596  13.770  66.849  1.00  0.00    -0.262 C  
BRANCH  13  14
HETATM   14  O   UNL     1      -9.943  12.932  65.699  1.00  0.00    -0.274 OA 
BRANCH  14  15
HETATM   15  C   UNL     1     -10.690  13.702  64.739  1.00  0.00    -0.410 C  
HETATM   16  P   UNL     1     -11.963  12.713  63.872  1.00  0.00    -0.560 P  
HETATM   17  O   UNL     1     -12.638  12.495  65.361  1.00  0.00    -0.656 OA 
HETATM   18  O   UNL     1     -12.624  14.166  63.466  1.00  0.00    -0.834 OA 
HETATM   19  O   UNL     1     -13.041  11.879  63.138  1.00  0.00    -0.605 OA 
ENDBRANCH  14  15
ENDBRANCH  13  14
BRANCH  13  20
HETATM   20  C   UNL     1      -9.268  12.852  68.037  1.00  0.00    -0.212 C  
HETATM   21  O   UNL     1     -10.292  12.945  69.030  1.00  0.00    -0.425 OA 
HETATM   22  H   UNL     1     -10.089  12.377  69.764  1.00  0.00     0.000 HD 
ENDBRANCH  13  20
ENDBRANCH  12  13
ENDBRANCH   8  12
TORSDOF 5
ENDMDL
MODEL       20
REMARK 921   NORMALIZED FREE ENERGY PREDICTED BY IDOCK:   -5.56 KCAL/MOL
REMARK 922        TOTAL FREE ENERGY PREDICTED BY IDOCK:   -8.13 KCAL/MOL
REMARK 923 INTER-LIGAND FREE ENERGY PREDICTED BY IDOCK:   -7.68 KCAL/MOL
REMARK 924 INTRA-LIGAND FREE ENERGY PREDICTED BY IDOCK:   -0.45 KCAL/MOL
REMARK 927      BINDING AFFINITY PREDICTED BY RF-SCORE:    0.00 PKD
ROOT
HETATM    1  N   UNL     1      -8.095  21.173  67.030  1.00  0.00    -0.630 NA 
HETATM    2  H1  UNL     1      -7.571  21.484  67.849  1.00  0.00     0.000 HD 
HETATM    3  C   UNL     1      -8.793  20.012  67.155  1.00  0.00    -0.344 C  
HETATM    4  H2  UNL     1      -8.097  21.708  66.162  1.00  0.00     0.000 HD 
HETATM    5  N   UNL     1      -9.461  19.618  66.115  1.00  0.00    -0.385 N  
HETATM    6  C   UNL     1     -10.130  18.418  66.140  1.00  0.00    -0.360 C  
HETATM    7  H   UNL     1      -9.489  20.199  65.277  1.00  0.00     0.000 HD 
HETATM    8  N   UNL     1     -10.009  17.623  67.283  1.00  0.00    -0.310 N  
HETATM    9  O   UNL     1     -10.794  18.036  65.177  1.00  0.00    -0.665 OA 
HETATM   10  C   UNL     1      -8.753  19.258  68.421  1.00  0.00    -0.395 C  
HETATM   11  C   UNL     1      -9.359  18.066  68.407  1.00  0.00    -0.300 C  
ENDROOT
BRANCH   8  12
HETATM   12  C   UNL     1     -10.421  16.230  67.194  1.00  0.00    -0.297 C  
BRANCH  12  13
HETATM   13  C   UNL     1      -9.305  15.197  66.928  1.00  0.00    -0.234 C  
BRANCH  13  14
HETATM   14  O   UNL     1      -9.844  14.040  66.210  1.00  0.00    -0.286 OA 
BRANCH  14  15
HETATM   15  C   UNL     1     -10.643  14.482  65.097  1.00  0.00    -0.410 C  
HETATM   16  P   UNL     1     -12.014  13.334  64.705  1.00  0.00    -0.443 P  
HETATM   17  O   UNL     1     -12.570  13.668  66.222  1.00  0.00    -0.391 OA 
HETATM   18  O   UNL     1     -12.661  14.601  63.875  1.00  0.00    -0.834 OA 
HETATM   19  O   UNL     1     -13.173  12.364  64.373  1.00  0.00    -0.816 OA 
ENDBRANCH  14  15
ENDBRANCH  13  14
BRANCH  13  20
HETATM   20  C   UNL     1      -8.674  14.703  68.239  1.00  0.00    -0.173 C  
HETATM   21  O   UNL     1      -9.664  14.073  69.056  1.00  0.00    -0.401 OA 
HETATM   22  H   UNL     1      -9.274  13.768  69.867  1.00  0.00     0.000 HD 
ENDBRANCH  13  20
ENDBRANCH  12  13
ENDBRANCH   8  12
TORSDOF 5
ENDMDL
MODEL       21
REMARK 921   NORMALIZED FREE ENERGY PREDICTED BY IDOCK:   -5.55 KCAL/MOL
REMARK 922        TOTAL FREE ENERGY PREDICTED BY IDOCK:   -8.11 KCAL/MOL
REMARK 923 INTER-LIGAND FREE ENERGY PREDICTED BY IDOCK:   -7.61 KCAL/MOL
REMARK 924 INTRA-LIGAND FREE ENERGY PREDICTED BY IDOCK:   -0.50 KCAL/MOL
REMARK 927      BINDING AFFINITY PREDICTED BY RF-SCORE:    0.00 PKD
ROOT
HETATM    1  N   UNL     1     -11.578  16.407  63.898  1.00  0.00    -1.602 NA 
HETATM    2  H1  UNL     1     -10.860  17.108  64.082  1.00  0.00     0.000 HD 
HETATM    3  C   UNL     1     -11.453  15.219  64.550  1.00  0.00    -0.315 C  
HETATM    4  H2  UNL     1     -12.351  16.588  63.258  1.00  0.00     0.000 HD 
HETATM    5  N   UNL     1     -12.367  14.327  64.316  1.00  0.00    -0.667 N  
HETATM    6  C   UNL     1     -12.269  13.078  64.879  1.00  0.00    -0.441 C  
HETATM    7  H   UNL     1     -13.158  14.554  63.713  1.00  0.00     0.000 HD 
HETATM    8  N   UNL     1     -11.136  12.789  65.643  1.00  0.00    -0.274 N  
HETATM    9  O   UNL     1     -13.137  12.225  64.697  1.00  0.00    -0.770 OA 
HETATM   10  C   UNL     1     -10.314  14.988  65.455  1.00  0.00    -0.397 C  
HETATM   11  C   UNL     1     -10.203  13.749  65.946  1.00  0.00    -0.313 C  
ENDROOT
BRANCH   8  12
HETATM   12  C   UNL     1     -10.858  11.395  65.956  1.00  0.00    -0.249 C  
BRANCH  12  13
HETATM   13  C   UNL     1     -10.736  11.035  67.452  1.00  0.00    -0.257 C  
BRANCH  13  14
HETATM   14  O   UNL     1     -10.739   9.581  67.628  1.00  0.00    -0.274 OA 
BRANCH  14  15
HETATM   15  C   UNL     1      -9.450   9.142  68.095  1.00  0.00    -0.142 C  
HETATM   16  P   UNL     1      -9.287   9.226  69.916  1.00  0.00    -0.230 P  
HETATM   17  O   UNL     1     -10.523   8.134  69.958  1.00  0.00    -0.221 OA 
HETATM   18  O   UNL     1      -8.009   8.207  69.716  1.00  0.00    -0.106 OA 
HETATM   19  O   UNL     1      -9.149   9.296  71.456  1.00  0.00    -0.315 OA 
ENDBRANCH  14  15
ENDBRANCH  13  14
BRANCH  13  20
HETATM   20  C   UNL     1     -11.898  11.624  68.268  1.00  0.00    -0.265 C  
HETATM   21  O   UNL     1     -12.524  10.601  69.045  1.00  0.00    -0.777 OA 
HETATM   22  H   UNL     1     -13.242  10.965  69.549  1.00  0.00     0.000 HD 
ENDBRANCH  13  20
ENDBRANCH  12  13
ENDBRANCH   8  12
TORSDOF 5
ENDMDL
MODEL       22
REMARK 921   NORMALIZED FREE ENERGY PREDICTED BY IDOCK:   -5.55 KCAL/MOL
REMARK 922        TOTAL FREE ENERGY PREDICTED BY IDOCK:   -8.11 KCAL/MOL
REMARK 923 INTER-LIGAND FREE ENERGY PREDICTED BY IDOCK:   -7.65 KCAL/MOL
REMARK 924 INTRA-LIGAND FREE ENERGY PREDICTED BY IDOCK:   -0.46 KCAL/MOL
REMARK 927      BINDING AFFINITY PREDICTED BY RF-SCORE:    0.00 PKD
ROOT
HETATM    1  N   UNL     1     -12.208  13.259  62.965  1.00  0.00    -0.882 NA 
HETATM    2  H1  UNL     1     -12.742  14.061  62.630  1.00  0.00     0.000 HD 
HETATM    3  C   UNL     1     -12.059  13.144  64.313  1.00  0.00    -0.414 C  
HETATM    4  H2  UNL     1     -11.806  12.577  62.322  1.00  0.00     0.000 HD 
HETATM    5  N   UNL     1     -11.380  12.123  64.739  1.00  0.00    -0.319 N  
HETATM    6  C   UNL     1     -11.124  11.979  66.081  1.00  0.00    -0.322 C  
HETATM    7  H   UNL     1     -11.036  11.427  64.077  1.00  0.00     0.000 HD 
HETATM    8  N   UNL     1     -11.555  12.989  66.944  1.00  0.00    -0.346 N  
HETATM    9  O   UNL     1     -10.508  11.005  66.513  1.00  0.00    -0.241 OA 
HETATM   10  C   UNL     1     -12.640  14.158  65.210  1.00  0.00    -0.460 C  
HETATM   11  C   UNL     1     -12.329  14.034  66.505  1.00  0.00    -0.404 C  
ENDROOT
BRANCH   8  12
HETATM   12  C   UNL     1     -11.006  13.019  68.291  1.00  0.00    -0.260 C  
BRANCH  12  13
HETATM   13  C   UNL     1     -12.024  12.979  69.451  1.00  0.00    -0.281 C  
BRANCH  13  14
HETATM   14  O   UNL     1     -11.680  13.979  70.465  1.00  0.00    -0.274 OA 
BRANCH  14  15
HETATM   15  C   UNL     1     -12.874  14.439  71.124  1.00  0.00    -0.347 C  
HETATM   16  P   UNL     1     -12.581  14.936  72.861  1.00  0.00    -0.412 P  
HETATM   17  O   UNL     1     -11.569  16.080  72.237  1.00  0.00    -0.440 OA 
HETATM   18  O   UNL     1     -14.020  15.727  72.738  1.00  0.00    -0.590 OA 
HETATM   19  O   UNL     1     -12.334  15.358  74.330  1.00  0.00    -0.631 OA 
ENDBRANCH  14  15
ENDBRANCH  13  14
BRANCH  13  20
HETATM   20  C   UNL     1     -12.053  11.597  70.124  1.00  0.00    -0.333 C  
HETATM   21  O   UNL     1     -12.769  10.667  69.309  1.00  0.00    -0.689 OA 
HETATM   22  H   UNL     1     -12.787   9.813  69.725  1.00  0.00     0.000 HD 
ENDBRANCH  13  20
ENDBRANCH  12  13
ENDBRANCH   8  12
TORSDOF 5
ENDMDL
MODEL       23
REMARK 921   NORMALIZED FREE ENERGY PREDICTED BY IDOCK:   -5.54 KCAL/MOL
REMARK 922        TOTAL FREE ENERGY PREDICTED BY IDOCK:   -8.10 KCAL/MOL
REMARK 923 INTER-LIGAND FREE ENERGY PREDICTED BY IDOCK:   -7.62 KCAL/MOL
REMARK 924 INTRA-LIGAND FREE ENERGY PREDICTED BY IDOCK:   -0.47 KCAL/MOL
REMARK 927      BINDING AFFINITY PREDICTED BY RF-SCORE:    0.00 PKD
ROOT
HETATM    1  N   UNL     1     -10.265  10.523  62.534  1.00  0.00    -0.718 NA 
HETATM    2  H1  UNL     1      -9.685   9.736  62.827  1.00  0.00     0.000 HD 
HETATM    3  C   UNL     1     -10.615  11.418  63.498  1.00  0.00    -0.402 C  
HETATM    4  H2  UNL     1     -10.568  10.633  61.566  1.00  0.00     0.000 HD 
HETATM    5  N   UNL     1     -11.353  12.418  63.124  1.00  0.00    -0.702 N  
HETATM    6  C   UNL     1     -11.807  13.323  64.053  1.00  0.00    -0.455 C  
HETATM    7  H   UNL     1     -11.595  12.534  62.140  1.00  0.00     0.000 HD 
HETATM    8  N   UNL     1     -11.507  13.090  65.398  1.00  0.00    -0.304 N  
HETATM    9  O   UNL     1     -12.483  14.295  63.720  1.00  0.00    -0.810 OA 
HETATM   10  C   UNL     1     -10.173  11.216  64.889  1.00  0.00    -0.361 C  
HETATM   11  C   UNL     1     -10.674  12.071  65.787  1.00  0.00    -0.279 C  
ENDROOT
BRANCH   8  12
HETATM   12  C   UNL     1     -12.252  13.832  66.403  1.00  0.00    -0.436 C  
BRANCH  12  13
HETATM   13  C   UNL     1     -11.443  14.365  67.606  1.00  0.00    -0.346 C  
BRANCH  13  14
HETATM   14  O   UNL     1     -12.256  14.326  68.823  1.00  0.00    -0.301 OA 
BRANCH  14  15
HETATM   15  C   UNL     1     -11.797  15.326  69.751  1.00  0.00    -0.332 C  
HETATM   16  P   UNL     1     -12.849  15.447  71.244  1.00  0.00    -0.496 P  
HETATM   17  O   UNL     1     -12.411  13.883  71.535  1.00  0.00    -0.339 OA 
HETATM   18  O   UNL     1     -11.570  16.234  71.920  1.00  0.00    -0.456 OA 
HETATM   19  O   UNL     1     -13.737  15.550  72.507  1.00  0.00    -0.490 OA 
ENDBRANCH  14  15
ENDBRANCH  13  14
BRANCH  13  20
HETATM   20  C   UNL     1     -10.985  15.814  67.375  1.00  0.00    -0.279 C  
HETATM   21  O   UNL     1     -11.155  16.173  66.002  1.00  0.00    -0.121 OA 
HETATM   22  H   UNL     1     -10.872  17.068  65.860  1.00  0.00     0.000 HD 
ENDBRANCH  13  20
ENDBRANCH  12  13
ENDBRANCH   8  12
TORSDOF 5
ENDMDL
MODEL       24
REMARK 921   NORMALIZED FREE ENERGY PREDICTED BY IDOCK:   -5.54 KCAL/MOL
REMARK 922        TOTAL FREE ENERGY PREDICTED BY IDOCK:   -8.09 KCAL/MOL
REMARK 923 INTER-LIGAND FREE ENERGY PREDICTED BY IDOCK:   -7.54 KCAL/MOL
REMARK 924 INTRA-LIGAND FREE ENERGY PREDICTED BY IDOCK:   -0.55 KCAL/MOL
REMARK 927      BINDING AFFINITY PREDICTED BY RF-SCORE:    0.00 PKD
ROOT
HETATM    1  N   UNL     1     -13.134  12.254  63.703  1.00  0.00    -0.760 NA 
HETATM    2  H1  UNL     1     -12.971  11.281  63.963  1.00  0.00     0.000 HD 
HETATM    3  C   UNL     1     -12.189  13.156  64.086  1.00  0.00    -0.398 C  
HETATM    4  H2  UNL     1     -13.964  12.538  63.182  1.00  0.00     0.000 HD 
HETATM    5  N   UNL     1     -12.395  14.393  63.755  1.00  0.00    -1.079 N  
HETATM    6  C   UNL     1     -11.524  15.371  64.169  1.00  0.00    -0.028 C  
HETATM    7  H   UNL     1     -13.206  14.641  63.187  1.00  0.00     0.000 HD 
HETATM    8  N   UNL     1     -10.465  14.998  65.001  1.00  0.00    -0.400 N  
HETATM    9  O   UNL     1     -11.682  16.547  63.844  1.00  0.00    -1.148 OA 
HETATM   10  C   UNL     1     -11.011  12.711  64.852  1.00  0.00    -0.326 C  
HETATM   11  C   UNL     1     -10.208  13.683  65.298  1.00  0.00    -0.323 C  
ENDROOT
BRANCH   8  12
HETATM   12  C   UNL     1      -9.749  16.047  65.710  1.00  0.00    -0.305 C  
BRANCH  12  13
HETATM   13  C   UNL     1     -10.325  16.471  67.079  1.00  0.00    -0.301 C  
BRANCH  13  14
HETATM   14  O   UNL     1     -11.528  15.694  67.387  1.00  0.00    -0.235 OA 
BRANCH  14  15
HETATM   15  C   UNL     1     -11.698  15.602  68.814  1.00  0.00    -0.370 C  
HETATM   16  P   UNL     1     -11.924  13.879  69.392  1.00  0.00    -0.320 P  
HETATM   17  O   UNL     1     -10.414  13.605  68.787  1.00  0.00    -0.240 OA 
HETATM   18  O   UNL     1     -11.535  14.469  70.880  1.00  0.00    -0.236 OA 
HETATM   19  O   UNL     1     -12.114  12.424  69.882  1.00  0.00    -0.299 OA 
ENDBRANCH  14  15
ENDBRANCH  13  14
BRANCH  13  20
HETATM   20  C   UNL     1     -10.693  17.963  67.095  1.00  0.00    -0.230 C  
HETATM   21  O   UNL     1     -10.325  18.575  65.857  1.00  0.00    -0.543 OA 
HETATM   22  H   UNL     1     -10.553  19.497  65.867  1.00  0.00     0.000 HD 
ENDBRANCH  13  20
ENDBRANCH  12  13
ENDBRANCH   8  12
TORSDOF 5
ENDMDL
MODEL       25
REMARK 921   NORMALIZED FREE ENERGY PREDICTED BY IDOCK:   -5.45 KCAL/MOL
REMARK 922        TOTAL FREE ENERGY PREDICTED BY IDOCK:   -7.98 KCAL/MOL
REMARK 923 INTER-LIGAND FREE ENERGY PREDICTED BY IDOCK:   -7.36 KCAL/MOL
REMARK 924 INTRA-LIGAND FREE ENERGY PREDICTED BY IDOCK:   -0.62 KCAL/MOL
REMARK 927      BINDING AFFINITY PREDICTED BY RF-SCORE:    0.00 PKD
ROOT
HETATM    1  N   UNL     1      -9.888  19.871  67.114  1.00  0.00    -0.378 NA 
HETATM    2  H1  UNL     1      -9.579  20.060  68.068  1.00  0.00     0.000 HD 
HETATM    3  C   UNL     1     -10.253  18.590  66.832  1.00  0.00    -0.381 C  
HETATM    4  H2  UNL     1      -9.923  20.605  66.407  1.00  0.00     0.000 HD 
HETATM    5  N   UNL     1     -10.647  18.350  65.619  1.00  0.00    -0.286 N  
HETATM    6  C   UNL     1     -10.961  17.068  65.239  1.00  0.00    -0.006 C  
HETATM    7  H   UNL     1     -10.724  19.114  64.947  1.00  0.00     0.000 HD 
HETATM    8  N   UNL     1     -10.778  16.043  66.171  1.00  0.00    -0.283 N  
HETATM    9  O   UNL     1     -11.365  16.819  64.104  1.00  0.00    -1.194 OA 
HETATM   10  C   UNL     1     -10.174  17.553  67.875  1.00  0.00    -0.350 C  
HETATM   11  C   UNL     1     -10.425  16.303  67.471  1.00  0.00    -0.302 C  
ENDROOT
BRANCH   8  12
HETATM   12  C   UNL     1     -10.779  14.671  65.688  1.00  0.00    -0.332 C  
BRANCH  12  13
HETATM   13  C   UNL     1     -12.152  13.968  65.614  1.00  0.00    -0.417 C  
BRANCH  13  14
HETATM   14  O   UNL     1     -12.305  13.032  66.730  1.00  0.00    -0.367 OA 
BRANCH  14  15
HETATM   15  C   UNL     1     -11.469  11.879  66.520  1.00  0.00    -0.314 C  
HETATM   16  P   UNL     1     -10.722  11.251  68.069  1.00  0.00    -0.241 P  
HETATM   17  O   UNL     1     -12.271  10.985  68.568  1.00  0.00    -0.582 OA 
HETATM   18  O   UNL     1     -10.451   9.866  67.220  1.00  0.00    -0.231 OA 
HETATM   19  O   UNL     1     -10.090  10.720  69.377  1.00  0.00    -0.212 OA 
ENDBRANCH  14  15
ENDBRANCH  13  14
BRANCH  13  20
HETATM   20  C   UNL     1     -12.311  13.186  64.300  1.00  0.00    -0.351 C  
HETATM   21  O   UNL     1     -12.394  14.090  63.195  1.00  0.00    -1.133 OA 
HETATM   22  H   UNL     1     -12.492  13.607  62.383  1.00  0.00     0.000 HD 
ENDBRANCH  13  20
ENDBRANCH  12  13
ENDBRANCH   8  12
TORSDOF 5
ENDMDL
MODEL       26
REMARK 921   NORMALIZED FREE ENERGY PREDICTED BY IDOCK:   -5.42 KCAL/MOL
REMARK 922        TOTAL FREE ENERGY PREDICTED BY IDOCK:   -7.94 KCAL/MOL
REMARK 923 INTER-LIGAND FREE ENERGY PREDICTED BY IDOCK:   -7.45 KCAL/MOL
REMARK 924 INTRA-LIGAND FREE ENERGY PREDICTED BY IDOCK:   -0.48 KCAL/MOL
REMARK 927      BINDING AFFINITY PREDICTED BY RF-SCORE:    0.00 PKD
ROOT
HETATM    1  N   UNL     1     -11.608  16.444  63.733  1.00  0.00    -1.515 NA 
HETATM    2  H1  UNL     1     -11.009  17.203  64.060  1.00  0.00     0.000 HD 
HETATM    3  C   UNL     1     -11.639  15.317  64.495  1.00  0.00    -0.312 C  
HETATM    4  H2  UNL     1     -12.157  16.526  62.877  1.00  0.00     0.000 HD 
HETATM    5  N   UNL     1     -12.401  14.352  64.079  1.00  0.00    -0.931 N  
HETATM    6  C   UNL     1     -12.428  13.157  64.755  1.00  0.00    -0.402 C  
HETATM    7  H   UNL     1     -12.981  14.482  63.250  1.00  0.00     0.000 HD 
HETATM    8  N   UNL     1     -11.568  12.999  65.846  1.00  0.00    -0.345 N  
HETATM    9  O   UNL     1     -13.163  12.238  64.399  1.00  0.00    -0.806 OA 
HETATM   10  C   UNL     1     -10.819  15.229  65.717  1.00  0.00    -0.363 C  
HETATM   11  C   UNL     1     -10.812  14.039  66.326  1.00  0.00    -0.291 C  
ENDROOT
BRANCH   8  12
HETATM   12  C   UNL     1     -11.342  11.654  66.350  1.00  0.00    -0.245 C  
BRANCH  12  13
HETATM   13  C   UNL     1     -10.445  11.528  67.600  1.00  0.00    -0.189 C  
BRANCH  13  14
HETATM   14  O   UNL     1      -9.137  10.979  67.235  1.00  0.00    -0.138 OA 
BRANCH  14  15
HETATM   15  C   UNL     1      -9.079  10.757  65.814  1.00  0.00    -0.188 C  
HETATM   16  P   UNL     1      -8.355   9.134  65.377  1.00  0.00    -0.159 P  
HETATM   17  O   UNL     1      -9.627   8.479  66.197  1.00  0.00    -0.231 OA 
HETATM   18  O   UNL     1      -9.052   9.369  63.903  1.00  0.00    -0.196 OA 
HETATM   19  O   UNL     1      -7.743   7.761  65.006  1.00  0.00    -0.093 OA 
ENDBRANCH  14  15
ENDBRANCH  13  14
BRANCH  13  20
HETATM   20  C   UNL     1     -11.079  10.607  68.655  1.00  0.00    -0.263 C  
HETATM   21  O   UNL     1     -12.504  10.696  68.594  1.00  0.00    -0.788 OA 
HETATM   22  H   UNL     1     -12.896  10.127  69.246  1.00  0.00     0.000 HD 
ENDBRANCH  13  20
ENDBRANCH  12  13
ENDBRANCH   8  12
TORSDOF 5
ENDMDL
MODEL       27
REMARK 921   NORMALIZED FREE ENERGY PREDICTED BY IDOCK:   -5.37 KCAL/MOL
REMARK 922        TOTAL FREE ENERGY PREDICTED BY IDOCK:   -7.88 KCAL/MOL
REMARK 923 INTER-LIGAND FREE ENERGY PREDICTED BY IDOCK:   -7.10 KCAL/MOL
REMARK 924 INTRA-LIGAND FREE ENERGY PREDICTED BY IDOCK:   -0.78 KCAL/MOL
REMARK 927      BINDING AFFINITY PREDICTED BY RF-SCORE:    0.00 PKD
ROOT
HETATM    1  N   UNL     1     -12.771  11.514  62.888  1.00  0.00    -0.839 NA 
HETATM    2  H1  UNL     1     -12.542  10.550  63.133  1.00  0.00     0.000 HD 
HETATM    3  C   UNL     1     -12.241  12.488  63.677  1.00  0.00    -0.550 C  
HETATM    4  H2  UNL     1     -13.367  11.737  62.091  1.00  0.00     0.000 HD 
HETATM    5  N   UNL     1     -12.531  13.714  63.365  1.00  0.00    -1.016 N  
HETATM    6  C   UNL     1     -12.094  14.747  64.157  1.00  0.00    -0.299 C  
HETATM    7  H   UNL     1     -13.085  13.910  62.531  1.00  0.00     0.000 HD 
HETATM    8  N   UNL     1     -11.397  14.430  65.326  1.00  0.00    -0.333 N  
HETATM    9  O   UNL     1     -12.331  15.919  63.867  1.00  0.00    -0.776 OA 
HETATM   10  C   UNL     1     -11.397  12.127  64.830  1.00  0.00    -0.378 C  
HETATM   11  C   UNL     1     -11.033  13.141  65.623  1.00  0.00    -0.277 C  
ENDROOT
BRANCH   8  12
HETATM   12  C   UNL     1     -11.229  15.472  66.327  1.00  0.00    -0.096 C  
BRANCH  12  13
HETATM   13  C   UNL     1      -9.882  16.227  66.317  1.00  0.00    -0.313 C  
BRANCH  13  14
HETATM   14  O   UNL     1      -9.128  15.939  67.539  1.00  0.00    -0.196 OA 
BRANCH  14  15
HETATM   15  C   UNL     1      -7.841  15.389  67.202  1.00  0.00    -0.214 C  
HETATM   16  P   UNL     1      -7.159  14.316  68.518  1.00  0.00    -0.128 P  
HETATM   17  O   UNL     1      -8.482  13.364  68.263  1.00  0.00    -0.163 OA 
HETATM   18  O   UNL     1      -6.158  13.738  67.345  1.00  0.00    -0.344 OA 
HETATM   19  O   UNL     1      -6.582  13.408  69.631  1.00  0.00    -0.094 OA 
ENDBRANCH  14  15
ENDBRANCH  13  14
BRANCH  13  20
HETATM   20  C   UNL     1     -10.092  17.747  66.224  1.00  0.00    -0.344 C  
HETATM   21  O   UNL     1     -10.832  18.072  65.045  1.00  0.00    -0.738 OA 
HETATM   22  H   UNL     1     -10.962  19.011  64.988  1.00  0.00     0.000 HD 
ENDBRANCH  13  20
ENDBRANCH  12  13
ENDBRANCH   8  12
TORSDOF 5
ENDMDL
MODEL       28
REMARK 921   NORMALIZED FREE ENERGY PREDICTED BY IDOCK:   -5.36 KCAL/MOL
REMARK 922        TOTAL FREE ENERGY PREDICTED BY IDOCK:   -7.87 KCAL/MOL
REMARK 923 INTER-LIGAND FREE ENERGY PREDICTED BY IDOCK:   -7.27 KCAL/MOL
REMARK 924 INTRA-LIGAND FREE ENERGY PREDICTED BY IDOCK:   -0.60 KCAL/MOL
REMARK 927      BINDING AFFINITY PREDICTED BY RF-SCORE:    0.00 PKD
ROOT
HETATM    1  N   UNL     1      -9.859   9.626  62.901  1.00  0.00    -0.332 NA 
HETATM    2  H1  UNL     1      -9.085   9.099  63.306  1.00  0.00     0.000 HD 
HETATM    3  C   UNL     1     -10.148  10.826  63.476  1.00  0.00    -0.302 C  
HETATM    4  H2  UNL     1     -10.390   9.272  62.106  1.00  0.00     0.000 HD 
HETATM    5  N   UNL     1     -11.132  11.497  62.961  1.00  0.00    -0.805 N  
HETATM    6  C   UNL     1     -11.530  12.681  63.531  1.00  0.00    -0.491 C  
HETATM    7  H   UNL     1     -11.611  11.145  62.131  1.00  0.00     0.000 HD 
HETATM    8  N   UNL     1     -10.892  13.093  64.704  1.00  0.00    -0.345 N  
HETATM    9  O   UNL     1     -12.441  13.350  63.045  1.00  0.00    -0.667 OA 
HETATM   10  C   UNL     1      -9.369  11.297  64.634  1.00  0.00    -0.156 C  
HETATM   11  C   UNL     1      -9.809  12.420  65.212  1.00  0.00    -0.161 C  
ENDROOT
BRANCH   8  12
HETATM   12  C   UNL     1     -11.517  14.144  65.491  1.00  0.00    -0.324 C  
BRANCH  12  13
HETATM   13  C   UNL     1     -10.729  15.465  65.628  1.00  0.00    -0.369 C  
BRANCH  13  14
HETATM   14  O   UNL     1     -10.637  15.859  67.035  1.00  0.00    -0.305 OA 
BRANCH  14  15
HETATM   15  C   UNL     1      -9.505  16.727  67.228  1.00  0.00    -0.230 C  
HETATM   16  P   UNL     1      -9.964  18.348  67.944  1.00  0.00    -0.390 P  
HETATM   17  O   UNL     1     -10.493  17.487  69.249  1.00  0.00    -0.321 OA 
HETATM   18  O   UNL     1      -8.367  18.486  68.318  1.00  0.00    -0.302 OA 
HETATM   19  O   UNL     1     -10.352  19.718  68.551  1.00  0.00    -0.444 OA 
ENDBRANCH  14  15
ENDBRANCH  13  14
BRANCH  13  20
HETATM   20  C   UNL     1     -11.404  16.604  64.848  1.00  0.00     0.048 C  
HETATM   21  O   UNL     1     -11.997  16.098  63.650  1.00  0.00    -1.375 OA 
HETATM   22  H   UNL     1     -12.414  16.803  63.167  1.00  0.00     0.000 HD 
ENDBRANCH  13  20
ENDBRANCH  12  13
ENDBRANCH   8  12
TORSDOF 5
ENDMDL
MODEL       29
REMARK 921   NORMALIZED FREE ENERGY PREDICTED BY IDOCK:   -5.35 KCAL/MOL
REMARK 922        TOTAL FREE ENERGY PREDICTED BY IDOCK:   -7.86 KCAL/MOL
REMARK 923 INTER-LIGAND FREE ENERGY PREDICTED BY IDOCK:   -7.49 KCAL/MOL
REMARK 924 INTRA-LIGAND FREE ENERGY PREDICTED BY IDOCK:   -0.36 KCAL/MOL
REMARK 927      BINDING AFFINITY PREDICTED BY RF-SCORE:    0.00 PKD
ROOT
HETATM    1  N   UNL     1     -13.893  15.068  72.955  1.00  0.00    -0.539 NA 
HETATM    2  H1  UNL     1     -13.677  16.028  72.682  1.00  0.00     0.000 HD 
HETATM    3  C   UNL     1     -13.320  14.079  72.217  1.00  0.00    -0.478 C  
HETATM    4  H2  UNL     1     -14.507  14.861  73.743  1.00  0.00     0.000 HD 
HETATM    5  N   UNL     1     -13.593  12.859  72.565  1.00  0.00    -0.590 N  
HETATM    6  C   UNL     1     -13.112  11.808  71.823  1.00  0.00    -0.375 C  
HETATM    7  H   UNL     1     -14.167  12.680  73.389  1.00  0.00     0.000 HD 
HETATM    8  N   UNL     1     -12.387  12.099  70.664  1.00  0.00    -0.342 N  
HETATM    9  O   UNL     1     -13.333  10.642  72.148  1.00  0.00    -0.444 OA 
HETATM   10  C   UNL     1     -12.451  14.417  71.076  1.00  0.00    -0.425 C  
HETATM   11  C   UNL     1     -12.042  13.385  70.332  1.00  0.00    -0.333 C  
ENDROOT
BRANCH   8  12
HETATM   12  C   UNL     1     -12.169  11.026  69.706  1.00  0.00    -0.318 C  
BRANCH  12  13
HETATM   13  C   UNL     1     -11.287  11.362  68.484  1.00  0.00    -0.271 C  
BRANCH  13  14
HETATM   14  O   UNL     1     -12.118  11.815  67.366  1.00  0.00    -0.595 OA 
BRANCH  14  15
HETATM   15  C   UNL     1     -11.484  12.925  66.704  1.00  0.00    -0.343 C  
HETATM   16  P   UNL     1     -11.114  12.585  64.943  1.00  0.00    -0.330 P  
HETATM   17  O   UNL     1     -12.745  12.418  64.756  1.00  0.00    -0.622 OA 
HETATM   18  O   UNL     1     -10.972  14.219  64.795  1.00  0.00    -0.378 OA 
HETATM   19  O   UNL     1     -10.802  12.299  63.455  1.00  0.00    -0.449 OA 
ENDBRANCH  14  15
ENDBRANCH  13  14
BRANCH  13  20
HETATM   20  C   UNL     1     -10.479  10.139  68.023  1.00  0.00    -0.209 C  
HETATM   21  O   UNL     1     -11.076   8.938  68.517  1.00  0.00    -0.453 OA 
HETATM   22  H   UNL     1     -10.576   8.182  68.232  1.00  0.00     0.000 HD 
ENDBRANCH  13  20
ENDBRANCH  12  13
ENDBRANCH   8  12
TORSDOF 5
ENDMDL
MODEL       30
REMARK 921   NORMALIZED FREE ENERGY PREDICTED BY IDOCK:   -5.33 KCAL/MOL
REMARK 922        TOTAL FREE ENERGY PREDICTED BY IDOCK:   -7.83 KCAL/MOL
REMARK 923 INTER-LIGAND FREE ENERGY PREDICTED BY IDOCK:   -7.66 KCAL/MOL
REMARK 924 INTRA-LIGAND FREE ENERGY PREDICTED BY IDOCK:   -0.17 KCAL/MOL
REMARK 927      BINDING AFFINITY PREDICTED BY RF-SCORE:    0.00 PKD
ROOT
HETATM    1  N   UNL     1     -12.999  15.976  74.425  1.00  0.00    -0.929 NA 
HETATM    2  H1  UNL     1     -12.703  16.937  74.601  1.00  0.00     0.000 HD 
HETATM    3  C   UNL     1     -12.667  15.445  73.216  1.00  0.00    -0.508 C  
HETATM    4  H2  UNL     1     -13.517  15.440  75.121  1.00  0.00     0.000 HD 
HETATM    5  N   UNL     1     -13.043  14.223  72.994  1.00  0.00    -0.509 N  
HETATM    6  C   UNL     1     -12.810  13.644  71.770  1.00  0.00    -0.315 C  
HETATM    7  H   UNL     1     -13.512  13.692  73.728  1.00  0.00     0.000 HD 
HETATM    8  N   UNL     1     -12.226  14.429  70.772  1.00  0.00    -0.320 N  
HETATM    9  O   UNL     1     -13.131  12.479  71.544  1.00  0.00    -0.381 OA 
HETATM   10  C   UNL     1     -11.933  16.256  72.230  1.00  0.00    -0.605 C  
HETATM   11  C   UNL     1     -11.769  15.698  71.026  1.00  0.00    -0.403 C  
ENDROOT
BRANCH   8  12
HETATM   12  C   UNL     1     -12.285  13.948  69.401  1.00  0.00    -0.292 C  
BRANCH  12  13
HETATM   13  C   UNL     1     -10.940  13.838  68.651  1.00  0.00    -0.266 C  
BRANCH  13  14
HETATM   14  O   UNL     1     -10.359  15.167  68.449  1.00  0.00    -0.222 OA 
BRANCH  14  15
HETATM   15  C   UNL     1     -10.840  15.728  67.214  1.00  0.00    -0.298 C  
HETATM   16  P   UNL     1      -9.635  16.863  66.432  1.00  0.00    -0.278 P  
HETATM   17  O   UNL     1      -8.642  15.549  66.334  1.00  0.00    -0.294 OA 
HETATM   18  O   UNL     1     -10.526  16.653  65.063  1.00  0.00    -0.664 OA 
HETATM   19  O   UNL     1      -8.616  17.821  65.769  1.00  0.00    -0.510 OA 
ENDBRANCH  14  15
ENDBRANCH  13  14
BRANCH  13  20
HETATM   20  C   UNL     1     -11.117  13.172  67.277  1.00  0.00    -0.279 C  
HETATM   21  O   UNL     1     -11.920  11.996  67.398  1.00  0.00    -0.583 OA 
HETATM   22  H   UNL     1     -12.030  11.585  66.549  1.00  0.00     0.000 HD 
ENDBRANCH  13  20
ENDBRANCH  12  13
ENDBRANCH   8  12
TORSDOF 5
ENDMDL
MODEL       31
REMARK 921   NORMALIZED FREE ENERGY PREDICTED BY IDOCK:   -5.33 KCAL/MOL
REMARK 922        TOTAL FREE ENERGY PREDICTED BY IDOCK:   -7.82 KCAL/MOL
REMARK 923 INTER-LIGAND FREE ENERGY PREDICTED BY IDOCK:   -7.70 KCAL/MOL
REMARK 924 INTRA-LIGAND FREE ENERGY PREDICTED BY IDOCK:   -0.12 KCAL/MOL
REMARK 927      BINDING AFFINITY PREDICTED BY RF-SCORE:    0.00 PKD
ROOT
HETATM    1  N   UNL     1     -12.096  16.213  63.933  1.00  0.00    -1.261 NA 
HETATM    2  H1  UNL     1     -11.468  16.921  64.315  1.00  0.00     0.000 HD 
HETATM    3  C   UNL     1     -11.726  14.913  64.099  1.00  0.00    -0.128 C  
HETATM    4  H2  UNL     1     -12.958  16.467  63.451  1.00  0.00     0.000 HD 
HETATM    5  N   UNL     1     -12.525  14.014  63.613  1.00  0.00    -1.042 N  
HETATM    6  C   UNL     1     -12.184  12.685  63.676  1.00  0.00    -0.536 C  
HETATM    7  H   UNL     1     -13.408  14.293  63.184  1.00  0.00     0.000 HD 
HETATM    8  N   UNL     1     -10.937  12.351  64.211  1.00  0.00    -0.324 N  
HETATM    9  O   UNL     1     -12.938  11.811  63.250  1.00  0.00    -0.633 OA 
HETATM   10  C   UNL     1     -10.464  14.586  64.786  1.00  0.00    -0.365 C  
HETATM   11  C   UNL     1     -10.121  13.294  64.784  1.00  0.00    -0.227 C  
ENDROOT
BRANCH   8  12
HETATM   12  C   UNL     1     -10.429  11.008  63.977  1.00  0.00    -0.366 C  
BRANCH  12  13
HETATM   13  C   UNL     1     -10.157  10.146  65.228  1.00  0.00    -0.274 C  
BRANCH  13  14
HETATM   14  O   UNL     1     -10.049  10.995  66.417  1.00  0.00    -0.214 OA 
BRANCH  14  15
HETATM   15  C   UNL     1     -10.862  10.459  67.477  1.00  0.00    -0.301 C  
HETATM   16  P   UNL     1     -11.389  11.733  68.682  1.00  0.00    -0.328 P  
HETATM   17  O   UNL     1     -12.166  12.443  67.412  1.00  0.00    -0.459 OA 
HETATM   18  O   UNL     1     -12.529  10.637  69.141  1.00  0.00    -0.317 OA 
HETATM   19  O   UNL     1     -11.835  12.809  69.701  1.00  0.00    -0.311 OA 
ENDBRANCH  14  15
ENDBRANCH  13  14
BRANCH  13  20
HETATM   20  C   UNL     1      -8.854   9.344  65.084  1.00  0.00    -0.195 C  
HETATM   21  O   UNL     1      -8.868   8.594  63.867  1.00  0.00    -0.421 OA 
HETATM   22  H   UNL     1      -8.063   8.098  63.778  1.00  0.00     0.000 HD 
ENDBRANCH  13  20
ENDBRANCH  12  13
ENDBRANCH   8  12
TORSDOF 5
ENDMDL
MODEL       32
REMARK 921   NORMALIZED FREE ENERGY PREDICTED BY IDOCK:   -5.33 KCAL/MOL
REMARK 922        TOTAL FREE ENERGY PREDICTED BY IDOCK:   -7.82 KCAL/MOL
REMARK 923 INTER-LIGAND FREE ENERGY PREDICTED BY IDOCK:   -7.10 KCAL/MOL
REMARK 924 INTRA-LIGAND FREE ENERGY PREDICTED BY IDOCK:   -0.72 KCAL/MOL
REMARK 927      BINDING AFFINITY PREDICTED BY RF-SCORE:    0.00 PKD
ROOT
HETATM    1  N   UNL     1      -9.743  20.857  66.848  1.00  0.00    -0.636 NA 
HETATM    2  H1  UNL     1      -9.664  21.431  67.689  1.00  0.00     0.000 HD 
HETATM    3  C   UNL     1     -10.065  19.547  67.030  1.00  0.00    -0.397 C  
HETATM    4  H2  UNL     1      -9.589  21.247  65.918  1.00  0.00     0.000 HD 
HETATM    5  N   UNL     1     -10.167  18.818  65.961  1.00  0.00    -0.410 N  
HETATM    6  C   UNL     1     -10.416  17.472  66.067  1.00  0.00    -0.274 C  
HETATM    7  H   UNL     1     -10.061  19.246  65.040  1.00  0.00     0.000 HD 
HETATM    8  N   UNL     1     -10.486  16.916  67.347  1.00  0.00    -0.317 N  
HETATM    9  O   UNL     1     -10.545  16.765  65.069  1.00  0.00    -0.695 OA 
HETATM   10  C   UNL     1     -10.264  19.017  68.390  1.00  0.00    -0.450 C  
HETATM   11  C   UNL     1     -10.446  17.695  68.477  1.00  0.00    -0.337 C  
ENDROOT
BRANCH   8  12
HETATM   12  C   UNL     1     -10.411  15.469  67.470  1.00  0.00    -0.271 C  
BRANCH  12  13
HETATM   13  C   UNL     1     -11.751  14.720  67.634  1.00  0.00    -0.341 C  
BRANCH  13  14
HETATM   14  O   UNL     1     -11.709  13.855  68.816  1.00  0.00    -0.310 OA 
BRANCH  14  15
HETATM   15  C   UNL     1     -11.308  14.620  69.968  1.00  0.00    -0.242 C  
HETATM   16  P   UNL     1     -12.717  15.079  71.042  1.00  0.00    -0.438 P  
HETATM   17  O   UNL     1     -12.937  13.456  71.245  1.00  0.00    -0.334 OA 
HETATM   18  O   UNL     1     -11.575  15.362  72.194  1.00  0.00    -0.418 OA 
HETATM   19  O   UNL     1     -13.908  15.467  71.951  1.00  0.00    -0.476 OA 
ENDBRANCH  14  15
ENDBRANCH  13  14
BRANCH  13  20
HETATM   20  C   UNL     1     -12.060  13.848  66.407  1.00  0.00    -0.455 C  
HETATM   21  O   UNL     1     -10.999  13.945  65.453  1.00  0.00    -0.300 OA 
HETATM   22  H   UNL     1     -11.190  13.406  64.694  1.00  0.00     0.000 HD 
ENDBRANCH  13  20
ENDBRANCH  12  13
ENDBRANCH   8  12
TORSDOF 5
ENDMDL
MODEL       33
REMARK 921   NORMALIZED FREE ENERGY PREDICTED BY IDOCK:   -5.32 KCAL/MOL
REMARK 922        TOTAL FREE ENERGY PREDICTED BY IDOCK:   -7.81 KCAL/MOL
REMARK 923 INTER-LIGAND FREE ENERGY PREDICTED BY IDOCK:   -7.36 KCAL/MOL
REMARK 924 INTRA-LIGAND FREE ENERGY PREDICTED BY IDOCK:   -0.45 KCAL/MOL
REMARK 927      BINDING AFFINITY PREDICTED BY RF-SCORE:    0.00 PKD
ROOT
HETATM    1  N   UNL     1     -11.734  16.353  63.845  1.00  0.00    -1.527 NA 
HETATM    2  H1  UNL     1     -12.332  16.189  63.035  1.00  0.00     0.000 HD 
HETATM    3  C   UNL     1     -11.641  15.341  64.751  1.00  0.00    -0.322 C  
HETATM    4  H2  UNL     1     -11.231  17.232  63.970  1.00  0.00     0.000 HD 
HETATM    5  N   UNL     1     -10.880  15.550  65.781  1.00  0.00    -0.338 N  
HETATM    6  C   UNL     1     -10.793  14.605  66.775  1.00  0.00    -0.312 C  
HETATM    7  H   UNL     1     -10.345  16.416  65.854  1.00  0.00     0.000 HD 
HETATM    8  N   UNL     1     -11.593  13.464  66.668  1.00  0.00    -0.344 N  
HETATM    9  O   UNL     1     -10.057  14.766  67.747  1.00  0.00    -0.223 OA 
HETATM   10  C   UNL     1     -12.395  14.093  64.544  1.00  0.00    -0.419 C  
HETATM   11  C   UNL     1     -12.346  13.212  65.549  1.00  0.00    -0.474 C  
ENDROOT
BRANCH   8  12
HETATM   12  C   UNL     1     -11.764  12.635  67.851  1.00  0.00    -0.358 C  
BRANCH  12  13
HETATM   13  C   UNL     1     -11.355  11.152  67.719  1.00  0.00    -0.293 C  
BRANCH  13  14
HETATM   14  O   UNL     1     -11.323  10.514  69.037  1.00  0.00    -0.249 OA 
BRANCH  14  15
HETATM   15  C   UNL     1     -12.110  11.278  69.970  1.00  0.00    -0.348 C  
HETATM   16  P   UNL     1     -12.942  10.232  71.220  1.00  0.00    -0.421 P  
HETATM   17  O   UNL     1     -11.423   9.791  71.690  1.00  0.00    -0.364 OA 
HETATM   18  O   UNL     1     -13.115  11.627  72.078  1.00  0.00    -0.478 OA 
HETATM   19  O   UNL     1     -13.646   9.349  72.279  1.00  0.00    -0.447 OA 
ENDBRANCH  14  15
ENDBRANCH  13  14
BRANCH  13  20
HETATM   20  C   UNL     1      -9.966  11.009  67.077  1.00  0.00    -0.190 C  
HETATM   21  O   UNL     1     -10.081  10.428  65.776  1.00  0.00    -0.251 OA 
HETATM   22  H   UNL     1      -9.222  10.339  65.379  1.00  0.00     0.000 HD 
ENDBRANCH  13  20
ENDBRANCH  12  13
ENDBRANCH   8  12
TORSDOF 5
ENDMDL
MODEL       34
REMARK 921   NORMALIZED FREE ENERGY PREDICTED BY IDOCK:   -5.29 KCAL/MOL
REMARK 922        TOTAL FREE ENERGY PREDICTED BY IDOCK:   -7.78 KCAL/MOL
REMARK 923 INTER-LIGAND FREE ENERGY PREDICTED BY IDOCK:   -7.33 KCAL/MOL
REMARK 924 INTRA-LIGAND FREE ENERGY PREDICTED BY IDOCK:   -0.45 KCAL/MOL
REMARK 927      BINDING AFFINITY PREDICTED BY RF-SCORE:    0.00 PKD
ROOT
HETATM    1  N   UNL     1     -12.194  13.716  63.069  1.00  0.00    -0.963 NA 
HETATM    2  H1  UNL     1     -13.192  13.676  62.861  1.00  0.00     0.000 HD 
HETATM    3  C   UNL     1     -11.846  13.770  64.384  1.00  0.00    -0.427 C  
HETATM    4  H2  UNL     1     -11.492  13.716  62.329  1.00  0.00     0.000 HD 
HETATM    5  N   UNL     1     -10.577  13.821  64.649  1.00  0.00    -0.436 N  
HETATM    6  C   UNL     1     -10.150  13.952  65.948  1.00  0.00    -0.317 C  
HETATM    7  H   UNL     1      -9.895  13.764  63.892  1.00  0.00     0.000 HD 
HETATM    8  N   UNL     1     -11.118  14.094  66.947  1.00  0.00    -0.301 N  
HETATM    9  O   UNL     1      -8.953  13.973  66.228  1.00  0.00    -0.100 OA 
HETATM   10  C   UNL     1     -12.889  13.786  65.425  1.00  0.00    -0.455 C  
HETATM   11  C   UNL     1     -12.458  13.974  66.676  1.00  0.00    -0.257 C  
ENDROOT
BRANCH   8  12
HETATM   12  C   UNL     1     -10.688  14.565  68.254  1.00  0.00    -0.240 C  
BRANCH  12  13
HETATM   13  C   UNL     1     -11.455  15.771  68.838  1.00  0.00    -0.378 C  
BRANCH  13  14
HETATM   14  O   UNL     1     -10.606  16.965  68.834  1.00  0.00    -0.326 OA 
BRANCH  14  15
HETATM   15  C   UNL     1     -10.417  17.427  67.484  1.00  0.00    -0.354 C  
HETATM   16  P   UNL     1     -10.008  19.208  67.393  1.00  0.00    -0.405 P  
HETATM   17  O   UNL     1      -8.658  18.821  68.258  1.00  0.00    -0.306 OA 
HETATM   18  O   UNL     1      -9.479  18.873  65.869  1.00  0.00    -0.458 OA 
HETATM   19  O   UNL     1      -9.661  20.715  67.314  1.00  0.00    -0.465 OA 
ENDBRANCH  14  15
ENDBRANCH  13  14
BRANCH  13  20
HETATM   20  C   UNL     1     -11.906  15.503  70.283  1.00  0.00    -0.357 C  
HETATM   21  O   UNL     1     -13.326  15.633  70.388  1.00  0.00    -0.783 OA 
HETATM   22  H   UNL     1     -13.605  15.467  71.281  1.00  0.00     0.000 HD 
ENDBRANCH  13  20
ENDBRANCH  12  13
ENDBRANCH   8  12
TORSDOF 5
ENDMDL
MODEL       35
REMARK 921   NORMALIZED FREE ENERGY PREDICTED BY IDOCK:   -5.22 KCAL/MOL
REMARK 922        TOTAL FREE ENERGY PREDICTED BY IDOCK:   -7.69 KCAL/MOL
REMARK 923 INTER-LIGAND FREE ENERGY PREDICTED BY IDOCK:   -7.08 KCAL/MOL
REMARK 924 INTRA-LIGAND FREE ENERGY PREDICTED BY IDOCK:   -0.61 KCAL/MOL
REMARK 927      BINDING AFFINITY PREDICTED BY RF-SCORE:    0.00 PKD
ROOT
HETATM    1  N   UNL     1     -10.719   8.736  67.325  1.00  0.00    -0.419 NA 
HETATM    2  H1  UNL     1     -10.214   8.138  66.671  1.00  0.00     0.000 HD 
HETATM    3  C   UNL     1     -10.796  10.058  67.011  1.00  0.00    -0.126 C  
HETATM    4  H2  UNL     1     -11.145   8.362  68.173  1.00  0.00     0.000 HD 
HETATM    5  N   UNL     1     -11.438  10.819  67.843  1.00  0.00    -0.341 N  
HETATM    6  C   UNL     1     -11.495  12.175  67.632  1.00  0.00    -0.331 C  
HETATM    7  H   UNL     1     -11.901  10.410  68.655  1.00  0.00     0.000 HD 
HETATM    8  N   UNL     1     -10.791  12.701  66.545  1.00  0.00    -0.253 N  
HETATM    9  O   UNL     1     -12.122  12.914  68.389  1.00  0.00    -0.291 OA 
HETATM   10  C   UNL     1     -10.153  10.565  65.785  1.00  0.00    -0.329 C  
HETATM   11  C   UNL     1     -10.167  11.893  65.629  1.00  0.00    -0.245 C  
ENDROOT
BRANCH   8  12
HETATM   12  C   UNL     1     -10.566  14.138  66.507  1.00  0.00    -0.282 C  
BRANCH  12  13
HETATM   13  C   UNL     1     -10.569  14.799  65.111  1.00  0.00    -0.417 C  
BRANCH  13  14
HETATM   14  O   UNL     1      -9.885  16.093  65.160  1.00  0.00    -0.404 OA 
BRANCH  14  15
HETATM   15  C   UNL     1     -10.223  16.780  66.378  1.00  0.00    -0.323 C  
HETATM   16  P   UNL     1      -9.898  18.580  66.293  1.00  0.00    -0.238 P  
HETATM   17  O   UNL     1     -11.009  18.602  65.074  1.00  0.00    -0.559 OA 
HETATM   18  O   UNL     1     -10.898  18.688  67.597  1.00  0.00    -0.418 OA 
HETATM   19  O   UNL     1      -9.624  20.101  66.222  1.00  0.00    -0.398 OA 
ENDBRANCH  14  15
ENDBRANCH  13  14
BRANCH  13  20
HETATM   20  C   UNL     1     -12.001  15.027  64.603  1.00  0.00    -0.358 C  
HETATM   21  O   UNL     1     -12.013  16.050  63.605  1.00  0.00    -1.344 OA 
HETATM   22  H   UNL     1     -12.899  16.191  63.291  1.00  0.00     0.000 HD 
ENDBRANCH  13  20
ENDBRANCH  12  13
ENDBRANCH   8  12
TORSDOF 5
ENDMDL
MODEL       36
REMARK 921   NORMALIZED FREE ENERGY PREDICTED BY IDOCK:   -5.22 KCAL/MOL
REMARK 922        TOTAL FREE ENERGY PREDICTED BY IDOCK:   -7.68 KCAL/MOL
REMARK 923 INTER-LIGAND FREE ENERGY PREDICTED BY IDOCK:   -7.48 KCAL/MOL
REMARK 924 INTRA-LIGAND FREE ENERGY PREDICTED BY IDOCK:   -0.20 KCAL/MOL
REMARK 927      BINDING AFFINITY PREDICTED BY RF-SCORE:    0.00 PKD
ROOT
HETATM    1  N   UNL     1      -9.499  21.000  66.977  1.00  0.00    -0.664 NA 
HETATM    2  H1  UNL     1      -8.909  21.359  67.728  1.00  0.00     0.000 HD 
HETATM    3  C   UNL     1      -9.589  19.647  66.862  1.00  0.00    -0.359 C  
HETATM    4  H2  UNL     1      -9.999  21.625  66.344  1.00  0.00     0.000 HD 
HETATM    5  N   UNL     1     -10.341  19.191  65.908  1.00  0.00    -0.438 N  
HETATM    6  C   UNL     1     -10.422  17.839  65.683  1.00  0.00    -0.128 C  
HETATM    7  H   UNL     1     -10.872  19.838  65.324  1.00  0.00     0.000 HD 
HETATM    8  N   UNL     1      -9.627  16.994  66.461  1.00  0.00    -0.266 N  
HETATM    9  O   UNL     1     -11.150  17.380  64.803  1.00  0.00    -0.973 OA 
HETATM   10  C   UNL     1      -8.839  18.776  67.785  1.00  0.00    -0.313 C  
HETATM   11  C   UNL     1      -8.883  17.468  67.513  1.00  0.00    -0.229 C  
ENDROOT
BRANCH   8  12
HETATM   12  C   UNL     1      -9.448  15.620  66.017  1.00  0.00    -0.355 C  
BRANCH  12  13
HETATM   13  C   UNL     1      -9.870  14.515  67.008  1.00  0.00    -0.249 C  
BRANCH  13  14
HETATM   14  O   UNL     1      -9.911  13.215  66.334  1.00  0.00    -0.269 OA 
BRANCH  14  15
HETATM   15  C   UNL     1     -11.278  12.829  66.099  1.00  0.00    -0.298 C  
HETATM   16  P   UNL     1     -11.915  13.416  64.487  1.00  0.00    -0.440 P  
HETATM   17  O   UNL     1     -10.735  12.481  63.814  1.00  0.00    -0.405 OA 
HETATM   18  O   UNL     1     -13.096  12.287  64.692  1.00  0.00    -0.770 OA 
HETATM   19  O   UNL     1     -12.455  13.912  63.123  1.00  0.00    -0.766 OA 
ENDBRANCH  14  15
ENDBRANCH  13  14
BRANCH  13  20
HETATM   20  C   UNL     1     -11.258  14.796  67.605  1.00  0.00    -0.323 C  
HETATM   21  O   UNL     1     -11.144  15.105  68.995  1.00  0.00    -0.231 OA 
HETATM   22  H   UNL     1     -12.003  15.279  69.364  1.00  0.00     0.000 HD 
ENDBRANCH  13  20
ENDBRANCH  12  13
ENDBRANCH   8  12
TORSDOF 5
ENDMDL
MODEL       37
REMARK 921   NORMALIZED FREE ENERGY PREDICTED BY IDOCK:   -5.22 KCAL/MOL
REMARK 922        TOTAL FREE ENERGY PREDICTED BY IDOCK:   -7.68 KCAL/MOL
REMARK 923 INTER-LIGAND FREE ENERGY PREDICTED BY IDOCK:   -7.15 KCAL/MOL
REMARK 924 INTRA-LIGAND FREE ENERGY PREDICTED BY IDOCK:   -0.52 KCAL/MOL
REMARK 927      BINDING AFFINITY PREDICTED BY RF-SCORE:    0.00 PKD
ROOT
HETATM    1  N   UNL     1     -10.246  10.672  62.636  1.00  0.00    -0.757 NA 
HETATM    2  H1  UNL     1      -9.556   9.981  62.931  1.00  0.00     0.000 HD 
HETATM    3  C   UNL     1     -10.575  11.633  63.542  1.00  0.00    -0.435 C  
HETATM    4  H2  UNL     1     -10.669  10.645  61.708  1.00  0.00     0.000 HD 
HETATM    5  N   UNL     1     -11.452  12.513  63.166  1.00  0.00    -0.753 N  
HETATM    6  C   UNL     1     -11.889  13.470  64.050  1.00  0.00    -0.427 C  
HETATM    7  H   UNL     1     -11.818  12.494  62.214  1.00  0.00     0.000 HD 
HETATM    8  N   UNL     1     -11.412  13.418  65.363  1.00  0.00    -0.299 N  
HETATM    9  O   UNL     1     -12.697  14.332  63.710  1.00  0.00    -0.779 OA 
HETATM   10  C   UNL     1      -9.956  11.631  64.879  1.00  0.00    -0.293 C  
HETATM   11  C   UNL     1     -10.437  12.530  65.743  1.00  0.00    -0.271 C  
ENDROOT
BRANCH   8  12
HETATM   12  C   UNL     1     -12.110  14.196  66.375  1.00  0.00    -0.451 C  
BRANCH  12  13
HETATM   13  C   UNL     1     -11.425  14.303  67.755  1.00  0.00    -0.329 C  
BRANCH  13  14
HETATM   14  O   UNL     1     -12.218  13.607  68.772  1.00  0.00    -0.339 OA 
BRANCH  14  15
HETATM   15  C   UNL     1     -11.367  12.746  69.550  1.00  0.00    -0.154 C  
HETATM   16  P   UNL     1     -12.248  11.281  70.206  1.00  0.00    -0.312 P  
HETATM   17  O   UNL     1     -12.501  10.874  68.627  1.00  0.00    -0.418 OA 
HETATM   18  O   UNL     1     -10.747  10.644  70.430  1.00  0.00    -0.150 OA 
HETATM   19  O   UNL     1     -12.992  10.042  70.760  1.00  0.00    -0.330 OA 
ENDBRANCH  14  15
ENDBRANCH  13  14
BRANCH  13  20
HETATM   20  C   UNL     1     -11.261  15.769  68.187  1.00  0.00    -0.344 C  
HETATM   21  O   UNL     1     -10.585  16.510  67.170  1.00  0.00    -0.314 OA 
HETATM   22  H   UNL     1     -10.483  17.416  67.437  1.00  0.00     0.000 HD 
ENDBRANCH  13  20
ENDBRANCH  12  13
ENDBRANCH   8  12
TORSDOF 5
ENDMDL
MODEL       38
REMARK 921   NORMALIZED FREE ENERGY PREDICTED BY IDOCK:   -5.19 KCAL/MOL
REMARK 922        TOTAL FREE ENERGY PREDICTED BY IDOCK:   -7.64 KCAL/MOL
REMARK 923 INTER-LIGAND FREE ENERGY PREDICTED BY IDOCK:   -7.17 KCAL/MOL
REMARK 924 INTRA-LIGAND FREE ENERGY PREDICTED BY IDOCK:   -0.48 KCAL/MOL
REMARK 927      BINDING AFFINITY PREDICTED BY RF-SCORE:    0.00 PKD
ROOT
HETATM    1  N   UNL     1      -9.116   9.944  70.032  1.00  0.00    -0.338 NA 
HETATM    2  H1  UNL     1      -8.543   9.155  69.731  1.00  0.00     0.000 HD 
HETATM    3  C   UNL     1      -9.920  10.509  69.091  1.00  0.00    -0.220 C  
HETATM    4  H2  UNL     1      -9.087  10.291  70.991  1.00  0.00     0.000 HD 
HETATM    5  N   UNL     1     -10.650  11.512  69.474  1.00  0.00    -0.448 N  
HETATM    6  C   UNL     1     -11.431  12.181  68.565  1.00  0.00    -0.300 C  
HETATM    7  H   UNL     1     -10.642  11.804  70.452  1.00  0.00     0.000 HD 
HETATM    8  N   UNL     1     -11.360  11.791  67.225  1.00  0.00    -0.309 N  
HETATM    9  O   UNL     1     -12.153  13.116  68.908  1.00  0.00    -0.301 OA 
HETATM   10  C   UNL     1      -9.923   9.990  67.712  1.00  0.00    -0.203 C  
HETATM   11  C   UNL     1     -10.642  10.691  66.829  1.00  0.00    -0.237 C  
ENDROOT
BRANCH   8  12
HETATM   12  C   UNL     1     -11.909  12.690  66.220  1.00  0.00    -0.410 C  
BRANCH  12  13
HETATM   13  C   UNL     1     -11.075  12.877  64.934  1.00  0.00    -0.297 C  
BRANCH  13  14
HETATM   14  O   UNL     1     -10.753  14.292  64.738  1.00  0.00    -0.407 OA 
BRANCH  14  15
HETATM   15  C   UNL     1     -10.877  15.000  65.986  1.00  0.00    -0.334 C  
HETATM   16  P   UNL     1      -9.934  16.568  66.010  1.00  0.00    -0.294 P  
HETATM   17  O   UNL     1     -10.912  17.039  64.769  1.00  0.00    -0.835 OA 
HETATM   18  O   UNL     1     -10.885  16.966  67.294  1.00  0.00    -0.257 OA 
HETATM   19  O   UNL     1      -9.136  17.894  66.033  1.00  0.00    -0.504 OA 
ENDBRANCH  14  15
ENDBRANCH  13  14
BRANCH  13  20
HETATM   20  C   UNL     1     -11.835  12.377  63.696  1.00  0.00    -0.526 C  
HETATM   21  O   UNL     1     -12.417  13.479  62.996  1.00  0.00    -0.950 OA 
HETATM   22  H   UNL     1     -12.887  13.169  62.230  1.00  0.00     0.000 HD 
ENDBRANCH  13  20
ENDBRANCH  12  13
ENDBRANCH   8  12
TORSDOF 5
ENDMDL
MODEL       39
REMARK 921   NORMALIZED FREE ENERGY PREDICTED BY IDOCK:   -5.16 KCAL/MOL
REMARK 922        TOTAL FREE ENERGY PREDICTED BY IDOCK:   -7.61 KCAL/MOL
REMARK 923 INTER-LIGAND FREE ENERGY PREDICTED BY IDOCK:   -7.06 KCAL/MOL
REMARK 924 INTRA-LIGAND FREE ENERGY PREDICTED BY IDOCK:   -0.55 KCAL/MOL
REMARK 927      BINDING AFFINITY PREDICTED BY RF-SCORE:    0.00 PKD
ROOT
HETATM    1  N   UNL     1      -9.144   9.424  64.354  1.00  0.00    -0.403 NA 
HETATM    2  H1  UNL     1      -8.745   9.281  63.426  1.00  0.00     0.000 HD 
HETATM    3  C   UNL     1      -9.990  10.480  64.499  1.00  0.00    -0.345 C  
HETATM    4  H2  UNL     1      -8.921   8.807  65.134  1.00  0.00     0.000 HD 
HETATM    5  N   UNL     1     -10.499  10.662  65.679  1.00  0.00    -0.207 N  
HETATM    6  C   UNL     1     -11.303  11.749  65.922  1.00  0.00    -0.263 C  
HETATM    7  H   UNL     1     -10.301   9.998  66.427  1.00  0.00     0.000 HD 
HETATM    8  N   UNL     1     -11.493  12.670  64.888  1.00  0.00    -0.311 N  
HETATM    9  O   UNL     1     -11.820  11.928  67.023  1.00  0.00    -0.585 OA 
HETATM   10  C   UNL     1     -10.277  11.361  63.352  1.00  0.00    -0.457 C  
HETATM   11  C   UNL     1     -11.011  12.445  63.622  1.00  0.00    -0.470 C  
ENDROOT
BRANCH   8  12
HETATM   12  C   UNL     1     -12.049  13.971  65.224  1.00  0.00    -0.408 C  
BRANCH  12  13
HETATM   13  C   UNL     1     -11.049  15.044  65.706  1.00  0.00    -0.346 C  
BRANCH  13  14
HETATM   14  O   UNL     1     -11.336  15.420  67.093  1.00  0.00    -0.305 OA 
BRANCH  14  15
HETATM   15  C   UNL     1     -10.179  15.177  67.914  1.00  0.00    -0.232 C  
HETATM   16  P   UNL     1      -9.102  16.648  68.079  1.00  0.00    -0.228 P  
HETATM   17  O   UNL     1     -10.402  17.372  68.792  1.00  0.00    -0.337 OA 
HETATM   18  O   UNL     1      -8.459  15.867  69.379  1.00  0.00    -0.255 OA 
HETATM   19  O   UNL     1      -8.191  17.891  68.220  1.00  0.00    -0.272 OA 
ENDBRANCH  14  15
ENDBRANCH  13  14
BRANCH  13  20
HETATM   20  C   UNL     1     -11.122  16.309  64.836  1.00  0.00    -0.290 C  
HETATM   21  O   UNL     1     -11.956  16.078  63.698  1.00  0.00    -1.344 OA 
HETATM   22  H   UNL     1     -12.001  16.861  63.161  1.00  0.00     0.000 HD 
ENDBRANCH  13  20
ENDBRANCH  12  13
ENDBRANCH   8  12
TORSDOF 5
ENDMDL
MODEL       40
REMARK 921   NORMALIZED FREE ENERGY PREDICTED BY IDOCK:   -5.15 KCAL/MOL
REMARK 922        TOTAL FREE ENERGY PREDICTED BY IDOCK:   -7.59 KCAL/MOL
REMARK 923 INTER-LIGAND FREE ENERGY PREDICTED BY IDOCK:   -7.07 KCAL/MOL
REMARK 924 INTRA-LIGAND FREE ENERGY PREDICTED BY IDOCK:   -0.52 KCAL/MOL
REMARK 927      BINDING AFFINITY PREDICTED BY RF-SCORE:    0.00 PKD
ROOT
HETATM    1  N   UNL     1     -14.365   8.867  73.215  1.00  0.00    -1.177 NA 
HETATM    2  H1  UNL     1     -14.965   9.691  73.246  1.00  0.00     0.000 HD 
HETATM    3  C   UNL     1     -13.225   8.968  72.478  1.00  0.00    -0.406 C  
HETATM    4  H2  UNL     1     -14.607   8.009  73.711  1.00  0.00     0.000 HD 
HETATM    5  N   UNL     1     -12.461   7.919  72.439  1.00  0.00    -0.538 N  
HETATM    6  C   UNL     1     -11.332   7.919  71.657  1.00  0.00    -0.258 C  
HETATM    7  H   UNL     1     -12.700   7.093  72.989  1.00  0.00     0.000 HD 
HETATM    8  N   UNL     1     -11.079   9.045  70.869  1.00  0.00    -0.261 N  
HETATM    9  O   UNL     1     -10.577   6.949  71.625  1.00  0.00    -0.209 OA 
HETATM   10  C   UNL     1     -12.917  10.217  71.761  1.00  0.00    -0.574 C  
HETATM   11  C   UNL     1     -11.847  10.178  70.959  1.00  0.00    -0.383 C  
ENDROOT
BRANCH   8  12
HETATM   12  C   UNL     1     -10.096   8.927  69.803  1.00  0.00    -0.199 C  
BRANCH  12  13
HETATM   13  C   UNL     1      -9.243  10.180  69.510  1.00  0.00    -0.204 C  
BRANCH  13  14
HETATM   14  O   UNL     1      -9.418  10.601  68.118  1.00  0.00    -0.147 OA 
BRANCH  14  15
HETATM   15  C   UNL     1      -9.904  11.956  68.074  1.00  0.00    -0.190 C  
HETATM   16  P   UNL     1     -11.225  12.197  66.831  1.00  0.00    -0.348 P  
HETATM   17  O   UNL     1     -12.093  11.108  67.715  1.00  0.00    -0.606 OA 
HETATM   18  O   UNL     1     -11.569  13.579  67.659  1.00  0.00    -0.300 OA 
HETATM   19  O   UNL     1     -12.343  12.403  65.780  1.00  0.00    -0.644 OA 
ENDBRANCH  14  15
ENDBRANCH  13  14
BRANCH  13  20
HETATM   20  C   UNL     1      -7.749   9.910  69.750  1.00  0.00    -0.155 C  
HETATM   21  O   UNL     1      -7.106  11.092  70.233  1.00  0.00    -0.468 OA 
HETATM   22  H   UNL     1      -6.182  10.925  70.381  1.00  0.00     0.000 HD 
ENDBRANCH  13  20
ENDBRANCH  12  13
ENDBRANCH   8  12
TORSDOF 5
ENDMDL
MODEL       41
REMARK 921   NORMALIZED FREE ENERGY PREDICTED BY IDOCK:   -5.12 KCAL/MOL
REMARK 922        TOTAL FREE ENERGY PREDICTED BY IDOCK:   -7.56 KCAL/MOL
REMARK 923 INTER-LIGAND FREE ENERGY PREDICTED BY IDOCK:   -7.19 KCAL/MOL
REMARK 924 INTRA-LIGAND FREE ENERGY PREDICTED BY IDOCK:   -0.36 KCAL/MOL
REMARK 927      BINDING AFFINITY PREDICTED BY RF-SCORE:    0.00 PKD
ROOT
HETATM    1  N   UNL     1     -14.187   8.801  73.165  1.00  0.00    -1.172 NA 
HETATM    2  H1  UNL     1     -14.221   7.792  73.312  1.00  0.00     0.000 HD 
HETATM    3  C   UNL     1     -13.382   9.246  72.162  1.00  0.00    -0.468 C  
HETATM    4  H2  UNL     1     -14.729   9.444  73.742  1.00  0.00     0.000 HD 
HETATM    5  N   UNL     1     -13.338  10.530  71.976  1.00  0.00    -0.504 N  
HETATM    6  C   UNL     1     -12.493  11.060  71.031  1.00  0.00    -0.409 C  
HETATM    7  H   UNL     1     -13.933  11.146  72.531  1.00  0.00     0.000 HD 
HETATM    8  N   UNL     1     -11.649  10.186  70.341  1.00  0.00    -0.294 N  
HETATM    9  O   UNL     1     -12.455  12.270  70.815  1.00  0.00    -0.346 OA 
HETATM   10  C   UNL     1     -12.601   8.287  71.361  1.00  0.00    -0.295 C  
HETATM   11  C   UNL     1     -11.740   8.825  70.490  1.00  0.00    -0.094 C  
ENDROOT
BRANCH   8  12
HETATM   12  C   UNL     1     -10.533  10.754  69.601  1.00  0.00    -0.140 C  
BRANCH  12  13
HETATM   13  C   UNL     1     -10.691  10.830  68.067  1.00  0.00    -0.228 C  
BRANCH  13  14
HETATM   14  O   UNL     1     -11.974  11.443  67.717  1.00  0.00    -0.637 OA 
BRANCH  14  15
HETATM   15  C   UNL     1     -11.787  12.842  67.433  1.00  0.00    -0.360 C  
HETATM   16  P   UNL     1     -11.167  13.146  65.738  1.00  0.00    -0.302 P  
HETATM   17  O   UNL     1     -12.571  12.449  65.226  1.00  0.00    -0.636 OA 
HETATM   18  O   UNL     1     -11.681  14.693  65.970  1.00  0.00    -0.359 OA 
HETATM   19  O   UNL     1     -10.642  13.405  64.305  1.00  0.00    -0.420 OA 
ENDBRANCH  14  15
ENDBRANCH  13  14
BRANCH  13  20
HETATM   20  C   UNL     1     -10.631   9.434  67.427  1.00  0.00    -0.258 C  
HETATM   21  O   UNL     1     -10.242   9.535  66.056  1.00  0.00    -0.272 OA 
HETATM   22  H   UNL     1     -10.205   8.672  65.661  1.00  0.00     0.000 HD 
ENDBRANCH  13  20
ENDBRANCH  12  13
ENDBRANCH   8  12
TORSDOF 5
ENDMDL
MODEL       42
REMARK 921   NORMALIZED FREE ENERGY PREDICTED BY IDOCK:   -5.12 KCAL/MOL
REMARK 922        TOTAL FREE ENERGY PREDICTED BY IDOCK:   -7.55 KCAL/MOL
REMARK 923 INTER-LIGAND FREE ENERGY PREDICTED BY IDOCK:   -6.96 KCAL/MOL
REMARK 924 INTRA-LIGAND FREE ENERGY PREDICTED BY IDOCK:   -0.59 KCAL/MOL
REMARK 927      BINDING AFFINITY PREDICTED BY RF-SCORE:    0.00 PKD
ROOT
HETATM    1  N   UNL     1     -12.047  16.221  72.285  1.00  0.00    -0.561 NA 
HETATM    2  H1  UNL     1     -12.572  16.541  73.099  1.00  0.00     0.000 HD 
HETATM    3  C   UNL     1     -12.316  14.963  71.839  1.00  0.00    -0.344 C  
HETATM    4  H2  UNL     1     -11.354  16.814  71.828  1.00  0.00     0.000 HD 
HETATM    5  N   UNL     1     -11.649  14.557  70.803  1.00  0.00    -0.459 N  
HETATM    6  C   UNL     1     -11.812  13.274  70.339  1.00  0.00    -0.194 C  
HETATM    7  H   UNL     1     -11.002  15.190  70.332  1.00  0.00     0.000 HD 
HETATM    8  N   UNL     1     -12.657  12.420  71.053  1.00  0.00    -0.325 N  
HETATM    9  O   UNL     1     -11.214  12.874  69.342  1.00  0.00    -0.215 OA 
HETATM   10  C   UNL     1     -13.312  14.130  72.535  1.00  0.00    -0.616 C  
HETATM   11  C   UNL     1     -13.413  12.867  72.108  1.00  0.00    -0.522 C  
ENDROOT
BRANCH   8  12
HETATM   12  C   UNL     1     -12.577  10.994  70.780  1.00  0.00    -0.369 C  
BRANCH  12  13
HETATM   13  C   UNL     1     -12.680  10.052  71.999  1.00  0.00    -0.347 C  
BRANCH  13  14
HETATM   14  O   UNL     1     -11.561   9.107  72.008  1.00  0.00    -0.361 OA 
BRANCH  14  15
HETATM   15  C   UNL     1     -11.586   8.307  70.811  1.00  0.00    -0.236 C  
HETATM   16  P   UNL     1     -10.819   6.661  71.040  1.00  0.00    -0.271 P  
HETATM   17  O   UNL     1     -12.004   6.395  72.157  1.00  0.00    -0.325 OA 
HETATM   18  O   UNL     1     -11.621   6.243  69.664  1.00  0.00    -0.430 OA 
HETATM   19  O   UNL     1     -10.171   5.269  71.232  1.00  0.00    -0.206 OA 
ENDBRANCH  14  15
ENDBRANCH  13  14
BRANCH  13  20
HETATM   20  C   UNL     1     -13.991   9.250  71.979  1.00  0.00    -0.327 C  
HETATM   21  O   UNL     1     -14.134   8.508  73.193  1.00  0.00    -0.851 OA 
HETATM   22  H   UNL     1     -14.945   8.012  73.180  1.00  0.00     0.000 HD 
ENDBRANCH  13  20
ENDBRANCH  12  13
ENDBRANCH   8  12
TORSDOF 5
ENDMDL
MODEL       43
REMARK 921   NORMALIZED FREE ENERGY PREDICTED BY IDOCK:   -5.11 KCAL/MOL
REMARK 922        TOTAL FREE ENERGY PREDICTED BY IDOCK:   -7.54 KCAL/MOL
REMARK 923 INTER-LIGAND FREE ENERGY PREDICTED BY IDOCK:   -6.86 KCAL/MOL
REMARK 924 INTRA-LIGAND FREE ENERGY PREDICTED BY IDOCK:   -0.69 KCAL/MOL
REMARK 927      BINDING AFFINITY PREDICTED BY RF-SCORE:    0.00 PKD
ROOT
HETATM    1  N   UNL     1     -12.433   9.854  70.477  1.00  0.00    -0.489 NA 
HETATM    2  H1  UNL     1     -12.588   9.995  71.475  1.00  0.00     0.000 HD 
HETATM    3  C   UNL     1     -12.176  10.966  69.735  1.00  0.00    -0.311 C  
HETATM    4  H2  UNL     1     -12.469   8.926  70.055  1.00  0.00     0.000 HD 
HETATM    5  N   UNL     1     -11.978  10.786  68.465  1.00  0.00    -0.439 N  
HETATM    6  C   UNL     1     -11.786  11.867  67.639  1.00  0.00    -0.275 C  
HETATM    7  H   UNL     1     -11.965   9.841  68.079  1.00  0.00     0.000 HD 
HETATM    8  N   UNL     1     -11.878  13.145  68.197  1.00  0.00    -0.352 N  
HETATM    9  O   UNL     1     -11.567  11.722  66.438  1.00  0.00    -0.462 OA 
HETATM   10  C   UNL     1     -12.149  12.292  70.376  1.00  0.00    -0.385 C  
HETATM   11  C   UNL     1     -12.021  13.334  69.549  1.00  0.00    -0.307 C  
ENDROOT
BRANCH   8  12
HETATM   12  C   UNL     1     -12.014  14.277  67.295  1.00  0.00    -0.405 C  
BRANCH  12  13
HETATM   13  C   UNL     1     -10.725  15.069  66.983  1.00  0.00    -0.304 C  
BRANCH  13  14
HETATM   14  O   UNL     1     -10.842  16.444  67.474  1.00  0.00    -0.315 OA 
BRANCH  14  15
HETATM   15  C   UNL     1     -10.314  17.359  66.495  1.00  0.00    -0.312 C  
HETATM   16  P   UNL     1     -10.119  19.059  67.144  1.00  0.00    -0.425 P  
HETATM   17  O   UNL     1      -9.056  18.400  68.219  1.00  0.00    -0.295 OA 
HETATM   18  O   UNL     1      -9.120  19.294  65.857  1.00  0.00    -0.429 OA 
HETATM   19  O   UNL     1      -9.954  20.497  67.692  1.00  0.00    -0.409 OA 
ENDBRANCH  14  15
ENDBRANCH  13  14
BRANCH  13  20
HETATM   20  C   UNL     1     -10.447  15.115  65.472  1.00  0.00    -0.379 C  
HETATM   21  O   UNL     1      -9.963  13.848  65.021  1.00  0.00    -0.563 OA 
HETATM   22  H   UNL     1      -9.791  13.877  64.087  1.00  0.00     0.000 HD 
ENDBRANCH  13  20
ENDBRANCH  12  13
ENDBRANCH   8  12
TORSDOF 5
ENDMDL
MODEL       44
REMARK 921   NORMALIZED FREE ENERGY PREDICTED BY IDOCK:   -5.10 KCAL/MOL
REMARK 922        TOTAL FREE ENERGY PREDICTED BY IDOCK:   -7.53 KCAL/MOL
REMARK 923 INTER-LIGAND FREE ENERGY PREDICTED BY IDOCK:   -7.31 KCAL/MOL
REMARK 924 INTRA-LIGAND FREE ENERGY PREDICTED BY IDOCK:   -0.22 KCAL/MOL
REMARK 927      BINDING AFFINITY PREDICTED BY RF-SCORE:    0.00 PKD
ROOT
HETATM    1  N   UNL     1     -12.800  11.558  62.836  1.00  0.00    -0.772 NA 
HETATM    2  H1  UNL     1     -12.443  10.605  62.905  1.00  0.00     0.000 HD 
HETATM    3  C   UNL     1     -12.080  12.529  63.461  1.00  0.00    -0.562 C  
HETATM    4  H2  UNL     1     -13.655  11.773  62.322  1.00  0.00     0.000 HD 
HETATM    5  N   UNL     1     -12.536  13.741  63.372  1.00  0.00    -1.072 N  
HETATM    6  C   UNL     1     -11.905  14.763  64.039  1.00  0.00    -0.071 C  
HETATM    7  H   UNL     1     -13.363  13.935  62.807  1.00  0.00     0.000 HD 
HETATM    8  N   UNL     1     -10.816  14.443  64.855  1.00  0.00    -0.399 N  
HETATM    9  O   UNL     1     -12.299  15.925  63.947  1.00  0.00    -0.776 OA 
HETATM   10  C   UNL     1     -10.859  12.178  64.207  1.00  0.00    -0.388 C  
HETATM   11  C   UNL     1     -10.294  13.174  64.898  1.00  0.00    -0.334 C  
ENDROOT
BRANCH   8  12
HETATM   12  C   UNL     1     -10.362  15.439  65.812  1.00  0.00    -0.361 C  
BRANCH  12  13
HETATM   13  C   UNL     1     -10.094  14.943  67.249  1.00  0.00    -0.235 C  
BRANCH  13  14
HETATM   14  O   UNL     1     -10.210  16.051  68.200  1.00  0.00    -0.234 OA 
BRANCH  14  15
HETATM   15  C   UNL     1     -11.516  16.042  68.805  1.00  0.00    -0.375 C  
HETATM   16  P   UNL     1     -11.799  14.575  69.863  1.00  0.00    -0.354 P  
HETATM   17  O   UNL     1     -10.543  15.137  70.773  1.00  0.00    -0.179 OA 
HETATM   18  O   UNL     1     -13.037  15.446  70.511  1.00  0.00    -0.385 OA 
HETATM   19  O   UNL     1     -12.039  13.335  70.758  1.00  0.00    -0.341 OA 
ENDBRANCH  14  15
ENDBRANCH  13  14
BRANCH  13  20
HETATM   20  C   UNL     1      -8.688  14.337  67.380  1.00  0.00    -0.209 C  
HETATM   21  O   UNL     1      -8.647  13.416  68.473  1.00  0.00    -0.264 OA 
HETATM   22  H   UNL     1      -7.778  13.042  68.554  1.00  0.00     0.000 HD 
ENDBRANCH  13  20
ENDBRANCH  12  13
ENDBRANCH   8  12
TORSDOF 5
ENDMDL
MODEL       45
REMARK 921   NORMALIZED FREE ENERGY PREDICTED BY IDOCK:   -5.09 KCAL/MOL
REMARK 922        TOTAL FREE ENERGY PREDICTED BY IDOCK:   -7.52 KCAL/MOL
REMARK 923 INTER-LIGAND FREE ENERGY PREDICTED BY IDOCK:   -6.94 KCAL/MOL
REMARK 924 INTRA-LIGAND FREE ENERGY PREDICTED BY IDOCK:   -0.58 KCAL/MOL
REMARK 927      BINDING AFFINITY PREDICTED BY RF-SCORE:    0.00 PKD
ROOT
HETATM    1  N   UNL     1     -14.271  12.943  72.801  1.00  0.00    -0.519 NA 
HETATM    2  H1  UNL     1     -14.604  13.829  73.183  1.00  0.00     0.000 HD 
HETATM    3  C   UNL     1     -13.327  13.015  71.823  1.00  0.00    -0.378 C  
HETATM    4  H2  UNL     1     -14.627  12.048  73.137  1.00  0.00     0.000 HD 
HETATM    5  N   UNL     1     -12.903  11.888  71.339  1.00  0.00    -0.364 N  
HETATM    6  C   UNL     1     -12.006  11.881  70.299  1.00  0.00    -0.330 C  
HETATM    7  H   UNL     1     -13.236  11.007  71.731  1.00  0.00     0.000 HD 
HETATM    8  N   UNL     1     -11.628  13.109  69.749  1.00  0.00    -0.256 N  
HETATM    9  O   UNL     1     -11.566  10.827  69.842  1.00  0.00    -0.274 OA 
HETATM   10  C   UNL     1     -12.849  14.327  71.353  1.00  0.00    -0.415 C  
HETATM   11  C   UNL     1     -12.023  14.301  70.302  1.00  0.00    -0.329 C  
ENDROOT
BRANCH   8  12
HETATM   12  C   UNL     1     -10.960  13.103  68.457  1.00  0.00    -0.263 C  
BRANCH  12  13
HETATM   13  C   UNL     1     -10.301  14.428  68.015  1.00  0.00    -0.227 C  
BRANCH  13  14
HETATM   14  O   UNL     1     -10.794  14.826  66.695  1.00  0.00    -0.307 OA 
BRANCH  14  15
HETATM   15  C   UNL     1     -11.931  14.022  66.334  1.00  0.00    -0.438 C  
HETATM   16  P   UNL     1     -12.283  14.053  64.538  1.00  0.00    -0.364 P  
HETATM   17  O   UNL     1     -10.788  13.380  64.354  1.00  0.00    -0.384 OA 
HETATM   18  O   UNL     1     -13.175  12.698  64.824  1.00  0.00    -0.846 OA 
HETATM   19  O   UNL     1     -12.582  14.078  63.019  1.00  0.00    -0.643 OA 
ENDBRANCH  14  15
ENDBRANCH  13  14
BRANCH  13  20
HETATM   20  C   UNL     1      -8.771  14.296  67.942  1.00  0.00    -0.178 C  
HETATM   21  O   UNL     1      -8.375  13.858  66.640  1.00  0.00    -0.424 OA 
HETATM   22  H   UNL     1      -7.430  13.777  66.595  1.00  0.00     0.000 HD 
ENDBRANCH  13  20
ENDBRANCH  12  13
ENDBRANCH   8  12
TORSDOF 5
ENDMDL
MODEL       46
REMARK 921   NORMALIZED FREE ENERGY PREDICTED BY IDOCK:   -5.08 KCAL/MOL
REMARK 922        TOTAL FREE ENERGY PREDICTED BY IDOCK:   -7.51 KCAL/MOL
REMARK 923 INTER-LIGAND FREE ENERGY PREDICTED BY IDOCK:   -6.59 KCAL/MOL
REMARK 924 INTRA-LIGAND FREE ENERGY PREDICTED BY IDOCK:   -0.92 KCAL/MOL
REMARK 927      BINDING AFFINITY PREDICTED BY RF-SCORE:    0.00 PKD
ROOT
HETATM    1  N   UNL     1      -9.918  19.145  68.689  1.00  0.00    -0.402 NA 
HETATM    2  H1  UNL     1      -9.916  19.178  69.708  1.00  0.00     0.000 HD 
HETATM    3  C   UNL     1     -10.311  17.974  68.116  1.00  0.00    -0.388 C  
HETATM    4  H2  UNL     1      -9.640  19.949  68.126  1.00  0.00     0.000 HD 
HETATM    5  N   UNL     1     -10.315  17.933  66.818  1.00  0.00    -0.357 N  
HETATM    6  C   UNL     1     -10.628  16.764  66.169  1.00  0.00    -0.210 C  
HETATM    7  H   UNL     1     -10.085  18.769  66.281  1.00  0.00     0.000 HD 
HETATM    8  N   UNL     1     -10.870  15.626  66.943  1.00  0.00    -0.308 N  
HETATM    9  O   UNL     1     -10.667  16.707  64.941  1.00  0.00    -0.710 OA 
HETATM   10  C   UNL     1     -10.689  16.828  68.961  1.00  0.00    -0.331 C  
HETATM   11  C   UNL     1     -10.932  15.684  68.313  1.00  0.00    -0.315 C  
ENDROOT
BRANCH   8  12
HETATM   12  C   UNL     1     -10.867  14.333  66.278  1.00  0.00    -0.310 C  
BRANCH  12  13
HETATM   13  C   UNL     1     -12.243  13.670  66.053  1.00  0.00    -0.449 C  
BRANCH  13  14
HETATM   14  O   UNL     1     -12.079  12.243  65.763  1.00  0.00    -0.587 OA 
BRANCH  14  15
HETATM   15  C   UNL     1     -10.732  11.835  66.061  1.00  0.00    -0.279 C  
HETATM   16  P   UNL     1     -10.025  10.727  64.786  1.00  0.00    -0.357 P  
HETATM   17  O   UNL     1     -10.223  11.994  63.747  1.00  0.00    -0.357 OA 
HETATM   18  O   UNL     1      -8.567  11.119  65.443  1.00  0.00    -0.129 OA 
HETATM   19  O   UNL     1      -9.427   9.792  63.708  1.00  0.00    -0.223 OA 
ENDBRANCH  14  15
ENDBRANCH  13  14
BRANCH  13  20
HETATM   20  C   UNL     1     -12.993  14.320  64.879  1.00  0.00     0.065 C  
HETATM   21  O   UNL     1     -12.232  14.191  63.676  1.00  0.00    -0.936 OA 
HETATM   22  H   UNL     1     -12.696  14.593  62.950  1.00  0.00     0.000 HD 
ENDBRANCH  13  20
ENDBRANCH  12  13
ENDBRANCH   8  12
TORSDOF 5
ENDMDL
MODEL       47
REMARK 921   NORMALIZED FREE ENERGY PREDICTED BY IDOCK:   -5.05 KCAL/MOL
REMARK 922        TOTAL FREE ENERGY PREDICTED BY IDOCK:   -7.46 KCAL/MOL
REMARK 923 INTER-LIGAND FREE ENERGY PREDICTED BY IDOCK:   -7.02 KCAL/MOL
REMARK 924 INTRA-LIGAND FREE ENERGY PREDICTED BY IDOCK:   -0.45 KCAL/MOL
REMARK 927      BINDING AFFINITY PREDICTED BY RF-SCORE:    0.00 PKD
ROOT
HETATM    1  N   UNL     1      -7.965  20.859  67.003  1.00  0.00    -0.579 NA 
HETATM    2  H1  UNL     1      -7.672  21.417  67.805  1.00  0.00     0.000 HD 
HETATM    3  C   UNL     1      -8.866  19.867  67.243  1.00  0.00    -0.334 C  
HETATM    4  H2  UNL     1      -7.602  21.037  66.066  1.00  0.00     0.000 HD 
HETATM    5  N   UNL     1      -9.240  19.159  66.222  1.00  0.00    -0.338 N  
HETATM    6  C   UNL     1     -10.089  18.094  66.397  1.00  0.00    -0.389 C  
HETATM    7  H   UNL     1      -8.903  19.394  65.288  1.00  0.00     0.000 HD 
HETATM    8  N   UNL     1     -10.472  17.767  67.701  1.00  0.00    -0.378 N  
HETATM    9  O   UNL     1     -10.481  17.425  65.442  1.00  0.00    -0.648 OA 
HETATM   10  C   UNL     1      -9.355  19.630  68.613  1.00  0.00    -0.386 C  
HETATM   11  C   UNL     1     -10.132  18.553  68.773  1.00  0.00    -0.356 C  
ENDROOT
BRANCH   8  12
HETATM   12  C   UNL     1     -11.081  16.466  67.929  1.00  0.00    -0.249 C  
BRANCH  12  13
HETATM   13  C   UNL     1     -10.470  15.607  69.057  1.00  0.00    -0.229 C  
BRANCH  13  14
HETATM   14  O   UNL     1      -9.917  14.366  68.508  1.00  0.00    -0.226 OA 
BRANCH  14  15
HETATM   15  C   UNL     1     -10.850  13.287  68.704  1.00  0.00    -0.259 C  
HETATM   16  P   UNL     1     -11.686  12.780  67.156  1.00  0.00    -0.308 P  
HETATM   17  O   UNL     1     -10.179  12.392  66.609  1.00  0.00    -0.220 OA 
HETATM   18  O   UNL     1     -12.062  11.398  67.968  1.00  0.00    -0.629 OA 
HETATM   19  O   UNL     1     -12.393  12.351  65.848  1.00  0.00    -0.638 OA 
ENDBRANCH  14  15
ENDBRANCH  13  14
BRANCH  13  20
HETATM   20  C   UNL     1     -11.521  15.243  70.117  1.00  0.00    -0.292 C  
HETATM   21  O   UNL     1     -11.690  16.325  71.035  1.00  0.00    -0.556 OA 
HETATM   22  H   UNL     1     -12.340  16.100  71.691  1.00  0.00     0.000 HD 
ENDBRANCH  13  20
ENDBRANCH  12  13
ENDBRANCH   8  12
TORSDOF 5
ENDMDL
MODEL       48
REMARK 921   NORMALIZED FREE ENERGY PREDICTED BY IDOCK:   -5.04 KCAL/MOL
REMARK 922        TOTAL FREE ENERGY PREDICTED BY IDOCK:   -7.45 KCAL/MOL
REMARK 923 INTER-LIGAND FREE ENERGY PREDICTED BY IDOCK:   -7.27 KCAL/MOL
REMARK 924 INTRA-LIGAND FREE ENERGY PREDICTED BY IDOCK:   -0.18 KCAL/MOL
REMARK 927      BINDING AFFINITY PREDICTED BY RF-SCORE:    0.00 PKD
ROOT
HETATM    1  N   UNL     1     -11.491  16.571  63.949  1.00  0.00    -1.599 NA 
HETATM    2  H1  UNL     1     -10.794  17.255  64.244  1.00  0.00     0.000 HD 
HETATM    3  C   UNL     1     -11.425  15.340  64.527  1.00  0.00    -0.315 C  
HETATM    4  H2  UNL     1     -12.203  16.798  63.254  1.00  0.00     0.000 HD 
HETATM    5  N   UNL     1     -12.312  14.471  64.152  1.00  0.00    -0.858 N  
HETATM    6  C   UNL     1     -12.264  13.187  64.636  1.00  0.00    -0.414 C  
HETATM    7  H   UNL     1     -13.046  14.742  63.496  1.00  0.00     0.000 HD 
HETATM    8  N   UNL     1     -11.204  12.841  65.478  1.00  0.00    -0.287 N  
HETATM    9  O   UNL     1     -13.111  12.352  64.318  1.00  0.00    -0.756 OA 
HETATM   10  C   UNL     1     -10.372  15.044  65.514  1.00  0.00    -0.397 C  
HETATM   11  C   UNL     1     -10.305  13.774  65.928  1.00  0.00    -0.309 C  
ENDROOT
BRANCH   8  12
HETATM   12  C   UNL     1     -10.955  11.428  65.719  1.00  0.00    -0.194 C  
BRANCH  12  13
HETATM   13  C   UNL     1      -9.973  10.727  64.755  1.00  0.00    -0.320 C  
BRANCH  13  14
HETATM   14  O   UNL     1      -8.623  10.717  65.323  1.00  0.00    -0.174 OA 
BRANCH  14  15
HETATM   15  C   UNL     1      -8.622   9.997  66.570  1.00  0.00    -0.125 C  
HETATM   16  P   UNL     1      -8.624   8.181  66.343  1.00  0.00    -0.155 P  
HETATM   17  O   UNL     1      -7.173   8.393  65.586  1.00  0.00    -0.073 OA 
HETATM   18  O   UNL     1      -8.125   8.117  67.911  1.00  0.00    -0.124 OA 
HETATM   19  O   UNL     1      -8.626   6.645  66.151  1.00  0.00    -0.135 OA 
ENDBRANCH  14  15
ENDBRANCH  13  14
BRANCH  13  20
HETATM   20  C   UNL     1      -9.920  11.438  63.394  1.00  0.00    -0.402 C  
HETATM   21  O   UNL     1     -10.491  10.607  62.381  1.00  0.00    -0.633 OA 
HETATM   22  H   UNL     1     -10.458  11.046  61.539  1.00  0.00     0.000 HD 
ENDBRANCH  13  20
ENDBRANCH  12  13
ENDBRANCH   8  12
TORSDOF 5
ENDMDL
MODEL       49
REMARK 921   NORMALIZED FREE ENERGY PREDICTED BY IDOCK:   -5.03 KCAL/MOL
REMARK 922        TOTAL FREE ENERGY PREDICTED BY IDOCK:   -7.44 KCAL/MOL
REMARK 923 INTER-LIGAND FREE ENERGY PREDICTED BY IDOCK:   -6.82 KCAL/MOL
REMARK 924 INTRA-LIGAND FREE ENERGY PREDICTED BY IDOCK:   -0.61 KCAL/MOL
REMARK 927      BINDING AFFINITY PREDICTED BY RF-SCORE:    0.00 PKD
ROOT
HETATM    1  N   UNL     1     -12.323  14.928  63.601  1.00  0.00    -1.053 NA 
HETATM    2  H1  UNL     1     -13.050  15.534  63.982  1.00  0.00     0.000 HD 
HETATM    3  C   UNL     1     -11.897  13.909  64.398  1.00  0.00    -0.429 C  
HETATM    4  H2  UNL     1     -11.934  15.078  62.670  1.00  0.00     0.000 HD 
HETATM    5  N   UNL     1     -10.973  13.138  63.913  1.00  0.00    -0.541 N  
HETATM    6  C   UNL     1     -10.440  12.134  64.685  1.00  0.00    -0.299 C  
HETATM    7  H   UNL     1     -10.640  13.277  62.959  1.00  0.00     0.000 HD 
HETATM    8  N   UNL     1     -10.876  12.021  66.008  1.00  0.00    -0.278 N  
HETATM    9  O   UNL     1      -9.584  11.371  64.239  1.00  0.00    -0.229 OA 
HETATM   10  C   UNL     1     -12.471  13.734  65.743  1.00  0.00    -0.527 C  
HETATM   11  C   UNL     1     -11.899  12.792  66.500  1.00  0.00    -0.405 C  
ENDROOT
BRANCH   8  12
HETATM   12  C   UNL     1     -10.093  11.201  66.919  1.00  0.00    -0.214 C  
BRANCH  12  13
HETATM   13  C   UNL     1     -10.707   9.844  67.327  1.00  0.00    -0.238 C  
BRANCH  13  14
HETATM   14  O   UNL     1     -10.758   9.727  68.786  1.00  0.00    -0.216 OA 
BRANCH  14  15
HETATM   15  C   UNL     1     -11.401  10.886  69.348  1.00  0.00    -0.280 C  
HETATM   16  P   UNL     1     -12.515  10.475  70.742  1.00  0.00    -0.414 P  
HETATM   17  O   UNL     1     -11.162   9.913  71.501  1.00  0.00    -0.322 OA 
HETATM   18  O   UNL     1     -12.414  12.075  71.120  1.00  0.00    -0.348 OA 
HETATM   19  O   UNL     1     -13.456  10.129  71.921  1.00  0.00    -0.385 OA 
ENDBRANCH  14  15
ENDBRANCH  13  14
BRANCH  13  20
HETATM   20  C   UNL     1      -9.887   8.668  66.774  1.00  0.00    -0.253 C  
HETATM   21  O   UNL     1      -9.814   8.744  65.349  1.00  0.00    -0.394 OA 
HETATM   22  H   UNL     1      -9.307   8.017  65.007  1.00  0.00     0.000 HD 
ENDBRANCH  13  20
ENDBRANCH  12  13
ENDBRANCH   8  12
TORSDOF 5
ENDMDL
MODEL       50
REMARK 921   NORMALIZED FREE ENERGY PREDICTED BY IDOCK:   -5.00 KCAL/MOL
REMARK 922        TOTAL FREE ENERGY PREDICTED BY IDOCK:   -7.40 KCAL/MOL
REMARK 923 INTER-LIGAND FREE ENERGY PREDICTED BY IDOCK:   -6.89 KCAL/MOL
REMARK 924 INTRA-LIGAND FREE ENERGY PREDICTED BY IDOCK:   -0.50 KCAL/MOL
REMARK 927      BINDING AFFINITY PREDICTED BY RF-SCORE:    0.00 PKD
ROOT
HETATM    1  N   UNL     1      -8.880   8.505  65.115  1.00  0.00    -0.382 NA 
HETATM    2  H1  UNL     1      -8.685   8.010  65.986  1.00  0.00     0.000 HD 
HETATM    3  C   UNL     1      -9.523   9.700  65.222  1.00  0.00    -0.275 C  
HETATM    4  H2  UNL     1      -8.606   8.124  64.210  1.00  0.00     0.000 HD 
HETATM    5  N   UNL     1      -9.771  10.330  64.114  1.00  0.00    -0.310 N  
HETATM    6  C   UNL     1     -10.481  11.505  64.135  1.00  0.00    -0.353 C  
HETATM    7  H   UNL     1      -9.437   9.951  63.227  1.00  0.00     0.000 HD 
HETATM    8  N   UNL     1     -10.976  11.952  65.363  1.00  0.00    -0.296 N  
HETATM    9  O   UNL     1     -10.703  12.135  63.102  1.00  0.00    -0.375 OA 
HETATM   10  C   UNL     1      -9.918  10.211  66.546  1.00  0.00    -0.283 C  
HETATM   11  C   UNL     1     -10.660  11.323  66.541  1.00  0.00    -0.266 C  
ENDROOT
BRANCH   8  12
HETATM   12  C   UNL     1     -11.996  12.988  65.353  1.00  0.00    -0.414 C  
BRANCH  12  13
HETATM   13  C   UNL     1     -11.497  14.446  65.245  1.00  0.00    -0.350 C  
BRANCH  13  14
HETATM   14  O   UNL     1     -11.745  15.163  66.498  1.00  0.00    -0.202 OA 
BRANCH  14  15
HETATM   15  C   UNL     1     -10.513  15.316  67.226  1.00  0.00    -0.275 C  
HETATM   16  P   UNL     1      -9.340  16.457  66.405  1.00  0.00    -0.334 P  
HETATM   17  O   UNL     1     -10.498  17.612  66.619  1.00  0.00    -0.335 OA 
HETATM   18  O   UNL     1      -8.589  16.527  67.869  1.00  0.00    -0.179 OA 
HETATM   19  O   UNL     1      -8.348  17.422  65.712  1.00  0.00    -0.538 OA 
ENDBRANCH  14  15
ENDBRANCH  13  14
BRANCH  13  20
HETATM   20  C   UNL     1     -12.206  15.198  64.108  1.00  0.00    -0.161 C  
HETATM   21  O   UNL     1     -11.548  16.441  63.853  1.00  0.00    -1.564 OA 
HETATM   22  H   UNL     1     -11.986  16.906  63.150  1.00  0.00     0.000 HD 
ENDBRANCH  13  20
ENDBRANCH  12  13
ENDBRANCH   8  12
TORSDOF 5
ENDMDL
MODEL       51
REMARK 921   NORMALIZED FREE ENERGY PREDICTED BY IDOCK:   -4.99 KCAL/MOL
REMARK 922        TOTAL FREE ENERGY PREDICTED BY IDOCK:   -7.39 KCAL/MOL
REMARK 923 INTER-LIGAND FREE ENERGY PREDICTED BY IDOCK:   -6.87 KCAL/MOL
REMARK 924 INTRA-LIGAND FREE ENERGY PREDICTED BY IDOCK:   -0.51 KCAL/MOL
REMARK 927      BINDING AFFINITY PREDICTED BY RF-SCORE:    0.00 PKD
ROOT
HETATM    1  N   UNL     1     -11.852  11.039  70.751  1.00  0.00    -0.340 NA 
HETATM    2  H1  UNL     1     -11.956  11.470  71.671  1.00  0.00     0.000 HD 
HETATM    3  C   UNL     1     -11.805  11.882  69.683  1.00  0.00    -0.337 C  
HETATM    4  H2  UNL     1     -11.787  10.028  70.638  1.00  0.00     0.000 HD 
HETATM    5  N   UNL     1     -11.672  11.334  68.514  1.00  0.00    -0.312 N  
HETATM    6  C   UNL     1     -11.690  12.114  67.383  1.00  0.00    -0.304 C  
HETATM    7  H   UNL     1     -11.554  10.324  68.435  1.00  0.00     0.000 HD 
HETATM    8  N   UNL     1     -11.921  13.484  67.534  1.00  0.00    -0.362 N  
HETATM    9  O   UNL     1     -11.537  11.622  66.266  1.00  0.00    -0.420 OA 
HETATM   10  C   UNL     1     -11.919  13.337  69.885  1.00  0.00    -0.400 C  
HETATM   11  C   UNL     1     -11.996  14.073  68.771  1.00  0.00    -0.347 C  
ENDROOT
BRANCH   8  12
HETATM   12  C   UNL     1     -12.276  14.251  66.350  1.00  0.00    -0.401 C  
BRANCH  12  13
HETATM   13  C   UNL     1     -11.122  14.984  65.632  1.00  0.00    -0.349 C  
BRANCH  13  14
HETATM   14  O   UNL     1     -10.906  16.303  66.229  1.00  0.00    -0.231 OA 
BRANCH  14  15
HETATM   15  C   UNL     1      -9.602  16.359  66.835  1.00  0.00    -0.244 C  
HETATM   16  P   UNL     1      -9.362  17.850  67.869  1.00  0.00    -0.285 P  
HETATM   17  O   UNL     1     -10.602  17.268  68.788  1.00  0.00    -0.338 OA 
HETATM   18  O   UNL     1      -8.100  17.025  68.532  1.00  0.00    -0.231 OA 
HETATM   19  O   UNL     1      -9.157  19.111  68.744  1.00  0.00    -0.363 OA 
ENDBRANCH  14  15
ENDBRANCH  13  14
BRANCH  13  20
HETATM   20  C   UNL     1     -11.422  15.172  64.136  1.00  0.00     0.006 C  
HETATM   21  O   UNL     1     -11.511  16.563  63.822  1.00  0.00    -1.615 OA 
HETATM   22  H   UNL     1     -11.697  16.679  62.897  1.00  0.00     0.000 HD 
ENDBRANCH  13  20
ENDBRANCH  12  13
ENDBRANCH   8  12
TORSDOF 5
ENDMDL
MODEL       52
REMARK 921   NORMALIZED FREE ENERGY PREDICTED BY IDOCK:   -4.98 KCAL/MOL
REMARK 922        TOTAL FREE ENERGY PREDICTED BY IDOCK:   -7.37 KCAL/MOL
REMARK 923 INTER-LIGAND FREE ENERGY PREDICTED BY IDOCK:   -6.67 KCAL/MOL
REMARK 924 INTRA-LIGAND FREE ENERGY PREDICTED BY IDOCK:   -0.70 KCAL/MOL
REMARK 927      BINDING AFFINITY PREDICTED BY RF-SCORE:    0.00 PKD
ROOT
HETATM    1  N   UNL     1     -13.506  10.200  72.306  1.00  0.00    -0.587 NA 
HETATM    2  H1  UNL     1     -13.789  10.656  73.174  1.00  0.00     0.000 HD 
HETATM    3  C   UNL     1     -12.929  10.990  71.360  1.00  0.00    -0.414 C  
HETATM    4  H2  UNL     1     -13.649   9.201  72.155  1.00  0.00     0.000 HD 
HETATM    5  N   UNL     1     -12.569  10.410  70.256  1.00  0.00    -0.502 N  
HETATM    6  C   UNL     1     -12.048  11.154  69.226  1.00  0.00    -0.308 C  
HETATM    7  H   UNL     1     -12.674   9.400  70.153  1.00  0.00     0.000 HD 
HETATM    8  N   UNL     1     -11.984  12.541  69.384  1.00  0.00    -0.286 N  
HETATM    9  O   UNL     1     -11.673  10.624  68.181  1.00  0.00    -0.474 OA 
HETATM   10  C   UNL     1     -12.754  12.432  71.608  1.00  0.00    -0.299 C  
HETATM   11  C   UNL     1     -12.302  13.148  70.573  1.00  0.00    -0.304 C  
ENDROOT
BRANCH   8  12
HETATM   12  C   UNL     1     -11.758  13.355  68.200  1.00  0.00    -0.362 C  
BRANCH  12  13
HETATM   13  C   UNL     1     -10.308  13.825  67.952  1.00  0.00    -0.244 C  
BRANCH  13  14
HETATM   14  O   UNL     1     -10.241  15.288  67.949  1.00  0.00    -0.232 OA 
BRANCH  14  15
HETATM   15  C   UNL     1     -10.878  15.804  66.765  1.00  0.00    -0.254 C  
HETATM   16  P   UNL     1     -10.247  17.452  66.280  1.00  0.00    -0.242 P  
HETATM   17  O   UNL     1      -8.787  16.707  66.094  1.00  0.00    -0.334 OA 
HETATM   18  O   UNL     1     -10.923  17.132  64.813  1.00  0.00    -0.898 OA 
HETATM   19  O   UNL     1      -9.713  18.846  65.868  1.00  0.00    -0.474 OA 
ENDBRANCH  14  15
ENDBRANCH  13  14
BRANCH  13  20
HETATM   20  C   UNL     1      -9.775  13.311  66.605  1.00  0.00    -0.270 C  
HETATM   21  O   UNL     1      -9.284  11.976  66.745  1.00  0.00    -0.190 OA 
HETATM   22  H   UNL     1      -8.954  11.659  65.913  1.00  0.00     0.000 HD 
ENDBRANCH  13  20
ENDBRANCH  12  13
ENDBRANCH   8  12
TORSDOF 5
ENDMDL
MODEL       53
REMARK 921   NORMALIZED FREE ENERGY PREDICTED BY IDOCK:   -4.98 KCAL/MOL
REMARK 922        TOTAL FREE ENERGY PREDICTED BY IDOCK:   -7.37 KCAL/MOL
REMARK 923 INTER-LIGAND FREE ENERGY PREDICTED BY IDOCK:   -6.94 KCAL/MOL
REMARK 924 INTRA-LIGAND FREE ENERGY PREDICTED BY IDOCK:   -0.43 KCAL/MOL
REMARK 927      BINDING AFFINITY PREDICTED BY RF-SCORE:    0.00 PKD
ROOT
HETATM    1  N   UNL     1      -9.016   7.741  67.789  1.00  0.00    -0.128 NA 
HETATM    2  H1  UNL     1      -8.374   7.244  67.171  1.00  0.00     0.000 HD 
HETATM    3  C   UNL     1      -9.678   8.804  67.256  1.00  0.00    -0.183 C  
HETATM    4  H2  UNL     1      -9.155   7.455  68.758  1.00  0.00     0.000 HD 
HETATM    5  N   UNL     1     -10.495   9.436  68.042  1.00  0.00    -0.220 N  
HETATM    6  C   UNL     1     -11.143  10.563  67.598  1.00  0.00    -0.309 C  
HETATM    7  H   UNL     1     -10.656   9.095  68.990  1.00  0.00     0.000 HD 
HETATM    8  N   UNL     1     -10.843  11.032  66.317  1.00  0.00    -0.216 N  
HETATM    9  O   UNL     1     -11.944  11.162  68.314  1.00  0.00    -0.592 OA 
HETATM   10  C   UNL     1      -9.439   9.197  65.856  1.00  0.00    -0.326 C  
HETATM   11  C   UNL     1     -10.031  10.330  65.462  1.00  0.00    -0.296 C  
ENDROOT
BRANCH   8  12
HETATM   12  C   UNL     1     -11.253  12.383  65.969  1.00  0.00    -0.335 C  
BRANCH  12  13
HETATM   13  C   UNL     1     -11.153  12.772  64.478  1.00  0.00    -0.330 C  
BRANCH  13  14
HETATM   14  O   UNL     1     -10.937  14.215  64.342  1.00  0.00    -0.347 OA 
BRANCH  14  15
HETATM   15  C   UNL     1     -11.041  14.849  65.630  1.00  0.00    -0.348 C  
HETATM   16  P   UNL     1     -10.067  16.394  65.743  1.00  0.00    -0.226 P  
HETATM   17  O   UNL     1     -11.042  16.957  64.537  1.00  0.00    -1.054 OA 
HETATM   18  O   UNL     1     -11.004  16.734  67.053  1.00  0.00    -0.136 OA 
HETATM   19  O   UNL     1      -9.243  17.701  65.839  1.00  0.00    -0.517 OA 
ENDBRANCH  14  15
ENDBRANCH  13  14
BRANCH  13  20
HETATM   20  C   UNL     1     -12.434  12.400  63.715  1.00  0.00    -0.492 C  
HETATM   21  O   UNL     1     -12.187  11.291  62.848  1.00  0.00    -0.884 OA 
HETATM   22  H   UNL     1     -12.980  11.061  62.376  1.00  0.00     0.000 HD 
ENDBRANCH  13  20
ENDBRANCH  12  13
ENDBRANCH   8  12
TORSDOF 5
ENDMDL
MODEL       54
REMARK 921   NORMALIZED FREE ENERGY PREDICTED BY IDOCK:   -4.97 KCAL/MOL
REMARK 922        TOTAL FREE ENERGY PREDICTED BY IDOCK:   -7.37 KCAL/MOL
REMARK 923 INTER-LIGAND FREE ENERGY PREDICTED BY IDOCK:   -7.16 KCAL/MOL
REMARK 924 INTRA-LIGAND FREE ENERGY PREDICTED BY IDOCK:   -0.21 KCAL/MOL
REMARK 927      BINDING AFFINITY PREDICTED BY RF-SCORE:    0.00 PKD
ROOT
HETATM    1  N   UNL     1     -12.862  15.624  70.811  1.00  0.00    -0.482 NA 
HETATM    2  H1  UNL     1     -12.453  16.098  71.617  1.00  0.00     0.000 HD 
HETATM    3  C   UNL     1     -12.015  15.304  69.795  1.00  0.00    -0.347 C  
HETATM    4  H2  UNL     1     -13.857  15.402  70.769  1.00  0.00     0.000 HD 
HETATM    5  N   UNL     1     -12.536  14.701  68.770  1.00  0.00    -0.567 N  
HETATM    6  C   UNL     1     -11.759  14.412  67.675  1.00  0.00    -0.391 C  
HETATM    7  H   UNL     1     -13.522  14.442  68.778  1.00  0.00     0.000 HD 
HETATM    8  N   UNL     1     -10.430  14.845  67.679  1.00  0.00    -0.246 N  
HETATM    9  O   UNL     1     -12.221  13.816  66.704  1.00  0.00    -0.426 OA 
HETATM   10  C   UNL     1     -10.587  15.657  69.885  1.00  0.00    -0.328 C  
HETATM   11  C   UNL     1      -9.862  15.422  68.786  1.00  0.00    -0.211 C  
ENDROOT
BRANCH   8  12
HETATM   12  C   UNL     1      -9.708  14.848  66.417  1.00  0.00    -0.285 C  
BRANCH  12  13
HETATM   13  C   UNL     1      -9.540  16.216  65.722  1.00  0.00    -0.257 C  
BRANCH  13  14
HETATM   14  O   UNL     1      -8.787  17.134  66.580  1.00  0.00    -0.236 OA 
BRANCH  14  15
HETATM   15  C   UNL     1      -9.324  18.464  66.464  1.00  0.00    -0.309 C  
HETATM   16  P   UNL     1      -9.757  19.199  68.083  1.00  0.00    -0.414 P  
HETATM   17  O   UNL     1      -8.154  19.056  68.444  1.00  0.00    -0.318 OA 
HETATM   18  O   UNL     1      -9.745  20.639  67.283  1.00  0.00    -0.465 OA 
HETATM   19  O   UNL     1     -10.124  19.822  69.451  1.00  0.00    -0.387 OA 
ENDBRANCH  14  15
ENDBRANCH  13  14
BRANCH  13  20
HETATM   20  C   UNL     1     -10.902  16.855  65.406  1.00  0.00    -0.106 C  
HETATM   21  O   UNL     1     -11.315  16.508  64.082  1.00  0.00    -1.381 OA 
HETATM   22  H   UNL     1     -12.157  16.903  63.887  1.00  0.00     0.000 HD 
ENDBRANCH  13  20
ENDBRANCH  12  13
ENDBRANCH   8  12
TORSDOF 5
ENDMDL
MODEL       55
REMARK 921   NORMALIZED FREE ENERGY PREDICTED BY IDOCK:   -4.92 KCAL/MOL
REMARK 922        TOTAL FREE ENERGY PREDICTED BY IDOCK:   -7.29 KCAL/MOL
REMARK 923 INTER-LIGAND FREE ENERGY PREDICTED BY IDOCK:   -6.93 KCAL/MOL
REMARK 924 INTRA-LIGAND FREE ENERGY PREDICTED BY IDOCK:   -0.36 KCAL/MOL
REMARK 927      BINDING AFFINITY PREDICTED BY RF-SCORE:    0.00 PKD
ROOT
HETATM    1  N   UNL     1     -10.664  11.141  63.112  1.00  0.00    -0.804 NA 
HETATM    2  H1  UNL     1     -10.791  11.534  62.179  1.00  0.00     0.000 HD 
HETATM    3  C   UNL     1     -11.179  11.853  64.151  1.00  0.00    -0.376 C  
HETATM    4  H2  UNL     1     -10.175  10.258  63.259  1.00  0.00     0.000 HD 
HETATM    5  N   UNL     1     -11.018  11.353  65.337  1.00  0.00    -0.229 N  
HETATM    6  C   UNL     1     -11.445  12.050  66.441  1.00  0.00    -0.353 C  
HETATM    7  H   UNL     1     -10.573  10.442  65.451  1.00  0.00     0.000 HD 
HETATM    8  N   UNL     1     -11.988  13.323  66.245  1.00  0.00    -0.403 N  
HETATM    9  O   UNL     1     -11.330  11.585  67.574  1.00  0.00    -0.280 OA 
HETATM   10  C   UNL     1     -11.865  13.133  63.901  1.00  0.00    -0.533 C  
HETATM   11  C   UNL     1     -12.219  13.824  64.989  1.00  0.00    -0.424 C  
ENDROOT
BRANCH   8  12
HETATM   12  C   UNL     1     -12.127  14.193  67.403  1.00  0.00    -0.344 C  
BRANCH  12  13
HETATM   13  C   UNL     1     -10.823  14.788  67.978  1.00  0.00    -0.260 C  
BRANCH  13  14
HETATM   14  O   UNL     1     -10.938  14.958  69.429  1.00  0.00    -0.252 OA 
BRANCH  14  15
HETATM   15  C   UNL     1     -12.326  15.026  69.805  1.00  0.00    -0.240 C  
HETATM   16  P   UNL     1     -12.579  14.903  71.614  1.00  0.00    -0.390 P  
HETATM   17  O   UNL     1     -11.696  16.293  71.712  1.00  0.00    -0.486 OA 
HETATM   18  O   UNL     1     -14.072  15.530  71.314  1.00  0.00    -0.548 OA 
HETATM   19  O   UNL     1     -12.794  14.799  73.143  1.00  0.00    -0.463 OA 
ENDBRANCH  14  15
ENDBRANCH  13  14
BRANCH  13  20
HETATM   20  C   UNL     1     -10.508  16.156  67.353  1.00  0.00    -0.310 C  
HETATM   21  O   UNL     1      -9.783  16.967  68.281  1.00  0.00    -0.240 OA 
HETATM   22  H   UNL     1      -9.588  17.813  67.894  1.00  0.00     0.000 HD 
ENDBRANCH  13  20
ENDBRANCH  12  13
ENDBRANCH   8  12
TORSDOF 5
ENDMDL
MODEL       56
REMARK 921   NORMALIZED FREE ENERGY PREDICTED BY IDOCK:   -4.91 KCAL/MOL
REMARK 922        TOTAL FREE ENERGY PREDICTED BY IDOCK:   -7.28 KCAL/MOL
REMARK 923 INTER-LIGAND FREE ENERGY PREDICTED BY IDOCK:   -6.74 KCAL/MOL
REMARK 924 INTRA-LIGAND FREE ENERGY PREDICTED BY IDOCK:   -0.55 KCAL/MOL
REMARK 927      BINDING AFFINITY PREDICTED BY RF-SCORE:    0.00 PKD
ROOT
HETATM    1  N   UNL     1     -13.098  16.005  73.853  1.00  0.00    -0.890 NA 
HETATM    2  H1  UNL     1     -13.441  15.421  74.616  1.00  0.00     0.000 HD 
HETATM    3  C   UNL     1     -13.020  15.423  72.625  1.00  0.00    -0.422 C  
HETATM    4  H2  UNL     1     -12.829  16.977  74.002  1.00  0.00     0.000 HD 
HETATM    5  N   UNL     1     -12.585  16.166  71.654  1.00  0.00    -0.540 N  
HETATM    6  C   UNL     1     -12.408  15.629  70.402  1.00  0.00    -0.391 C  
HETATM    7  H   UNL     1     -12.374  17.151  71.820  1.00  0.00     0.000 HD 
HETATM    8  N   UNL     1     -12.645  14.262  70.235  1.00  0.00    -0.350 N  
HETATM    9  O   UNL     1     -12.025  16.319  69.459  1.00  0.00    -0.158 OA 
HETATM   10  C   UNL     1     -13.403  14.011  72.451  1.00  0.00    -0.617 C  
HETATM   11  C   UNL     1     -13.167  13.490  71.242  1.00  0.00    -0.216 C  
ENDROOT
BRANCH   8  12
HETATM   12  C   UNL     1     -12.145  13.624  69.027  1.00  0.00    -0.309 C  
BRANCH  12  13
HETATM   13  C   UNL     1     -10.678  13.145  69.057  1.00  0.00    -0.107 C  
BRANCH  13  14
HETATM   14  O   UNL     1      -9.870  13.917  68.109  1.00  0.00    -0.226 OA 
BRANCH  14  15
HETATM   15  C   UNL     1     -10.538  13.980  66.836  1.00  0.00    -0.280 C  
HETATM   16  P   UNL     1     -10.469  15.646  66.079  1.00  0.00    -0.354 P  
HETATM   17  O   UNL     1      -8.832  15.444  66.070  1.00  0.00    -0.281 OA 
HETATM   18  O   UNL     1     -10.862  14.879  64.676  1.00  0.00    -0.370 OA 
HETATM   19  O   UNL     1     -10.411  17.054  65.438  1.00  0.00    -0.619 OA 
ENDBRANCH  14  15
ENDBRANCH  13  14
BRANCH  13  20
HETATM   20  C   UNL     1     -10.566  11.657  68.688  1.00  0.00    -0.209 C  
HETATM   21  O   UNL     1      -9.353  11.109  69.209  1.00  0.00    -0.400 OA 
HETATM   22  H   UNL     1      -9.285  10.189  68.981  1.00  0.00     0.000 HD 
ENDBRANCH  13  20
ENDBRANCH  12  13
ENDBRANCH   8  12
TORSDOF 5
ENDMDL
MODEL       57
REMARK 921   NORMALIZED FREE ENERGY PREDICTED BY IDOCK:   -4.89 KCAL/MOL
REMARK 922        TOTAL FREE ENERGY PREDICTED BY IDOCK:   -7.26 KCAL/MOL
REMARK 923 INTER-LIGAND FREE ENERGY PREDICTED BY IDOCK:   -6.78 KCAL/MOL
REMARK 924 INTRA-LIGAND FREE ENERGY PREDICTED BY IDOCK:   -0.48 KCAL/MOL
REMARK 927      BINDING AFFINITY PREDICTED BY RF-SCORE:    0.00 PKD
ROOT
HETATM    1  N   UNL     1     -13.559  16.107  73.651  1.00  0.00    -0.878 NA 
HETATM    2  H1  UNL     1     -14.113  15.588  74.333  1.00  0.00     0.000 HD 
HETATM    3  C   UNL     1     -13.178  15.433  72.532  1.00  0.00    -0.447 C  
HETATM    4  H2  UNL     1     -13.303  17.083  73.801  1.00  0.00     0.000 HD 
HETATM    5  N   UNL     1     -12.474  16.093  71.665  1.00  0.00    -0.571 N  
HETATM    6  C   UNL     1     -11.990  15.460  70.546  1.00  0.00    -0.357 C  
HETATM    7  H   UNL     1     -12.279  17.083  71.814  1.00  0.00     0.000 HD 
HETATM    8  N   UNL     1     -12.224  14.088  70.415  1.00  0.00    -0.341 N  
HETATM    9  O   UNL     1     -11.346  16.070  69.695  1.00  0.00    -0.308 OA 
HETATM   10  C   UNL     1     -13.552  14.018  72.359  1.00  0.00    -0.658 C  
HETATM   11  C   UNL     1     -13.023  13.403  71.296  1.00  0.00    -0.287 C  
ENDROOT
BRANCH   8  12
HETATM   12  C   UNL     1     -11.445  13.352  69.431  1.00  0.00    -0.274 C  
BRANCH  12  13
HETATM   13  C   UNL     1     -12.152  13.022  68.099  1.00  0.00    -0.157 C  
BRANCH  13  14
HETATM   14  O   UNL     1     -11.934  11.618  67.742  1.00  0.00    -0.608 OA 
BRANCH  14  15
HETATM   15  C   UNL     1     -10.544  11.282  67.903  1.00  0.00    -0.194 C  
HETATM   16  P   UNL     1     -10.036   9.850  66.881  1.00  0.00    -0.235 P  
HETATM   17  O   UNL     1     -10.448  10.782  65.583  1.00  0.00    -0.243 OA 
HETATM   18  O   UNL     1      -8.499  10.380  67.139  1.00  0.00    -0.125 OA 
HETATM   19  O   UNL     1      -9.606   8.641  66.017  1.00  0.00    -0.236 OA 
ENDBRANCH  14  15
ENDBRANCH  13  14
BRANCH  13  20
HETATM   20  C   UNL     1     -11.626  13.900  66.953  1.00  0.00    -0.378 C  
HETATM   21  O   UNL     1     -12.602  13.989  65.912  1.00  0.00    -0.488 OA 
HETATM   22  H   UNL     1     -12.277  14.532  65.203  1.00  0.00     0.000 HD 
ENDBRANCH  13  20
ENDBRANCH  12  13
ENDBRANCH   8  12
TORSDOF 5
ENDMDL
MODEL       58
REMARK 921   NORMALIZED FREE ENERGY PREDICTED BY IDOCK:   -4.89 KCAL/MOL
REMARK 922        TOTAL FREE ENERGY PREDICTED BY IDOCK:   -7.26 KCAL/MOL
REMARK 923 INTER-LIGAND FREE ENERGY PREDICTED BY IDOCK:   -6.76 KCAL/MOL
REMARK 924 INTRA-LIGAND FREE ENERGY PREDICTED BY IDOCK:   -0.50 KCAL/MOL
REMARK 927      BINDING AFFINITY PREDICTED BY RF-SCORE:    0.00 PKD
ROOT
HETATM    1  N   UNL     1     -11.049  16.482  69.783  1.00  0.00    -0.385 NA 
HETATM    2  H1  UNL     1     -11.453  15.918  70.530  1.00  0.00     0.000 HD 
HETATM    3  C   UNL     1     -11.091  15.958  68.527  1.00  0.00    -0.340 C  
HETATM    4  H2  UNL     1     -10.633  17.395  69.967  1.00  0.00     0.000 HD 
HETATM    5  N   UNL     1     -10.577  16.677  67.577  1.00  0.00    -0.323 N  
HETATM    6  C   UNL     1     -10.517  16.183  66.297  1.00  0.00    -0.315 C  
HETATM    7  H   UNL     1     -10.217  17.610  67.781  1.00  0.00     0.000 HD 
HETATM    8  N   UNL     1     -10.959  14.876  66.075  1.00  0.00    -0.329 N  
HETATM    9  O   UNL     1     -10.061  16.856  65.374  1.00  0.00    -0.586 OA 
HETATM   10  C   UNL     1     -11.685  14.628  68.302  1.00  0.00    -0.359 C  
HETATM   11  C   UNL     1     -11.563  14.140  67.063  1.00  0.00    -0.382 C  
ENDROOT
BRANCH   8  12
HETATM   12  C   UNL     1     -10.593  14.234  64.822  1.00  0.00    -0.412 C  
BRANCH  12  13
HETATM   13  C   UNL     1     -11.143  12.809  64.592  1.00  0.00    -0.318 C  
BRANCH  13  14
HETATM   14  O   UNL     1     -10.042  11.865  64.389  1.00  0.00    -0.269 OA 
BRANCH  14  15
HETATM   15  C   UNL     1      -9.450  11.524  65.656  1.00  0.00    -0.222 C  
HETATM   16  P   UNL     1      -9.974   9.879  66.266  1.00  0.00    -0.234 P  
HETATM   17  O   UNL     1      -9.259   9.279  64.906  1.00  0.00    -0.225 OA 
HETATM   18  O   UNL     1      -8.666   9.978  67.260  1.00  0.00    -0.125 OA 
HETATM   19  O   UNL     1     -10.416   8.489  66.782  1.00  0.00    -0.303 OA 
ENDBRANCH  14  15
ENDBRANCH  13  14
BRANCH  13  20
HETATM   20  C   UNL     1     -12.062  12.755  63.361  1.00  0.00    -0.534 C  
HETATM   21  O   UNL     1     -12.482  14.073  63.001  1.00  0.00    -1.101 OA 
HETATM   22  H   UNL     1     -13.050  14.040  62.240  1.00  0.00     0.000 HD 
ENDBRANCH  13  20
ENDBRANCH  12  13
ENDBRANCH   8  12
TORSDOF 5
ENDMDL
MODEL       59
REMARK 921   NORMALIZED FREE ENERGY PREDICTED BY IDOCK:   -4.87 KCAL/MOL
REMARK 922        TOTAL FREE ENERGY PREDICTED BY IDOCK:   -7.24 KCAL/MOL
REMARK 923 INTER-LIGAND FREE ENERGY PREDICTED BY IDOCK:   -6.89 KCAL/MOL
REMARK 924 INTRA-LIGAND FREE ENERGY PREDICTED BY IDOCK:   -0.35 KCAL/MOL
REMARK 927      BINDING AFFINITY PREDICTED BY RF-SCORE:    0.00 PKD
ROOT
HETATM    1  N   UNL     1     -10.677   6.609  66.760  1.00  0.00    -0.503 NA 
HETATM    2  H1  UNL     1     -10.731   5.594  66.839  1.00  0.00     0.000 HD 
HETATM    3  C   UNL     1     -10.750   7.318  67.920  1.00  0.00    -0.172 C  
HETATM    4  H2  UNL     1     -10.572   7.071  65.857  1.00  0.00     0.000 HD 
HETATM    5  N   UNL     1     -10.679   8.610  67.820  1.00  0.00    -0.463 N  
HETATM    6  C   UNL     1     -10.820   9.395  68.938  1.00  0.00    -0.123 C  
HETATM    7  H   UNL     1     -10.520   9.043  66.910  1.00  0.00     0.000 HD 
HETATM    8  N   UNL     1     -11.104   8.765  70.152  1.00  0.00    -0.236 N  
HETATM    9  O   UNL     1     -10.728  10.620  68.873  1.00  0.00    -0.191 OA 
HETATM   10  C   UNL     1     -10.917   6.616  69.205  1.00  0.00    -0.346 C  
HETATM   11  C   UNL     1     -11.113   7.398  70.272  1.00  0.00    -0.258 C  
ENDROOT
BRANCH   8  12
HETATM   12  C   UNL     1     -11.582   9.586  71.254  1.00  0.00    -0.374 C  
BRANCH  12  13
HETATM   13  C   UNL     1     -13.082   9.952  71.239  1.00  0.00    -0.400 C  
BRANCH  13  14
HETATM   14  O   UNL     1     -13.311  11.190  71.987  1.00  0.00    -0.454 OA 
BRANCH  14  15
HETATM   15  C   UNL     1     -12.734  12.303  71.279  1.00  0.00    -0.251 C  
HETATM   16  P   UNL     1     -13.622  13.875  71.580  1.00  0.00    -0.272 P  
HETATM   17  O   UNL     1     -13.195  13.676  73.162  1.00  0.00    -0.495 OA 
HETATM   18  O   UNL     1     -12.261  14.601  71.004  1.00  0.00    -0.292 OA 
HETATM   19  O   UNL     1     -14.372  15.205  71.835  1.00  0.00    -0.500 OA 
ENDBRANCH  14  15
ENDBRANCH  13  14
BRANCH  13  20
HETATM   20  C   UNL     1     -13.937   8.840  71.869  1.00  0.00    -0.436 C  
HETATM   21  O   UNL     1     -14.193   9.134  73.244  1.00  0.00    -1.124 OA 
HETATM   22  H   UNL     1     -14.721   8.447  73.633  1.00  0.00     0.000 HD 
ENDBRANCH  13  20
ENDBRANCH  12  13
ENDBRANCH   8  12
TORSDOF 5
ENDMDL
MODEL       60
REMARK 921   NORMALIZED FREE ENERGY PREDICTED BY IDOCK:   -4.85 KCAL/MOL
REMARK 922        TOTAL FREE ENERGY PREDICTED BY IDOCK:   -7.20 KCAL/MOL
REMARK 923 INTER-LIGAND FREE ENERGY PREDICTED BY IDOCK:   -6.52 KCAL/MOL
REMARK 924 INTRA-LIGAND FREE ENERGY PREDICTED BY IDOCK:   -0.68 KCAL/MOL
REMARK 927      BINDING AFFINITY PREDICTED BY RF-SCORE:    0.00 PKD
ROOT
HETATM    1  N   UNL     1      -9.986  20.587  66.334  1.00  0.00    -0.577 NA 
HETATM    2  H1  UNL     1      -9.298  21.074  65.759  1.00  0.00     0.000 HD 
HETATM    3  C   UNL     1      -9.613  19.380  66.843  1.00  0.00    -0.339 C  
HETATM    4  H2  UNL     1     -10.907  20.984  66.520  1.00  0.00     0.000 HD 
HETATM    5  N   UNL     1     -10.487  18.761  67.576  1.00  0.00    -0.414 N  
HETATM    6  C   UNL     1     -10.212  17.507  68.063  1.00  0.00    -0.354 C  
HETATM    7  H   UNL     1     -11.380  19.206  67.790  1.00  0.00     0.000 HD 
HETATM    8  N   UNL     1      -9.006  16.908  67.691  1.00  0.00    -0.217 N  
HETATM    9  O   UNL     1     -11.012  16.912  68.784  1.00  0.00    -0.311 OA 
HETATM   10  C   UNL     1      -8.280  18.831  66.540  1.00  0.00    -0.303 C  
HETATM   11  C   UNL     1      -8.054  17.586  66.972  1.00  0.00    -0.217 C  
ENDROOT
BRANCH   8  12
HETATM   12  C   UNL     1      -8.855  15.478  67.914  1.00  0.00    -0.171 C  
BRANCH  12  13
HETATM   13  C   UNL     1      -8.888  14.578  66.660  1.00  0.00    -0.184 C  
BRANCH  13  14
HETATM   14  O   UNL     1      -9.937  15.024  65.740  1.00  0.00    -0.301 OA 
BRANCH  14  15
HETATM   15  C   UNL     1     -11.136  14.256  65.955  1.00  0.00    -0.319 C  
HETATM   16  P   UNL     1     -12.012  13.856  64.398  1.00  0.00    -0.404 P  
HETATM   17  O   UNL     1     -10.645  13.031  63.981  1.00  0.00    -0.412 OA 
HETATM   18  O   UNL     1     -12.784  12.703  65.285  1.00  0.00    -0.652 OA 
HETATM   19  O   UNL     1     -12.753  13.516  63.083  1.00  0.00    -0.718 OA 
ENDBRANCH  14  15
ENDBRANCH  13  14
BRANCH  13  20
HETATM   20  C   UNL     1      -9.160  13.111  67.030  1.00  0.00    -0.231 C  
HETATM   21  O   UNL     1      -8.556  12.240  66.071  1.00  0.00    -0.396 OA 
HETATM   22  H   UNL     1      -8.724  11.333  66.300  1.00  0.00     0.000 HD 
ENDBRANCH  13  20
ENDBRANCH  12  13
ENDBRANCH   8  12
TORSDOF 5
ENDMDL
MODEL       61
REMARK 921   NORMALIZED FREE ENERGY PREDICTED BY IDOCK:   -4.84 KCAL/MOL
REMARK 922        TOTAL FREE ENERGY PREDICTED BY IDOCK:   -7.19 KCAL/MOL
REMARK 923 INTER-LIGAND FREE ENERGY PREDICTED BY IDOCK:   -6.65 KCAL/MOL
REMARK 924 INTRA-LIGAND FREE ENERGY PREDICTED BY IDOCK:   -0.54 KCAL/MOL
REMARK 927      BINDING AFFINITY PREDICTED BY RF-SCORE:    0.00 PKD
ROOT
HETATM    1  N   UNL     1     -10.310  10.270  70.095  1.00  0.00    -0.426 NA 
HETATM    2  H1  UNL     1      -9.945   9.431  69.644  1.00  0.00     0.000 HD 
HETATM    3  C   UNL     1     -10.885  11.199  69.284  1.00  0.00    -0.229 C  
HETATM    4  H2  UNL     1     -10.248  10.405  71.104  1.00  0.00     0.000 HD 
HETATM    5  N   UNL     1     -11.351  12.266  69.858  1.00  0.00    -0.507 N  
HETATM    6  C   UNL     1     -11.879  13.281  69.098  1.00  0.00    -0.329 C  
HETATM    7  H   UNL     1     -11.325  12.351  70.874  1.00  0.00     0.000 HD 
HETATM    8  N   UNL     1     -11.834  13.152  67.707  1.00  0.00    -0.355 N  
HETATM    9  O   UNL     1     -12.353  14.289  69.619  1.00  0.00    -0.329 OA 
HETATM   10  C   UNL     1     -10.942  10.975  67.829  1.00  0.00    -0.323 C  
HETATM   11  C   UNL     1     -11.403  11.999  67.102  1.00  0.00    -0.333 C  
ENDROOT
BRANCH   8  12
HETATM   12  C   UNL     1     -12.072  14.340  66.902  1.00  0.00    -0.409 C  
BRANCH  12  13
HETATM   13  C   UNL     1     -11.333  14.414  65.548  1.00  0.00    -0.334 C  
BRANCH  13  14
HETATM   14  O   UNL     1     -10.366  15.514  65.556  1.00  0.00    -0.336 OA 
BRANCH  14  15
HETATM   15  C   UNL     1      -9.206  15.140  66.322  1.00  0.00    -0.301 C  
HETATM   16  P   UNL     1      -8.308  16.583  67.002  1.00  0.00    -0.237 P  
HETATM   17  O   UNL     1      -9.696  16.906  67.832  1.00  0.00    -0.245 OA 
HETATM   18  O   UNL     1      -7.607  15.498  68.023  1.00  0.00    -0.117 OA 
HETATM   19  O   UNL     1      -7.547  17.802  67.577  1.00  0.00    -0.200 OA 
ENDBRANCH  14  15
ENDBRANCH  13  14
BRANCH  13  20
HETATM   20  C   UNL     1     -12.314  14.640  64.386  1.00  0.00    -0.398 C  
HETATM   21  O   UNL     1     -11.993  15.851  63.698  1.00  0.00    -1.239 OA 
HETATM   22  H   UNL     1     -12.600  15.990  62.980  1.00  0.00     0.000 HD 
ENDBRANCH  13  20
ENDBRANCH  12  13
ENDBRANCH   8  12
TORSDOF 5
ENDMDL
MODEL       62
REMARK 921   NORMALIZED FREE ENERGY PREDICTED BY IDOCK:   -4.84 KCAL/MOL
REMARK 922        TOTAL FREE ENERGY PREDICTED BY IDOCK:   -7.19 KCAL/MOL
REMARK 923 INTER-LIGAND FREE ENERGY PREDICTED BY IDOCK:   -6.55 KCAL/MOL
REMARK 924 INTRA-LIGAND FREE ENERGY PREDICTED BY IDOCK:   -0.64 KCAL/MOL
REMARK 927      BINDING AFFINITY PREDICTED BY RF-SCORE:    0.00 PKD
ROOT
HETATM    1  N   UNL     1     -10.916   8.375  67.527  1.00  0.00    -0.466 NA 
HETATM    2  H1  UNL     1     -11.740   8.038  68.026  1.00  0.00     0.000 HD 
HETATM    3  C   UNL     1     -10.546   9.664  67.757  1.00  0.00    -0.264 C  
HETATM    4  H2  UNL     1     -10.396   7.775  66.887  1.00  0.00     0.000 HD 
HETATM    5  N   UNL     1      -9.498  10.092  67.122  1.00  0.00    -0.152 N  
HETATM    6  C   UNL     1      -9.106  11.402  67.246  1.00  0.00    -0.162 C  
HETATM    7  H   UNL     1      -8.965   9.454  66.530  1.00  0.00     0.000 HD 
HETATM    8  N   UNL     1      -9.903  12.257  68.012  1.00  0.00    -0.198 N  
HETATM    9  O   UNL     1      -8.100  11.825  66.678  1.00  0.00    -0.161 OA 
HETATM   10  C   UNL     1     -11.332  10.506  68.676  1.00  0.00    -0.315 C  
HETATM   11  C   UNL     1     -10.972  11.792  68.737  1.00  0.00    -0.234 C  
ENDROOT
BRANCH   8  12
HETATM   12  C   UNL     1      -9.696  13.690  67.877  1.00  0.00    -0.234 C  
BRANCH  12  13
HETATM   13  C   UNL     1     -10.897  14.515  67.366  1.00  0.00    -0.291 C  
BRANCH  13  14
HETATM   14  O   UNL     1     -10.568  15.154  66.089  1.00  0.00    -0.293 OA 
BRANCH  14  15
HETATM   15  C   UNL     1     -10.416  14.154  65.066  1.00  0.00    -0.425 C  
HETATM   16  P   UNL     1     -11.958  13.218  64.752  1.00  0.00    -0.443 P  
HETATM   17  O   UNL     1     -12.607  14.667  64.307  1.00  0.00    -0.688 OA 
HETATM   18  O   UNL     1     -11.244  12.775  63.336  1.00  0.00    -0.439 OA 
HETATM   19  O   UNL     1     -13.261  12.426  64.486  1.00  0.00    -0.834 OA 
ENDBRANCH  14  15
ENDBRANCH  13  14
BRANCH  13  20
HETATM   20  C   UNL     1     -11.292  15.611  68.369  1.00  0.00    -0.364 C  
HETATM   21  O   UNL     1     -12.454  15.214  69.100  1.00  0.00    -0.584 OA 
HETATM   22  H   UNL     1     -12.699  15.891  69.720  1.00  0.00     0.000 HD 
ENDBRANCH  13  20
ENDBRANCH  12  13
ENDBRANCH   8  12
TORSDOF 5
ENDMDL
MODEL       63
REMARK 921   NORMALIZED FREE ENERGY PREDICTED BY IDOCK:   -4.82 KCAL/MOL
REMARK 922        TOTAL FREE ENERGY PREDICTED BY IDOCK:   -7.17 KCAL/MOL
REMARK 923 INTER-LIGAND FREE ENERGY PREDICTED BY IDOCK:   -6.50 KCAL/MOL
REMARK 924 INTRA-LIGAND FREE ENERGY PREDICTED BY IDOCK:   -0.68 KCAL/MOL
REMARK 927      BINDING AFFINITY PREDICTED BY RF-SCORE:    0.00 PKD
ROOT
HETATM    1  N   UNL     1     -11.881  10.749  67.998  1.00  0.00    -0.773 NA 
HETATM    2  H1  UNL     1     -11.336  10.250  68.701  1.00  0.00     0.000 HD 
HETATM    3  C   UNL     1     -11.329  11.884  67.488  1.00  0.00    -0.314 C  
HETATM    4  H2  UNL     1     -12.795  10.415  67.693  1.00  0.00     0.000 HD 
HETATM    5  N   UNL     1     -12.022  12.519  66.594  1.00  0.00    -0.355 N  
HETATM    6  C   UNL     1     -11.564  13.710  66.086  1.00  0.00    -0.347 C  
HETATM    7  H   UNL     1     -12.909  12.133  66.267  1.00  0.00     0.000 HD 
HETATM    8  N   UNL     1     -10.380  14.236  66.610  1.00  0.00    -0.275 N  
HETATM    9  O   UNL     1     -12.189  14.317  65.217  1.00  0.00    -0.395 OA 
HETATM   10  C   UNL     1     -10.013  12.344  67.966  1.00  0.00    -0.207 C  
HETATM   11  C   UNL     1      -9.613  13.534  67.506  1.00  0.00    -0.221 C  
ENDROOT
BRANCH   8  12
HETATM   12  C   UNL     1     -10.069  15.629  66.334  1.00  0.00    -0.287 C  
BRANCH  12  13
HETATM   13  C   UNL     1     -10.068  16.588  67.545  1.00  0.00    -0.267 C  
BRANCH  13  14
HETATM   14  O   UNL     1     -11.322  16.466  68.291  1.00  0.00    -0.350 OA 
BRANCH  14  15
HETATM   15  C   UNL     1     -11.043  16.207  69.679  1.00  0.00    -0.344 C  
HETATM   16  P   UNL     1     -12.489  15.546  70.585  1.00  0.00    -0.362 P  
HETATM   17  O   UNL     1     -12.409  14.269  69.543  1.00  0.00    -0.318 OA 
HETATM   18  O   UNL     1     -11.394  15.064  71.716  1.00  0.00    -0.369 OA 
HETATM   19  O   UNL     1     -13.712  14.986  71.352  1.00  0.00    -0.409 OA 
ENDBRANCH  14  15
ENDBRANCH  13  14
BRANCH  13  20
HETATM   20  C   UNL     1      -9.909  18.051  67.101  1.00  0.00    -0.316 C  
HETATM   21  O   UNL     1     -10.365  18.211  65.756  1.00  0.00    -0.586 OA 
HETATM   22  H   UNL     1     -10.266  19.116  65.482  1.00  0.00     0.000 HD 
ENDBRANCH  13  20
ENDBRANCH  12  13
ENDBRANCH   8  12
TORSDOF 5
ENDMDL
MODEL       64
REMARK 921   NORMALIZED FREE ENERGY PREDICTED BY IDOCK:   -4.82 KCAL/MOL
REMARK 922        TOTAL FREE ENERGY PREDICTED BY IDOCK:   -7.17 KCAL/MOL
REMARK 923 INTER-LIGAND FREE ENERGY PREDICTED BY IDOCK:   -6.46 KCAL/MOL
REMARK 924 INTRA-LIGAND FREE ENERGY PREDICTED BY IDOCK:   -0.71 KCAL/MOL
REMARK 927      BINDING AFFINITY PREDICTED BY RF-SCORE:    0.00 PKD
ROOT
HETATM    1  N   UNL     1     -13.902  16.019  73.292  1.00  0.00    -0.744 NA 
HETATM    2  H1  UNL     1     -14.292  15.520  74.092  1.00  0.00     0.000 HD 
HETATM    3  C   UNL     1     -13.411  15.257  72.276  1.00  0.00    -0.450 C  
HETATM    4  H2  UNL     1     -13.880  17.038  73.256  1.00  0.00     0.000 HD 
HETATM    5  N   UNL     1     -12.915  15.892  71.259  1.00  0.00    -0.560 N  
HETATM    6  C   UNL     1     -12.335  15.193  70.229  1.00  0.00    -0.352 C  
HETATM    7  H   UNL     1     -12.955  16.911  71.225  1.00  0.00     0.000 HD 
HETATM    8  N   UNL     1     -12.241  13.804  70.348  1.00  0.00    -0.346 N  
HETATM    9  O   UNL     1     -11.884  15.770  69.240  1.00  0.00    -0.365 OA 
HETATM   10  C   UNL     1     -13.445  13.787  72.372  1.00  0.00    -0.672 C  
HETATM   11  C   UNL     1     -12.823  13.127  71.390  1.00  0.00    -0.311 C  
ENDROOT
BRANCH   8  12
HETATM   12  C   UNL     1     -11.344  13.099  69.445  1.00  0.00    -0.213 C  
BRANCH  12  13
HETATM   13  C   UNL     1     -12.008  12.217  68.365  1.00  0.00    -0.198 C  
BRANCH  13  14
HETATM   14  O   UNL     1     -11.455  10.861  68.406  1.00  0.00    -0.278 OA 
BRANCH  14  15
HETATM   15  C   UNL     1     -10.712  10.672  69.624  1.00  0.00    -0.244 C  
HETATM   16  P   UNL     1     -11.232   9.180  70.549  1.00  0.00    -0.240 P  
HETATM   17  O   UNL     1     -10.744   8.331  69.222  1.00  0.00    -0.211 OA 
HETATM   18  O   UNL     1      -9.795   9.332  71.339  1.00  0.00    -0.295 OA 
HETATM   19  O   UNL     1     -11.670   7.919  71.333  1.00  0.00    -0.269 OA 
ENDBRANCH  14  15
ENDBRANCH  13  14
BRANCH  13  20
HETATM   20  C   UNL     1     -11.782  12.790  66.957  1.00  0.00    -0.374 C  
HETATM   21  O   UNL     1     -11.583  14.204  67.025  1.00  0.00    -0.343 OA 
HETATM   22  H   UNL     1     -11.444  14.558  66.155  1.00  0.00     0.000 HD 
ENDBRANCH  13  20
ENDBRANCH  12  13
ENDBRANCH   8  12
TORSDOF 5
ENDMDL
MODEL       65
REMARK 921   NORMALIZED FREE ENERGY PREDICTED BY IDOCK:   -4.78 KCAL/MOL
REMARK 922        TOTAL FREE ENERGY PREDICTED BY IDOCK:   -7.12 KCAL/MOL
REMARK 923 INTER-LIGAND FREE ENERGY PREDICTED BY IDOCK:   -6.68 KCAL/MOL
REMARK 924 INTRA-LIGAND FREE ENERGY PREDICTED BY IDOCK:   -0.44 KCAL/MOL
REMARK 927      BINDING AFFINITY PREDICTED BY RF-SCORE:    0.00 PKD
ROOT
HETATM    1  N   UNL     1      -8.809  20.218  66.303  1.00  0.00    -0.571 NA 
HETATM    2  H1  UNL     1      -9.343  20.999  66.683  1.00  0.00     0.000 HD 
HETATM    3  C   UNL     1      -9.140  18.975  66.750  1.00  0.00    -0.320 C  
HETATM    4  H2  UNL     1      -8.063  20.360  65.622  1.00  0.00     0.000 HD 
HETATM    5  N   UNL     1      -8.460  17.981  66.266  1.00  0.00    -0.224 N  
HETATM    6  C   UNL     1      -8.686  16.706  66.723  1.00  0.00    -0.226 C  
HETATM    7  H   UNL     1      -7.757  18.147  65.545  1.00  0.00     0.000 HD 
HETATM    8  N   UNL     1      -9.609  16.533  67.757  1.00  0.00    -0.230 N  
HETATM    9  O   UNL     1      -8.075  15.744  66.260  1.00  0.00    -0.197 OA 
HETATM   10  C   UNL     1     -10.212  18.810  67.747  1.00  0.00    -0.446 C  
HETATM   11  C   UNL     1     -10.375  17.572  68.224  1.00  0.00    -0.379 C  
ENDROOT
BRANCH   8  12
HETATM   12  C   UNL     1      -9.609  15.265  68.470  1.00  0.00    -0.211 C  
BRANCH  12  13
HETATM   13  C   UNL     1     -10.818  14.336  68.224  1.00  0.00    -0.246 C  
BRANCH  13  14
HETATM   14  O   UNL     1     -11.430  14.630  66.926  1.00  0.00    -0.347 OA 
BRANCH  14  15
HETATM   15  C   UNL     1     -10.937  13.711  65.933  1.00  0.00    -0.282 C  
HETATM   16  P   UNL     1     -12.274  12.969  64.926  1.00  0.00    -0.463 P  
HETATM   17  O   UNL     1     -12.601  14.511  64.439  1.00  0.00    -0.665 OA 
HETATM   18  O   UNL     1     -11.077  12.579  63.865  1.00  0.00    -0.359 OA 
HETATM   19  O   UNL     1     -13.403  12.341  64.074  1.00  0.00    -0.677 OA 
ENDBRANCH  14  15
ENDBRANCH  13  14
BRANCH  13  20
HETATM   20  C   UNL     1     -11.887  14.507  69.314  1.00  0.00    -0.323 C  
HETATM   21  O   UNL     1     -11.455  13.893  70.530  1.00  0.00    -0.509 OA 
HETATM   22  H   UNL     1     -12.117  13.999  71.204  1.00  0.00     0.000 HD 
ENDBRANCH  13  20
ENDBRANCH  12  13
ENDBRANCH   8  12
TORSDOF 5
ENDMDL
MODEL       66
REMARK 921   NORMALIZED FREE ENERGY PREDICTED BY IDOCK:   -4.78 KCAL/MOL
REMARK 922        TOTAL FREE ENERGY PREDICTED BY IDOCK:   -7.11 KCAL/MOL
REMARK 923 INTER-LIGAND FREE ENERGY PREDICTED BY IDOCK:   -6.36 KCAL/MOL
REMARK 924 INTRA-LIGAND FREE ENERGY PREDICTED BY IDOCK:   -0.75 KCAL/MOL
REMARK 927      BINDING AFFINITY PREDICTED BY RF-SCORE:    0.00 PKD
ROOT
HETATM    1  N   UNL     1     -11.622   7.136  71.631  1.00  0.00    -0.264 NA 
HETATM    2  H1  UNL     1     -11.918   7.474  72.546  1.00  0.00     0.000 HD 
HETATM    3  C   UNL     1     -11.297   8.079  70.705  1.00  0.00    -0.272 C  
HETATM    4  H2  UNL     1     -11.570   6.139  71.419  1.00  0.00     0.000 HD 
HETATM    5  N   UNL     1     -10.919   7.648  69.541  1.00  0.00    -0.415 N  
HETATM    6  C   UNL     1     -10.646   8.540  68.533  1.00  0.00    -0.111 C  
HETATM    7  H   UNL     1     -10.824   6.646  69.374  1.00  0.00     0.000 HD 
HETATM    8  N   UNL     1     -10.853   9.899  68.784  1.00  0.00    -0.221 N  
HETATM    9  O   UNL     1     -10.258   8.158  67.430  1.00  0.00    -0.211 OA 
HETATM   10  C   UNL     1     -11.399   9.510  71.042  1.00  0.00    -0.423 C  
HETATM   11  C   UNL     1     -11.189  10.361  70.032  1.00  0.00    -0.316 C  
ENDROOT
BRANCH   8  12
HETATM   12  C   UNL     1     -10.896  10.806  67.647  1.00  0.00    -0.279 C  
BRANCH  12  13
HETATM   13  C   UNL     1      -9.976  12.044  67.718  1.00  0.00    -0.195 C  
BRANCH  13  14
HETATM   14  O   UNL     1     -10.615  13.191  67.069  1.00  0.00    -0.256 OA 
BRANCH  14  15
HETATM   15  C   UNL     1     -11.844  12.777  66.443  1.00  0.00    -0.408 C  
HETATM   16  P   UNL     1     -12.273  13.792  64.981  1.00  0.00    -0.440 P  
HETATM   17  O   UNL     1     -10.863  13.236  64.329  1.00  0.00    -0.384 OA 
HETATM   18  O   UNL     1     -13.283  12.553  64.584  1.00  0.00    -0.848 OA 
HETATM   19  O   UNL     1     -12.638  14.649  63.745  1.00  0.00    -0.820 OA 
ENDBRANCH  14  15
ENDBRANCH  13  14
BRANCH  13  20
HETATM   20  C   UNL     1      -8.630  11.783  67.025  1.00  0.00    -0.173 C  
HETATM   21  O   UNL     1      -8.841  11.415  65.660  1.00  0.00    -0.326 OA 
HETATM   22  H   UNL     1      -8.009  11.254  65.231  1.00  0.00     0.000 HD 
ENDBRANCH  13  20
ENDBRANCH  12  13
ENDBRANCH   8  12
TORSDOF 5
ENDMDL
MODEL       67
REMARK 921   NORMALIZED FREE ENERGY PREDICTED BY IDOCK:   -4.75 KCAL/MOL
REMARK 922        TOTAL FREE ENERGY PREDICTED BY IDOCK:   -7.08 KCAL/MOL
REMARK 923 INTER-LIGAND FREE ENERGY PREDICTED BY IDOCK:   -6.83 KCAL/MOL
REMARK 924 INTRA-LIGAND FREE ENERGY PREDICTED BY IDOCK:   -0.25 KCAL/MOL
REMARK 927      BINDING AFFINITY PREDICTED BY RF-SCORE:    0.00 PKD
ROOT
HETATM    1  N   UNL     1     -10.830  11.039  62.842  1.00  0.00    -0.768 NA 
HETATM    2  H1  UNL     1     -10.013  10.429  62.814  1.00  0.00     0.000 HD 
HETATM    3  C   UNL     1     -11.030  11.741  63.991  1.00  0.00    -0.384 C  
HETATM    4  H2  UNL     1     -11.465  11.120  62.048  1.00  0.00     0.000 HD 
HETATM    5  N   UNL     1     -12.069  12.518  64.026  1.00  0.00    -0.434 N  
HETATM    6  C   UNL     1     -12.379  13.201  65.176  1.00  0.00    -0.473 C  
HETATM    7  H   UNL     1     -12.657  12.621  63.198  1.00  0.00     0.000 HD 
HETATM    8  N   UNL     1     -11.586  12.979  66.306  1.00  0.00    -0.342 N  
HETATM    9  O   UNL     1     -13.341  13.966  65.226  1.00  0.00    -0.732 OA 
HETATM   10  C   UNL     1     -10.100  11.586  65.123  1.00  0.00    -0.313 C  
HETATM   11  C   UNL     1     -10.451  12.211  66.252  1.00  0.00    -0.239 C  
ENDROOT
BRANCH   8  12
HETATM   12  C   UNL     1     -12.093  13.422  67.595  1.00  0.00    -0.269 C  
BRANCH  12  13
HETATM   13  C   UNL     1     -11.641  12.611  68.829  1.00  0.00    -0.313 C  
BRANCH  13  14
HETATM   14  O   UNL     1     -12.206  11.261  68.785  1.00  0.00    -0.532 OA 
BRANCH  14  15
HETATM   15  C   UNL     1     -12.258  10.709  70.114  1.00  0.00    -0.320 C  
HETATM   16  P   UNL     1     -11.361   9.120  70.260  1.00  0.00    -0.064 P  
HETATM   17  O   UNL     1     -10.014   9.979  69.846  1.00  0.00    -0.237 OA 
HETATM   18  O   UNL     1     -11.395   9.402  71.882  1.00  0.00    -0.370 OA 
HETATM   19  O   UNL     1     -10.602   7.777  70.384  1.00  0.00    -0.218 OA 
ENDBRANCH  14  15
ENDBRANCH  13  14
BRANCH  13  20
HETATM   20  C   UNL     1     -12.091  13.283  70.137  1.00  0.00    -0.333 C  
HETATM   21  O   UNL     1     -11.135  14.267  70.540  1.00  0.00    -0.484 OA 
HETATM   22  H   UNL     1     -11.413  14.682  71.348  1.00  0.00     0.000 HD 
ENDBRANCH  13  20
ENDBRANCH  12  13
ENDBRANCH   8  12
TORSDOF 5
ENDMDL
MODEL       68
REMARK 921   NORMALIZED FREE ENERGY PREDICTED BY IDOCK:   -4.75 KCAL/MOL
REMARK 922        TOTAL FREE ENERGY PREDICTED BY IDOCK:   -7.07 KCAL/MOL
REMARK 923 INTER-LIGAND FREE ENERGY PREDICTED BY IDOCK:   -6.38 KCAL/MOL
REMARK 924 INTRA-LIGAND FREE ENERGY PREDICTED BY IDOCK:   -0.69 KCAL/MOL
REMARK 927      BINDING AFFINITY PREDICTED BY RF-SCORE:    0.00 PKD
ROOT
HETATM    1  N   UNL     1     -12.443  13.990  63.025  1.00  0.00    -0.988 NA 
HETATM    2  H1  UNL     1     -13.060  14.717  63.391  1.00  0.00     0.000 HD 
HETATM    3  C   UNL     1     -11.979  13.075  63.919  1.00  0.00    -0.485 C  
HETATM    4  H2  UNL     1     -12.188  13.952  62.039  1.00  0.00     0.000 HD 
HETATM    5  N   UNL     1     -11.196  12.151  63.454  1.00  0.00    -0.638 N  
HETATM    6  C   UNL     1     -10.629  11.235  64.307  1.00  0.00    -0.358 C  
HETATM    7  H   UNL     1     -11.000  12.104  62.453  1.00  0.00     0.000 HD 
HETATM    8  N   UNL     1     -10.870  11.377  65.676  1.00  0.00    -0.251 N  
HETATM    9  O   UNL     1      -9.907  10.333  63.887  1.00  0.00    -0.305 OA 
HETATM   10  C   UNL     1     -12.357  13.172  65.340  1.00  0.00    -0.532 C  
HETATM   11  C   UNL     1     -11.749  12.311  66.163  1.00  0.00    -0.376 C  
ENDROOT
BRANCH   8  12
HETATM   12  C   UNL     1     -10.021  10.640  66.599  1.00  0.00    -0.212 C  
BRANCH  12  13
HETATM   13  C   UNL     1     -10.734   9.673  67.570  1.00  0.00    -0.256 C  
BRANCH  13  14
HETATM   14  O   UNL     1     -10.155   9.779  68.911  1.00  0.00    -0.169 OA 
BRANCH  14  15
HETATM   15  C   UNL     1      -9.758   8.476  69.376  1.00  0.00    -0.177 C  
HETATM   16  P   UNL     1      -9.615   8.386  71.199  1.00  0.00    -0.213 P  
HETATM   17  O   UNL     1     -11.226   8.744  71.224  1.00  0.00    -0.249 OA 
HETATM   18  O   UNL     1      -9.687   6.754  70.991  1.00  0.00    -0.174 OA 
HETATM   19  O   UNL     1      -9.495   8.308  72.740  1.00  0.00    -0.260 OA 
ENDBRANCH  14  15
ENDBRANCH  13  14
BRANCH  13  20
HETATM   20  C   UNL     1     -10.609   8.215  67.101  1.00  0.00    -0.285 C  
HETATM   21  O   UNL     1      -9.879   8.152  65.874  1.00  0.00    -0.451 OA 
HETATM   22  H   UNL     1      -9.802   7.250  65.584  1.00  0.00     0.000 HD 
ENDBRANCH  13  20
ENDBRANCH  12  13
ENDBRANCH   8  12
TORSDOF 5
ENDMDL
MODEL       69
REMARK 921   NORMALIZED FREE ENERGY PREDICTED BY IDOCK:   -4.74 KCAL/MOL
REMARK 922        TOTAL FREE ENERGY PREDICTED BY IDOCK:   -7.06 KCAL/MOL
REMARK 923 INTER-LIGAND FREE ENERGY PREDICTED BY IDOCK:   -6.75 KCAL/MOL
REMARK 924 INTRA-LIGAND FREE ENERGY PREDICTED BY IDOCK:   -0.31 KCAL/MOL
REMARK 927      BINDING AFFINITY PREDICTED BY RF-SCORE:    0.00 PKD
ROOT
HETATM    1  N   UNL     1     -12.797  11.649  62.831  1.00  0.00    -0.827 NA 
HETATM    2  H1  UNL     1     -13.670  12.176  62.798  1.00  0.00     0.000 HD 
HETATM    3  C   UNL     1     -12.007  11.842  63.922  1.00  0.00    -0.402 C  
HETATM    4  H2  UNL     1     -12.529  11.010  62.083  1.00  0.00     0.000 HD 
HETATM    5  N   UNL     1     -10.897  11.171  63.964  1.00  0.00    -0.461 N  
HETATM    6  C   UNL     1     -10.013  11.368  64.997  1.00  0.00    -0.266 C  
HETATM    7  H   UNL     1     -10.680  10.498  63.229  1.00  0.00     0.000 HD 
HETATM    8  N   UNL     1     -10.318  12.347  65.946  1.00  0.00    -0.251 N  
HETATM    9  O   UNL     1      -8.968  10.723  65.075  1.00  0.00    -0.195 OA 
HETATM   10  C   UNL     1     -12.419  12.787  64.975  1.00  0.00    -0.572 C  
HETATM   11  C   UNL     1     -11.520  13.010  65.940  1.00  0.00    -0.337 C  
ENDROOT
BRANCH   8  12
HETATM   12  C   UNL     1      -9.256  12.795  66.833  1.00  0.00    -0.229 C  
BRANCH  12  13
HETATM   13  C   UNL     1      -9.409  14.209  67.433  1.00  0.00    -0.215 C  
BRANCH  13  14
HETATM   14  O   UNL     1      -8.802  15.206  66.549  1.00  0.00    -0.275 OA 
BRANCH  14  15
HETATM   15  C   UNL     1      -9.819  15.827  65.741  1.00  0.00    -0.348 C  
HETATM   16  P   UNL     1     -10.252  17.511  66.314  1.00  0.00    -0.250 P  
HETATM   17  O   UNL     1      -8.681  17.897  65.988  1.00  0.00    -0.492 OA 
HETATM   18  O   UNL     1     -10.912  17.707  64.818  1.00  0.00    -0.917 OA 
HETATM   19  O   UNL     1     -10.618  18.936  66.796  1.00  0.00    -0.399 OA 
ENDBRANCH  14  15
ENDBRANCH  13  14
BRANCH  13  20
HETATM   20  C   UNL     1      -8.736  14.309  68.811  1.00  0.00    -0.096 C  
HETATM   21  O   UNL     1      -8.484  15.678  69.139  1.00  0.00    -0.217 OA 
HETATM   22  H   UNL     1      -8.067  15.739  69.991  1.00  0.00     0.000 HD 
ENDBRANCH  13  20
ENDBRANCH  12  13
ENDBRANCH   8  12
TORSDOF 5
ENDMDL
MODEL       70
REMARK 921   NORMALIZED FREE ENERGY PREDICTED BY IDOCK:   -4.66 KCAL/MOL
REMARK 922        TOTAL FREE ENERGY PREDICTED BY IDOCK:   -6.96 KCAL/MOL
REMARK 923 INTER-LIGAND FREE ENERGY PREDICTED BY IDOCK:   -6.77 KCAL/MOL
REMARK 924 INTRA-LIGAND FREE ENERGY PREDICTED BY IDOCK:   -0.19 KCAL/MOL
REMARK 927      BINDING AFFINITY PREDICTED BY RF-SCORE:    0.00 PKD
ROOT
HETATM    1  N   UNL     1     -14.399   8.758  72.856  1.00  0.00    -1.104 NA 
HETATM    2  H1  UNL     1     -15.214   9.341  72.662  1.00  0.00     0.000 HD 
HETATM    3  C   UNL     1     -13.232   9.117  72.255  1.00  0.00    -0.461 C  
HETATM    4  H2  UNL     1     -14.456   7.947  73.472  1.00  0.00     0.000 HD 
HETATM    5  N   UNL     1     -12.196   8.376  72.504  1.00  0.00    -0.500 N  
HETATM    6  C   UNL     1     -11.001   8.632  71.876  1.00  0.00    -0.342 C  
HETATM    7  H   UNL     1     -12.269   7.603  73.166  1.00  0.00     0.000 HD 
HETATM    8  N   UNL     1     -10.964   9.657  70.927  1.00  0.00    -0.317 N  
HETATM    9  O   UNL     1      -9.998   7.963  72.117  1.00  0.00    -0.181 OA 
HETATM   10  C   UNL     1     -13.192  10.286  71.359  1.00  0.00    -0.464 C  
HETATM   11  C   UNL     1     -12.039  10.483  70.712  1.00  0.00    -0.370 C  
ENDROOT
BRANCH   8  12
HETATM   12  C   UNL     1      -9.822   9.715  70.027  1.00  0.00    -0.246 C  
BRANCH  12  13
HETATM   13  C   UNL     1     -10.038   9.158  68.604  1.00  0.00    -0.194 C  
BRANCH  13  14
HETATM   14  O   UNL     1     -11.021   9.971  67.883  1.00  0.00    -0.274 OA 
BRANCH  14  15
HETATM   15  C   UNL     1     -10.361  11.071  67.230  1.00  0.00    -0.211 C  
HETATM   16  P   UNL     1     -11.512  12.120  66.267  1.00  0.00    -0.289 P  
HETATM   17  O   UNL     1     -12.253  12.425  67.709  1.00  0.00    -0.395 OA 
HETATM   18  O   UNL     1     -10.314  13.248  66.315  1.00  0.00    -0.278 OA 
HETATM   19  O   UNL     1     -12.484  13.007  65.452  1.00  0.00    -0.469 OA 
ENDBRANCH  14  15
ENDBRANCH  13  14
BRANCH  13  20
HETATM   20  C   UNL     1     -10.543   7.707  68.640  1.00  0.00    -0.130 C  
HETATM   21  O   UNL     1     -11.217   7.388  67.420  1.00  0.00    -0.548 OA 
HETATM   22  H   UNL     1     -11.529   6.491  67.443  1.00  0.00     0.000 HD 
ENDBRANCH  13  20
ENDBRANCH  12  13
ENDBRANCH   8  12
TORSDOF 5
ENDMDL
MODEL       71
REMARK 921   NORMALIZED FREE ENERGY PREDICTED BY IDOCK:   -4.65 KCAL/MOL
REMARK 922        TOTAL FREE ENERGY PREDICTED BY IDOCK:   -6.95 KCAL/MOL
REMARK 923 INTER-LIGAND FREE ENERGY PREDICTED BY IDOCK:   -6.49 KCAL/MOL
REMARK 924 INTRA-LIGAND FREE ENERGY PREDICTED BY IDOCK:   -0.46 KCAL/MOL
REMARK 927      BINDING AFFINITY PREDICTED BY RF-SCORE:    0.00 PKD
ROOT
HETATM    1  N   UNL     1     -12.638  11.770  62.993  1.00  0.00    -0.873 NA 
HETATM    2  H1  UNL     1     -12.201  11.099  62.360  1.00  0.00     0.000 HD 
HETATM    3  C   UNL     1     -11.941  12.095  64.116  1.00  0.00    -0.408 C  
HETATM    4  H2  UNL     1     -13.552  12.177  62.793  1.00  0.00     0.000 HD 
HETATM    5  N   UNL     1     -12.497  12.949  64.920  1.00  0.00    -0.542 N  
HETATM    6  C   UNL     1     -11.889  13.270  66.109  1.00  0.00    -0.390 C  
HETATM    7  H   UNL     1     -13.386  13.382  64.669  1.00  0.00     0.000 HD 
HETATM    8  N   UNL     1     -10.707  12.604  66.444  1.00  0.00    -0.252 N  
HETATM    9  O   UNL     1     -12.381  14.098  66.874  1.00  0.00    -0.419 OA 
HETATM   10  C   UNL     1     -10.632  11.473  64.379  1.00  0.00    -0.392 C  
HETATM   11  C   UNL     1     -10.085  11.751  65.567  1.00  0.00    -0.249 C  
ENDROOT
BRANCH   8  12
HETATM   12  C   UNL     1     -10.245  12.681  67.821  1.00  0.00    -0.222 C  
BRANCH  12  13
HETATM   13  C   UNL     1      -8.975  13.521  68.075  1.00  0.00    -0.189 C  
BRANCH  13  14
HETATM   14  O   UNL     1      -8.842  14.565  67.056  1.00  0.00    -0.215 OA 
BRANCH  14  15
HETATM   15  C   UNL     1      -8.661  15.845  67.688  1.00  0.00    -0.163 C  
HETATM   16  P   UNL     1      -8.043  17.126  66.535  1.00  0.00    -0.311 P  
HETATM   17  O   UNL     1      -9.445  16.882  65.701  1.00  0.00    -0.524 OA 
HETATM   18  O   UNL     1      -8.564  18.205  67.665  1.00  0.00    -0.247 OA 
HETATM   19  O   UNL     1      -7.521  18.210  65.561  1.00  0.00    -0.540 OA 
ENDBRANCH  14  15
ENDBRANCH  13  14
BRANCH  13  20
HETATM   20  C   UNL     1      -7.710  12.649  68.043  1.00  0.00    -0.139 C  
HETATM   21  O   UNL     1      -6.889  13.012  66.931  1.00  0.00    -0.415 OA 
HETATM   22  H   UNL     1      -6.107  12.472  66.911  1.00  0.00     0.000 HD 
ENDBRANCH  13  20
ENDBRANCH  12  13
ENDBRANCH   8  12
TORSDOF 5
ENDMDL
MODEL       72
REMARK 921   NORMALIZED FREE ENERGY PREDICTED BY IDOCK:   -4.65 KCAL/MOL
REMARK 922        TOTAL FREE ENERGY PREDICTED BY IDOCK:   -6.95 KCAL/MOL
REMARK 923 INTER-LIGAND FREE ENERGY PREDICTED BY IDOCK:   -6.84 KCAL/MOL
REMARK 924 INTRA-LIGAND FREE ENERGY PREDICTED BY IDOCK:   -0.11 KCAL/MOL
REMARK 927      BINDING AFFINITY PREDICTED BY RF-SCORE:    0.00 PKD
ROOT
HETATM    1  N   UNL     1     -12.771  11.501  62.712  1.00  0.00    -0.746 NA 
HETATM    2  H1  UNL     1     -12.195  11.273  61.902  1.00  0.00     0.000 HD 
HETATM    3  C   UNL     1     -12.166  12.188  63.720  1.00  0.00    -0.531 C  
HETATM    4  H2  UNL     1     -13.752  11.228  62.765  1.00  0.00     0.000 HD 
HETATM    5  N   UNL     1     -12.900  12.479  64.750  1.00  0.00    -0.641 N  
HETATM    6  C   UNL     1     -12.342  13.105  65.837  1.00  0.00    -0.398 C  
HETATM    7  H   UNL     1     -13.892  12.241  64.753  1.00  0.00     0.000 HD 
HETATM    8  N   UNL     1     -10.966  13.352  65.819  1.00  0.00    -0.277 N  
HETATM    9  O   UNL     1     -13.022  13.417  66.814  1.00  0.00     0.211 OA 
HETATM   10  C   UNL     1     -10.742  12.552  63.615  1.00  0.00    -0.469 C  
HETATM   11  C   UNL     1     -10.203  13.106  64.706  1.00  0.00    -0.301 C  
ENDROOT
BRANCH   8  12
HETATM   12  C   UNL     1     -10.316  13.696  67.074  1.00  0.00    -0.260 C  
BRANCH  12  13
HETATM   13  C   UNL     1     -10.737  15.032  67.725  1.00  0.00    -0.278 C  
BRANCH  13  14
HETATM   14  O   UNL     1      -9.790  16.091  67.372  1.00  0.00    -0.232 OA 
BRANCH  14  15
HETATM   15  C   UNL     1     -10.326  17.373  67.747  1.00  0.00    -0.358 C  
HETATM   16  P   UNL     1      -9.741  18.732  66.669  1.00  0.00    -0.378 P  
HETATM   17  O   UNL     1     -10.491  17.923  65.443  1.00  0.00    -0.635 OA 
HETATM   18  O   UNL     1     -11.014  19.583  67.275  1.00  0.00    -0.499 OA 
HETATM   19  O   UNL     1      -9.247  19.881  65.758  1.00  0.00    -0.333 OA 
ENDBRANCH  14  15
ENDBRANCH  13  14
BRANCH  13  20
HETATM   20  C   UNL     1     -10.788  14.918  69.257  1.00  0.00    -0.266 C  
HETATM   21  O   UNL     1     -10.827  13.543  69.648  1.00  0.00    -0.451 OA 
HETATM   22  H   UNL     1     -10.858  13.473  70.595  1.00  0.00     0.000 HD 
ENDBRANCH  13  20
ENDBRANCH  12  13
ENDBRANCH   8  12
TORSDOF 5
ENDMDL
MODEL       73
REMARK 921   NORMALIZED FREE ENERGY PREDICTED BY IDOCK:   -4.64 KCAL/MOL
REMARK 922        TOTAL FREE ENERGY PREDICTED BY IDOCK:   -6.94 KCAL/MOL
REMARK 923 INTER-LIGAND FREE ENERGY PREDICTED BY IDOCK:   -6.26 KCAL/MOL
REMARK 924 INTRA-LIGAND FREE ENERGY PREDICTED BY IDOCK:   -0.68 KCAL/MOL
REMARK 927      BINDING AFFINITY PREDICTED BY RF-SCORE:    0.00 PKD
ROOT
HETATM    1  N   UNL     1     -13.267  10.254  72.091  1.00  0.00    -0.555 NA 
HETATM    2  H1  UNL     1     -13.551  10.717  72.955  1.00  0.00     0.000 HD 
HETATM    3  C   UNL     1     -12.781  11.052  71.101  1.00  0.00    -0.419 C  
HETATM    4  H2  UNL     1     -13.342   9.244  71.975  1.00  0.00     0.000 HD 
HETATM    5  N   UNL     1     -12.419  10.464  70.002  1.00  0.00    -0.529 N  
HETATM    6  C   UNL     1     -11.988  11.210  68.932  1.00  0.00    -0.298 C  
HETATM    7  H   UNL     1     -12.454   9.447  69.933  1.00  0.00     0.000 HD 
HETATM    8  N   UNL     1     -12.019  12.602  69.047  1.00  0.00    -0.273 N  
HETATM    9  O   UNL     1     -11.612  10.674  67.891  1.00  0.00    -0.491 OA 
HETATM   10  C   UNL     1     -12.702  12.510  71.300  1.00  0.00    -0.350 C  
HETATM   11  C   UNL     1     -12.338  13.223  70.228  1.00  0.00    -0.264 C  
ENDROOT
BRANCH   8  12
HETATM   12  C   UNL     1     -11.894  13.391  67.831  1.00  0.00    -0.357 C  
BRANCH  12  13
HETATM   13  C   UNL     1     -10.697  14.365  67.762  1.00  0.00    -0.248 C  
BRANCH  13  14
HETATM   14  O   UNL     1     -11.153  15.706  67.388  1.00  0.00    -0.316 OA 
BRANCH  14  15
HETATM   15  C   UNL     1     -10.814  16.645  68.425  1.00  0.00    -0.361 C  
HETATM   16  P   UNL     1      -9.589  17.892  67.882  1.00  0.00    -0.310 P  
HETATM   17  O   UNL     1     -10.725  18.355  66.779  1.00  0.00    -0.357 OA 
HETATM   18  O   UNL     1     -10.088  18.758  69.191  1.00  0.00    -0.359 OA 
HETATM   19  O   UNL     1      -8.553  18.947  67.424  1.00  0.00    -0.270 OA 
ENDBRANCH  14  15
ENDBRANCH  13  14
BRANCH  13  20
HETATM   20  C   UNL     1      -9.656  13.901  66.731  1.00  0.00    -0.283 C  
HETATM   21  O   UNL     1      -9.558  12.475  66.735  1.00  0.00    -0.218 OA 
HETATM   22  H   UNL     1      -8.914  12.189  66.098  1.00  0.00     0.000 HD 
ENDBRANCH  13  20
ENDBRANCH  12  13
ENDBRANCH   8  12
TORSDOF 5
ENDMDL
MODEL       74
REMARK 921   NORMALIZED FREE ENERGY PREDICTED BY IDOCK:   -4.63 KCAL/MOL
REMARK 922        TOTAL FREE ENERGY PREDICTED BY IDOCK:   -6.92 KCAL/MOL
REMARK 923 INTER-LIGAND FREE ENERGY PREDICTED BY IDOCK:   -6.06 KCAL/MOL
REMARK 924 INTRA-LIGAND FREE ENERGY PREDICTED BY IDOCK:   -0.86 KCAL/MOL
REMARK 927      BINDING AFFINITY PREDICTED BY RF-SCORE:    0.00 PKD
ROOT
HETATM    1  N   UNL     1      -9.762   6.813  66.763  1.00  0.00    -0.168 NA 
HETATM    2  H1  UNL     1      -9.939   6.237  67.585  1.00  0.00     0.000 HD 
HETATM    3  C   UNL     1     -10.069   8.136  66.865  1.00  0.00    -0.297 C  
HETATM    4  H2  UNL     1      -9.373   6.419  65.906  1.00  0.00     0.000 HD 
HETATM    5  N   UNL     1      -9.842   8.869  65.818  1.00  0.00    -0.465 N  
HETATM    6  C   UNL     1     -10.194  10.197  65.820  1.00  0.00    -0.213 C  
HETATM    7  H   UNL     1      -9.402   8.459  64.994  1.00  0.00     0.000 HD 
HETATM    8  N   UNL     1     -10.855  10.700  66.944  1.00  0.00    -0.238 N  
HETATM    9  O   UNL     1      -9.964  10.920  64.852  1.00  0.00    -0.256 OA 
HETATM   10  C   UNL     1     -10.644   8.666  68.113  1.00  0.00    -0.189 C  
HETATM   11  C   UNL     1     -11.035   9.944  68.075  1.00  0.00    -0.213 C  
ENDROOT
BRANCH   8  12
HETATM   12  C   UNL     1     -11.523  11.987  66.826  1.00  0.00    -0.345 C  
BRANCH  12  13
HETATM   13  C   UNL     1     -11.054  13.099  67.788  1.00  0.00    -0.262 C  
BRANCH  13  14
HETATM   14  O   UNL     1     -11.577  14.398  67.359  1.00  0.00    -0.339 OA 
BRANCH  14  15
HETATM   15  C   UNL     1     -12.365  14.238  66.165  1.00  0.00    -0.387 C  
HETATM   16  P   UNL     1     -12.017  15.522  64.907  1.00  0.00     0.280 P  
HETATM   17  O   UNL     1     -10.481  14.921  64.891  1.00  0.00    -0.414 OA 
HETATM   18  O   UNL     1     -12.741  14.490  63.847  1.00  0.00    -0.782 OA 
HETATM   19  O   UNL     1     -11.724  16.606  63.843  1.00  0.00    -1.153 OA 
ENDBRANCH  14  15
ENDBRANCH  13  14
BRANCH  13  20
HETATM   20  C   UNL     1      -9.520  13.186  67.838  1.00  0.00    -0.218 C  
HETATM   21  O   UNL     1      -8.984  13.196  66.513  1.00  0.00    -0.402 OA 
HETATM   22  H   UNL     1      -8.035  13.250  66.544  1.00  0.00     0.000 HD 
ENDBRANCH  13  20
ENDBRANCH  12  13
ENDBRANCH   8  12
TORSDOF 5
ENDMDL
MODEL       75
REMARK 921   NORMALIZED FREE ENERGY PREDICTED BY IDOCK:   -4.62 KCAL/MOL
REMARK 922        TOTAL FREE ENERGY PREDICTED BY IDOCK:   -6.91 KCAL/MOL
REMARK 923 INTER-LIGAND FREE ENERGY PREDICTED BY IDOCK:   -6.32 KCAL/MOL
REMARK 924 INTRA-LIGAND FREE ENERGY PREDICTED BY IDOCK:   -0.60 KCAL/MOL
REMARK 927      BINDING AFFINITY PREDICTED BY RF-SCORE:    0.00 PKD
ROOT
HETATM    1  N   UNL     1      -8.022  14.782  69.530  1.00  0.00    -0.393 NA 
HETATM    2  H1  UNL     1      -7.157  15.159  69.143  1.00  0.00     0.000 HD 
HETATM    3  C   UNL     1      -8.995  14.444  68.640  1.00  0.00    -0.172 C  
HETATM    4  H2  UNL     1      -8.152  14.664  70.535  1.00  0.00     0.000 HD 
HETATM    5  N   UNL     1     -10.095  13.964  69.134  1.00  0.00    -0.433 N  
HETATM    6  C   UNL     1     -11.150  13.669  68.305  1.00  0.00    -0.256 C  
HETATM    7  H   UNL     1     -10.177  13.805  70.139  1.00  0.00     0.000 HD 
HETATM    8  N   UNL     1     -11.019  13.964  66.945  1.00  0.00    -0.293 N  
HETATM    9  O   UNL     1     -12.192  13.186  68.744  1.00  0.00    -0.255 OA 
HETATM   10  C   UNL     1      -8.778  14.644  67.197  1.00  0.00    -0.242 C  
HETATM   11  C   UNL     1      -9.835  14.409  66.413  1.00  0.00    -0.295 C  
ENDROOT
BRANCH   8  12
HETATM   12  C   UNL     1     -12.223  13.975  66.128  1.00  0.00    -0.465 C  
BRANCH  12  13
HETATM   13  C   UNL     1     -12.417  12.780  65.170  1.00  0.00    -0.501 C  
BRANCH  13  14
HETATM   14  O   UNL     1     -11.628  11.632  65.622  1.00  0.00    -0.239 OA 
BRANCH  14  15
HETATM   15  C   UNL     1     -10.810  11.145  64.542  1.00  0.00    -0.250 C  
HETATM   16  P   UNL     1      -9.164  10.570  65.101  1.00  0.00    -0.242 P  
HETATM   17  O   UNL     1      -9.988   9.454  65.993  1.00  0.00    -0.293 OA 
HETATM   18  O   UNL     1      -9.094   9.787  63.654  1.00  0.00    -0.248 OA 
HETATM   19  O   UNL     1      -7.772  10.084  65.572  1.00  0.00    -0.122 OA 
ENDBRANCH  14  15
ENDBRANCH  13  14
BRANCH  13  20
HETATM   20  C   UNL     1     -11.983  13.134  63.739  1.00  0.00    -0.508 C  
HETATM   21  O   UNL     1     -12.436  14.445  63.395  1.00  0.00    -1.109 OA 
HETATM   22  H   UNL     1     -12.167  14.664  62.510  1.00  0.00     0.000 HD 
ENDBRANCH  13  20
ENDBRANCH  12  13
ENDBRANCH   8  12
TORSDOF 5
ENDMDL
MODEL       76
REMARK 921   NORMALIZED FREE ENERGY PREDICTED BY IDOCK:   -4.62 KCAL/MOL
REMARK 922        TOTAL FREE ENERGY PREDICTED BY IDOCK:   -6.90 KCAL/MOL
REMARK 923 INTER-LIGAND FREE ENERGY PREDICTED BY IDOCK:   -6.44 KCAL/MOL
REMARK 924 INTRA-LIGAND FREE ENERGY PREDICTED BY IDOCK:   -0.47 KCAL/MOL
REMARK 927      BINDING AFFINITY PREDICTED BY RF-SCORE:    0.00 PKD
ROOT
HETATM    1  N   UNL     1     -12.183  15.777  69.508  1.00  0.00    -0.489 NA 
HETATM    2  H1  UNL     1     -11.643  15.994  68.670  1.00  0.00     0.000 HD 
HETATM    3  C   UNL     1     -12.204  14.474  69.901  1.00  0.00    -0.328 C  
HETATM    4  H2  UNL     1     -12.683  16.500  70.026  1.00  0.00     0.000 HD 
HETATM    5  N   UNL     1     -12.890  14.197  70.968  1.00  0.00    -0.343 N  
HETATM    6  C   UNL     1     -13.019  12.895  71.384  1.00  0.00    -0.270 C  
HETATM    7  H   UNL     1     -13.335  14.948  71.497  1.00  0.00     0.000 HD 
HETATM    8  N   UNL     1     -12.451  11.893  70.593  1.00  0.00    -0.296 N  
HETATM    9  O   UNL     1     -13.640  12.610  72.407  1.00  0.00    -0.550 OA 
HETATM   10  C   UNL     1     -11.484  13.454  69.118  1.00  0.00    -0.351 C  
HETATM   11  C   UNL     1     -11.670  12.188  69.504  1.00  0.00    -0.336 C  
ENDROOT
BRANCH   8  12
HETATM   12  C   UNL     1     -12.861  10.518  70.832  1.00  0.00    -0.394 C  
BRANCH  12  13
HETATM   13  C   UNL     1     -11.971   9.688  71.782  1.00  0.00    -0.347 C  
BRANCH  13  14
HETATM   14  O   UNL     1     -10.823   9.140  71.056  1.00  0.00    -0.242 OA 
BRANCH  14  15
HETATM   15  C   UNL     1     -11.224   7.972  70.316  1.00  0.00    -0.190 C  
HETATM   16  P   UNL     1      -9.807   6.932  69.806  1.00  0.00    -0.173 P  
HETATM   17  O   UNL     1      -9.514   6.747  71.419  1.00  0.00    -0.161 OA 
HETATM   18  O   UNL     1     -10.928   5.747  69.579  1.00  0.00    -0.353 OA 
HETATM   19  O   UNL     1      -8.609   6.052  69.374  1.00  0.00    -0.120 OA 
ENDBRANCH  14  15
ENDBRANCH  13  14
BRANCH  13  20
HETATM   20  C   UNL     1     -12.752   8.520  72.406  1.00  0.00    -0.337 C  
HETATM   21  O   UNL     1     -13.789   9.018  73.255  1.00  0.00    -1.159 OA 
HETATM   22  H   UNL     1     -14.272   8.296  73.640  1.00  0.00     0.000 HD 
ENDBRANCH  13  20
ENDBRANCH  12  13
ENDBRANCH   8  12
TORSDOF 5
ENDMDL
MODEL       77
REMARK 921   NORMALIZED FREE ENERGY PREDICTED BY IDOCK:   -4.61 KCAL/MOL
REMARK 922        TOTAL FREE ENERGY PREDICTED BY IDOCK:   -6.89 KCAL/MOL
REMARK 923 INTER-LIGAND FREE ENERGY PREDICTED BY IDOCK:   -6.51 KCAL/MOL
REMARK 924 INTRA-LIGAND FREE ENERGY PREDICTED BY IDOCK:   -0.39 KCAL/MOL
REMARK 927      BINDING AFFINITY PREDICTED BY RF-SCORE:    0.00 PKD
ROOT
HETATM    1  N   UNL     1     -12.421  14.304  72.874  1.00  0.00    -0.179 NA 
HETATM    2  H1  UNL     1     -12.410  15.168  73.417  1.00  0.00     0.000 HD 
HETATM    3  C   UNL     1     -12.062  14.400  71.565  1.00  0.00    -0.300 C  
HETATM    4  H2  UNL     1     -12.687  13.412  73.293  1.00  0.00     0.000 HD 
HETATM    5  N   UNL     1     -12.075  13.300  70.875  1.00  0.00    -0.484 N  
HETATM    6  C   UNL     1     -11.797  13.329  69.530  1.00  0.00    -0.327 C  
HETATM    7  H   UNL     1     -12.292  12.414  71.332  1.00  0.00     0.000 HD 
HETATM    8  N   UNL     1     -11.571  14.571  68.932  1.00  0.00    -0.291 N  
HETATM    9  O   UNL     1     -11.774  12.297  68.861  1.00  0.00    -0.291 OA 
HETATM   10  C   UNL     1     -11.700  15.708  70.992  1.00  0.00    -0.444 C  
HETATM   11  C   UNL     1     -11.492  15.725  69.671  1.00  0.00    -0.346 C  
ENDROOT
BRANCH   8  12
HETATM   12  C   UNL     1     -11.613  14.649  67.480  1.00  0.00    -0.375 C  
BRANCH  12  13
HETATM   13  C   UNL     1     -10.253  14.626  66.750  1.00  0.00    -0.268 C  
BRANCH  13  14
HETATM   14  O   UNL     1      -9.526  15.875  66.987  1.00  0.00    -0.215 OA 
BRANCH  14  15
HETATM   15  C   UNL     1     -10.266  16.983  66.443  1.00  0.00    -0.326 C  
HETATM   16  P   UNL     1      -9.493  18.602  66.809  1.00  0.00    -0.338 P  
HETATM   17  O   UNL     1      -8.204  18.049  65.941  1.00  0.00    -0.517 OA 
HETATM   18  O   UNL     1     -10.436  19.178  65.589  1.00  0.00    -0.534 OA 
HETATM   19  O   UNL     1      -8.841  19.971  67.118  1.00  0.00    -0.318 OA 
ENDBRANCH  14  15
ENDBRANCH  13  14
BRANCH  13  20
HETATM   20  C   UNL     1     -10.434  14.451  65.233  1.00  0.00    -0.390 C  
HETATM   21  O   UNL     1      -9.716  13.302  64.779  1.00  0.00    -0.566 OA 
HETATM   22  H   UNL     1      -9.828  13.194  63.842  1.00  0.00     0.000 HD 
ENDBRANCH  13  20
ENDBRANCH  12  13
ENDBRANCH   8  12
TORSDOF 5
ENDMDL
MODEL       78
REMARK 921   NORMALIZED FREE ENERGY PREDICTED BY IDOCK:   -4.59 KCAL/MOL
REMARK 922        TOTAL FREE ENERGY PREDICTED BY IDOCK:   -6.86 KCAL/MOL
REMARK 923 INTER-LIGAND FREE ENERGY PREDICTED BY IDOCK:   -6.33 KCAL/MOL
REMARK 924 INTRA-LIGAND FREE ENERGY PREDICTED BY IDOCK:   -0.54 KCAL/MOL
REMARK 927      BINDING AFFINITY PREDICTED BY RF-SCORE:    0.00 PKD
ROOT
HETATM    1  N   UNL     1     -10.311   6.227  66.211  1.00  0.00    -0.437 NA 
HETATM    2  H1  UNL     1     -10.655   5.504  66.843  1.00  0.00     0.000 HD 
HETATM    3  C   UNL     1     -10.166   7.476  66.733  1.00  0.00    -0.254 C  
HETATM    4  H2  UNL     1     -10.085   6.024  65.237  1.00  0.00     0.000 HD 
HETATM    5  N   UNL     1      -9.726   8.396  65.929  1.00  0.00    -0.465 N  
HETATM    6  C   UNL     1      -9.624   9.695  66.362  1.00  0.00    -0.210 C  
HETATM    7  H   UNL     1      -9.457   8.154  64.976  1.00  0.00     0.000 HD 
HETATM    8  N   UNL     1     -10.067   9.995  67.653  1.00  0.00    -0.179 N  
HETATM    9  O   UNL     1      -9.183  10.580  65.630  1.00  0.00    -0.170 OA 
HETATM   10  C   UNL     1     -10.518   7.734  68.140  1.00  0.00    -0.230 C  
HETATM   11  C   UNL     1     -10.469   9.014  68.525  1.00  0.00    -0.196 C  
ENDROOT
BRANCH   8  12
HETATM   12  C   UNL     1     -10.279  11.392  67.997  1.00  0.00    -0.185 C  
BRANCH  12  13
HETATM   13  C   UNL     1     -11.723  11.801  68.362  1.00  0.00    -0.325 C  
BRANCH  13  14
HETATM   14  O   UNL     1     -12.350  12.506  67.242  1.00  0.00    -0.359 OA 
BRANCH  14  15
HETATM   15  C   UNL     1     -11.337  13.066  66.387  1.00  0.00    -0.317 C  
HETATM   16  P   UNL     1     -11.860  13.162  64.635  1.00  0.00    -0.425 P  
HETATM   17  O   UNL     1     -13.048  14.174  65.168  1.00  0.00    -0.757 OA 
HETATM   18  O   UNL     1     -10.623  14.236  64.463  1.00  0.00    -0.388 OA 
HETATM   19  O   UNL     1     -12.300  13.243  63.154  1.00  0.00    -0.682 OA 
ENDBRANCH  14  15
ENDBRANCH  13  14
BRANCH  13  20
HETATM   20  C   UNL     1     -11.750  12.723  69.592  1.00  0.00    -0.302 C  
HETATM   21  O   UNL     1     -11.880  11.948  70.786  1.00  0.00    -0.445 OA 
HETATM   22  H   UNL     1     -11.897  12.518  71.546  1.00  0.00     0.000 HD 
ENDBRANCH  13  20
ENDBRANCH  12  13
ENDBRANCH   8  12
TORSDOF 5
ENDMDL
MODEL       79
REMARK 921   NORMALIZED FREE ENERGY PREDICTED BY IDOCK:   -4.58 KCAL/MOL
REMARK 922        TOTAL FREE ENERGY PREDICTED BY IDOCK:   -6.85 KCAL/MOL
REMARK 923 INTER-LIGAND FREE ENERGY PREDICTED BY IDOCK:   -6.26 KCAL/MOL
REMARK 924 INTRA-LIGAND FREE ENERGY PREDICTED BY IDOCK:   -0.59 KCAL/MOL
REMARK 927      BINDING AFFINITY PREDICTED BY RF-SCORE:    0.00 PKD
ROOT
HETATM    1  N   UNL     1      -5.922  16.473  66.594  1.00  0.00    -0.303 NA 
HETATM    2  H1  UNL     1      -5.197  16.237  67.272  1.00  0.00     0.000 HD 
HETATM    3  C   UNL     1      -7.190  16.597  67.073  1.00  0.00    -0.201 C  
HETATM    4  H2  UNL     1      -5.707  16.610  65.607  1.00  0.00     0.000 HD 
HETATM    5  N   UNL     1      -8.112  16.898  66.211  1.00  0.00    -0.311 N  
HETATM    6  C   UNL     1      -9.426  16.969  66.605  1.00  0.00    -0.263 C  
HETATM    7  H   UNL     1      -7.861  17.083  65.239  1.00  0.00     0.000 HD 
HETATM    8  N   UNL     1      -9.733  16.643  67.929  1.00  0.00    -0.240 N  
HETATM    9  O   UNL     1     -10.314  17.280  65.814  1.00  0.00    -0.531 OA 
HETATM   10  C   UNL     1      -7.465  16.376  68.504  1.00  0.00    -0.181 C  
HETATM   11  C   UNL     1      -8.754  16.389  68.856  1.00  0.00    -0.253 C  
ENDROOT
BRANCH   8  12
HETATM   12  C   UNL     1     -11.125  16.386  68.265  1.00  0.00    -0.337 C  
BRANCH  12  13
HETATM   13  C   UNL     1     -11.462  14.967  68.770  1.00  0.00    -0.307 C  
BRANCH  13  14
HETATM   14  O   UNL     1     -12.225  14.234  67.757  1.00  0.00    -0.325 OA 
BRANCH  14  15
HETATM   15  C   UNL     1     -11.329  13.478  66.921  1.00  0.00    -0.326 C  
HETATM   16  P   UNL     1     -12.067  13.036  65.305  1.00  0.00    -0.488 P  
HETATM   17  O   UNL     1     -12.164  14.662  65.040  1.00  0.00    -0.381 OA 
HETATM   18  O   UNL     1     -10.517  12.758  64.824  1.00  0.00    -0.306 OA 
HETATM   19  O   UNL     1     -12.690  12.663  63.939  1.00  0.00    -0.677 OA 
ENDBRANCH  14  15
ENDBRANCH  13  14
BRANCH  13  20
HETATM   20  C   UNL     1     -12.292  15.014  70.062  1.00  0.00    -0.309 C  
HETATM   21  O   UNL     1     -13.064  16.216  70.109  1.00  0.00    -0.525 OA 
HETATM   22  H   UNL     1     -13.578  16.245  70.908  1.00  0.00     0.000 HD 
ENDBRANCH  13  20
ENDBRANCH  12  13
ENDBRANCH   8  12
TORSDOF 5
ENDMDL
MODEL       80
REMARK 921   NORMALIZED FREE ENERGY PREDICTED BY IDOCK:   -4.58 KCAL/MOL
REMARK 922        TOTAL FREE ENERGY PREDICTED BY IDOCK:   -6.85 KCAL/MOL
REMARK 923 INTER-LIGAND FREE ENERGY PREDICTED BY IDOCK:   -6.16 KCAL/MOL
REMARK 924 INTRA-LIGAND FREE ENERGY PREDICTED BY IDOCK:   -0.69 KCAL/MOL
REMARK 927      BINDING AFFINITY PREDICTED BY RF-SCORE:    0.00 PKD
ROOT
HETATM    1  N   UNL     1     -10.328   7.691  67.737  1.00  0.00    -0.207 NA 
HETATM    2  H1  UNL     1      -9.988   7.083  68.482  1.00  0.00     0.000 HD 
HETATM    3  C   UNL     1     -10.589   8.984  68.073  1.00  0.00    -0.186 C  
HETATM    4  H2  UNL     1     -10.465   7.348  66.786  1.00  0.00     0.000 HD 
HETATM    5  N   UNL     1     -11.020   9.758  67.125  1.00  0.00    -0.231 N  
HETATM    6  C   UNL     1     -11.374  11.055  67.403  1.00  0.00    -0.230 C  
HETATM    7  H   UNL     1     -11.096   9.402  66.171  1.00  0.00     0.000 HD 
HETATM    8  N   UNL     1     -11.318  11.481  68.733  1.00  0.00    -0.238 N  
HETATM    9  O   UNL     1     -11.758  11.817  66.517  1.00  0.00    -0.530 OA 
HETATM   10  C   UNL     1     -10.394   9.440  69.461  1.00  0.00    -0.223 C  
HETATM   11  C   UNL     1     -10.801  10.687  69.725  1.00  0.00    -0.261 C  
ENDROOT
BRANCH   8  12
HETATM   12  C   UNL     1     -12.000  12.717  69.085  1.00  0.00    -0.246 C  
BRANCH  12  13
HETATM   13  C   UNL     1     -11.135  13.995  69.121  1.00  0.00    -0.259 C  
BRANCH  13  14
HETATM   14  O   UNL     1     -11.178  14.602  70.453  1.00  0.00    -0.218 OA 
BRANCH  14  15
HETATM   15  C   UNL     1     -12.541  14.683  70.910  1.00  0.00    -0.342 C  
HETATM   16  P   UNL     1     -12.671  15.096  72.689  1.00  0.00    -0.471 P  
HETATM   17  O   UNL     1     -11.916  16.509  72.294  1.00  0.00    -0.494 OA 
HETATM   18  O   UNL     1     -14.231  15.496  72.346  1.00  0.00    -0.553 OA 
HETATM   19  O   UNL     1     -12.782  15.445  74.192  1.00  0.00    -0.546 OA 
ENDBRANCH  14  15
ENDBRANCH  13  14
BRANCH  13  20
HETATM   20  C   UNL     1     -11.626  15.033  68.099  1.00  0.00    -0.340 C  
HETATM   21  O   UNL     1     -12.448  14.404  67.113  1.00  0.00    -0.590 OA 
HETATM   22  H   UNL     1     -12.751  15.046  66.481  1.00  0.00     0.000 HD 
ENDBRANCH  13  20
ENDBRANCH  12  13
ENDBRANCH   8  12
TORSDOF 5
ENDMDL
MODEL       81
REMARK 921   NORMALIZED FREE ENERGY PREDICTED BY IDOCK:   -4.57 KCAL/MOL
REMARK 922        TOTAL FREE ENERGY PREDICTED BY IDOCK:   -6.84 KCAL/MOL
REMARK 923 INTER-LIGAND FREE ENERGY PREDICTED BY IDOCK:   -6.13 KCAL/MOL
REMARK 924 INTRA-LIGAND FREE ENERGY PREDICTED BY IDOCK:   -0.71 KCAL/MOL
REMARK 927      BINDING AFFINITY PREDICTED BY RF-SCORE:    0.00 PKD
ROOT
HETATM    1  N   UNL     1     -11.515  11.372  63.032  1.00  0.00    -0.852 NA 
HETATM    2  H1  UNL     1     -12.150  11.659  62.287  1.00  0.00     0.000 HD 
HETATM    3  C   UNL     1     -11.328  12.257  64.050  1.00  0.00    -0.399 C  
HETATM    4  H2  UNL     1     -11.045  10.467  63.017  1.00  0.00     0.000 HD 
HETATM    5  N   UNL     1     -10.521  11.892  64.999  1.00  0.00    -0.277 N  
HETATM    6  C   UNL     1     -10.225  12.759  66.021  1.00  0.00    -0.278 C  
HETATM    7  H   UNL     1     -10.107  10.959  64.985  1.00  0.00     0.000 HD 
HETATM    8  N   UNL     1     -10.761  14.049  65.965  1.00  0.00    -0.290 N  
HETATM    9  O   UNL     1      -9.487  12.427  66.947  1.00  0.00    -0.207 OA 
HETATM   10  C   UNL     1     -12.012  13.562  64.029  1.00  0.00    -0.501 C  
HETATM   11  C   UNL     1     -11.664  14.414  64.999  1.00  0.00    -0.389 C  
ENDROOT
BRANCH   8  12
HETATM   12  C   UNL     1     -10.194  15.064  66.840  1.00  0.00    -0.258 C  
BRANCH  12  13
HETATM   13  C   UNL     1     -10.534  16.532  66.502  1.00  0.00    -0.270 C  
BRANCH  13  14
HETATM   14  O   UNL     1      -9.453  17.137  65.720  1.00  0.00    -0.525 OA 
BRANCH  14  15
HETATM   15  C   UNL     1      -8.178  16.728  66.249  1.00  0.00    -0.324 C  
HETATM   16  P   UNL     1      -6.889  18.016  66.075  1.00  0.00    -0.259 P  
HETATM   17  O   UNL     1      -7.852  18.941  67.044  1.00  0.00    -0.236 OA 
HETATM   18  O   UNL     1      -6.068  17.161  67.218  1.00  0.00    -0.126 OA 
HETATM   19  O   UNL     1      -5.799  19.105  65.930  1.00  0.00    -0.155 OA 
ENDBRANCH  14  15
ENDBRANCH  13  14
BRANCH  13  20
HETATM   20  C   UNL     1     -10.737  17.368  67.776  1.00  0.00    -0.332 C  
HETATM   21  O   UNL     1     -10.798  18.758  67.449  1.00  0.00    -0.449 OA 
HETATM   22  H   UNL     1     -10.924  19.274  68.237  1.00  0.00     0.000 HD 
ENDBRANCH  13  20
ENDBRANCH  12  13
ENDBRANCH   8  12
TORSDOF 5
ENDMDL
MODEL       82
REMARK 921   NORMALIZED FREE ENERGY PREDICTED BY IDOCK:   -4.57 KCAL/MOL
REMARK 922        TOTAL FREE ENERGY PREDICTED BY IDOCK:   -6.84 KCAL/MOL
REMARK 923 INTER-LIGAND FREE ENERGY PREDICTED BY IDOCK:   -6.09 KCAL/MOL
REMARK 924 INTRA-LIGAND FREE ENERGY PREDICTED BY IDOCK:   -0.75 KCAL/MOL
REMARK 927      BINDING AFFINITY PREDICTED BY RF-SCORE:    0.00 PKD
ROOT
HETATM    1  N   UNL     1     -10.838  19.422  67.518  1.00  0.00    -0.463 NA 
HETATM    2  H1  UNL     1     -10.839  20.072  66.731  1.00  0.00     0.000 HD 
HETATM    3  C   UNL     1     -10.624  18.110  67.227  1.00  0.00    -0.367 C  
HETATM    4  H2  UNL     1     -10.989  19.741  68.475  1.00  0.00     0.000 HD 
HETATM    5  N   UNL     1     -10.622  17.284  68.228  1.00  0.00    -0.383 N  
HETATM    6  C   UNL     1     -10.487  15.935  68.007  1.00  0.00    -0.274 C  
HETATM    7  H   UNL     1     -10.721  17.637  69.181  1.00  0.00     0.000 HD 
HETATM    8  N   UNL     1     -10.421  15.490  66.684  1.00  0.00    -0.294 N  
HETATM    9  O   UNL     1     -10.452  15.135  68.941  1.00  0.00    -0.225 OA 
HETATM   10  C   UNL     1     -10.427  17.685  65.830  1.00  0.00    -0.247 C  
HETATM   11  C   UNL     1     -10.357  16.365  65.629  1.00  0.00    -0.350 C  
ENDROOT
BRANCH   8  12
HETATM   12  C   UNL     1     -10.618  14.071  66.429  1.00  0.00    -0.280 C  
BRANCH  12  13
HETATM   13  C   UNL     1     -12.075  13.560  66.462  1.00  0.00    -0.408 C  
BRANCH  13  14
HETATM   14  O   UNL     1     -12.109  12.142  66.826  1.00  0.00    -0.609 OA 
BRANCH  14  15
HETATM   15  C   UNL     1     -10.810  11.724  67.287  1.00  0.00    -0.253 C  
HETATM   16  P   UNL     1     -10.338  10.066  66.671  1.00  0.00    -0.148 P  
HETATM   17  O   UNL     1     -10.432  10.729  65.164  1.00  0.00    -0.285 OA 
HETATM   18  O   UNL     1      -8.802  10.497  67.080  1.00  0.00    -0.136 OA 
HETATM   19  O   UNL     1      -9.937   8.664  66.152  1.00  0.00    -0.260 OA 
ENDBRANCH  14  15
ENDBRANCH  13  14
BRANCH  13  20
HETATM   20  C   UNL     1     -12.757  13.726  65.094  1.00  0.00    -0.397 C  
HETATM   21  O   UNL     1     -12.823  12.467  64.420  1.00  0.00    -0.714 OA 
HETATM   22  H   UNL     1     -13.245  12.570  63.575  1.00  0.00     0.000 HD 
ENDBRANCH  13  20
ENDBRANCH  12  13
ENDBRANCH   8  12
TORSDOF 5
ENDMDL
MODEL       83
REMARK 921   NORMALIZED FREE ENERGY PREDICTED BY IDOCK:   -4.55 KCAL/MOL
REMARK 922        TOTAL FREE ENERGY PREDICTED BY IDOCK:   -6.81 KCAL/MOL
REMARK 923 INTER-LIGAND FREE ENERGY PREDICTED BY IDOCK:   -6.22 KCAL/MOL
REMARK 924 INTRA-LIGAND FREE ENERGY PREDICTED BY IDOCK:   -0.59 KCAL/MOL
REMARK 927      BINDING AFFINITY PREDICTED BY RF-SCORE:    0.00 PKD
ROOT
HETATM    1  N   UNL     1     -10.996   8.357  67.600  1.00  0.00    -0.483 NA 
HETATM    2  H1  UNL     1     -10.608   7.928  66.760  1.00  0.00     0.000 HD 
HETATM    3  C   UNL     1     -10.865   9.707  67.713  1.00  0.00    -0.217 C  
HETATM    4  H2  UNL     1     -11.460   7.802  68.319  1.00  0.00     0.000 HD 
HETATM    5  N   UNL     1     -11.359  10.253  68.782  1.00  0.00    -0.437 N  
HETATM    6  C   UNL     1     -11.201  11.600  69.002  1.00  0.00    -0.262 C  
HETATM    7  H   UNL     1     -11.866   9.682  69.459  1.00  0.00     0.000 HD 
HETATM    8  N   UNL     1     -10.444  12.331  68.084  1.00  0.00    -0.210 N  
HETATM    9  O   UNL     1     -11.685  12.146  69.993  1.00  0.00    -0.308 OA 
HETATM   10  C   UNL     1     -10.175  10.473  66.661  1.00  0.00    -0.289 C  
HETATM   11  C   UNL     1      -9.977  11.770  66.922  1.00  0.00    -0.199 C  
ENDROOT
BRANCH   8  12
HETATM   12  C   UNL     1      -9.990  13.657  68.473  1.00  0.00    -0.208 C  
BRANCH  12  13
HETATM   13  C   UNL     1     -10.977  14.821  68.235  1.00  0.00    -0.258 C  
BRANCH  13  14
HETATM   14  O   UNL     1     -10.430  15.759  67.252  1.00  0.00    -0.294 OA 
BRANCH  14  15
HETATM   15  C   UNL     1     -10.771  17.108  67.621  1.00  0.00    -0.302 C  
HETATM   16  P   UNL     1      -9.846  18.363  66.661  1.00  0.00    -0.387 P  
HETATM   17  O   UNL     1     -10.593  17.726  65.335  1.00  0.00    -0.659 OA 
HETATM   18  O   UNL     1     -11.008  19.414  67.169  1.00  0.00    -0.483 OA 
HETATM   19  O   UNL     1      -9.065  19.425  65.850  1.00  0.00    -0.419 OA 
ENDBRANCH  14  15
ENDBRANCH  13  14
BRANCH  13  20
HETATM   20  C   UNL     1     -11.259  15.591  69.535  1.00  0.00    -0.299 C  
HETATM   21  O   UNL     1     -10.665  14.917  70.647  1.00  0.00    -0.510 OA 
HETATM   22  H   UNL     1     -10.840  15.393  71.451  1.00  0.00     0.000 HD 
ENDBRANCH  13  20
ENDBRANCH  12  13
ENDBRANCH   8  12
TORSDOF 5
ENDMDL
MODEL       84
REMARK 921   NORMALIZED FREE ENERGY PREDICTED BY IDOCK:   -4.50 KCAL/MOL
REMARK 922        TOTAL FREE ENERGY PREDICTED BY IDOCK:   -6.75 KCAL/MOL
REMARK 923 INTER-LIGAND FREE ENERGY PREDICTED BY IDOCK:   -6.21 KCAL/MOL
REMARK 924 INTRA-LIGAND FREE ENERGY PREDICTED BY IDOCK:   -0.55 KCAL/MOL
REMARK 927      BINDING AFFINITY PREDICTED BY RF-SCORE:    0.00 PKD
ROOT
HETATM    1  N   UNL     1     -10.590  10.680  62.846  1.00  0.00    -0.587 NA 
HETATM    2  H1  UNL     1     -11.265  10.857  62.102  1.00  0.00     0.000 HD 
HETATM    3  C   UNL     1     -10.509  11.614  63.833  1.00  0.00    -0.382 C  
HETATM    4  H2  UNL     1     -10.004   9.846  62.850  1.00  0.00     0.000 HD 
HETATM    5  N   UNL     1      -9.650  11.389  64.780  1.00  0.00    -0.301 N  
HETATM    6  C   UNL     1      -9.460  12.321  65.771  1.00  0.00    -0.121 C  
HETATM    7  H   UNL     1      -9.116  10.520  64.788  1.00  0.00     0.000 HD 
HETATM    8  N   UNL     1     -10.162  13.526  65.684  1.00  0.00    -0.293 N  
HETATM    9  O   UNL     1      -8.673  12.119  66.695  1.00  0.00    -0.195 OA 
HETATM   10  C   UNL     1     -11.361  12.816  63.784  1.00  0.00    -0.520 C  
HETATM   11  C   UNL     1     -11.118  13.737  64.722  1.00  0.00    -0.377 C  
ENDROOT
BRANCH   8  12
HETATM   12  C   UNL     1      -9.726  14.634  66.519  1.00  0.00    -0.280 C  
BRANCH  12  13
HETATM   13  C   UNL     1     -10.825  15.377  67.309  1.00  0.00    -0.316 C  
BRANCH  13  14
HETATM   14  O   UNL     1     -10.818  16.803  66.973  1.00  0.00    -0.211 OA 
BRANCH  14  15
HETATM   15  C   UNL     1     -10.385  17.571  68.110  1.00  0.00    -0.375 C  
HETATM   16  P   UNL     1      -9.671  19.191  67.644  1.00  0.00    -0.358 P  
HETATM   17  O   UNL     1     -11.158  19.532  67.017  1.00  0.00    -0.424 OA 
HETATM   18  O   UNL     1      -9.920  19.605  69.218  1.00  0.00    -0.436 OA 
HETATM   19  O   UNL     1      -9.067  20.561  67.250  1.00  0.00    -0.378 OA 
ENDBRANCH  14  15
ENDBRANCH  13  14
BRANCH  13  20
HETATM   20  C   UNL     1     -10.618  15.235  68.825  1.00  0.00    -0.240 C  
HETATM   21  O   UNL     1      -9.799  14.098  69.108  1.00  0.00    -0.415 OA 
HETATM   22  H   UNL     1      -9.672  14.011  70.045  1.00  0.00     0.000 HD 
ENDBRANCH  13  20
ENDBRANCH  12  13
ENDBRANCH   8  12
TORSDOF 5
ENDMDL
MODEL       85
REMARK 921   NORMALIZED FREE ENERGY PREDICTED BY IDOCK:   -4.48 KCAL/MOL
REMARK 922        TOTAL FREE ENERGY PREDICTED BY IDOCK:   -6.73 KCAL/MOL
REMARK 923 INTER-LIGAND FREE ENERGY PREDICTED BY IDOCK:   -6.19 KCAL/MOL
REMARK 924 INTRA-LIGAND FREE ENERGY PREDICTED BY IDOCK:   -0.53 KCAL/MOL
REMARK 927      BINDING AFFINITY PREDICTED BY RF-SCORE:    0.00 PKD
ROOT
HETATM    1  N   UNL     1     -11.516   6.490  71.439  1.00  0.00    -0.295 NA 
HETATM    2  H1  UNL     1     -11.525   6.559  72.456  1.00  0.00     0.000 HD 
HETATM    3  C   UNL     1     -11.090   7.588  70.755  1.00  0.00    -0.265 C  
HETATM    4  H2  UNL     1     -11.810   5.641  70.957  1.00  0.00     0.000 HD 
HETATM    5  N   UNL     1     -11.077   7.500  69.460  1.00  0.00    -0.443 N  
HETATM    6  C   UNL     1     -10.731   8.590  68.700  1.00  0.00    -0.041 C  
HETATM    7  H   UNL     1     -11.325   6.620  69.007  1.00  0.00     0.000 HD 
HETATM    8  N   UNL     1     -10.464   9.793  69.359  1.00  0.00    -0.210 N  
HETATM    9  O   UNL     1     -10.683   8.523  67.473  1.00  0.00    -0.248 OA 
HETATM   10  C   UNL     1     -10.688   8.803  71.485  1.00  0.00    -0.371 C  
HETATM   11  C   UNL     1     -10.413   9.870  70.729  1.00  0.00    -0.183 C  
ENDROOT
BRANCH   8  12
HETATM   12  C   UNL     1     -10.431  11.013  68.569  1.00  0.00    -0.189 C  
BRANCH  12  13
HETATM   13  C   UNL     1     -11.710  11.878  68.583  1.00  0.00    -0.323 C  
BRANCH  13  14
HETATM   14  O   UNL     1     -12.349  11.862  67.265  1.00  0.00    -0.270 OA 
BRANCH  14  15
HETATM   15  C   UNL     1     -11.370  12.121  66.243  1.00  0.00    -0.357 C  
HETATM   16  P   UNL     1     -12.121  12.469  64.610  1.00  0.00    -0.421 P  
HETATM   17  O   UNL     1     -12.819  13.772  65.341  1.00  0.00    -0.650 OA 
HETATM   18  O   UNL     1     -10.655  13.108  64.220  1.00  0.00    -0.403 OA 
HETATM   19  O   UNL     1     -12.755  12.763  63.229  1.00  0.00    -0.662 OA 
ENDBRANCH  14  15
ENDBRANCH  13  14
BRANCH  13  20
HETATM   20  C   UNL     1     -11.396  13.337  68.952  1.00  0.00    -0.288 C  
HETATM   21  O   UNL     1     -12.331  14.217  68.322  1.00  0.00    -0.574 OA 
HETATM   22  H   UNL     1     -12.136  15.119  68.550  1.00  0.00     0.000 HD 
ENDBRANCH  13  20
ENDBRANCH  12  13
ENDBRANCH   8  12
TORSDOF 5
ENDMDL
MODEL       86
REMARK 921   NORMALIZED FREE ENERGY PREDICTED BY IDOCK:   -4.48 KCAL/MOL
REMARK 922        TOTAL FREE ENERGY PREDICTED BY IDOCK:   -6.73 KCAL/MOL
REMARK 923 INTER-LIGAND FREE ENERGY PREDICTED BY IDOCK:   -5.84 KCAL/MOL
REMARK 924 INTRA-LIGAND FREE ENERGY PREDICTED BY IDOCK:   -0.88 KCAL/MOL
REMARK 927      BINDING AFFINITY PREDICTED BY RF-SCORE:    0.00 PKD
ROOT
HETATM    1  N   UNL     1     -12.382  13.415  62.890  1.00  0.00    -0.882 NA 
HETATM    2  H1  UNL     1     -12.042  13.238  61.944  1.00  0.00     0.000 HD 
HETATM    3  C   UNL     1     -11.789  12.714  63.894  1.00  0.00    -0.467 C  
HETATM    4  H2  UNL     1     -13.128  14.085  63.073  1.00  0.00     0.000 HD 
HETATM    5  N   UNL     1     -12.221  12.940  65.097  1.00  0.00    -0.444 N  
HETATM    6  C   UNL     1     -11.723  12.217  66.153  1.00  0.00    -0.376 C  
HETATM    7  H   UNL     1     -12.931  13.655  65.258  1.00  0.00     0.000 HD 
HETATM    8  N   UNL     1     -10.802  11.203  65.880  1.00  0.00    -0.205 N  
HETATM    9  O   UNL     1     -12.095  12.433  67.306  1.00  0.00    -0.516 OA 
HETATM   10  C   UNL     1     -10.724  11.742  63.588  1.00  0.00    -0.503 C  
HETATM   11  C   UNL     1     -10.296  11.007  64.619  1.00  0.00    -0.345 C  
ENDROOT
BRANCH   8  12
HETATM   12  C   UNL     1     -10.530  10.225  66.923  1.00  0.00    -0.229 C  
BRANCH  12  13
HETATM   13  C   UNL     1      -9.074  10.144  67.429  1.00  0.00    -0.137 C  
BRANCH  13  14
HETATM   14  O   UNL     1      -8.709   8.754  67.708  1.00  0.00    -0.134 OA 
BRANCH  14  15
HETATM   15  C   UNL     1      -9.665   7.865  67.102  1.00  0.00    -0.191 C  
HETATM   16  P   UNL     1     -10.025   6.396  68.133  1.00  0.00    -0.160 P  
HETATM   17  O   UNL     1     -10.587   7.468  69.254  1.00  0.00    -0.223 OA 
HETATM   18  O   UNL     1     -11.367   6.230  67.193  1.00  0.00    -0.261 OA 
HETATM   19  O   UNL     1     -10.329   5.154  69.004  1.00  0.00    -0.199 OA 
ENDBRANCH  14  15
ENDBRANCH  13  14
BRANCH  13  20
HETATM   20  C   UNL     1      -8.881  10.964  68.715  1.00  0.00    -0.161 C  
HETATM   21  O   UNL     1     -10.142  11.190  69.349  1.00  0.00    -0.411 OA 
HETATM   22  H   UNL     1     -10.023  11.697  70.144  1.00  0.00     0.000 HD 
ENDBRANCH  13  20
ENDBRANCH  12  13
ENDBRANCH   8  12
TORSDOF 5
ENDMDL
MODEL       87
REMARK 921   NORMALIZED FREE ENERGY PREDICTED BY IDOCK:   -4.48 KCAL/MOL
REMARK 922        TOTAL FREE ENERGY PREDICTED BY IDOCK:   -6.73 KCAL/MOL
REMARK 923 INTER-LIGAND FREE ENERGY PREDICTED BY IDOCK:   -6.11 KCAL/MOL
REMARK 924 INTRA-LIGAND FREE ENERGY PREDICTED BY IDOCK:   -0.62 KCAL/MOL
REMARK 927      BINDING AFFINITY PREDICTED BY RF-SCORE:    0.00 PKD
ROOT
HETATM    1  N   UNL     1     -11.238  14.376  70.617  1.00  0.00    -0.500 NA 
HETATM    2  H1  UNL     1     -12.184  14.615  70.916  1.00  0.00     0.000 HD 
HETATM    3  C   UNL     1     -11.031  14.263  69.276  1.00  0.00    -0.241 C  
HETATM    4  H2  UNL     1     -10.485  14.230  71.289  1.00  0.00     0.000 HD 
HETATM    5  N   UNL     1      -9.827  13.960  68.896  1.00  0.00    -0.410 N  
HETATM    6  C   UNL     1      -9.557  13.756  67.565  1.00  0.00    -0.219 C  
HETATM    7  H   UNL     1      -9.081  13.873  69.587  1.00  0.00     0.000 HD 
HETATM    8  N   UNL     1     -10.621  13.820  66.661  1.00  0.00    -0.273 N  
HETATM    9  O   UNL     1      -8.419  13.497  67.176  1.00  0.00    -0.196 OA 
HETATM   10  C   UNL     1     -12.147  14.466  68.336  1.00  0.00    -0.278 C  
HETATM   11  C   UNL     1     -11.879  14.205  67.052  1.00  0.00    -0.429 C  
ENDROOT
BRANCH   8  12
HETATM   12  C   UNL     1     -10.418  13.282  65.325  1.00  0.00    -0.313 C  
BRANCH  12  13
HETATM   13  C   UNL     1     -11.604  12.513  64.704  1.00  0.00    -0.343 C  
BRANCH  13  14
HETATM   14  O   UNL     1     -11.235  11.116  64.464  1.00  0.00    -0.197 OA 
BRANCH  14  15
HETATM   15  C   UNL     1      -9.887  10.882  64.909  1.00  0.00    -0.284 C  
HETATM   16  P   UNL     1      -8.908   9.889  63.723  1.00  0.00    -0.249 P  
HETATM   17  O   UNL     1      -9.155  11.129  62.663  1.00  0.00    -0.319 OA 
HETATM   18  O   UNL     1      -7.593  10.459  64.533  1.00  0.00    -0.126 OA 
HETATM   19  O   UNL     1      -8.080   9.049  62.721  1.00  0.00    -0.145 OA 
ENDBRANCH  14  15
ENDBRANCH  13  14
BRANCH  13  20
HETATM   20  C   UNL     1     -12.037  13.137  63.367  1.00  0.00    -0.486 C  
HETATM   21  O   UNL     1     -12.529  14.462  63.578  1.00  0.00    -1.102 OA 
HETATM   22  H   UNL     1     -12.797  14.848  62.751  1.00  0.00     0.000 HD 
ENDBRANCH  13  20
ENDBRANCH  12  13
ENDBRANCH   8  12
TORSDOF 5
ENDMDL
MODEL       88
REMARK 921   NORMALIZED FREE ENERGY PREDICTED BY IDOCK:   -4.46 KCAL/MOL
REMARK 922        TOTAL FREE ENERGY PREDICTED BY IDOCK:   -6.71 KCAL/MOL
REMARK 923 INTER-LIGAND FREE ENERGY PREDICTED BY IDOCK:   -6.17 KCAL/MOL
REMARK 924 INTRA-LIGAND FREE ENERGY PREDICTED BY IDOCK:   -0.54 KCAL/MOL
REMARK 927      BINDING AFFINITY PREDICTED BY RF-SCORE:    0.00 PKD
ROOT
HETATM    1  N   UNL     1     -13.993  15.772  71.040  1.00  0.00    -0.594 NA 
HETATM    2  H1  UNL     1     -13.939  16.617  71.610  1.00  0.00     0.000 HD 
HETATM    3  C   UNL     1     -12.823  15.310  70.520  1.00  0.00    -0.373 C  
HETATM    4  H2  UNL     1     -14.879  15.298  70.869  1.00  0.00     0.000 HD 
HETATM    5  N   UNL     1     -12.892  14.235  69.796  1.00  0.00    -0.419 N  
HETATM    6  C   UNL     1     -11.766  13.750  69.177  1.00  0.00    -0.334 C  
HETATM    7  H   UNL     1     -13.783  13.750  69.686  1.00  0.00     0.000 HD 
HETATM    8  N   UNL     1     -10.582  14.482  69.299  1.00  0.00    -0.240 N  
HETATM    9  O   UNL     1     -11.799  12.717  68.509  1.00  0.00    -0.307 OA 
HETATM   10  C   UNL     1     -11.564  16.032  70.776  1.00  0.00    -0.431 C  
HETATM   11  C   UNL     1     -10.492  15.580  70.117  1.00  0.00    -0.301 C  
ENDROOT
BRANCH   8  12
HETATM   12  C   UNL     1      -9.489  14.172  68.390  1.00  0.00    -0.214 C  
BRANCH  12  13
HETATM   13  C   UNL     1      -8.635  15.365  67.907  1.00  0.00    -0.155 C  
BRANCH  13  14
HETATM   14  O   UNL     1      -8.602  15.408  66.444  1.00  0.00    -0.287 OA 
BRANCH  14  15
HETATM   15  C   UNL     1      -9.650  16.266  65.955  1.00  0.00    -0.337 C  
HETATM   16  P   UNL     1      -9.632  17.923  66.732  1.00  0.00    -0.331 P  
HETATM   17  O   UNL     1      -8.135  18.092  66.059  1.00  0.00    -0.477 OA 
HETATM   18  O   UNL     1     -10.573  18.383  65.462  1.00  0.00    -0.627 OA 
HETATM   19  O   UNL     1      -9.618  19.325  67.389  1.00  0.00    -0.303 OA 
ENDBRANCH  14  15
ENDBRANCH  13  14
BRANCH  13  20
HETATM   20  C   UNL     1      -7.190  15.264  68.422  1.00  0.00    -0.114 C  
HETATM   21  O   UNL     1      -6.360  14.637  67.442  1.00  0.00    -0.323 OA 
HETATM   22  H   UNL     1      -5.467  14.575  67.761  1.00  0.00     0.000 HD 
ENDBRANCH  13  20
ENDBRANCH  12  13
ENDBRANCH   8  12
TORSDOF 5
ENDMDL
MODEL       89
REMARK 921   NORMALIZED FREE ENERGY PREDICTED BY IDOCK:   -4.46 KCAL/MOL
REMARK 922        TOTAL FREE ENERGY PREDICTED BY IDOCK:   -6.70 KCAL/MOL
REMARK 923 INTER-LIGAND FREE ENERGY PREDICTED BY IDOCK:   -6.20 KCAL/MOL
REMARK 924 INTRA-LIGAND FREE ENERGY PREDICTED BY IDOCK:   -0.49 KCAL/MOL
REMARK 927      BINDING AFFINITY PREDICTED BY RF-SCORE:    0.00 PKD
ROOT
HETATM    1  N   UNL     1     -10.060   9.333  66.074  1.00  0.00    -0.330 NA 
HETATM    2  H1  UNL     1      -9.829   9.442  65.086  1.00  0.00     0.000 HD 
HETATM    3  C   UNL     1     -10.745  10.354  66.658  1.00  0.00    -0.128 C  
HETATM    4  H2  UNL     1      -9.790   8.501  66.598  1.00  0.00     0.000 HD 
HETATM    5  N   UNL     1     -11.039  10.215  67.914  1.00  0.00    -0.432 N  
HETATM    6  C   UNL     1     -11.665  11.233  68.591  1.00  0.00    -0.324 C  
HETATM    7  H   UNL     1     -10.806   9.348  68.400  1.00  0.00     0.000 HD 
HETATM    8  N   UNL     1     -11.906  12.427  67.906  1.00  0.00    -0.349 N  
HETATM    9  O   UNL     1     -11.980  11.115  69.774  1.00  0.00    -0.300 OA 
HETATM   10  C   UNL     1     -11.103  11.548  65.873  1.00  0.00    -0.274 C  
HETATM   11  C   UNL     1     -11.656  12.552  66.562  1.00  0.00    -0.388 C  
ENDROOT
BRANCH   8  12
HETATM   12  C   UNL     1     -12.249  13.606  68.685  1.00  0.00    -0.154 C  
BRANCH  12  13
HETATM   13  C   UNL     1     -11.079  14.528  69.092  1.00  0.00    -0.263 C  
BRANCH  13  14
HETATM   14  O   UNL     1     -11.090  14.756  70.539  1.00  0.00    -0.198 OA 
BRANCH  14  15
HETATM   15  C   UNL     1     -12.447  14.777  71.020  1.00  0.00    -0.330 C  
HETATM   16  P   UNL     1     -12.560  15.140  72.811  1.00  0.00    -0.470 P  
HETATM   17  O   UNL     1     -11.862  16.589  72.440  1.00  0.00    -0.532 OA 
HETATM   18  O   UNL     1     -14.138  15.494  72.505  1.00  0.00    -0.546 OA 
HETATM   19  O   UNL     1     -12.656  15.448  74.325  1.00  0.00    -0.579 OA 
ENDBRANCH  14  15
ENDBRANCH  13  14
BRANCH  13  20
HETATM   20  C   UNL     1     -11.167  15.890  68.386  1.00  0.00    -0.368 C  
HETATM   21  O   UNL     1     -10.046  16.069  67.517  1.00  0.00    -0.239 OA 
HETATM   22  H   UNL     1     -10.100  16.911  67.081  1.00  0.00     0.000 HD 
ENDBRANCH  13  20
ENDBRANCH  12  13
ENDBRANCH   8  12
TORSDOF 5
ENDMDL
MODEL       90
REMARK 921   NORMALIZED FREE ENERGY PREDICTED BY IDOCK:   -4.42 KCAL/MOL
REMARK 922        TOTAL FREE ENERGY PREDICTED BY IDOCK:   -6.65 KCAL/MOL
REMARK 923 INTER-LIGAND FREE ENERGY PREDICTED BY IDOCK:   -6.16 KCAL/MOL
REMARK 924 INTRA-LIGAND FREE ENERGY PREDICTED BY IDOCK:   -0.49 KCAL/MOL
REMARK 927      BINDING AFFINITY PREDICTED BY RF-SCORE:    0.00 PKD
ROOT
HETATM    1  N   UNL     1     -10.998   4.950  66.047  1.00  0.00    -0.750 NA 
HETATM    2  H1  UNL     1     -11.499   4.228  66.565  1.00  0.00     0.000 HD 
HETATM    3  C   UNL     1     -10.628   6.058  66.746  1.00  0.00    -0.291 C  
HETATM    4  H2  UNL     1     -10.785   4.847  65.055  1.00  0.00     0.000 HD 
HETATM    5  N   UNL     1      -9.990   6.977  66.087  1.00  0.00    -0.415 N  
HETATM    6  C   UNL     1      -9.649   8.155  66.705  1.00  0.00    -0.229 C  
HETATM    7  H   UNL     1      -9.743   6.824  65.109  1.00  0.00     0.000 HD 
HETATM    8  N   UNL     1     -10.066   8.350  68.024  1.00  0.00    -0.191 N  
HETATM    9  O   UNL     1      -9.019   9.029  66.111  1.00  0.00    -0.154 OA 
HETATM   10  C   UNL     1     -10.968   6.179  68.175  1.00  0.00    -0.398 C  
HETATM   11  C   UNL     1     -10.682   7.355  68.742  1.00  0.00    -0.118 C  
ENDROOT
BRANCH   8  12
HETATM   12  C   UNL     1     -10.010   9.698  68.567  1.00  0.00    -0.165 C  
BRANCH  12  13
HETATM   13  C   UNL     1     -11.216  10.614  68.265  1.00  0.00    -0.301 C  
BRANCH  13  14
HETATM   14  O   UNL     1     -10.785  11.788  67.503  1.00  0.00    -0.206 OA 
BRANCH  14  15
HETATM   15  C   UNL     1     -11.128  11.624  66.115  1.00  0.00    -0.280 C  
HETATM   16  P   UNL     1     -12.098  13.028  65.451  1.00  0.00    -0.482 P  
HETATM   17  O   UNL     1     -10.777  13.952  65.804  1.00  0.00    -0.279 OA 
HETATM   18  O   UNL     1     -11.662  12.457  63.970  1.00  0.00    -0.353 OA 
HETATM   19  O   UNL     1     -12.917  14.214  64.889  1.00  0.00    -0.705 OA 
ENDBRANCH  14  15
ENDBRANCH  13  14
BRANCH  13  20
HETATM   20  C   UNL     1     -11.892  11.097  69.558  1.00  0.00    -0.353 C  
HETATM   21  O   UNL     1     -12.444   9.987  70.270  1.00  0.00    -0.488 OA 
HETATM   22  H   UNL     1     -12.862  10.285  71.069  1.00  0.00     0.000 HD 
ENDBRANCH  13  20
ENDBRANCH  12  13
ENDBRANCH   8  12
TORSDOF 5
ENDMDL
MODEL       91
REMARK 921   NORMALIZED FREE ENERGY PREDICTED BY IDOCK:   -4.41 KCAL/MOL
REMARK 922        TOTAL FREE ENERGY PREDICTED BY IDOCK:   -6.64 KCAL/MOL
REMARK 923 INTER-LIGAND FREE ENERGY PREDICTED BY IDOCK:   -5.99 KCAL/MOL
REMARK 924 INTRA-LIGAND FREE ENERGY PREDICTED BY IDOCK:   -0.65 KCAL/MOL
REMARK 927      BINDING AFFINITY PREDICTED BY RF-SCORE:    0.00 PKD
ROOT
HETATM    1  N   UNL     1      -9.294   9.823  64.366  1.00  0.00    -0.372 NA 
HETATM    2  H1  UNL     1      -9.002   9.832  63.389  1.00  0.00     0.000 HD 
HETATM    3  C   UNL     1     -10.158  10.800  64.755  1.00  0.00    -0.331 C  
HETATM    4  H2  UNL     1      -8.956   9.117  65.020  1.00  0.00     0.000 HD 
HETATM    5  N   UNL     1     -10.530  10.789  65.999  1.00  0.00    -0.236 N  
HETATM    6  C   UNL     1     -11.342  11.785  66.483  1.00  0.00    -0.305 C  
HETATM    7  H   UNL     1     -10.219  10.039  66.617  1.00  0.00     0.000 HD 
HETATM    8  N   UNL     1     -11.689  12.828  65.620  1.00  0.00    -0.376 N  
HETATM    9  O   UNL     1     -11.732  11.780  67.650  1.00  0.00    -0.487 OA 
HETATM   10  C   UNL     1     -10.612  11.814  63.787  1.00  0.00    -0.470 C  
HETATM   11  C   UNL     1     -11.351  12.808  64.290  1.00  0.00    -0.367 C  
ENDROOT
BRANCH   8  12
HETATM   12  C   UNL     1     -12.252  14.037  66.200  1.00  0.00    -0.465 C  
BRANCH  12  13
HETATM   13  C   UNL     1     -11.245  15.078  66.736  1.00  0.00    -0.322 C  
BRANCH  13  14
HETATM   14  O   UNL     1      -9.882  14.544  66.680  1.00  0.00    -0.254 OA 
BRANCH  14  15
HETATM   15  C   UNL     1      -9.134  14.991  67.825  1.00  0.00    -0.180 C  
HETATM   16  P   UNL     1      -7.364  15.272  67.452  1.00  0.00    -0.161 P  
HETATM   17  O   UNL     1      -7.892  16.422  66.393  1.00  0.00    -0.289 OA 
HETATM   18  O   UNL     1      -7.346  16.150  68.845  1.00  0.00    -0.160 OA 
HETATM   19  O   UNL     1      -5.867  15.511  67.138  1.00  0.00    -0.320 OA 
ENDBRANCH  14  15
ENDBRANCH  13  14
BRANCH  13  20
HETATM   20  C   UNL     1     -11.556  15.460  68.192  1.00  0.00    -0.319 C  
HETATM   21  O   UNL     1     -12.421  14.487  68.784  1.00  0.00    -0.579 OA 
HETATM   22  H   UNL     1     -12.613  14.724  69.684  1.00  0.00     0.000 HD 
ENDBRANCH  13  20
ENDBRANCH  12  13
ENDBRANCH   8  12
TORSDOF 5
ENDMDL
MODEL       92
REMARK 921   NORMALIZED FREE ENERGY PREDICTED BY IDOCK:   -4.41 KCAL/MOL
REMARK 922        TOTAL FREE ENERGY PREDICTED BY IDOCK:   -6.63 KCAL/MOL
REMARK 923 INTER-LIGAND FREE ENERGY PREDICTED BY IDOCK:   -6.12 KCAL/MOL
REMARK 924 INTRA-LIGAND FREE ENERGY PREDICTED BY IDOCK:   -0.51 KCAL/MOL
REMARK 927      BINDING AFFINITY PREDICTED BY RF-SCORE:    0.00 PKD
ROOT
HETATM    1  N   UNL     1      -8.022   4.740  69.356  1.00  0.00    -0.070 NA 
HETATM    2  H1  UNL     1      -7.976   4.845  68.342  1.00  0.00     0.000 HD 
HETATM    3  C   UNL     1      -9.168   5.154  69.962  1.00  0.00    -0.134 C  
HETATM    4  H2  UNL     1      -7.247   4.345  69.889  1.00  0.00     0.000 HD 
HETATM    5  N   UNL     1      -9.227   5.019  71.252  1.00  0.00    -0.142 N  
HETATM    6  C   UNL     1     -10.321   5.481  71.942  1.00  0.00    -0.216 C  
HETATM    7  H   UNL     1      -8.460   4.571  71.753  1.00  0.00     0.000 HD 
HETATM    8  N   UNL     1     -11.317   6.149  71.225  1.00  0.00    -0.291 N  
HETATM    9  O   UNL     1     -10.414   5.340  73.160  1.00  0.00    -0.182 OA 
HETATM   10  C   UNL     1     -10.259   5.735  69.161  1.00  0.00    -0.289 C  
HETATM   11  C   UNL     1     -11.288   6.233  69.855  1.00  0.00    -0.434 C  
ENDROOT
BRANCH   8  12
HETATM   12  C   UNL     1     -12.294   6.926  71.971  1.00  0.00    -0.269 C  
BRANCH  12  13
HETATM   13  C   UNL     1     -12.541   8.371  71.487  1.00  0.00    -0.308 C  
BRANCH  13  14
HETATM   14  O   UNL     1     -11.493   9.262  71.990  1.00  0.00    -0.355 OA 
BRANCH  14  15
HETATM   15  C   UNL     1     -10.629   9.660  70.909  1.00  0.00    -0.316 C  
HETATM   16  P   UNL     1     -11.528  10.502  69.554  1.00  0.00    -0.252 P  
HETATM   17  O   UNL     1     -11.913  11.645  70.680  1.00  0.00    -0.358 OA 
HETATM   18  O   UNL     1     -10.045  11.046  69.087  1.00  0.00    -0.206 OA 
HETATM   19  O   UNL     1     -12.286  11.214  68.408  1.00  0.00    -0.610 OA 
ENDBRANCH  14  15
ENDBRANCH  13  14
BRANCH  13  20
HETATM   20  C   UNL     1     -13.901   8.900  71.971  1.00  0.00    -0.456 C  
HETATM   21  O   UNL     1     -13.942   8.920  73.400  1.00  0.00    -1.236 OA 
HETATM   22  H   UNL     1     -14.782   9.246  73.699  1.00  0.00     0.000 HD 
ENDBRANCH  13  20
ENDBRANCH  12  13
ENDBRANCH   8  12
TORSDOF 5
ENDMDL
MODEL       93
REMARK 921   NORMALIZED FREE ENERGY PREDICTED BY IDOCK:   -4.40 KCAL/MOL
REMARK 922        TOTAL FREE ENERGY PREDICTED BY IDOCK:   -6.62 KCAL/MOL
REMARK 923 INTER-LIGAND FREE ENERGY PREDICTED BY IDOCK:   -5.94 KCAL/MOL
REMARK 924 INTRA-LIGAND FREE ENERGY PREDICTED BY IDOCK:   -0.69 KCAL/MOL
REMARK 927      BINDING AFFINITY PREDICTED BY RF-SCORE:    0.00 PKD
ROOT
HETATM    1  N   UNL     1     -14.315   8.785  72.802  1.00  0.00    -1.038 NA 
HETATM    2  H1  UNL     1     -15.013   9.370  73.263  1.00  0.00     0.000 HD 
HETATM    3  C   UNL     1     -13.363   9.429  72.073  1.00  0.00    -0.450 C  
HETATM    4  H2  UNL     1     -14.329   7.769  72.885  1.00  0.00     0.000 HD 
HETATM    5  N   UNL     1     -12.474   8.686  71.488  1.00  0.00    -0.314 N  
HETATM    6  C   UNL     1     -11.526   9.257  70.676  1.00  0.00    -0.274 C  
HETATM    7  H   UNL     1     -12.480   7.676  71.633  1.00  0.00     0.000 HD 
HETATM    8  N   UNL     1     -11.596  10.635  70.453  1.00  0.00    -0.330 N  
HETATM    9  O   UNL     1     -10.656   8.578  70.134  1.00  0.00    -0.223 OA 
HETATM   10  C   UNL     1     -13.384  10.898  71.963  1.00  0.00    -0.394 C  
HETATM   11  C   UNL     1     -12.493  11.431  71.121  1.00  0.00    -0.360 C  
ENDROOT
BRANCH   8  12
HETATM   12  C   UNL     1     -10.826  11.190  69.350  1.00  0.00    -0.216 C  
BRANCH  12  13
HETATM   13  C   UNL     1     -11.618  11.570  68.079  1.00  0.00    -0.300 C  
BRANCH  13  14
HETATM   14  O   UNL     1     -11.314  10.636  66.993  1.00  0.00    -0.308 OA 
BRANCH  14  15
HETATM   15  C   UNL     1      -9.902  10.653  66.713  1.00  0.00    -0.198 C  
HETATM   16  P   UNL     1      -9.523  10.341  64.949  1.00  0.00    -0.328 P  
HETATM   17  O   UNL     1     -10.375  11.721  64.645  1.00  0.00    -0.262 OA 
HETATM   18  O   UNL     1      -8.046  10.984  65.291  1.00  0.00    -0.012 OA 
HETATM   19  O   UNL     1      -9.201  10.078  63.458  1.00  0.00    -0.257 OA 
ENDBRANCH  14  15
ENDBRANCH  13  14
BRANCH  13  20
HETATM   20  C   UNL     1     -11.272  12.991  67.608  1.00  0.00    -0.280 C  
HETATM   21  O   UNL     1     -12.065  13.340  66.471  1.00  0.00    -0.395 OA 
HETATM   22  H   UNL     1     -11.851  14.218  66.179  1.00  0.00     0.000 HD 
ENDBRANCH  13  20
ENDBRANCH  12  13
ENDBRANCH   8  12
TORSDOF 5
ENDMDL
MODEL       94
REMARK 921   NORMALIZED FREE ENERGY PREDICTED BY IDOCK:   -4.38 KCAL/MOL
REMARK 922        TOTAL FREE ENERGY PREDICTED BY IDOCK:   -6.59 KCAL/MOL
REMARK 923 INTER-LIGAND FREE ENERGY PREDICTED BY IDOCK:   -6.16 KCAL/MOL
REMARK 924 INTRA-LIGAND FREE ENERGY PREDICTED BY IDOCK:   -0.43 KCAL/MOL
REMARK 927      BINDING AFFINITY PREDICTED BY RF-SCORE:    0.00 PKD
ROOT
HETATM    1  N   UNL     1     -12.205  16.115  71.299  1.00  0.00    -0.582 NA 
HETATM    2  H1  UNL     1     -12.575  15.554  72.067  1.00  0.00     0.000 HD 
HETATM    3  C   UNL     1     -12.015  15.477  70.112  1.00  0.00    -0.366 C  
HETATM    4  H2  UNL     1     -11.989  17.105  71.415  1.00  0.00     0.000 HD 
HETATM    5  N   UNL     1     -11.545  16.191  69.135  1.00  0.00    -0.324 N  
HETATM    6  C   UNL     1     -11.258  15.601  67.929  1.00  0.00    -0.328 C  
HETATM    7  H   UNL     1     -11.390  17.191  69.263  1.00  0.00     0.000 HD 
HETATM    8  N   UNL     1     -11.422  14.217  67.818  1.00  0.00    -0.310 N  
HETATM    9  O   UNL     1     -10.840  16.260  66.978  1.00  0.00    -0.283 OA 
HETATM   10  C   UNL     1     -12.323  14.041  69.987  1.00  0.00    -0.397 C  
HETATM   11  C   UNL     1     -11.980  13.473  68.827  1.00  0.00    -0.339 C  
ENDROOT
BRANCH   8  12
HETATM   12  C   UNL     1     -10.811  13.544  66.682  1.00  0.00    -0.283 C  
BRANCH  12  13
HETATM   13  C   UNL     1     -11.575  12.332  66.107  1.00  0.00    -0.390 C  
BRANCH  13  14
HETATM   14  O   UNL     1     -10.641  11.255  65.770  1.00  0.00    -0.258 OA 
BRANCH  14  15
HETATM   15  C   UNL     1     -10.634  11.041  64.346  1.00  0.00    -0.325 C  
HETATM   16  P   UNL     1      -8.971  10.637  63.696  1.00  0.00    -0.178 P  
HETATM   17  O   UNL     1      -9.046   9.304  64.665  1.00  0.00    -0.210 OA 
HETATM   18  O   UNL     1      -9.771  10.076  62.371  1.00  0.00    -0.197 OA 
HETATM   19  O   UNL     1      -7.566  10.295  63.145  1.00  0.00    -0.148 OA 
ENDBRANCH  14  15
ENDBRANCH  13  14
BRANCH  13  20
HETATM   20  C   UNL     1     -12.355  12.712  64.838  1.00  0.00    -0.498 C  
HETATM   21  O   UNL     1     -13.115  13.901  65.064  1.00  0.00    -0.749 OA 
HETATM   22  H   UNL     1     -13.597  14.136  64.279  1.00  0.00     0.000 HD 
ENDBRANCH  13  20
ENDBRANCH  12  13
ENDBRANCH   8  12
TORSDOF 5
ENDMDL
MODEL       95
REMARK 921   NORMALIZED FREE ENERGY PREDICTED BY IDOCK:   -4.35 KCAL/MOL
REMARK 922        TOTAL FREE ENERGY PREDICTED BY IDOCK:   -6.55 KCAL/MOL
REMARK 923 INTER-LIGAND FREE ENERGY PREDICTED BY IDOCK:   -6.07 KCAL/MOL
REMARK 924 INTRA-LIGAND FREE ENERGY PREDICTED BY IDOCK:   -0.49 KCAL/MOL
REMARK 927      BINDING AFFINITY PREDICTED BY RF-SCORE:    0.00 PKD
ROOT
HETATM    1  N   UNL     1     -10.690  11.236  64.328  1.00  0.00    -0.353 NA 
HETATM    2  H1  UNL     1     -11.331  11.284  63.536  1.00  0.00     0.000 HD 
HETATM    3  C   UNL     1     -10.433  12.404  64.979  1.00  0.00    -0.294 C  
HETATM    4  H2  UNL     1     -10.262  10.357  64.619  1.00  0.00     0.000 HD 
HETATM    5  N   UNL     1      -9.619  12.343  65.987  1.00  0.00    -0.312 N  
HETATM    6  C   UNL     1      -9.254  13.491  66.647  1.00  0.00    -0.210 C  
HETATM    7  H   UNL     1      -9.248  11.442  66.290  1.00  0.00     0.000 HD 
HETATM    8  N   UNL     1      -9.731  14.710  66.158  1.00  0.00    -0.306 N  
HETATM    9  O   UNL     1      -8.507  13.457  67.624  1.00  0.00    -0.161 OA 
HETATM   10  C   UNL     1     -11.057  13.658  64.520  1.00  0.00    -0.396 C  
HETATM   11  C   UNL     1     -10.644  14.771  65.135  1.00  0.00    -0.417 C  
ENDROOT
BRANCH   8  12
HETATM   12  C   UNL     1      -9.095  15.932  66.626  1.00  0.00    -0.260 C  
BRANCH  12  13
HETATM   13  C   UNL     1      -9.859  16.741  67.696  1.00  0.00    -0.261 C  
BRANCH  13  14
HETATM   14  O   UNL     1     -10.906  15.918  68.305  1.00  0.00    -0.287 OA 
BRANCH  14  15
HETATM   15  C   UNL     1     -10.816  15.993  69.739  1.00  0.00    -0.337 C  
HETATM   16  P   UNL     1     -12.307  15.346  70.581  1.00  0.00    -0.432 P  
HETATM   17  O   UNL     1     -11.937  13.903  69.870  1.00  0.00    -0.300 OA 
HETATM   18  O   UNL     1     -11.352  15.260  71.920  1.00  0.00    -0.426 OA 
HETATM   19  O   UNL     1     -13.567  14.799  71.293  1.00  0.00    -0.383 OA 
ENDBRANCH  14  15
ENDBRANCH  13  14
BRANCH  13  20
HETATM   20  C   UNL     1     -10.516  17.991  67.090  1.00  0.00    -0.367 C  
HETATM   21  O   UNL     1     -10.126  18.140  65.723  1.00  0.00    -0.563 OA 
HETATM   22  H   UNL     1     -10.533  18.913  65.348  1.00  0.00     0.000 HD 
ENDBRANCH  13  20
ENDBRANCH  12  13
ENDBRANCH   8  12
TORSDOF 5
ENDMDL
MODEL       96
REMARK 921   NORMALIZED FREE ENERGY PREDICTED BY IDOCK:   -4.33 KCAL/MOL
REMARK 922        TOTAL FREE ENERGY PREDICTED BY IDOCK:   -6.53 KCAL/MOL
REMARK 923 INTER-LIGAND FREE ENERGY PREDICTED BY IDOCK:   -6.27 KCAL/MOL
REMARK 924 INTRA-LIGAND FREE ENERGY PREDICTED BY IDOCK:   -0.26 KCAL/MOL
REMARK 927      BINDING AFFINITY PREDICTED BY RF-SCORE:    0.00 PKD
ROOT
HETATM    1  N   UNL     1     -10.491   6.383  67.876  1.00  0.00    -0.193 NA 
HETATM    2  H1  UNL     1     -10.218   5.971  66.984  1.00  0.00     0.000 HD 
HETATM    3  C   UNL     1     -10.612   7.738  67.912  1.00  0.00    -0.156 C  
HETATM    4  H2  UNL     1     -10.666   5.808  68.700  1.00  0.00     0.000 HD 
HETATM    5  N   UNL     1     -10.961   8.262  69.047  1.00  0.00    -0.429 N  
HETATM    6  C   UNL     1     -11.032   9.627  69.182  1.00  0.00    -0.151 C  
HETATM    7  H   UNL     1     -11.182   7.660  69.841  1.00  0.00     0.000 HD 
HETATM    8  N   UNL     1     -10.656  10.415  68.090  1.00  0.00    -0.195 N  
HETATM    9  O   UNL     1     -11.387  10.147  70.238  1.00  0.00    -0.269 OA 
HETATM   10  C   UNL     1     -10.336   8.537  66.705  1.00  0.00    -0.346 C  
HETATM   11  C   UNL     1     -10.351   9.864  66.871  1.00  0.00    -0.235 C  
ENDROOT
BRANCH   8  12
HETATM   12  C   UNL     1     -10.404  11.829  68.322  1.00  0.00    -0.206 C  
BRANCH  12  13
HETATM   13  C   UNL     1     -11.622  12.772  68.221  1.00  0.00    -0.334 C  
BRANCH  13  14
HETATM   14  O   UNL     1     -12.381  12.494  66.999  1.00  0.00    -0.403 OA 
BRANCH  14  15
HETATM   15  C   UNL     1     -12.298  13.618  66.104  1.00  0.00    -0.426 C  
HETATM   16  P   UNL     1     -11.927  13.128  64.380  1.00  0.00    -0.440 P  
HETATM   17  O   UNL     1     -13.355  12.303  64.433  1.00  0.00    -0.786 OA 
HETATM   18  O   UNL     1     -12.476  14.627  63.976  1.00  0.00    -0.796 OA 
HETATM   19  O   UNL     1     -11.615  12.715  62.921  1.00  0.00    -0.145 OA 
ENDBRANCH  14  15
ENDBRANCH  13  14
BRANCH  13  20
HETATM   20  C   UNL     1     -11.189  14.247  68.197  1.00  0.00    -0.275 C  
HETATM   21  O   UNL     1     -12.050  15.027  69.030  1.00  0.00    -0.490 OA 
HETATM   22  H   UNL     1     -11.782  15.939  69.015  1.00  0.00     0.000 HD 
ENDBRANCH  13  20
ENDBRANCH  12  13
ENDBRANCH   8  12
TORSDOF 5
ENDMDL
MODEL       97
REMARK 921   NORMALIZED FREE ENERGY PREDICTED BY IDOCK:   -4.32 KCAL/MOL
REMARK 922        TOTAL FREE ENERGY PREDICTED BY IDOCK:   -6.52 KCAL/MOL
REMARK 923 INTER-LIGAND FREE ENERGY PREDICTED BY IDOCK:   -5.95 KCAL/MOL
REMARK 924 INTRA-LIGAND FREE ENERGY PREDICTED BY IDOCK:   -0.57 KCAL/MOL
REMARK 927      BINDING AFFINITY PREDICTED BY RF-SCORE:    0.00 PKD
ROOT
HETATM    1  N   UNL     1      -9.365   9.094  64.405  1.00  0.00    -0.366 NA 
HETATM    2  H1  UNL     1      -9.296   8.238  64.955  1.00  0.00     0.000 HD 
HETATM    3  C   UNL     1      -9.840  10.197  65.046  1.00  0.00    -0.322 C  
HETATM    4  H2  UNL     1      -9.090   9.123  63.423  1.00  0.00     0.000 HD 
HETATM    5  N   UNL     1      -9.926  11.287  64.346  1.00  0.00    -0.267 N  
HETATM    6  C   UNL     1     -10.465  12.421  64.903  1.00  0.00    -0.298 C  
HETATM    7  H   UNL     1      -9.594  11.301  63.382  1.00  0.00     0.000 HD 
HETATM    8  N   UNL     1     -10.970  12.338  66.203  1.00  0.00    -0.281 N  
HETATM    9  O   UNL     1     -10.532  13.473  64.270  1.00  0.00    -0.414 OA 
HETATM   10  C   UNL     1     -10.242  10.113  66.461  1.00  0.00    -0.288 C  
HETATM   11  C   UNL     1     -10.819  11.208  66.967  1.00  0.00    -0.284 C  
ENDROOT
BRANCH   8  12
HETATM   12  C   UNL     1     -11.832  13.412  66.672  1.00  0.00    -0.395 C  
BRANCH  12  13
HETATM   13  C   UNL     1     -11.365  14.171  67.933  1.00  0.00    -0.294 C  
BRANCH  13  14
HETATM   14  O   UNL     1     -12.505  14.454  68.808  1.00  0.00    -0.134 OA 
BRANCH  14  15
HETATM   15  C   UNL     1     -12.235  13.968  70.136  1.00  0.00    -0.359 C  
HETATM   16  P   UNL     1     -12.121  15.311  71.375  1.00  0.00    -0.449 P  
HETATM   17  O   UNL     1     -13.692  15.638  70.990  1.00  0.00    -0.582 OA 
HETATM   18  O   UNL     1     -12.339  14.120  72.491  1.00  0.00    -0.145 OA 
HETATM   19  O   UNL     1     -12.025  16.446  72.423  1.00  0.00    -0.530 OA 
ENDBRANCH  14  15
ENDBRANCH  13  14
BRANCH  13  20
HETATM   20  C   UNL     1     -10.692  15.504  67.567  1.00  0.00    -0.300 C  
HETATM   21  O   UNL     1      -9.725  15.301  66.535  1.00  0.00    -0.240 OA 
HETATM   22  H   UNL     1      -9.309  16.125  66.309  1.00  0.00     0.000 HD 
ENDBRANCH  13  20
ENDBRANCH  12  13
ENDBRANCH   8  12
TORSDOF 5
ENDMDL
MODEL       98
REMARK 921   NORMALIZED FREE ENERGY PREDICTED BY IDOCK:   -4.31 KCAL/MOL
REMARK 922        TOTAL FREE ENERGY PREDICTED BY IDOCK:   -6.51 KCAL/MOL
REMARK 923 INTER-LIGAND FREE ENERGY PREDICTED BY IDOCK:   -5.86 KCAL/MOL
REMARK 924 INTRA-LIGAND FREE ENERGY PREDICTED BY IDOCK:   -0.65 KCAL/MOL
REMARK 927      BINDING AFFINITY PREDICTED BY RF-SCORE:    0.00 PKD
ROOT
HETATM    1  N   UNL     1     -10.272  20.211  67.133  1.00  0.00    -0.431 NA 
HETATM    2  H1  UNL     1      -9.954  20.451  68.073  1.00  0.00     0.000 HD 
HETATM    3  C   UNL     1     -10.354  18.886  66.835  1.00  0.00    -0.406 C  
HETATM    4  H2  UNL     1     -10.515  20.929  66.451  1.00  0.00     0.000 HD 
HETATM    5  N   UNL     1     -10.758  18.581  65.639  1.00  0.00    -0.262 N  
HETATM    6  C   UNL     1     -10.797  17.267  65.241  1.00  0.00     0.004 C  
HETATM    7  H   UNL     1     -11.047  19.318  64.996  1.00  0.00     0.000 HD 
HETATM    8  N   UNL     1     -10.328  16.297  66.130  1.00  0.00    -0.328 N  
HETATM    9  O   UNL     1     -11.203  16.951  64.124  1.00  0.00    -1.176 OA 
HETATM   10  C   UNL     1      -9.978  17.878  67.841  1.00  0.00    -0.329 C  
HETATM   11  C   UNL     1      -9.964  16.610  67.415  1.00  0.00    -0.265 C  
ENDROOT
BRANCH   8  12
HETATM   12  C   UNL     1     -10.049  14.968  65.608  1.00  0.00    -0.362 C  
BRANCH  12  13
HETATM   13  C   UNL     1     -10.952  13.823  66.118  1.00  0.00    -0.292 C  
BRANCH  13  14
HETATM   14  O   UNL     1     -10.142  12.784  66.758  1.00  0.00    -0.229 OA 
BRANCH  14  15
HETATM   15  C   UNL     1      -8.799  13.262  66.955  1.00  0.00    -0.212 C  
HETATM   16  P   UNL     1      -7.875  12.290  68.201  1.00  0.00    -0.165 P  
HETATM   17  O   UNL     1      -8.084  11.008  67.183  1.00  0.00    -0.125 OA 
HETATM   18  O   UNL     1      -6.529  12.968  67.538  1.00  0.00    -0.153 OA 
HETATM   19  O   UNL     1      -7.092  11.469  69.254  1.00  0.00    -0.114 OA 
ENDBRANCH  14  15
ENDBRANCH  13  14
BRANCH  13  20
HETATM   20  C   UNL     1     -11.746  13.181  64.969  1.00  0.00    -0.337 C  
HETATM   21  O   UNL     1     -12.546  14.167  64.312  1.00  0.00    -0.676 OA 
HETATM   22  H   UNL     1     -13.037  13.770  63.602  1.00  0.00     0.000 HD 
ENDBRANCH  13  20
ENDBRANCH  12  13
ENDBRANCH   8  12
TORSDOF 5
ENDMDL
MODEL       99
REMARK 921   NORMALIZED FREE ENERGY PREDICTED BY IDOCK:   -4.28 KCAL/MOL
REMARK 922        TOTAL FREE ENERGY PREDICTED BY IDOCK:   -6.47 KCAL/MOL
REMARK 923 INTER-LIGAND FREE ENERGY PREDICTED BY IDOCK:   -6.35 KCAL/MOL
REMARK 924 INTRA-LIGAND FREE ENERGY PREDICTED BY IDOCK:   -0.12 KCAL/MOL
REMARK 927      BINDING AFFINITY PREDICTED BY RF-SCORE:    0.00 PKD
ROOT
HETATM    1  N   UNL     1      -8.017  21.045  66.959  1.00  0.00    -0.601 NA 
HETATM    2  H1  UNL     1      -7.861  21.706  67.721  1.00  0.00     0.000 HD 
HETATM    3  C   UNL     1      -8.908  20.043  67.190  1.00  0.00    -0.344 C  
HETATM    4  H2  UNL     1      -7.528  21.133  66.067  1.00  0.00     0.000 HD 
HETATM    5  N   UNL     1      -9.105  19.204  66.219  1.00  0.00    -0.337 N  
HETATM    6  C   UNL     1      -9.934  18.124  66.402  1.00  0.00    -0.376 C  
HETATM    7  H   UNL     1      -8.645  19.346  65.320  1.00  0.00     0.000 HD 
HETATM    8  N   UNL     1     -10.490  17.930  67.670  1.00  0.00    -0.386 N  
HETATM    9  O   UNL     1     -10.161  17.331  65.490  1.00  0.00    -0.581 OA 
HETATM   10  C   UNL     1      -9.581  19.940  68.496  1.00  0.00    -0.377 C  
HETATM   11  C   UNL     1     -10.336  18.850  68.675  1.00  0.00    -0.205 C  
ENDROOT
BRANCH   8  12
HETATM   12  C   UNL     1     -11.081  16.634  67.966  1.00  0.00    -0.255 C  
BRANCH  12  13
HETATM   13  C   UNL     1     -10.116  15.533  68.457  1.00  0.00    -0.211 C  
BRANCH  13  14
HETATM   14  O   UNL     1     -10.772  14.691  69.460  1.00  0.00    -0.236 OA 
BRANCH  14  15
HETATM   15  C   UNL     1     -10.944  15.431  70.683  1.00  0.00    -0.319 C  
HETATM   16  P   UNL     1     -12.678  15.441  71.270  1.00  0.00    -0.494 P  
HETATM   17  O   UNL     1     -12.522  13.803  71.388  1.00  0.00    -0.351 OA 
HETATM   18  O   UNL     1     -12.045  15.896  72.720  1.00  0.00    -0.418 OA 
HETATM   19  O   UNL     1     -14.143  15.450  71.768  1.00  0.00    -0.493 OA 
ENDBRANCH  14  15
ENDBRANCH  13  14
BRANCH  13  20
HETATM   20  C   UNL     1      -8.849  16.136  69.084  1.00  0.00    -0.239 C  
HETATM   21  O   UNL     1      -7.767  16.089  68.152  1.00  0.00    -0.129 OA 
HETATM   22  H   UNL     1      -6.984  16.462  68.540  1.00  0.00     0.000 HD 
ENDBRANCH  13  20
ENDBRANCH  12  13
ENDBRANCH   8  12
TORSDOF 5
ENDMDL
MODEL      100
REMARK 921   NORMALIZED FREE ENERGY PREDICTED BY IDOCK:   -4.28 KCAL/MOL
REMARK 922        TOTAL FREE ENERGY PREDICTED BY IDOCK:   -6.47 KCAL/MOL
REMARK 923 INTER-LIGAND FREE ENERGY PREDICTED BY IDOCK:   -6.11 KCAL/MOL
REMARK 924 INTRA-LIGAND FREE ENERGY PREDICTED BY IDOCK:   -0.36 KCAL/MOL
REMARK 927      BINDING AFFINITY PREDICTED BY RF-SCORE:    0.00 PKD
ROOT
HETATM    1  N   UNL     1     -12.432  15.063  69.906  1.00  0.00    -0.541 NA 
HETATM    2  H1  UNL     1     -13.153  14.640  70.491  1.00  0.00     0.000 HD 
HETATM    3  C   UNL     1     -11.676  14.215  69.157  1.00  0.00    -0.327 C  
HETATM    4  H2  UNL     1     -12.285  16.072  69.883  1.00  0.00     0.000 HD 
HETATM    5  N   UNL     1     -10.759  14.753  68.412  1.00  0.00    -0.237 N  
HETATM    6  C   UNL     1      -9.908  13.957  67.685  1.00  0.00    -0.236 C  
HETATM    7  H   UNL     1     -10.670  15.769  68.367  1.00  0.00     0.000 HD 
HETATM    8  N   UNL     1     -10.022  12.572  67.828  1.00  0.00    -0.204 N  
HETATM    9  O   UNL     1      -9.051  14.444  66.950  1.00  0.00    -0.230 OA 
HETATM   10  C   UNL     1     -11.906  12.761  69.228  1.00  0.00    -0.358 C  
HETATM   11  C   UNL     1     -11.031  12.001  68.562  1.00  0.00    -0.240 C  
ENDROOT
BRANCH   8  12
HETATM   12  C   UNL     1      -8.931  11.742  67.340  1.00  0.00    -0.173 C  
BRANCH  12  13
HETATM   13  C   UNL     1      -9.135  11.075  65.963  1.00  0.00    -0.195 C  
BRANCH  13  14
HETATM   14  O   UNL     1      -9.768  12.012  65.032  1.00  0.00    -0.217 OA 
BRANCH  14  15
HETATM   15  C   UNL     1     -11.117  11.591  64.756  1.00  0.00    -0.233 C  
HETATM   16  P   UNL     1     -12.347  12.916  65.039  1.00  0.00    -0.453 P  
HETATM   17  O   UNL     1     -11.552  13.744  63.854  1.00  0.00    -0.327 OA 
HETATM   18  O   UNL     1     -13.355  11.994  64.120  1.00  0.00    -0.725 OA 
HETATM   19  O   UNL     1     -13.389  14.036  65.277  1.00  0.00    -0.741 OA 
ENDBRANCH  14  15
ENDBRANCH  13  14
BRANCH  13  20
HETATM   20  C   UNL     1     -10.022   9.825  66.071  1.00  0.00    -0.272 C  
HETATM   21  O   UNL     1      -9.375   8.706  65.460  1.00  0.00    -0.401 OA 
HETATM   22  H   UNL     1      -9.924   7.933  65.527  1.00  0.00     0.000 HD 
ENDBRANCH  13  20
ENDBRANCH  12  13
ENDBRANCH   8  12
TORSDOF 5
ENDMDL
MODEL      101
REMARK 921   NORMALIZED FREE ENERGY PREDICTED BY IDOCK:   -4.27 KCAL/MOL
REMARK 922        TOTAL FREE ENERGY PREDICTED BY IDOCK:   -6.46 KCAL/MOL
REMARK 923 INTER-LIGAND FREE ENERGY PREDICTED BY IDOCK:   -6.01 KCAL/MOL
REMARK 924 INTRA-LIGAND FREE ENERGY PREDICTED BY IDOCK:   -0.45 KCAL/MOL
REMARK 927      BINDING AFFINITY PREDICTED BY RF-SCORE:    0.00 PKD
ROOT
HETATM    1  N   UNL     1     -14.364   8.723  73.136  1.00  0.00    -1.126 NA 
HETATM    2  H1  UNL     1     -15.182   9.332  73.095  1.00  0.00     0.000 HD 
HETATM    3  C   UNL     1     -13.249   9.152  72.485  1.00  0.00    -0.397 C  
HETATM    4  H2  UNL     1     -14.381   7.837  73.641  1.00  0.00     0.000 HD 
HETATM    5  N   UNL     1     -12.208   8.378  72.538  1.00  0.00    -0.500 N  
HETATM    6  C   UNL     1     -11.070   8.709  71.845  1.00  0.00    -0.346 C  
HETATM    7  H   UNL     1     -12.236   7.524  73.095  1.00  0.00     0.000 HD 
HETATM    8  N   UNL     1     -11.097   9.852  71.042  1.00  0.00    -0.351 N  
HETATM    9  O   UNL     1     -10.061   8.007  71.902  1.00  0.00    -0.181 OA 
HETATM   10  C   UNL     1     -13.267  10.431  71.753  1.00  0.00    -0.529 C  
HETATM   11  C   UNL     1     -12.172  10.705  71.036  1.00  0.00    -0.393 C  
ENDROOT
BRANCH   8  12
HETATM   12  C   UNL     1     -10.040  10.023  70.058  1.00  0.00    -0.239 C  
BRANCH  12  13
HETATM   13  C   UNL     1     -10.452  10.636  68.702  1.00  0.00    -0.191 C  
BRANCH  13  14
HETATM   14  O   UNL     1     -10.440   9.611  67.656  1.00  0.00    -0.228 OA 
BRANCH  14  15
HETATM   15  C   UNL     1      -9.544   8.546  68.023  1.00  0.00    -0.149 C  
HETATM   16  P   UNL     1     -10.406   6.954  68.295  1.00  0.00    -0.219 P  
HETATM   17  O   UNL     1     -10.850   7.060  66.710  1.00  0.00    -0.318 OA 
HETATM   18  O   UNL     1      -8.916   6.272  68.132  1.00  0.00    -0.117 OA 
HETATM   19  O   UNL     1     -11.133   5.607  68.525  1.00  0.00    -0.119 OA 
ENDBRANCH  14  15
ENDBRANCH  13  14
BRANCH  13  20
HETATM   20  C   UNL     1      -9.497  11.766  68.284  1.00  0.00    -0.193 C  
HETATM   21  O   UNL     1      -9.849  12.980  68.950  1.00  0.00    -0.416 OA 
HETATM   22  H   UNL     1      -9.259  13.679  68.692  1.00  0.00     0.000 HD 
ENDBRANCH  13  20
ENDBRANCH  12  13
ENDBRANCH   8  12
TORSDOF 5
ENDMDL
MODEL      102
REMARK 921   NORMALIZED FREE ENERGY PREDICTED BY IDOCK:   -4.26 KCAL/MOL
REMARK 922        TOTAL FREE ENERGY PREDICTED BY IDOCK:   -6.45 KCAL/MOL
REMARK 923 INTER-LIGAND FREE ENERGY PREDICTED BY IDOCK:   -5.96 KCAL/MOL
REMARK 924 INTRA-LIGAND FREE ENERGY PREDICTED BY IDOCK:   -0.49 KCAL/MOL
REMARK 927      BINDING AFFINITY PREDICTED BY RF-SCORE:    0.00 PKD
ROOT
HETATM    1  N   UNL     1     -12.443  13.762  63.006  1.00  0.00    -1.000 NA 
HETATM    2  H1  UNL     1     -12.252  14.391  62.226  1.00  0.00     0.000 HD 
HETATM    3  C   UNL     1     -12.028  14.170  64.237  1.00  0.00    -0.435 C  
HETATM    4  H2  UNL     1     -12.921  12.871  62.871  1.00  0.00     0.000 HD 
HETATM    5  N   UNL     1     -12.271  13.370  65.229  1.00  0.00    -0.412 N  
HETATM    6  C   UNL     1     -11.818  13.678  66.488  1.00  0.00    -0.404 C  
HETATM    7  H   UNL     1     -12.799  12.510  65.073  1.00  0.00     0.000 HD 
HETATM    8  N   UNL     1     -11.042  14.830  66.644  1.00  0.00    -0.328 N  
HETATM    9  O   UNL     1     -12.060  12.951  67.450  1.00  0.00    -0.333 OA 
HETATM   10  C   UNL     1     -11.326  15.456  64.391  1.00  0.00    -0.246 C  
HETATM   11  C   UNL     1     -10.840  15.710  65.610  1.00  0.00    -0.327 C  
ENDROOT
BRANCH   8  12
HETATM   12  C   UNL     1     -10.286  14.984  67.877  1.00  0.00    -0.241 C  
BRANCH  12  13
HETATM   13  C   UNL     1     -10.764  16.089  68.844  1.00  0.00    -0.275 C  
BRANCH  13  14
HETATM   14  O   UNL     1      -9.669  17.016  69.139  1.00  0.00    -0.244 OA 
BRANCH  14  15
HETATM   15  C   UNL     1      -8.633  16.880  68.149  1.00  0.00    -0.221 C  
HETATM   16  P   UNL     1      -6.956  17.136  68.835  1.00  0.00    -0.226 P  
HETATM   17  O   UNL     1      -7.274  15.826  69.786  1.00  0.00    -0.167 OA 
HETATM   18  O   UNL     1      -6.427  16.380  67.471  1.00  0.00    -0.129 OA 
HETATM   19  O   UNL     1      -5.537  17.352  69.415  1.00  0.00    -0.180 OA 
ENDBRANCH  14  15
ENDBRANCH  13  14
BRANCH  13  20
HETATM   20  C   UNL     1     -11.265  15.494  70.170  1.00  0.00    -0.318 C  
HETATM   21  O   UNL     1     -12.460  16.158  70.588  1.00  0.00    -0.469 OA 
HETATM   22  H   UNL     1     -12.770  15.790  71.408  1.00  0.00     0.000 HD 
ENDBRANCH  13  20
ENDBRANCH  12  13
ENDBRANCH   8  12
TORSDOF 5
ENDMDL
MODEL      103
REMARK 921   NORMALIZED FREE ENERGY PREDICTED BY IDOCK:   -4.24 KCAL/MOL
REMARK 922        TOTAL FREE ENERGY PREDICTED BY IDOCK:   -6.42 KCAL/MOL
REMARK 923 INTER-LIGAND FREE ENERGY PREDICTED BY IDOCK:   -6.41 KCAL/MOL
REMARK 924 INTRA-LIGAND FREE ENERGY PREDICTED BY IDOCK:   -0.01 KCAL/MOL
REMARK 927      BINDING AFFINITY PREDICTED BY RF-SCORE:    0.00 PKD
ROOT
HETATM    1  N   UNL     1     -11.607  16.276  63.647  1.00  0.00    -1.280 NA 
HETATM    2  H1  UNL     1     -12.504  16.304  63.162  1.00  0.00     0.000 HD 
HETATM    3  C   UNL     1     -11.450  15.302  64.585  1.00  0.00    -0.354 C  
HETATM    4  H2  UNL     1     -10.865  16.944  63.439  1.00  0.00     0.000 HD 
HETATM    5  N   UNL     1     -10.308  15.266  65.202  1.00  0.00    -0.390 N  
HETATM    6  C   UNL     1     -10.101  14.359  66.212  1.00  0.00    -0.297 C  
HETATM    7  H   UNL     1      -9.564  15.911  64.935  1.00  0.00     0.000 HD 
HETATM    8  N   UNL     1     -11.168  13.540  66.590  1.00  0.00    -0.306 N  
HETATM    9  O   UNL     1      -9.018  14.285  66.792  1.00  0.00    -0.251 OA 
HETATM   10  C   UNL     1     -12.551  14.366  64.870  1.00  0.00    -0.298 C  
HETATM   11  C   UNL     1     -12.353  13.532  65.896  1.00  0.00    -0.456 C  
ENDROOT
BRANCH   8  12
HETATM   12  C   UNL     1     -11.072  12.830  67.856  1.00  0.00    -0.246 C  
BRANCH  12  13
HETATM   13  C   UNL     1     -11.057  13.698  69.133  1.00  0.00    -0.231 C  
BRANCH  13  14
HETATM   14  O   UNL     1     -11.472  12.904  70.292  1.00  0.00    -0.058 OA 
BRANCH  14  15
HETATM   15  C   UNL     1     -12.221  11.755  69.855  1.00  0.00    -0.223 C  
HETATM   16  P   UNL     1     -12.438  10.505  71.175  1.00  0.00    -0.446 P  
HETATM   17  O   UNL     1     -13.257  11.681  71.991  1.00  0.00    -0.501 OA 
HETATM   18  O   UNL     1     -13.650   9.912  70.230  1.00  0.00     0.132 OA 
HETATM   19  O   UNL     1     -12.622   9.447  72.289  1.00  0.00    -0.359 OA 
ENDBRANCH  14  15
ENDBRANCH  13  14
BRANCH  13  20
HETATM   20  C   UNL     1     -12.005  14.901  69.005  1.00  0.00    -0.272 C  
HETATM   21  O   UNL     1     -12.848  14.989  70.156  1.00  0.00    -0.573 OA 
HETATM   22  H   UNL     1     -13.434  15.733  70.076  1.00  0.00     0.000 HD 
ENDBRANCH  13  20
ENDBRANCH  12  13
ENDBRANCH   8  12
TORSDOF 5
ENDMDL
MODEL      104
REMARK 921   NORMALIZED FREE ENERGY PREDICTED BY IDOCK:   -4.22 KCAL/MOL
REMARK 922        TOTAL FREE ENERGY PREDICTED BY IDOCK:   -6.39 KCAL/MOL
REMARK 923 INTER-LIGAND FREE ENERGY PREDICTED BY IDOCK:   -6.10 KCAL/MOL
REMARK 924 INTRA-LIGAND FREE ENERGY PREDICTED BY IDOCK:   -0.30 KCAL/MOL
REMARK 927      BINDING AFFINITY PREDICTED BY RF-SCORE:    0.00 PKD
ROOT
HETATM    1  N   UNL     1     -13.461   8.821  72.631  1.00  0.00    -0.678 NA 
HETATM    2  H1  UNL     1     -14.403   9.213  72.612  1.00  0.00     0.000 HD 
HETATM    3  C   UNL     1     -12.532   9.423  71.840  1.00  0.00    -0.390 C  
HETATM    4  H2  UNL     1     -13.227   8.018  73.215  1.00  0.00     0.000 HD 
HETATM    5  N   UNL     1     -11.334   8.925  71.864  1.00  0.00    -0.360 N  
HETATM    6  C   UNL     1     -10.361   9.432  71.038  1.00  0.00    -0.312 C  
HETATM    7  H   UNL     1     -11.115   8.156  72.498  1.00  0.00     0.000 HD 
HETATM    8  N   UNL     1     -10.722  10.439  70.138  1.00  0.00    -0.271 N  
HETATM    9  O   UNL     1      -9.211   8.997  71.063  1.00  0.00    -0.226 OA 
HETATM   10  C   UNL     1     -12.912  10.571  70.997  1.00  0.00    -0.475 C  
HETATM   11  C   UNL     1     -11.969  11.011  70.157  1.00  0.00    -0.360 C  
ENDROOT
BRANCH   8  12
HETATM   12  C   UNL     1      -9.810  10.741  69.046  1.00  0.00    -0.194 C  
BRANCH  12  13
HETATM   13  C   UNL     1     -10.151  10.125  67.673  1.00  0.00    -0.190 C  
BRANCH  13  14
HETATM   14  O   UNL     1     -11.176  10.924  66.997  1.00  0.00    -0.303 OA 
BRANCH  14  15
HETATM   15  C   UNL     1     -10.613  11.562  65.836  1.00  0.00    -0.268 C  
HETATM   16  P   UNL     1     -11.869  11.963  64.566  1.00  0.00    -0.099 P  
HETATM   17  O   UNL     1     -12.547  12.935  65.714  1.00  0.00    -0.538 OA 
HETATM   18  O   UNL     1     -10.732  12.987  63.956  1.00  0.00    -0.400 OA 
HETATM   19  O   UNL     1     -12.929  12.303  63.491  1.00  0.00    -0.776 OA 
ENDBRANCH  14  15
ENDBRANCH  13  14
BRANCH  13  20
HETATM   20  C   UNL     1     -10.675   8.687  67.817  1.00  0.00    -0.110 C  
HETATM   21  O   UNL     1      -9.595   7.795  68.102  1.00  0.00    -0.147 OA 
HETATM   22  H   UNL     1      -9.919   6.906  68.191  1.00  0.00     0.000 HD 
ENDBRANCH  13  20
ENDBRANCH  12  13
ENDBRANCH   8  12
TORSDOF 5
ENDMDL
MODEL      105
REMARK 921   NORMALIZED FREE ENERGY PREDICTED BY IDOCK:   -4.19 KCAL/MOL
REMARK 922        TOTAL FREE ENERGY PREDICTED BY IDOCK:   -6.35 KCAL/MOL
REMARK 923 INTER-LIGAND FREE ENERGY PREDICTED BY IDOCK:   -5.89 KCAL/MOL
REMARK 924 INTRA-LIGAND FREE ENERGY PREDICTED BY IDOCK:   -0.46 KCAL/MOL
REMARK 927      BINDING AFFINITY PREDICTED BY RF-SCORE:    0.00 PKD
ROOT
HETATM    1  N   UNL     1     -11.946  15.498  72.546  1.00  0.00    -0.414 NA 
HETATM    2  H1  UNL     1     -12.428  14.730  73.013  1.00  0.00     0.000 HD 
HETATM    3  C   UNL     1     -11.916  15.464  71.186  1.00  0.00    -0.362 C  
HETATM    4  H2  UNL     1     -11.508  16.254  73.073  1.00  0.00     0.000 HD 
HETATM    5  N   UNL     1     -11.303  16.442  70.592  1.00  0.00    -0.505 N  
HETATM    6  C   UNL     1     -11.167  16.439  69.225  1.00  0.00    -0.272 C  
HETATM    7  H   UNL     1     -10.921  17.213  71.140  1.00  0.00     0.000 HD 
HETATM    8  N   UNL     1     -11.646  15.332  68.519  1.00  0.00    -0.343 N  
HETATM    9  O   UNL     1     -10.617  17.368  68.636  1.00  0.00    -0.357 OA 
HETATM   10  C   UNL     1     -12.546  14.347  70.461  1.00  0.00    -0.417 C  
HETATM   11  C   UNL     1     -12.351  14.331  69.138  1.00  0.00    -0.130 C  
ENDROOT
BRANCH   8  12
HETATM   12  C   UNL     1     -11.214  15.161  67.141  1.00  0.00    -0.320 C  
BRANCH  12  13
HETATM   13  C   UNL     1     -11.715  13.894  66.414  1.00  0.00    -0.383 C  
BRANCH  13  14
HETATM   14  O   UNL     1     -10.635  12.911  66.300  1.00  0.00    -0.261 OA 
BRANCH  14  15
HETATM   15  C   UNL     1     -11.050  11.660  66.878  1.00  0.00    -0.308 C  
HETATM   16  P   UNL     1      -9.985  10.258  66.375  1.00  0.00    -0.237 P  
HETATM   17  O   UNL     1      -8.762  11.072  67.125  1.00  0.00    -0.132 OA 
HETATM   18  O   UNL     1     -10.640   9.471  67.665  1.00  0.00    -0.248 OA 
HETATM   19  O   UNL     1      -9.086   9.072  65.951  1.00  0.00    -0.182 OA 
ENDBRANCH  14  15
ENDBRANCH  13  14
BRANCH  13  20
HETATM   20  C   UNL     1     -12.222  14.223  65.000  1.00  0.00    -0.433 C  
HETATM   21  O   UNL     1     -11.162  14.083  64.052  1.00  0.00    -0.585 OA 
HETATM   22  H   UNL     1     -11.476  14.286  63.178  1.00  0.00     0.000 HD 
ENDBRANCH  13  20
ENDBRANCH  12  13
ENDBRANCH   8  12
TORSDOF 5
ENDMDL
MODEL      106
REMARK 921   NORMALIZED FREE ENERGY PREDICTED BY IDOCK:   -4.18 KCAL/MOL
REMARK 922        TOTAL FREE ENERGY PREDICTED BY IDOCK:   -6.33 KCAL/MOL
REMARK 923 INTER-LIGAND FREE ENERGY PREDICTED BY IDOCK:   -6.01 KCAL/MOL
REMARK 924 INTRA-LIGAND FREE ENERGY PREDICTED BY IDOCK:   -0.32 KCAL/MOL
REMARK 927      BINDING AFFINITY PREDICTED BY RF-SCORE:    0.00 PKD
ROOT
HETATM    1  N   UNL     1     -12.455  14.140  63.225  1.00  0.00    -1.098 NA 
HETATM    2  H1  UNL     1     -12.161  14.076  62.250  1.00  0.00     0.000 HD 
HETATM    3  C   UNL     1     -11.849  13.296  64.104  1.00  0.00    -0.443 C  
HETATM    4  H2  UNL     1     -13.168  14.805  63.527  1.00  0.00     0.000 HD 
HETATM    5  N   UNL     1     -12.223  13.378  65.344  1.00  0.00    -0.423 N  
HETATM    6  C   UNL     1     -11.710  12.508  66.276  1.00  0.00    -0.404 C  
HETATM    7  H   UNL     1     -12.898  14.089  65.627  1.00  0.00     0.000 HD 
HETATM    8  N   UNL     1     -10.841  11.508  65.833  1.00  0.00    -0.275 N  
HETATM    9  O   UNL     1     -12.026  12.585  67.462  1.00  0.00    -0.438 OA 
HETATM   10  C   UNL     1     -10.836  12.338  63.628  1.00  0.00    -0.522 C  
HETATM   11  C   UNL     1     -10.394  11.461  64.536  1.00  0.00    -0.313 C  
ENDROOT
BRANCH   8  12
HETATM   12  C   UNL     1     -10.565  10.396  66.728  1.00  0.00    -0.205 C  
BRANCH  12  13
HETATM   13  C   UNL     1      -9.162  10.361  67.372  1.00  0.00    -0.142 C  
BRANCH  13  14
HETATM   14  O   UNL     1      -9.224   9.731  68.693  1.00  0.00    -0.133 OA 
BRANCH  14  15
HETATM   15  C   UNL     1     -10.555   9.847  69.229  1.00  0.00    -0.224 C  
HETATM   16  P   UNL     1     -10.948   8.537  70.446  1.00  0.00    -0.195 P  
HETATM   17  O   UNL     1      -9.712   9.164  71.341  1.00  0.00    -0.295 OA 
HETATM   18  O   UNL     1     -12.176   9.528  70.917  1.00  0.00    -0.292 OA 
HETATM   19  O   UNL     1     -11.281   7.430  71.475  1.00  0.00    -0.239 OA 
ENDBRANCH  14  15
ENDBRANCH  13  14
BRANCH  13  20
HETATM   20  C   UNL     1      -8.585  11.776  67.537  1.00  0.00    -0.157 C  
HETATM   21  O   UNL     1      -7.909  11.891  68.791  1.00  0.00    -0.219 OA 
HETATM   22  H   UNL     1      -7.553  12.766  68.892  1.00  0.00     0.000 HD 
ENDBRANCH  13  20
ENDBRANCH  12  13
ENDBRANCH   8  12
TORSDOF 5
ENDMDL
MODEL      107
REMARK 921   NORMALIZED FREE ENERGY PREDICTED BY IDOCK:   -4.17 KCAL/MOL
REMARK 922        TOTAL FREE ENERGY PREDICTED BY IDOCK:   -6.33 KCAL/MOL
REMARK 923 INTER-LIGAND FREE ENERGY PREDICTED BY IDOCK:   -5.99 KCAL/MOL
REMARK 924 INTRA-LIGAND FREE ENERGY PREDICTED BY IDOCK:   -0.34 KCAL/MOL
REMARK 927      BINDING AFFINITY PREDICTED BY RF-SCORE:    0.00 PKD
ROOT
HETATM    1  N   UNL     1      -8.778   9.494  63.543  1.00  0.00    -0.218 NA 
HETATM    2  H1  UNL     1      -8.374   9.555  62.608  1.00  0.00     0.000 HD 
HETATM    3  C   UNL     1      -9.715  10.427  63.866  1.00  0.00    -0.305 C  
HETATM    4  H2  UNL     1      -8.494   8.770  64.202  1.00  0.00     0.000 HD 
HETATM    5  N   UNL     1     -10.230  10.349  65.054  1.00  0.00    -0.312 N  
HETATM    6  C   UNL     1     -11.127  11.298  65.479  1.00  0.00    -0.067 C  
HETATM    7  H   UNL     1      -9.968   9.582  65.674  1.00  0.00     0.000 HD 
HETATM    8  N   UNL     1     -11.406  12.368  64.624  1.00  0.00    -0.304 N  
HETATM    9  O   UNL     1     -11.651  11.231  66.590  1.00  0.00    -0.385 OA 
HETATM   10  C   UNL     1     -10.087  11.468  62.892  1.00  0.00    -0.221 C  
HETATM   11  C   UNL     1     -10.915  12.417  63.343  1.00  0.00    -0.386 C  
ENDROOT
BRANCH   8  12
HETATM   12  C   UNL     1     -12.076  13.533  65.181  1.00  0.00    -0.404 C  
BRANCH  12  13
HETATM   13  C   UNL     1     -11.265  14.377  66.188  1.00  0.00    -0.336 C  
BRANCH  13  14
HETATM   14  O   UNL     1     -12.132  14.848  67.271  1.00  0.00    -0.246 OA 
BRANCH  14  15
HETATM   15  C   UNL     1     -11.332  15.398  68.334  1.00  0.00    -0.339 C  
HETATM   16  P   UNL     1     -12.167  15.326  69.962  1.00  0.00    -0.297 P  
HETATM   17  O   UNL     1     -12.148  13.688  69.767  1.00  0.00    -0.320 OA 
HETATM   18  O   UNL     1     -10.664  15.558  70.594  1.00  0.00    -0.325 OA 
HETATM   19  O   UNL     1     -12.871  15.266  71.339  1.00  0.00    -0.347 OA 
ENDBRANCH  14  15
ENDBRANCH  13  14
BRANCH  13  20
HETATM   20  C   UNL     1     -10.629  15.601  65.510  1.00  0.00    -0.404 C  
HETATM   21  O   UNL     1     -11.311  15.899  64.290  1.00  0.00    -0.772 OA 
HETATM   22  H   UNL     1     -10.918  16.656  63.871  1.00  0.00     0.000 HD 
ENDBRANCH  13  20
ENDBRANCH  12  13
ENDBRANCH   8  12
TORSDOF 5
ENDMDL
MODEL      108
REMARK 921   NORMALIZED FREE ENERGY PREDICTED BY IDOCK:   -4.15 KCAL/MOL
REMARK 922        TOTAL FREE ENERGY PREDICTED BY IDOCK:   -6.30 KCAL/MOL
REMARK 923 INTER-LIGAND FREE ENERGY PREDICTED BY IDOCK:   -5.66 KCAL/MOL
REMARK 924 INTRA-LIGAND FREE ENERGY PREDICTED BY IDOCK:   -0.64 KCAL/MOL
REMARK 927      BINDING AFFINITY PREDICTED BY RF-SCORE:    0.00 PKD
ROOT
HETATM    1  N   UNL     1      -5.765  16.607  66.573  1.00  0.00    -0.303 NA 
HETATM    2  H1  UNL     1      -5.043  16.559  67.292  1.00  0.00     0.000 HD 
HETATM    3  C   UNL     1      -7.047  16.764  67.002  1.00  0.00    -0.203 C  
HETATM    4  H2  UNL     1      -5.537  16.542  65.580  1.00  0.00     0.000 HD 
HETATM    5  N   UNL     1      -7.965  16.826  66.087  1.00  0.00    -0.312 N  
HETATM    6  C   UNL     1      -9.288  16.909  66.444  1.00  0.00    -0.276 C  
HETATM    7  H   UNL     1      -7.703  16.813  65.101  1.00  0.00     0.000 HD 
HETATM    8  N   UNL     1      -9.606  16.856  67.804  1.00  0.00    -0.246 N  
HETATM    9  O   UNL     1     -10.175  16.999  65.596  1.00  0.00    -0.556 OA 
HETATM   10  C   UNL     1      -7.339  16.838  68.444  1.00  0.00    -0.198 C  
HETATM   11  C   UNL     1      -8.635  16.857  68.774  1.00  0.00    -0.246 C  
ENDROOT
BRANCH   8  12
HETATM   12  C   UNL     1     -10.990  16.605  68.174  1.00  0.00    -0.327 C  
BRANCH  12  13
HETATM   13  C   UNL     1     -11.306  15.209  68.754  1.00  0.00    -0.300 C  
BRANCH  13  14
HETATM   14  O   UNL     1     -12.286  14.518  67.912  1.00  0.00    -0.272 OA 
BRANCH  14  15
HETATM   15  C   UNL     1     -11.631  13.952  66.762  1.00  0.00    -0.378 C  
HETATM   16  P   UNL     1     -10.618  12.484  67.172  1.00  0.00    -0.234 P  
HETATM   17  O   UNL     1     -12.033  11.790  67.659  1.00  0.00    -0.599 OA 
HETATM   18  O   UNL     1     -10.677  12.158  65.559  1.00  0.00    -0.265 OA 
HETATM   19  O   UNL     1      -9.761  11.242  67.517  1.00  0.00    -0.175 OA 
ENDBRANCH  14  15
ENDBRANCH  13  14
BRANCH  13  20
HETATM   20  C   UNL     1     -11.874  15.308  70.178  1.00  0.00    -0.323 C  
HETATM   21  O   UNL     1     -10.810  15.371  71.131  1.00  0.00    -0.449 OA 
HETATM   22  H   UNL     1     -11.162  15.432  72.011  1.00  0.00     0.000 HD 
ENDBRANCH  13  20
ENDBRANCH  12  13
ENDBRANCH   8  12
TORSDOF 5
ENDMDL
MODEL      109
REMARK 921   NORMALIZED FREE ENERGY PREDICTED BY IDOCK:   -4.13 KCAL/MOL
REMARK 922        TOTAL FREE ENERGY PREDICTED BY IDOCK:   -6.27 KCAL/MOL
REMARK 923 INTER-LIGAND FREE ENERGY PREDICTED BY IDOCK:   -5.74 KCAL/MOL
REMARK 924 INTRA-LIGAND FREE ENERGY PREDICTED BY IDOCK:   -0.54 KCAL/MOL
REMARK 927      BINDING AFFINITY PREDICTED BY RF-SCORE:    0.00 PKD
ROOT
HETATM    1  N   UNL     1     -10.840  19.612  65.276  1.00  0.00    -0.361 NA 
HETATM    2  H1  UNL     1     -10.974  19.447  64.278  1.00  0.00     0.000 HD 
HETATM    3  C   UNL     1     -10.592  18.519  66.049  1.00  0.00    -0.331 C  
HETATM    4  H2  UNL     1     -10.889  20.549  65.676  1.00  0.00     0.000 HD 
HETATM    5  N   UNL     1     -10.421  18.729  67.318  1.00  0.00    -0.411 N  
HETATM    6  C   UNL     1     -10.240  17.668  68.172  1.00  0.00    -0.371 C  
HETATM    7  H   UNL     1     -10.421  19.682  67.682  1.00  0.00     0.000 HD 
HETATM    8  N   UNL     1     -10.314  16.377  67.642  1.00  0.00    -0.277 N  
HETATM    9  O   UNL     1     -10.047  17.842  69.375  1.00  0.00    -0.210 OA 
HETATM   10  C   UNL     1     -10.545  17.178  65.439  1.00  0.00    -0.116 C  
HETATM   11  C   UNL     1     -10.429  16.156  66.293  1.00  0.00    -0.315 C  
ENDROOT
BRANCH   8  12
HETATM   12  C   UNL     1     -10.462  15.265  68.568  1.00  0.00    -0.235 C  
BRANCH  12  13
HETATM   13  C   UNL     1     -11.343  14.088  68.096  1.00  0.00    -0.292 C  
BRANCH  13  14
HETATM   14  O   UNL     1     -12.462  13.887  69.020  1.00  0.00    -0.209 OA 
BRANCH  14  15
HETATM   15  C   UNL     1     -12.226  14.615  70.239  1.00  0.00    -0.331 C  
HETATM   16  P   UNL     1     -13.379  14.145  71.581  1.00  0.00    -0.377 P  
HETATM   17  O   UNL     1     -12.721  12.638  71.457  1.00  0.00    -0.318 OA 
HETATM   18  O   UNL     1     -12.285  14.855  72.588  1.00  0.00    -0.332 OA 
HETATM   19  O   UNL     1     -14.352  13.749  72.717  1.00  0.00    -0.596 OA 
ENDBRANCH  14  15
ENDBRANCH  13  14
BRANCH  13  20
HETATM   20  C   UNL     1     -10.538  12.781  68.018  1.00  0.00    -0.226 C  
HETATM   21  O   UNL     1     -10.547  12.121  69.286  1.00  0.00    -0.430 OA 
HETATM   22  H   UNL     1     -10.049  11.313  69.238  1.00  0.00     0.000 HD 
ENDBRANCH  13  20
ENDBRANCH  12  13
ENDBRANCH   8  12
TORSDOF 5
ENDMDL
MODEL      110
REMARK 921   NORMALIZED FREE ENERGY PREDICTED BY IDOCK:   -4.13 KCAL/MOL
REMARK 922        TOTAL FREE ENERGY PREDICTED BY IDOCK:   -6.27 KCAL/MOL
REMARK 923 INTER-LIGAND FREE ENERGY PREDICTED BY IDOCK:   -5.63 KCAL/MOL
REMARK 924 INTRA-LIGAND FREE ENERGY PREDICTED BY IDOCK:   -0.64 KCAL/MOL
REMARK 927      BINDING AFFINITY PREDICTED BY RF-SCORE:    0.00 PKD
ROOT
HETATM    1  N   UNL     1     -14.328  13.579  72.542  1.00  0.00    -0.662 NA 
HETATM    2  H1  UNL     1     -14.796  14.316  73.070  1.00  0.00     0.000 HD 
HETATM    3  C   UNL     1     -13.376  13.973  71.653  1.00  0.00    -0.367 C  
HETATM    4  H2  UNL     1     -14.561  12.595  72.675  1.00  0.00     0.000 HD 
HETATM    5  N   UNL     1     -12.780  13.035  70.983  1.00  0.00    -0.309 N  
HETATM    6  C   UNL     1     -11.860  13.360  70.015  1.00  0.00    -0.294 C  
HETATM    7  H   UNL     1     -12.994  12.056  71.174  1.00  0.00     0.000 HD 
HETATM    8  N   UNL     1     -11.647  14.713  69.739  1.00  0.00    -0.280 N  
HETATM    9  O   UNL     1     -11.261  12.489  69.386  1.00  0.00    -0.225 OA 
HETATM   10  C   UNL     1     -13.077  15.405  71.478  1.00  0.00    -0.545 C  
HETATM   11  C   UNL     1     -12.226  15.704  70.491  1.00  0.00    -0.399 C  
ENDROOT
BRANCH   8  12
HETATM   12  C   UNL     1     -10.947  15.058  68.511  1.00  0.00    -0.256 C  
BRANCH  12  13
HETATM   13  C   UNL     1      -9.654  15.889  68.665  1.00  0.00    -0.209 C  
BRANCH  13  14
HETATM   14  O   UNL     1      -9.142  16.282  67.350  1.00  0.00    -0.194 OA 
BRANCH  14  15
HETATM   15  C   UNL     1      -7.773  16.710  67.466  1.00  0.00    -0.165 C  
HETATM   16  P   UNL     1      -7.267  17.845  66.122  1.00  0.00    -0.260 P  
HETATM   17  O   UNL     1      -8.433  18.859  66.701  1.00  0.00    -0.281 OA 
HETATM   18  O   UNL     1      -6.016  18.249  67.114  1.00  0.00    -0.149 OA 
HETATM   19  O   UNL     1      -6.838  18.805  64.986  1.00  0.00    -0.504 OA 
ENDBRANCH  14  15
ENDBRANCH  13  14
BRANCH  13  20
HETATM   20  C   UNL     1      -8.560  15.093  69.393  1.00  0.00    -0.172 C  
HETATM   21  O   UNL     1      -8.561  13.733  68.950  1.00  0.00    -0.356 OA 
HETATM   22  H   UNL     1      -7.884  13.241  69.401  1.00  0.00     0.000 HD 
ENDBRANCH  13  20
ENDBRANCH  12  13
ENDBRANCH   8  12
TORSDOF 5
ENDMDL
MODEL      111
REMARK 921   NORMALIZED FREE ENERGY PREDICTED BY IDOCK:   -4.12 KCAL/MOL
REMARK 922        TOTAL FREE ENERGY PREDICTED BY IDOCK:   -6.26 KCAL/MOL
REMARK 923 INTER-LIGAND FREE ENERGY PREDICTED BY IDOCK:   -6.26 KCAL/MOL
REMARK 924 INTRA-LIGAND FREE ENERGY PREDICTED BY IDOCK:    0.00 KCAL/MOL
REMARK 927      BINDING AFFINITY PREDICTED BY RF-SCORE:    0.00 PKD
ROOT
HETATM    1  N   UNL     1      -8.059  20.880  66.675  1.00  0.00    -0.495 NA 
HETATM    2  H1  UNL     1      -7.750  21.497  67.426  1.00  0.00     0.000 HD 
HETATM    3  C   UNL     1      -8.938  19.898  67.012  1.00  0.00    -0.340 C  
HETATM    4  H2  UNL     1      -7.725  20.994  65.717  1.00  0.00     0.000 HD 
HETATM    5  N   UNL     1      -9.331  19.113  66.056  1.00  0.00    -0.215 N  
HETATM    6  C   UNL     1     -10.160  18.054  66.332  1.00  0.00    -0.384 C  
HETATM    7  H   UNL     1      -9.024  19.284  65.098  1.00  0.00     0.000 HD 
HETATM    8  N   UNL     1     -10.502  17.817  67.666  1.00  0.00    -0.378 N  
HETATM    9  O   UNL     1     -10.570  17.313  65.439  1.00  0.00    -0.630 OA 
HETATM   10  C   UNL     1      -9.385  19.754  68.409  1.00  0.00    -0.396 C  
HETATM   11  C   UNL     1     -10.142  18.683  68.669  1.00  0.00    -0.368 C  
ENDROOT
BRANCH   8  12
HETATM   12  C   UNL     1     -11.086  16.529  68.005  1.00  0.00    -0.275 C  
BRANCH  12  13
HETATM   13  C   UNL     1     -10.100  15.361  68.224  1.00  0.00    -0.218 C  
BRANCH  13  14
HETATM   14  O   UNL     1     -10.682  14.366  69.128  1.00  0.00    -0.248 OA 
BRANCH  14  15
HETATM   15  C   UNL     1     -11.218  13.268  68.367  1.00  0.00    -0.280 C  
HETATM   16  P   UNL     1     -11.135  11.674  69.265  1.00  0.00    -0.168 P  
HETATM   17  O   UNL     1     -12.126  12.384  70.376  1.00  0.00    -0.359 OA 
HETATM   18  O   UNL     1     -12.252  11.153  68.173  1.00  0.00    -0.612 OA 
HETATM   19  O   UNL     1     -11.065  10.327  70.022  1.00  0.00    -0.267 OA 
ENDBRANCH  14  15
ENDBRANCH  13  14
BRANCH  13  20
HETATM   20  C   UNL     1      -8.776  15.851  68.830  1.00  0.00    -0.225 C  
HETATM   21  O   UNL     1      -8.166  14.807  69.592  1.00  0.00    -0.405 OA 
HETATM   22  H   UNL     1      -7.347  15.111  69.967  1.00  0.00     0.000 HD 
ENDBRANCH  13  20
ENDBRANCH  12  13
ENDBRANCH   8  12
TORSDOF 5
ENDMDL
MODEL      112
REMARK 921   NORMALIZED FREE ENERGY PREDICTED BY IDOCK:   -4.12 KCAL/MOL
REMARK 922        TOTAL FREE ENERGY PREDICTED BY IDOCK:   -6.26 KCAL/MOL
REMARK 923 INTER-LIGAND FREE ENERGY PREDICTED BY IDOCK:   -5.76 KCAL/MOL
REMARK 924 INTRA-LIGAND FREE ENERGY PREDICTED BY IDOCK:   -0.50 KCAL/MOL
REMARK 927      BINDING AFFINITY PREDICTED BY RF-SCORE:    0.00 PKD
ROOT
HETATM    1  N   UNL     1     -11.646  16.224  63.685  1.00  0.00    -1.280 NA 
HETATM    2  H1  UNL     1     -11.133  17.098  63.565  1.00  0.00     0.000 HD 
HETATM    3  C   UNL     1     -11.415  15.531  64.833  1.00  0.00    -0.279 C  
HETATM    4  H2  UNL     1     -12.301  15.888  62.979  1.00  0.00     0.000 HD 
HETATM    5  N   UNL     1     -12.069  14.420  64.985  1.00  0.00    -0.406 N  
HETATM    6  C   UNL     1     -11.834  13.628  66.082  1.00  0.00    -0.392 C  
HETATM    7  H   UNL     1     -12.758  14.135  64.289  1.00  0.00     0.000 HD 
HETATM    8  N   UNL     1     -10.834  14.023  66.976  1.00  0.00    -0.288 N  
HETATM    9  O   UNL     1     -12.461  12.586  66.264  1.00  0.00    -0.475 OA 
HETATM   10  C   UNL     1     -10.449  16.041  65.822  1.00  0.00    -0.391 C  
HETATM   11  C   UNL     1     -10.189  15.228  66.852  1.00  0.00    -0.268 C  
ENDROOT
BRANCH   8  12
HETATM   12  C   UNL     1     -10.349  13.045  67.936  1.00  0.00    -0.231 C  
BRANCH  12  13
HETATM   13  C   UNL     1      -9.079  12.261  67.540  1.00  0.00    -0.182 C  
BRANCH  13  14
HETATM   14  O   UNL     1      -9.306  10.821  67.681  1.00  0.00    -0.146 OA 
BRANCH  14  15
HETATM   15  C   UNL     1      -9.004  10.407  69.026  1.00  0.00    -0.179 C  
HETATM   16  P   UNL     1     -10.441   9.660  69.880  1.00  0.00    -0.292 P  
HETATM   17  O   UNL     1     -10.391   8.507  68.701  1.00  0.00    -0.202 OA 
HETATM   18  O   UNL     1      -9.330   9.047  70.929  1.00  0.00    -0.219 OA 
HETATM   19  O   UNL     1     -11.655   9.028  70.602  1.00  0.00    -0.269 OA 
ENDBRANCH  14  15
ENDBRANCH  13  14
BRANCH  13  20
HETATM   20  C   UNL     1      -7.882  12.652  68.421  1.00  0.00    -0.136 C  
HETATM   21  O   UNL     1      -7.084  13.636  67.760  1.00  0.00    -0.129 OA 
HETATM   22  H   UNL     1      -6.344  13.878  68.305  1.00  0.00     0.000 HD 
ENDBRANCH  13  20
ENDBRANCH  12  13
ENDBRANCH   8  12
TORSDOF 5
ENDMDL
MODEL      113
REMARK 921   NORMALIZED FREE ENERGY PREDICTED BY IDOCK:   -4.12 KCAL/MOL
REMARK 922        TOTAL FREE ENERGY PREDICTED BY IDOCK:   -6.26 KCAL/MOL
REMARK 923 INTER-LIGAND FREE ENERGY PREDICTED BY IDOCK:   -6.08 KCAL/MOL
REMARK 924 INTRA-LIGAND FREE ENERGY PREDICTED BY IDOCK:   -0.18 KCAL/MOL
REMARK 927      BINDING AFFINITY PREDICTED BY RF-SCORE:    0.00 PKD
ROOT
HETATM    1  N   UNL     1     -14.363   8.683  73.056  1.00  0.00    -1.094 NA 
HETATM    2  H1  UNL     1     -15.147   9.325  72.935  1.00  0.00     0.000 HD 
HETATM    3  C   UNL     1     -13.195   9.021  72.444  1.00  0.00    -0.447 C  
HETATM    4  H2  UNL     1     -14.450   7.830  73.610  1.00  0.00     0.000 HD 
HETATM    5  N   UNL     1     -12.198   8.205  72.599  1.00  0.00    -0.599 N  
HETATM    6  C   UNL     1     -11.010   8.440  71.952  1.00  0.00    -0.305 C  
HETATM    7  H   UNL     1     -12.297   7.388  73.202  1.00  0.00     0.000 HD 
HETATM    8  N   UNL     1     -10.940   9.532  71.083  1.00  0.00    -0.344 N  
HETATM    9  O   UNL     1     -10.041   7.697  72.105  1.00  0.00    -0.183 OA 
HETATM   10  C   UNL     1     -13.112  10.252  71.639  1.00  0.00    -0.553 C  
HETATM   11  C   UNL     1     -11.969  10.432  70.969  1.00  0.00    -0.382 C  
ENDROOT
BRANCH   8  12
HETATM   12  C   UNL     1      -9.825   9.595  70.151  1.00  0.00    -0.262 C  
BRANCH  12  13
HETATM   13  C   UNL     1     -10.127  10.175  68.752  1.00  0.00    -0.187 C  
BRANCH  13  14
HETATM   14  O   UNL     1      -9.933   9.150  67.724  1.00  0.00    -0.169 OA 
BRANCH  14  15
HETATM   15  C   UNL     1     -10.102   9.730  66.417  1.00  0.00    -0.243 C  
HETATM   16  P   UNL     1      -8.553   9.745  65.442  1.00  0.00    -0.174 P  
HETATM   17  O   UNL     1      -8.605   8.100  65.555  1.00  0.00    -0.158 OA 
HETATM   18  O   UNL     1      -9.532   9.975  64.138  1.00  0.00    -0.277 OA 
HETATM   19  O   UNL     1      -7.244   9.759  64.616  1.00  0.00    -0.118 OA 
ENDBRANCH  14  15
ENDBRANCH  13  14
BRANCH  13  20
HETATM   20  C   UNL     1      -9.211  11.365  68.429  1.00  0.00    -0.183 C  
HETATM   21  O   UNL     1      -9.757  12.570  68.971  1.00  0.00    -0.403 OA 
HETATM   22  H   UNL     1      -9.190  13.306  68.771  1.00  0.00     0.000 HD 
ENDBRANCH  13  20
ENDBRANCH  12  13
ENDBRANCH   8  12
TORSDOF 5
ENDMDL
MODEL      114
REMARK 921   NORMALIZED FREE ENERGY PREDICTED BY IDOCK:   -4.12 KCAL/MOL
REMARK 922        TOTAL FREE ENERGY PREDICTED BY IDOCK:   -6.26 KCAL/MOL
REMARK 923 INTER-LIGAND FREE ENERGY PREDICTED BY IDOCK:   -5.45 KCAL/MOL
REMARK 924 INTRA-LIGAND FREE ENERGY PREDICTED BY IDOCK:   -0.80 KCAL/MOL
REMARK 927      BINDING AFFINITY PREDICTED BY RF-SCORE:    0.00 PKD
ROOT
HETATM    1  N   UNL     1      -6.503  16.624  66.519  1.00  0.00    -0.253 NA 
HETATM    2  H1  UNL     1      -5.787  16.538  67.241  1.00  0.00     0.000 HD 
HETATM    3  C   UNL     1      -7.761  16.229  66.856  1.00  0.00    -0.243 C  
HETATM    4  H2  UNL     1      -6.287  16.989  65.592  1.00  0.00     0.000 HD 
HETATM    5  N   UNL     1      -8.672  16.339  65.938  1.00  0.00    -0.233 N  
HETATM    6  C   UNL     1      -9.948  15.893  66.178  1.00  0.00    -0.314 C  
HETATM    7  H   UNL     1      -8.440  16.758  65.037  1.00  0.00     0.000 HD 
HETATM    8  N   UNL     1     -10.206  15.265  67.400  1.00  0.00    -0.241 N  
HETATM    9  O   UNL     1     -10.836  16.013  65.335  1.00  0.00    -0.361 OA 
HETATM   10  C   UNL     1      -8.032  15.691  68.201  1.00  0.00    -0.129 C  
HETATM   11  C   UNL     1      -9.263  15.207  68.395  1.00  0.00    -0.189 C  
ENDROOT
BRANCH   8  12
HETATM   12  C   UNL     1     -11.436  14.499  67.530  1.00  0.00    -0.356 C  
BRANCH  12  13
HETATM   13  C   UNL     1     -11.320  12.972  67.337  1.00  0.00    -0.305 C  
BRANCH  13  14
HETATM   14  O   UNL     1     -12.196  12.528  66.250  1.00  0.00    -0.600 OA 
BRANCH  14  15
HETATM   15  C   UNL     1     -11.442  12.416  65.029  1.00  0.00    -0.332 C  
HETATM   16  P   UNL     1      -9.844  11.553  65.257  1.00  0.00    -0.244 P  
HETATM   17  O   UNL     1     -10.749  10.251  65.713  1.00  0.00    -0.065 OA 
HETATM   18  O   UNL     1      -9.867  11.360  63.621  1.00  0.00    -0.283 OA 
HETATM   19  O   UNL     1      -8.493  10.822  65.448  1.00  0.00    -0.171 OA 
ENDBRANCH  14  15
ENDBRANCH  13  14
BRANCH  13  20
HETATM   20  C   UNL     1     -11.713  12.215  68.616  1.00  0.00    -0.330 C  
HETATM   21  O   UNL     1     -12.221  10.920  68.286  1.00  0.00    -0.804 OA 
HETATM   22  H   UNL     1     -12.464  10.452  69.077  1.00  0.00     0.000 HD 
ENDBRANCH  13  20
ENDBRANCH  12  13
ENDBRANCH   8  12
TORSDOF 5
ENDMDL
MODEL      115
REMARK 921   NORMALIZED FREE ENERGY PREDICTED BY IDOCK:   -4.11 KCAL/MOL
REMARK 922        TOTAL FREE ENERGY PREDICTED BY IDOCK:   -6.25 KCAL/MOL
REMARK 923 INTER-LIGAND FREE ENERGY PREDICTED BY IDOCK:   -5.52 KCAL/MOL
REMARK 924 INTRA-LIGAND FREE ENERGY PREDICTED BY IDOCK:   -0.73 KCAL/MOL
REMARK 927      BINDING AFFINITY PREDICTED BY RF-SCORE:    0.00 PKD
ROOT
HETATM    1  N   UNL     1      -9.610  20.151  67.700  1.00  0.00    -0.387 NA 
HETATM    2  H1  UNL     1      -9.290  20.557  66.821  1.00  0.00     0.000 HD 
HETATM    3  C   UNL     1      -9.935  18.829  67.681  1.00  0.00    -0.345 C  
HETATM    4  H2  UNL     1      -9.681  20.707  68.552  1.00  0.00     0.000 HD 
HETATM    5  N   UNL     1     -10.341  18.312  68.800  1.00  0.00    -0.420 N  
HETATM    6  C   UNL     1     -10.758  17.004  68.842  1.00  0.00    -0.300 C  
HETATM    7  H   UNL     1     -10.351  18.878  69.649  1.00  0.00     0.000 HD 
HETATM    8  N   UNL     1     -10.791  16.286  67.643  1.00  0.00    -0.319 N  
HETATM    9  O   UNL     1     -11.119  16.482  69.895  1.00  0.00    -0.345 OA 
HETATM   10  C   UNL     1      -9.835  18.062  66.427  1.00  0.00    -0.340 C  
HETATM   11  C   UNL     1     -10.301  16.810  66.473  1.00  0.00    -0.301 C  
ENDROOT
BRANCH   8  12
HETATM   12  C   UNL     1     -11.536  15.037  67.615  1.00  0.00    -0.333 C  
BRANCH  12  13
HETATM   13  C   UNL     1     -10.718  13.742  67.813  1.00  0.00    -0.246 C  
BRANCH  13  14
HETATM   14  O   UNL     1     -10.642  12.990  66.559  1.00  0.00    -0.277 OA 
BRANCH  14  15
HETATM   15  C   UNL     1     -11.015  11.619  66.787  1.00  0.00    -0.290 C  
HETATM   16  P   UNL     1     -10.078  10.444  65.741  1.00  0.00    -0.212 P  
HETATM   17  O   UNL     1      -8.736  11.006  66.518  1.00  0.00    -0.157 OA 
HETATM   18  O   UNL     1     -10.575   9.298  66.814  1.00  0.00    -0.221 OA 
HETATM   19  O   UNL     1      -9.287   9.450  64.857  1.00  0.00    -0.242 OA 
ENDBRANCH  14  15
ENDBRANCH  13  14
BRANCH  13  20
HETATM   20  C   UNL     1     -11.351  12.838  68.883  1.00  0.00    -0.296 C  
HETATM   21  O   UNL     1     -11.438  13.533  70.129  1.00  0.00    -0.492 OA 
HETATM   22  H   UNL     1     -11.829  12.974  70.790  1.00  0.00     0.000 HD 
ENDBRANCH  13  20
ENDBRANCH  12  13
ENDBRANCH   8  12
TORSDOF 5
ENDMDL
MODEL      116
REMARK 921   NORMALIZED FREE ENERGY PREDICTED BY IDOCK:   -4.11 KCAL/MOL
REMARK 922        TOTAL FREE ENERGY PREDICTED BY IDOCK:   -6.25 KCAL/MOL
REMARK 923 INTER-LIGAND FREE ENERGY PREDICTED BY IDOCK:   -6.13 KCAL/MOL
REMARK 924 INTRA-LIGAND FREE ENERGY PREDICTED BY IDOCK:   -0.12 KCAL/MOL
REMARK 927      BINDING AFFINITY PREDICTED BY RF-SCORE:    0.00 PKD
ROOT
HETATM    1  N   UNL     1      -9.991  10.219  64.991  1.00  0.00    -0.325 NA 
HETATM    2  H1  UNL     1     -10.530   9.870  64.198  1.00  0.00     0.000 HD 
HETATM    3  C   UNL     1     -10.465  11.336  65.609  1.00  0.00    -0.261 C  
HETATM    4  H2  UNL     1      -9.140   9.754  65.306  1.00  0.00     0.000 HD 
HETATM    5  N   UNL     1      -9.779  11.779  66.618  1.00  0.00    -0.198 N  
HETATM    6  C   UNL     1     -10.153  12.942  67.246  1.00  0.00    -0.231 C  
HETATM    7  H   UNL     1      -8.962  11.263  66.946  1.00  0.00     0.000 HD 
HETATM    8  N   UNL     1     -11.237  13.652  66.723  1.00  0.00    -0.307 N  
HETATM    9  O   UNL     1      -9.537  13.367  68.222  1.00  0.00    -0.218 OA 
HETATM   10  C   UNL     1     -11.689  11.990  65.115  1.00  0.00    -0.315 C  
HETATM   11  C   UNL     1     -12.002  13.152  65.699  1.00  0.00    -0.415 C  
ENDROOT
BRANCH   8  12
HETATM   12  C   UNL     1     -11.427  15.027  67.157  1.00  0.00    -0.297 C  
BRANCH  12  13
HETATM   13  C   UNL     1     -10.534  16.092  66.485  1.00  0.00    -0.302 C  
BRANCH  13  14
HETATM   14  O   UNL     1     -11.030  17.437  66.785  1.00  0.00    -0.051 OA 
BRANCH  14  15
HETATM   15  C   UNL     1     -10.297  17.994  67.891  1.00  0.00    -0.392 C  
HETATM   16  P   UNL     1      -9.127  19.305  67.378  1.00  0.00    -0.310 P  
HETATM   17  O   UNL     1     -10.460  20.127  66.860  1.00  0.00    -0.423 OA 
HETATM   18  O   UNL     1      -9.122  19.738  68.967  1.00  0.00    -0.257 OA 
HETATM   19  O   UNL     1      -8.137  20.415  66.946  1.00  0.00    -0.308 OA 
ENDBRANCH  14  15
ENDBRANCH  13  14
BRANCH  13  20
HETATM   20  C   UNL     1     -10.503  15.916  64.958  1.00  0.00    -0.266 C  
HETATM   21  O   UNL     1     -11.205  16.987  64.324  1.00  0.00    -1.255 OA 
HETATM   22  H   UNL     1     -11.186  16.878  63.380  1.00  0.00     0.000 HD 
ENDBRANCH  13  20
ENDBRANCH  12  13
ENDBRANCH   8  12
TORSDOF 5
ENDMDL
MODEL      117
REMARK 921   NORMALIZED FREE ENERGY PREDICTED BY IDOCK:   -4.11 KCAL/MOL
REMARK 922        TOTAL FREE ENERGY PREDICTED BY IDOCK:   -6.25 KCAL/MOL
REMARK 923 INTER-LIGAND FREE ENERGY PREDICTED BY IDOCK:   -5.93 KCAL/MOL
REMARK 924 INTRA-LIGAND FREE ENERGY PREDICTED BY IDOCK:   -0.33 KCAL/MOL
REMARK 927      BINDING AFFINITY PREDICTED BY RF-SCORE:    0.00 PKD
ROOT
HETATM    1  N   UNL     1      -9.447   9.496  63.021  1.00  0.00    -0.516 NA 
HETATM    2  H1  UNL     1      -9.554   9.961  62.119  1.00  0.00     0.000 HD 
HETATM    3  C   UNL     1      -9.970  10.134  64.104  1.00  0.00    -0.043 C  
HETATM    4  H2  UNL     1      -8.972   8.598  63.107  1.00  0.00     0.000 HD 
HETATM    5  N   UNL     1      -9.834   9.543  65.251  1.00  0.00    -0.441 N  
HETATM    6  C   UNL     1     -10.270  10.159  66.398  1.00  0.00    -0.221 C  
HETATM    7  H   UNL     1      -9.403   8.619  65.301  1.00  0.00     0.000 HD 
HETATM    8  N   UNL     1     -10.793  11.450  66.292  1.00  0.00    -0.276 N  
HETATM    9  O   UNL     1     -10.179   9.607  67.494  1.00  0.00    -0.191 OA 
HETATM   10  C   UNL     1     -10.635  11.439  63.942  1.00  0.00    -0.452 C  
HETATM   11  C   UNL     1     -10.998  12.050  65.075  1.00  0.00    -0.306 C  
ENDROOT
BRANCH   8  12
HETATM   12  C   UNL     1     -10.940  12.231  67.511  1.00  0.00    -0.254 C  
BRANCH  12  13
HETATM   13  C   UNL     1     -11.465  13.674  67.346  1.00  0.00    -0.336 C  
BRANCH  13  14
HETATM   14  O   UNL     1     -10.364  14.583  67.021  1.00  0.00    -0.260 OA 
BRANCH  14  15
HETATM   15  C   UNL     1     -10.653  15.901  67.521  1.00  0.00    -0.315 C  
HETATM   16  P   UNL     1      -9.791  17.220  66.589  1.00  0.00    -0.319 P  
HETATM   17  O   UNL     1     -10.651  16.696  65.283  1.00  0.00    -0.596 OA 
HETATM   18  O   UNL     1     -10.892  18.238  67.270  1.00  0.00    -0.373 OA 
HETATM   19  O   UNL     1      -9.062  18.336  65.802  1.00  0.00    -0.443 OA 
ENDBRANCH  14  15
ENDBRANCH  13  14
BRANCH  13  20
HETATM   20  C   UNL     1     -12.143  14.174  68.632  1.00  0.00    -0.285 C  
HETATM   21  O   UNL     1     -12.083  13.167  69.645  1.00  0.00    -0.301 OA 
HETATM   22  H   UNL     1     -12.503  13.476  70.439  1.00  0.00     0.000 HD 
ENDBRANCH  13  20
ENDBRANCH  12  13
ENDBRANCH   8  12
TORSDOF 5
ENDMDL
MODEL      118
REMARK 921   NORMALIZED FREE ENERGY PREDICTED BY IDOCK:   -4.07 KCAL/MOL
REMARK 922        TOTAL FREE ENERGY PREDICTED BY IDOCK:   -6.20 KCAL/MOL
REMARK 923 INTER-LIGAND FREE ENERGY PREDICTED BY IDOCK:   -5.75 KCAL/MOL
REMARK 924 INTRA-LIGAND FREE ENERGY PREDICTED BY IDOCK:   -0.45 KCAL/MOL
REMARK 927      BINDING AFFINITY PREDICTED BY RF-SCORE:    0.00 PKD
ROOT
HETATM    1  N   UNL     1     -13.479  14.006  72.722  1.00  0.00    -0.663 NA 
HETATM    2  H1  UNL     1     -13.761  14.853  73.216  1.00  0.00     0.000 HD 
HETATM    3  C   UNL     1     -12.890  14.174  71.507  1.00  0.00    -0.354 C  
HETATM    4  H2  UNL     1     -13.631  13.079  73.120  1.00  0.00     0.000 HD 
HETATM    5  N   UNL     1     -12.530  13.097  70.879  1.00  0.00    -0.359 N  
HETATM    6  C   UNL     1     -11.996  13.182  69.616  1.00  0.00    -0.306 C  
HETATM    7  H   UNL     1     -12.644  12.185  71.324  1.00  0.00     0.000 HD 
HETATM    8  N   UNL     1     -11.920  14.443  69.019  1.00  0.00    -0.319 N  
HETATM    9  O   UNL     1     -11.621  12.179  69.012  1.00  0.00    -0.271 OA 
HETATM   10  C   UNL     1     -12.702  15.529  70.958  1.00  0.00    -0.526 C  
HETATM   11  C   UNL     1     -12.238  15.588  69.706  1.00  0.00    -0.302 C  
ENDROOT
BRANCH   8  12
HETATM   12  C   UNL     1     -11.681  14.508  67.586  1.00  0.00    -0.382 C  
BRANCH  12  13
HETATM   13  C   UNL     1     -10.332  15.113  67.139  1.00  0.00    -0.263 C  
BRANCH  13  14
HETATM   14  O   UNL     1      -9.382  15.117  68.254  1.00  0.00    -0.185 OA 
BRANCH  14  15
HETATM   15  C   UNL     1      -8.979  16.467  68.548  1.00  0.00    -0.231 C  
HETATM   16  P   UNL     1      -7.237  16.585  69.099  1.00  0.00    -0.157 P  
HETATM   17  O   UNL     1      -6.851  15.984  67.612  1.00  0.00    -0.130 OA 
HETATM   18  O   UNL     1      -7.370  18.186  68.736  1.00  0.00    -0.274 OA 
HETATM   19  O   UNL     1      -5.764  16.686  69.564  1.00  0.00    -0.154 OA 
ENDBRANCH  14  15
ENDBRANCH  13  14
BRANCH  13  20
HETATM   20  C   UNL     1     -10.502  16.557  66.642  1.00  0.00    -0.266 C  
HETATM   21  O   UNL     1     -10.295  16.620  65.229  1.00  0.00    -0.609 OA 
HETATM   22  H   UNL     1     -10.401  17.513  64.921  1.00  0.00     0.000 HD 
ENDBRANCH  13  20
ENDBRANCH  12  13
ENDBRANCH   8  12
TORSDOF 5
ENDMDL
MODEL      119
REMARK 921   NORMALIZED FREE ENERGY PREDICTED BY IDOCK:   -4.04 KCAL/MOL
REMARK 922        TOTAL FREE ENERGY PREDICTED BY IDOCK:   -6.16 KCAL/MOL
REMARK 923 INTER-LIGAND FREE ENERGY PREDICTED BY IDOCK:   -5.52 KCAL/MOL
REMARK 924 INTRA-LIGAND FREE ENERGY PREDICTED BY IDOCK:   -0.64 KCAL/MOL
REMARK 927      BINDING AFFINITY PREDICTED BY RF-SCORE:    0.00 PKD
ROOT
HETATM    1  N   UNL     1     -11.995  11.221  68.046  1.00  0.00    -0.641 NA 
HETATM    2  H1  UNL     1     -11.452  10.427  67.705  1.00  0.00     0.000 HD 
HETATM    3  C   UNL     1     -11.326  12.396  68.205  1.00  0.00    -0.284 C  
HETATM    4  H2  UNL     1     -12.989  11.139  68.258  1.00  0.00     0.000 HD 
HETATM    5  N   UNL     1     -12.016  13.406  68.639  1.00  0.00    -0.351 N  
HETATM    6  C   UNL     1     -11.396  14.604  68.895  1.00  0.00    -0.283 C  
HETATM    7  H   UNL     1     -13.021  13.309  68.790  1.00  0.00     0.000 HD 
HETATM    8  N   UNL     1     -10.009  14.672  68.738  1.00  0.00    -0.232 N  
HETATM    9  O   UNL     1     -12.032  15.584  69.278  1.00  0.00    -0.342 OA 
HETATM   10  C   UNL     1      -9.885  12.472  67.905  1.00  0.00    -0.207 C  
HETATM   11  C   UNL     1      -9.288  13.627  68.217  1.00  0.00    -0.204 C  
ENDROOT
BRANCH   8  12
HETATM   12  C   UNL     1      -9.309  15.808  69.319  1.00  0.00    -0.261 C  
BRANCH  12  13
HETATM   13  C   UNL     1      -8.595  16.756  68.332  1.00  0.00    -0.235 C  
BRANCH  13  14
HETATM   14  O   UNL     1      -9.061  16.513  66.965  1.00  0.00    -0.201 OA 
BRANCH  14  15
HETATM   15  C   UNL     1      -9.999  17.534  66.579  1.00  0.00    -0.321 C  
HETATM   16  P   UNL     1      -9.349  19.227  66.828  1.00  0.00    -0.365 P  
HETATM   17  O   UNL     1      -8.184  18.813  65.736  1.00  0.00    -0.465 OA 
HETATM   18  O   UNL     1     -10.551  19.696  65.805  1.00  0.00    -0.522 OA 
HETATM   19  O   UNL     1      -8.801  20.659  67.038  1.00  0.00    -0.281 OA 
ENDBRANCH  14  15
ENDBRANCH  13  14
BRANCH  13  20
HETATM   20  C   UNL     1      -7.071  16.557  68.367  1.00  0.00    -0.160 C  
HETATM   21  O   UNL     1      -6.510  16.817  67.079  1.00  0.00    -0.160 OA 
HETATM   22  H   UNL     1      -5.568  16.694  67.101  1.00  0.00     0.000 HD 
ENDBRANCH  13  20
ENDBRANCH  12  13
ENDBRANCH   8  12
TORSDOF 5
ENDMDL
MODEL      120
REMARK 921   NORMALIZED FREE ENERGY PREDICTED BY IDOCK:   -4.02 KCAL/MOL
REMARK 922        TOTAL FREE ENERGY PREDICTED BY IDOCK:   -6.13 KCAL/MOL
REMARK 923 INTER-LIGAND FREE ENERGY PREDICTED BY IDOCK:   -5.73 KCAL/MOL
REMARK 924 INTRA-LIGAND FREE ENERGY PREDICTED BY IDOCK:   -0.40 KCAL/MOL
REMARK 927      BINDING AFFINITY PREDICTED BY RF-SCORE:    0.00 PKD
ROOT
HETATM    1  N   UNL     1     -11.118   8.951  68.405  1.00  0.00    -0.439 NA 
HETATM    2  H1  UNL     1     -12.034   8.581  68.660  1.00  0.00     0.000 HD 
HETATM    3  C   UNL     1     -10.915  10.280  68.618  1.00  0.00    -0.244 C  
HETATM    4  H2  UNL     1     -10.391   8.355  68.011  1.00  0.00     0.000 HD 
HETATM    5  N   UNL     1      -9.749  10.751  68.295  1.00  0.00    -0.159 N  
HETATM    6  C   UNL     1      -9.494  12.095  68.411  1.00  0.00    -0.179 C  
HETATM    7  H   UNL     1      -9.022  10.122  67.954  1.00  0.00     0.000 HD 
HETATM    8  N   UNL     1     -10.539  12.930  68.817  1.00  0.00    -0.225 N  
HETATM    9  O   UNL     1      -8.389  12.561  68.139  1.00  0.00    -0.161 OA 
HETATM   10  C   UNL     1     -11.996  11.113  69.173  1.00  0.00    -0.413 C  
HETATM   11  C   UNL     1     -11.750  12.427  69.222  1.00  0.00    -0.329 C  
ENDROOT
BRANCH   8  12
HETATM   12  C   UNL     1     -10.386  14.363  68.621  1.00  0.00    -0.245 C  
BRANCH  12  13
HETATM   13  C   UNL     1     -11.402  15.271  69.346  1.00  0.00    -0.294 C  
BRANCH  13  14
HETATM   14  O   UNL     1     -11.478  16.577  68.689  1.00  0.00    -0.313 OA 
BRANCH  14  15
HETATM   15  C   UNL     1     -10.650  16.581  67.511  1.00  0.00    -0.313 C  
HETATM   16  P   UNL     1     -10.127  18.264  67.016  1.00  0.00    -0.401 P  
HETATM   17  O   UNL     1      -9.369  18.331  68.479  1.00  0.00    -0.305 OA 
HETATM   18  O   UNL     1      -8.971  17.500  66.127  1.00  0.00    -0.447 OA 
HETATM   19  O   UNL     1      -9.685  19.687  66.596  1.00  0.00    -0.336 OA 
ENDBRANCH  14  15
ENDBRANCH  13  14
BRANCH  13  20
HETATM   20  C   UNL     1     -11.009  15.490  70.816  1.00  0.00    -0.325 C  
HETATM   21  O   UNL     1     -12.026  16.232  71.493  1.00  0.00    -0.600 OA 
HETATM   22  H   UNL     1     -11.782  16.367  72.402  1.00  0.00     0.000 HD 
ENDBRANCH  13  20
ENDBRANCH  12  13
ENDBRANCH   8  12
TORSDOF 5
ENDMDL
MODEL      121
REMARK 921   NORMALIZED FREE ENERGY PREDICTED BY IDOCK:   -4.02 KCAL/MOL
REMARK 922        TOTAL FREE ENERGY PREDICTED BY IDOCK:   -6.13 KCAL/MOL
REMARK 923 INTER-LIGAND FREE ENERGY PREDICTED BY IDOCK:   -5.57 KCAL/MOL
REMARK 924 INTRA-LIGAND FREE ENERGY PREDICTED BY IDOCK:   -0.56 KCAL/MOL
REMARK 927      BINDING AFFINITY PREDICTED BY RF-SCORE:    0.00 PKD
ROOT
HETATM    1  N   UNL     1      -6.597  13.002  70.292  1.00  0.00    -0.344 NA 
HETATM    2  H1  UNL     1      -6.241  13.928  70.053  1.00  0.00     0.000 HD 
HETATM    3  C   UNL     1      -7.025  12.226  69.259  1.00  0.00     0.004 C  
HETATM    4  H2  UNL     1      -6.629  12.674  71.257  1.00  0.00     0.000 HD 
HETATM    5  N   UNL     1      -7.477  11.048  69.564  1.00  0.00    -0.325 N  
HETATM    6  C   UNL     1      -7.995  10.236  68.584  1.00  0.00    -0.111 C  
HETATM    7  H   UNL     1      -7.447  10.725  70.531  1.00  0.00     0.000 HD 
HETATM    8  N   UNL     1      -8.078  10.744  67.285  1.00  0.00    -0.116 N  
HETATM    9  O   UNL     1      -8.402   9.104  68.842  1.00  0.00    -0.120 OA 
HETATM   10  C   UNL     1      -6.978  12.741  67.879  1.00  0.00    -0.116 C  
HETATM   11  C   UNL     1      -7.542  11.962  66.950  1.00  0.00    -0.093 C  
ENDROOT
BRANCH   8  12
HETATM   12  C   UNL     1      -8.919  10.042  66.328  1.00  0.00    -0.148 C  
BRANCH  12  13
HETATM   13  C   UNL     1      -9.567  10.899  65.220  1.00  0.00    -0.229 C  
BRANCH  13  14
HETATM   14  O   UNL     1     -11.023  10.917  65.376  1.00  0.00    -0.115 OA 
BRANCH  14  15
HETATM   15  C   UNL     1     -11.436  12.157  65.979  1.00  0.00    -0.370 C  
HETATM   16  P   UNL     1     -12.018  13.385  64.753  1.00  0.00    -0.441 P  
HETATM   17  O   UNL     1     -13.195  12.288  64.390  1.00  0.00    -0.806 OA 
HETATM   18  O   UNL     1     -12.716  14.141  66.039  1.00  0.00    -0.469 OA 
HETATM   19  O   UNL     1     -12.511  14.424  63.717  1.00  0.00    -0.814 OA 
ENDBRANCH  14  15
ENDBRANCH  13  14
BRANCH  13  20
HETATM   20  C   UNL     1      -9.236  10.353  63.822  1.00  0.00    -0.269 C  
HETATM   21  O   UNL     1     -10.269  10.703  62.898  1.00  0.00    -0.690 OA 
HETATM   22  H   UNL     1     -10.064  10.364  62.034  1.00  0.00     0.000 HD 
ENDBRANCH  13  20
ENDBRANCH  12  13
ENDBRANCH   8  12
TORSDOF 5
ENDMDL
MODEL      122
REMARK 921   NORMALIZED FREE ENERGY PREDICTED BY IDOCK:   -4.02 KCAL/MOL
REMARK 922        TOTAL FREE ENERGY PREDICTED BY IDOCK:   -6.13 KCAL/MOL
REMARK 923 INTER-LIGAND FREE ENERGY PREDICTED BY IDOCK:   -5.53 KCAL/MOL
REMARK 924 INTRA-LIGAND FREE ENERGY PREDICTED BY IDOCK:   -0.59 KCAL/MOL
REMARK 927      BINDING AFFINITY PREDICTED BY RF-SCORE:    0.00 PKD
ROOT
HETATM    1  N   UNL     1     -10.870  15.327  71.231  1.00  0.00    -0.494 NA 
HETATM    2  H1  UNL     1     -11.713  15.830  71.509  1.00  0.00     0.000 HD 
HETATM    3  C   UNL     1     -10.679  15.142  69.896  1.00  0.00    -0.257 C  
HETATM    4  H2  UNL     1     -10.201  14.982  71.920  1.00  0.00     0.000 HD 
HETATM    5  N   UNL     1      -9.606  14.504  69.544  1.00  0.00    -0.405 N  
HETATM    6  C   UNL     1      -9.382  14.213  68.220  1.00  0.00    -0.203 C  
HETATM    7  H   UNL     1      -8.928  14.217  70.250  1.00  0.00     0.000 HD 
HETATM    8  N   UNL     1     -10.368  14.565  67.294  1.00  0.00    -0.259 N  
HETATM    9  O   UNL     1      -8.358  13.636  67.857  1.00  0.00    -0.148 OA 
HETATM   10  C   UNL     1     -11.675  15.641  68.932  1.00  0.00    -0.396 C  
HETATM   11  C   UNL     1     -11.470  15.297  67.656  1.00  0.00    -0.280 C  
ENDROOT
BRANCH   8  12
HETATM   12  C   UNL     1     -10.302  13.973  65.967  1.00  0.00    -0.306 C  
BRANCH  12  13
HETATM   13  C   UNL     1     -11.555  13.207  65.491  1.00  0.00    -0.335 C  
BRANCH  13  14
HETATM   14  O   UNL     1     -11.791  12.038  66.342  1.00  0.00    -0.578 OA 
BRANCH  14  15
HETATM   15  C   UNL     1     -10.949  10.949  65.922  1.00  0.00     0.016 C  
HETATM   16  P   UNL     1      -9.840  10.354  67.251  1.00  0.00    -0.192 P  
HETATM   17  O   UNL     1     -11.220   9.976  68.071  1.00  0.00    -0.244 OA 
HETATM   18  O   UNL     1      -9.674   9.002  66.326  1.00  0.00    -0.235 OA 
HETATM   19  O   UNL     1      -8.901   9.851  68.374  1.00  0.00    -0.118 OA 
ENDBRANCH  14  15
ENDBRANCH  13  14
BRANCH  13  20
HETATM   20  C   UNL     1     -11.401  12.726  64.040  1.00  0.00    -0.413 C  
HETATM   21  O   UNL     1     -12.621  12.926  63.321  1.00  0.00    -0.685 OA 
HETATM   22  H   UNL     1     -12.525  12.628  62.424  1.00  0.00     0.000 HD 
ENDBRANCH  13  20
ENDBRANCH  12  13
ENDBRANCH   8  12
TORSDOF 5
ENDMDL
MODEL      123
REMARK 921   NORMALIZED FREE ENERGY PREDICTED BY IDOCK:   -4.00 KCAL/MOL
REMARK 922        TOTAL FREE ENERGY PREDICTED BY IDOCK:   -6.11 KCAL/MOL
REMARK 923 INTER-LIGAND FREE ENERGY PREDICTED BY IDOCK:   -5.82 KCAL/MOL
REMARK 924 INTRA-LIGAND FREE ENERGY PREDICTED BY IDOCK:   -0.29 KCAL/MOL
REMARK 927      BINDING AFFINITY PREDICTED BY RF-SCORE:    0.00 PKD
ROOT
HETATM    1  N   UNL     1     -10.463  18.705  66.823  1.00  0.00    -0.399 NA 
HETATM    2  H1  UNL     1     -11.157  19.314  66.388  1.00  0.00     0.000 HD 
HETATM    3  C   UNL     1     -10.302  17.471  66.271  1.00  0.00    -0.335 C  
HETATM    4  H2  UNL     1      -9.917  19.006  67.630  1.00  0.00     0.000 HD 
HETATM    5  N   UNL     1      -9.419  16.696  66.823  1.00  0.00    -0.234 N  
HETATM    6  C   UNL     1      -9.252  15.411  66.369  1.00  0.00    -0.305 C  
HETATM    7  H   UNL     1      -8.849  17.043  67.595  1.00  0.00     0.000 HD 
HETATM    8  N   UNL     1     -10.100  14.956  65.356  1.00  0.00    -0.364 N  
HETATM    9  O   UNL     1      -8.402  14.667  66.856  1.00  0.00    -0.203 OA 
HETATM   10  C   UNL     1     -11.121  17.066  65.115  1.00  0.00     0.087 C  
HETATM   11  C   UNL     1     -10.988  15.793  64.727  1.00  0.00    -0.393 C  
ENDROOT
BRANCH   8  12
HETATM   12  C   UNL     1     -10.163  13.525  65.107  1.00  0.00    -0.316 C  
BRANCH  12  13
HETATM   13  C   UNL     1     -11.517  12.969  64.615  1.00  0.00    -0.336 C  
BRANCH  13  14
HETATM   14  O   UNL     1     -12.120  12.116  65.642  1.00  0.00    -0.545 OA 
BRANCH  14  15
HETATM   15  C   UNL     1     -11.151  11.163  66.117  1.00  0.00    -0.085 C  
HETATM   16  P   UNL     1     -10.689  11.432  67.868  1.00  0.00    -0.234 P  
HETATM   17  O   UNL     1     -12.276  11.137  68.208  1.00  0.00    -0.613 OA 
HETATM   18  O   UNL     1     -10.114   9.890  67.815  1.00  0.00    -0.162 OA 
HETATM   19  O   UNL     1     -10.298  11.658  69.348  1.00  0.00    -0.019 OA 
ENDBRANCH  14  15
ENDBRANCH  13  14
BRANCH  13  20
HETATM   20  C   UNL     1     -11.349  12.140  63.332  1.00  0.00    -0.411 C  
HETATM   21  O   UNL     1     -12.591  11.529  62.974  1.00  0.00    -0.958 OA 
HETATM   22  H   UNL     1     -12.488  11.017  62.181  1.00  0.00     0.000 HD 
ENDBRANCH  13  20
ENDBRANCH  12  13
ENDBRANCH   8  12
TORSDOF 5
ENDMDL
MODEL      124
REMARK 921   NORMALIZED FREE ENERGY PREDICTED BY IDOCK:   -4.00 KCAL/MOL
REMARK 922        TOTAL FREE ENERGY PREDICTED BY IDOCK:   -6.10 KCAL/MOL
REMARK 923 INTER-LIGAND FREE ENERGY PREDICTED BY IDOCK:   -5.48 KCAL/MOL
REMARK 924 INTRA-LIGAND FREE ENERGY PREDICTED BY IDOCK:   -0.63 KCAL/MOL
REMARK 927      BINDING AFFINITY PREDICTED BY RF-SCORE:    0.00 PKD
ROOT
HETATM    1  N   UNL     1     -13.451   9.260  72.669  1.00  0.00    -0.670 NA 
HETATM    2  H1  UNL     1     -13.946   9.833  73.352  1.00  0.00     0.000 HD 
HETATM    3  C   UNL     1     -12.782   9.922  71.686  1.00  0.00    -0.429 C  
HETATM    4  H2  UNL     1     -13.457   8.241  72.720  1.00  0.00     0.000 HD 
HETATM    5  N   UNL     1     -12.152   9.192  70.816  1.00  0.00    -0.458 N  
HETATM    6  C   UNL     1     -11.515   9.785  69.753  1.00  0.00    -0.098 C  
HETATM    7  H   UNL     1     -12.129   8.178  70.923  1.00  0.00     0.000 HD 
HETATM    8  N   UNL     1     -11.628  11.171  69.609  1.00  0.00    -0.295 N  
HETATM    9  O   UNL     1     -10.887   9.119  68.933  1.00  0.00    -0.178 OA 
HETATM   10  C   UNL     1     -12.810  11.394  71.635  1.00  0.00    -0.497 C  
HETATM   11  C   UNL     1     -12.237  11.949  70.562  1.00  0.00    -0.336 C  
ENDROOT
BRANCH   8  12
HETATM   12  C   UNL     1     -11.256  11.758  68.332  1.00  0.00    -0.251 C  
BRANCH  12  13
HETATM   13  C   UNL     1      -9.890  12.475  68.274  1.00  0.00    -0.227 C  
BRANCH  13  14
HETATM   14  O   UNL     1      -9.981  13.679  67.445  1.00  0.00    -0.229 OA 
BRANCH  14  15
HETATM   15  C   UNL     1      -9.116  14.702  67.970  1.00  0.00    -0.189 C  
HETATM   16  P   UNL     1      -8.877  16.097  66.808  1.00  0.00    -0.303 P  
HETATM   17  O   UNL     1     -10.504  16.334  66.945  1.00  0.00    -0.306 OA 
HETATM   18  O   UNL     1      -8.353  16.932  68.127  1.00  0.00    -0.199 OA 
HETATM   19  O   UNL     1      -8.675  17.276  65.827  1.00  0.00    -0.531 OA 
ENDBRANCH  14  15
ENDBRANCH  13  14
BRANCH  13  20
HETATM   20  C   UNL     1      -8.802  11.562  67.686  1.00  0.00    -0.152 C  
HETATM   21  O   UNL     1      -8.258  10.723  68.707  1.00  0.00    -0.129 OA 
HETATM   22  H   UNL     1      -7.585  10.159  68.343  1.00  0.00     0.000 HD 
ENDBRANCH  13  20
ENDBRANCH  12  13
ENDBRANCH   8  12
TORSDOF 5
ENDMDL
MODEL      125
REMARK 921   NORMALIZED FREE ENERGY PREDICTED BY IDOCK:   -3.99 KCAL/MOL
REMARK 922        TOTAL FREE ENERGY PREDICTED BY IDOCK:   -6.10 KCAL/MOL
REMARK 923 INTER-LIGAND FREE ENERGY PREDICTED BY IDOCK:   -5.10 KCAL/MOL
REMARK 924 INTRA-LIGAND FREE ENERGY PREDICTED BY IDOCK:   -1.00 KCAL/MOL
REMARK 927      BINDING AFFINITY PREDICTED BY RF-SCORE:    0.00 PKD
ROOT
HETATM    1  N   UNL     1     -10.736   7.161  74.020  1.00  0.00    -0.556 NA 
HETATM    2  H1  UNL     1     -11.629   6.804  74.361  1.00  0.00     0.000 HD 
HETATM    3  C   UNL     1     -10.766   7.890  72.872  1.00  0.00    -0.375 C  
HETATM    4  H2  UNL     1      -9.863   6.981  74.517  1.00  0.00     0.000 HD 
HETATM    5  N   UNL     1      -9.630   8.345  72.439  1.00  0.00    -0.290 N  
HETATM    6  C   UNL     1      -9.571   9.027  71.248  1.00  0.00    -0.291 C  
HETATM    7  H   UNL     1      -8.781   8.197  72.984  1.00  0.00     0.000 HD 
HETATM    8  N   UNL     1     -10.746   9.149  70.502  1.00  0.00    -0.221 N  
HETATM    9  O   UNL     1      -8.512   9.493  70.831  1.00  0.00    -0.269 OA 
HETATM   10  C   UNL     1     -12.044   8.115  72.173  1.00  0.00    -0.408 C  
HETATM   11  C   UNL     1     -11.958   8.727  70.987  1.00  0.00    -0.251 C  
ENDROOT
BRANCH   8  12
HETATM   12  C   UNL     1     -10.633   9.559  69.111  1.00  0.00    -0.222 C  
BRANCH  12  13
HETATM   13  C   UNL     1     -11.511  10.751  68.670  1.00  0.00    -0.295 C  
BRANCH  13  14
HETATM   14  O   UNL     1     -11.596  10.808  67.209  1.00  0.00    -0.439 OA 
BRANCH  14  15
HETATM   15  C   UNL     1     -10.758   9.791  66.630  1.00  0.00    -0.036 C  
HETATM   16  P   UNL     1      -9.843  10.377  65.157  1.00  0.00    -0.325 P  
HETATM   17  O   UNL     1      -9.129  11.458  66.178  1.00  0.00    -0.199 OA 
HETATM   18  O   UNL     1      -8.875   9.067  65.402  1.00  0.00    -0.178 OA 
HETATM   19  O   UNL     1      -9.068  10.871  63.912  1.00  0.00    -0.187 OA 
ENDBRANCH  14  15
ENDBRANCH  13  14
BRANCH  13  20
HETATM   20  C   UNL     1     -10.939  12.085  69.175  1.00  0.00    -0.178 C  
HETATM   21  O   UNL     1      -9.513  12.076  69.085  1.00  0.00    -0.377 OA 
HETATM   22  H   UNL     1      -9.159  12.901  69.397  1.00  0.00     0.000 HD 
ENDBRANCH  13  20
ENDBRANCH  12  13
ENDBRANCH   8  12
TORSDOF 5
ENDMDL
MODEL      126
REMARK 921   NORMALIZED FREE ENERGY PREDICTED BY IDOCK:   -3.99 KCAL/MOL
REMARK 922        TOTAL FREE ENERGY PREDICTED BY IDOCK:   -6.09 KCAL/MOL
REMARK 923 INTER-LIGAND FREE ENERGY PREDICTED BY IDOCK:   -5.80 KCAL/MOL
REMARK 924 INTRA-LIGAND FREE ENERGY PREDICTED BY IDOCK:   -0.29 KCAL/MOL
REMARK 927      BINDING AFFINITY PREDICTED BY RF-SCORE:    0.00 PKD
ROOT
HETATM    1  N   UNL     1      -7.875   9.876  65.275  1.00  0.00    -0.125 NA 
HETATM    2  H1  UNL     1      -7.237   9.212  65.715  1.00  0.00     0.000 HD 
HETATM    3  C   UNL     1      -8.338  10.890  66.057  1.00  0.00    -0.165 C  
HETATM    4  H2  UNL     1      -8.151   9.786  64.297  1.00  0.00     0.000 HD 
HETATM    5  N   UNL     1      -9.149  11.735  65.497  1.00  0.00    -0.415 N  
HETATM    6  C   UNL     1      -9.715  12.741  66.241  1.00  0.00    -0.262 C  
HETATM    7  H   UNL     1      -9.365  11.652  64.504  1.00  0.00     0.000 HD 
HETATM    8  N   UNL     1      -9.444  12.777  67.612  1.00  0.00    -0.184 N  
HETATM    9  O   UNL     1     -10.463  13.571  65.728  1.00  0.00    -0.280 OA 
HETATM   10  C   UNL     1      -7.929  10.978  67.470  1.00  0.00    -0.116 C  
HETATM   11  C   UNL     1      -8.537  11.926  68.192  1.00  0.00    -0.165 C  
ENDROOT
BRANCH   8  12
HETATM   12  C   UNL     1     -10.287  13.610  68.454  1.00  0.00    -0.248 C  
BRANCH  12  13
HETATM   13  C   UNL     1     -11.759  13.168  68.608  1.00  0.00    -0.326 C  
BRANCH  13  14
HETATM   14  O   UNL     1     -12.530  14.200  69.306  1.00  0.00    -0.255 OA 
BRANCH  14  15
HETATM   15  C   UNL     1     -11.789  14.679  70.444  1.00  0.00    -0.303 C  
HETATM   16  P   UNL     1     -12.867  15.350  71.762  1.00  0.00    -0.478 P  
HETATM   17  O   UNL     1     -13.501  13.829  71.853  1.00  0.00    -0.371 OA 
HETATM   18  O   UNL     1     -11.554  15.174  72.741  1.00  0.00    -0.399 OA 
HETATM   19  O   UNL     1     -13.777  15.917  72.878  1.00  0.00    -0.591 OA 
ENDBRANCH  14  15
ENDBRANCH  13  14
BRANCH  13  20
HETATM   20  C   UNL     1     -11.870  11.859  69.405  1.00  0.00    -0.327 C  
HETATM   21  O   UNL     1     -12.461  10.839  68.596  1.00  0.00    -0.793 OA 
HETATM   22  H   UNL     1     -12.530  10.029  69.089  1.00  0.00     0.000 HD 
ENDBRANCH  13  20
ENDBRANCH  12  13
ENDBRANCH   8  12
TORSDOF 5
ENDMDL
MODEL      127
REMARK 921   NORMALIZED FREE ENERGY PREDICTED BY IDOCK:   -3.98 KCAL/MOL
REMARK 922        TOTAL FREE ENERGY PREDICTED BY IDOCK:   -6.08 KCAL/MOL
REMARK 923 INTER-LIGAND FREE ENERGY PREDICTED BY IDOCK:   -5.51 KCAL/MOL
REMARK 924 INTRA-LIGAND FREE ENERGY PREDICTED BY IDOCK:   -0.57 KCAL/MOL
REMARK 927      BINDING AFFINITY PREDICTED BY RF-SCORE:    0.00 PKD
ROOT
HETATM    1  N   UNL     1     -12.033  12.629  70.119  1.00  0.00    -0.463 NA 
HETATM    2  H1  UNL     1     -11.295  12.981  69.508  1.00  0.00     0.000 HD 
HETATM    3  C   UNL     1     -11.971  11.312  70.457  1.00  0.00    -0.371 C  
HETATM    4  H2  UNL     1     -12.778  13.235  70.461  1.00  0.00     0.000 HD 
HETATM    5  N   UNL     1     -12.909  10.866  71.236  1.00  0.00    -0.410 N  
HETATM    6  C   UNL     1     -12.956   9.533  71.561  1.00  0.00    -0.386 C  
HETATM    7  H   UNL     1     -13.612  11.506  71.607  1.00  0.00     0.000 HD 
HETATM    8  N   UNL     1     -12.015   8.680  70.978  1.00  0.00    -0.276 N  
HETATM    9  O   UNL     1     -13.817   9.090  72.320  1.00  0.00    -0.445 OA 
HETATM   10  C   UNL     1     -10.887  10.464  69.931  1.00  0.00    -0.353 C  
HETATM   11  C   UNL     1     -10.985   9.160  70.208  1.00  0.00    -0.245 C  
ENDROOT
BRANCH   8  12
HETATM   12  C   UNL     1     -12.257   7.247  71.041  1.00  0.00    -0.313 C  
BRANCH  12  13
HETATM   13  C   UNL     1     -11.019   6.347  71.243  1.00  0.00    -0.271 C  
BRANCH  13  14
HETATM   14  O   UNL     1     -10.924   5.363  70.162  1.00  0.00    -0.240 OA 
BRANCH  14  15
HETATM   15  C   UNL     1      -9.792   5.661  69.326  1.00  0.00    -0.174 C  
HETATM   16  P   UNL     1     -10.135   5.405  67.546  1.00  0.00    -0.172 P  
HETATM   17  O   UNL     1     -11.282   6.579  67.720  1.00  0.00    -0.305 OA 
HETATM   18  O   UNL     1      -8.803   6.339  67.290  1.00  0.00    -0.109 OA 
HETATM   19  O   UNL     1     -10.425   5.190  66.041  1.00  0.00    -0.231 OA 
ENDBRANCH  14  15
ENDBRANCH  13  14
BRANCH  13  20
HETATM   20  C   UNL     1     -11.084   5.594  72.581  1.00  0.00    -0.282 C  
HETATM   21  O   UNL     1     -12.446   5.387  72.964  1.00  0.00    -0.466 OA 
HETATM   22  H   UNL     1     -12.487   4.921  73.791  1.00  0.00     0.000 HD 
ENDBRANCH  13  20
ENDBRANCH  12  13
ENDBRANCH   8  12
TORSDOF 5
ENDMDL
MODEL      128
REMARK 921   NORMALIZED FREE ENERGY PREDICTED BY IDOCK:   -3.97 KCAL/MOL
REMARK 922        TOTAL FREE ENERGY PREDICTED BY IDOCK:   -6.07 KCAL/MOL
REMARK 923 INTER-LIGAND FREE ENERGY PREDICTED BY IDOCK:   -5.83 KCAL/MOL
REMARK 924 INTRA-LIGAND FREE ENERGY PREDICTED BY IDOCK:   -0.23 KCAL/MOL
REMARK 927      BINDING AFFINITY PREDICTED BY RF-SCORE:    0.00 PKD
ROOT
HETATM    1  N   UNL     1     -12.139  15.837  63.782  1.00  0.00    -1.173 NA 
HETATM    2  H1  UNL     1     -12.778  16.524  64.182  1.00  0.00     0.000 HD 
HETATM    3  C   UNL     1     -11.980  14.675  64.473  1.00  0.00    -0.460 C  
HETATM    4  H2  UNL     1     -11.643  16.012  62.908  1.00  0.00     0.000 HD 
HETATM    5  N   UNL     1     -11.167  13.800  63.964  1.00  0.00    -0.583 N  
HETATM    6  C   UNL     1     -10.898  12.636  64.640  1.00  0.00    -0.319 C  
HETATM    7  H   UNL     1     -10.727  13.979  63.061  1.00  0.00     0.000 HD 
HETATM    8  N   UNL     1     -11.470  12.463  65.904  1.00  0.00    -0.356 N  
HETATM    9  O   UNL     1     -10.154  11.778  64.166  1.00  0.00    -0.275 OA 
HETATM   10  C   UNL     1     -12.700  14.465  65.741  1.00  0.00    -0.267 C  
HETATM   11  C   UNL     1     -12.380  13.354  66.414  1.00  0.00    -0.321 C  
ENDROOT
BRANCH   8  12
HETATM   12  C   UNL     1     -10.935  11.414  66.759  1.00  0.00    -0.291 C  
BRANCH  12  13
HETATM   13  C   UNL     1      -9.440  11.521  67.129  1.00  0.00    -0.177 C  
BRANCH  13  14
HETATM   14  O   UNL     1      -9.058  10.430  68.028  1.00  0.00    -0.134 OA 
BRANCH  14  15
HETATM   15  C   UNL     1      -9.642   9.195  67.574  1.00  0.00    -0.150 C  
HETATM   16  P   UNL     1      -9.844   7.968  68.917  1.00  0.00    -0.183 P  
HETATM   17  O   UNL     1     -10.851   9.074  69.615  1.00  0.00    -0.231 OA 
HETATM   18  O   UNL     1     -10.899   7.222  67.897  1.00  0.00    -0.188 OA 
HETATM   19  O   UNL     1     -10.016   6.930  70.053  1.00  0.00    -0.179 OA 
ENDBRANCH  14  15
ENDBRANCH  13  14
BRANCH  13  20
HETATM   20  C   UNL     1      -9.129  12.855  67.826  1.00  0.00    -0.197 C  
HETATM   21  O   UNL     1      -8.647  13.808  66.876  1.00  0.00    -0.351 OA 
HETATM   22  H   UNL     1      -8.455  14.633  67.307  1.00  0.00     0.000 HD 
ENDBRANCH  13  20
ENDBRANCH  12  13
ENDBRANCH   8  12
TORSDOF 5
ENDMDL
MODEL      129
REMARK 921   NORMALIZED FREE ENERGY PREDICTED BY IDOCK:   -3.97 KCAL/MOL
REMARK 922        TOTAL FREE ENERGY PREDICTED BY IDOCK:   -6.06 KCAL/MOL
REMARK 923 INTER-LIGAND FREE ENERGY PREDICTED BY IDOCK:   -5.70 KCAL/MOL
REMARK 924 INTRA-LIGAND FREE ENERGY PREDICTED BY IDOCK:   -0.37 KCAL/MOL
REMARK 927      BINDING AFFINITY PREDICTED BY RF-SCORE:    0.00 PKD
ROOT
HETATM    1  N   UNL     1     -10.837  19.507  67.568  1.00  0.00    -0.440 NA 
HETATM    2  H1  UNL     1     -10.948  19.950  66.655  1.00  0.00     0.000 HD 
HETATM    3  C   UNL     1     -10.464  18.198  67.571  1.00  0.00    -0.410 C  
HETATM    4  H2  UNL     1     -10.998  20.020  68.435  1.00  0.00     0.000 HD 
HETATM    5  N   UNL     1     -10.322  17.636  68.732  1.00  0.00    -0.366 N  
HETATM    6  C   UNL     1     -10.019  16.299  68.816  1.00  0.00    -0.237 C  
HETATM    7  H   UNL     1     -10.435  18.187  69.583  1.00  0.00     0.000 HD 
HETATM    8  N   UNL     1      -9.938  15.567  67.628  1.00  0.00    -0.232 N  
HETATM    9  O   UNL     1      -9.850  15.749  69.903  1.00  0.00    -0.272 OA 
HETATM   10  C   UNL     1     -10.257  17.486  66.298  1.00  0.00    -0.356 C  
HETATM   11  C   UNL     1     -10.023  16.173  66.400  1.00  0.00    -0.299 C  
ENDROOT
BRANCH   8  12
HETATM   12  C   UNL     1      -9.956  14.116  67.716  1.00  0.00    -0.235 C  
BRANCH  12  13
HETATM   13  C   UNL     1     -11.335  13.455  67.929  1.00  0.00    -0.289 C  
BRANCH  13  14
HETATM   14  O   UNL     1     -11.198  12.239  68.734  1.00  0.00    -0.230 OA 
BRANCH  14  15
HETATM   15  C   UNL     1     -11.971  12.363  69.943  1.00  0.00    -0.299 C  
HETATM   16  P   UNL     1     -12.568  10.752  70.573  1.00  0.00    -0.255 P  
HETATM   17  O   UNL     1     -10.974  10.356  70.727  1.00  0.00    -0.262 OA 
HETATM   18  O   UNL     1     -12.806  11.547  71.996  1.00  0.00    -0.350 OA 
HETATM   19  O   UNL     1     -13.073   9.390  71.107  1.00  0.00    -0.307 OA 
ENDBRANCH  14  15
ENDBRANCH  13  14
BRANCH  13  20
HETATM   20  C   UNL     1     -11.989  13.078  66.590  1.00  0.00    -0.387 C  
HETATM   21  O   UNL     1     -11.877  11.671  66.365  1.00  0.00    -0.470 OA 
HETATM   22  H   UNL     1     -12.281  11.438  65.537  1.00  0.00     0.000 HD 
ENDBRANCH  13  20
ENDBRANCH  12  13
ENDBRANCH   8  12
TORSDOF 5
ENDMDL
MODEL      130
REMARK 921   NORMALIZED FREE ENERGY PREDICTED BY IDOCK:   -3.94 KCAL/MOL
REMARK 922        TOTAL FREE ENERGY PREDICTED BY IDOCK:   -6.03 KCAL/MOL
REMARK 923 INTER-LIGAND FREE ENERGY PREDICTED BY IDOCK:   -6.25 KCAL/MOL
REMARK 924 INTRA-LIGAND FREE ENERGY PREDICTED BY IDOCK:    0.21 KCAL/MOL
REMARK 927      BINDING AFFINITY PREDICTED BY RF-SCORE:    0.00 PKD
ROOT
HETATM    1  N   UNL     1      -6.714  21.370  66.621  1.00  0.00    -0.756 NA 
HETATM    2  H1  UNL     1      -5.956  21.443  67.300  1.00  0.00     0.000 HD 
HETATM    3  C   UNL     1      -7.744  20.540  66.941  1.00  0.00    -0.271 C  
HETATM    4  H2  UNL     1      -6.701  21.894  65.746  1.00  0.00     0.000 HD 
HETATM    5  N   UNL     1      -8.709  20.449  66.077  1.00  0.00    -0.569 N  
HETATM    6  C   UNL     1      -9.747  19.576  66.296  1.00  0.00    -0.402 C  
HETATM    7  H   UNL     1      -8.696  21.025  65.236  1.00  0.00     0.000 HD 
HETATM    8  N   UNL     1      -9.691  18.758  67.427  1.00  0.00    -0.299 N  
HETATM    9  O   UNL     1     -10.687  19.492  65.507  1.00  0.00    -0.457 OA 
HETATM   10  C   UNL     1      -7.721  19.787  68.207  1.00  0.00    -0.334 C  
HETATM   11  C   UNL     1      -8.707  18.900  68.373  1.00  0.00    -0.345 C  
ENDROOT
BRANCH   8  12
HETATM   12  C   UNL     1     -10.589  17.615  67.491  1.00  0.00    -0.343 C  
BRANCH  12  13
HETATM   13  C   UNL     1     -10.415  16.540  66.396  1.00  0.00    -0.274 C  
BRANCH  13  14
HETATM   14  O   UNL     1     -11.064  15.291  66.802  1.00  0.00    -0.320 OA 
BRANCH  14  15
HETATM   15  C   UNL     1     -10.627  14.215  65.952  1.00  0.00    -0.298 C  
HETATM   16  P   UNL     1     -10.444  12.630  66.850  1.00  0.00    -0.236 P  
HETATM   17  O   UNL     1     -12.061  12.751  67.153  1.00  0.00    -0.415 OA 
HETATM   18  O   UNL     1     -10.482  11.933  65.359  1.00  0.00    -0.250 OA 
HETATM   19  O   UNL     1     -10.289  11.290  67.609  1.00  0.00    -0.177 OA 
ENDBRANCH  14  15
ENDBRANCH  13  14
BRANCH  13  20
HETATM   20  C   UNL     1      -8.931  16.250  66.126  1.00  0.00    -0.339 C  
HETATM   21  O   UNL     1      -8.300  15.761  67.311  1.00  0.00    -0.163 OA 
HETATM   22  H   UNL     1      -7.382  15.582  67.144  1.00  0.00     0.000 HD 
ENDBRANCH  13  20
ENDBRANCH  12  13
ENDBRANCH   8  12
TORSDOF 5
ENDMDL
MODEL      131
REMARK 921   NORMALIZED FREE ENERGY PREDICTED BY IDOCK:   -3.94 KCAL/MOL
REMARK 922        TOTAL FREE ENERGY PREDICTED BY IDOCK:   -6.03 KCAL/MOL
REMARK 923 INTER-LIGAND FREE ENERGY PREDICTED BY IDOCK:   -5.40 KCAL/MOL
REMARK 924 INTRA-LIGAND FREE ENERGY PREDICTED BY IDOCK:   -0.63 KCAL/MOL
REMARK 927      BINDING AFFINITY PREDICTED BY RF-SCORE:    0.00 PKD
ROOT
HETATM    1  N   UNL     1     -13.223  13.632  64.998  1.00  0.00    -0.593 NA 
HETATM    2  H1  UNL     1     -13.396  13.975  64.053  1.00  0.00     0.000 HD 
HETATM    3  C   UNL     1     -12.052  14.007  65.581  1.00  0.00    -0.417 C  
HETATM    4  H2  UNL     1     -13.895  13.037  65.482  1.00  0.00     0.000 HD 
HETATM    5  N   UNL     1     -11.833  13.571  66.784  1.00  0.00    -0.386 N  
HETATM    6  C   UNL     1     -10.642  13.847  67.409  1.00  0.00    -0.267 C  
HETATM    7  H   UNL     1     -12.547  13.023  67.265  1.00  0.00     0.000 HD 
HETATM    8  N   UNL     1      -9.668  14.543  66.689  1.00  0.00    -0.261 N  
HETATM    9  O   UNL     1     -10.422  13.470  68.559  1.00  0.00    -0.238 OA 
HETATM   10  C   UNL     1     -11.098  14.855  64.844  1.00  0.00    -0.424 C  
HETATM   11  C   UNL     1      -9.921  15.062  65.444  1.00  0.00    -0.330 C  
ENDROOT
BRANCH   8  12
HETATM   12  C   UNL     1      -8.307  14.545  67.204  1.00  0.00    -0.202 C  
BRANCH  12  13
HETATM   13  C   UNL     1      -7.823  15.851  67.869  1.00  0.00    -0.138 C  
BRANCH  13  14
HETATM   14  O   UNL     1      -6.604  16.333  67.215  1.00  0.00    -0.163 OA 
BRANCH  14  15
HETATM   15  C   UNL     1      -6.437  17.741  67.467  1.00  0.00    -0.163 C  
HETATM   16  P   UNL     1      -6.232  18.718  65.933  1.00  0.00    -0.253 P  
HETATM   17  O   UNL     1      -7.745  18.191  65.537  1.00  0.00    -0.507 OA 
HETATM   18  O   UNL     1      -6.617  20.018  66.868  1.00  0.00    -0.197 OA 
HETATM   19  O   UNL     1      -6.060  19.546  64.637  1.00  0.00    -0.251 OA 
ENDBRANCH  14  15
ENDBRANCH  13  14
BRANCH  13  20
HETATM   20  C   UNL     1      -7.523  15.643  69.362  1.00  0.00    -0.221 C  
HETATM   21  O   UNL     1      -8.606  14.954  69.991  1.00  0.00    -0.386 OA 
HETATM   22  H   UNL     1      -8.420  14.826  70.914  1.00  0.00     0.000 HD 
ENDBRANCH  13  20
ENDBRANCH  12  13
ENDBRANCH   8  12
TORSDOF 5
ENDMDL
MODEL      132
REMARK 921   NORMALIZED FREE ENERGY PREDICTED BY IDOCK:   -3.94 KCAL/MOL
REMARK 922        TOTAL FREE ENERGY PREDICTED BY IDOCK:   -6.03 KCAL/MOL
REMARK 923 INTER-LIGAND FREE ENERGY PREDICTED BY IDOCK:   -5.71 KCAL/MOL
REMARK 924 INTRA-LIGAND FREE ENERGY PREDICTED BY IDOCK:   -0.32 KCAL/MOL
REMARK 927      BINDING AFFINITY PREDICTED BY RF-SCORE:    0.00 PKD
ROOT
HETATM    1  N   UNL     1     -10.169   4.904  68.777  1.00  0.00    -0.103 NA 
HETATM    2  H1  UNL     1      -9.586   4.891  67.939  1.00  0.00     0.000 HD 
HETATM    3  C   UNL     1     -10.583   6.123  69.216  1.00  0.00    -0.285 C  
HETATM    4  H2  UNL     1     -10.428   4.044  69.261  1.00  0.00     0.000 HD 
HETATM    5  N   UNL     1     -11.325   6.139  70.281  1.00  0.00    -0.373 N  
HETATM    6  C   UNL     1     -11.720   7.336  70.826  1.00  0.00    -0.299 C  
HETATM    7  H   UNL     1     -11.614   5.261  70.714  1.00  0.00     0.000 HD 
HETATM    8  N   UNL     1     -11.247   8.513  70.241  1.00  0.00    -0.223 N  
HETATM    9  O   UNL     1     -12.447   7.377  71.818  1.00  0.00    -0.314 OA 
HETATM   10  C   UNL     1     -10.175   7.344  68.499  1.00  0.00    -0.201 C  
HETATM   11  C   UNL     1     -10.518   8.500  69.078  1.00  0.00    -0.200 C  
ENDROOT
BRANCH   8  12
HETATM   12  C   UNL     1     -11.375   9.751  70.994  1.00  0.00    -0.387 C  
BRANCH  12  13
HETATM   13  C   UNL     1     -12.047  10.934  70.265  1.00  0.00    -0.355 C  
BRANCH  13  14
HETATM   14  O   UNL     1     -11.055  11.690  69.498  1.00  0.00    -0.233 OA 
BRANCH  14  15
HETATM   15  C   UNL     1     -11.676  12.838  68.890  1.00  0.00    -0.326 C  
HETATM   16  P   UNL     1     -11.130  13.110  67.164  1.00  0.00    -0.301 P  
HETATM   17  O   UNL     1     -11.791  11.632  66.847  1.00  0.00    -0.577 OA 
HETATM   18  O   UNL     1     -12.470  14.059  67.031  1.00  0.00    -0.326 OA 
HETATM   19  O   UNL     1     -10.671  13.342  65.704  1.00  0.00    -0.275 OA 
ENDBRANCH  14  15
ENDBRANCH  13  14
BRANCH  13  20
HETATM   20  C   UNL     1     -12.725  11.893  71.258  1.00  0.00    -0.298 C  
HETATM   21  O   UNL     1     -13.359  11.152  72.303  1.00  0.00    -0.633 OA 
HETATM   22  H   UNL     1     -13.778  11.744  72.917  1.00  0.00     0.000 HD 
ENDBRANCH  13  20
ENDBRANCH  12  13
ENDBRANCH   8  12
TORSDOF 5
ENDMDL
MODEL      133
REMARK 921   NORMALIZED FREE ENERGY PREDICTED BY IDOCK:   -3.89 KCAL/MOL
REMARK 922        TOTAL FREE ENERGY PREDICTED BY IDOCK:   -5.96 KCAL/MOL
REMARK 923 INTER-LIGAND FREE ENERGY PREDICTED BY IDOCK:   -5.46 KCAL/MOL
REMARK 924 INTRA-LIGAND FREE ENERGY PREDICTED BY IDOCK:   -0.51 KCAL/MOL
REMARK 927      BINDING AFFINITY PREDICTED BY RF-SCORE:    0.00 PKD
ROOT
HETATM    1  N   UNL     1     -11.003   6.159  74.081  1.00  0.00    -0.285 NA 
HETATM    2  H1  UNL     1     -11.983   5.901  74.204  1.00  0.00     0.000 HD 
HETATM    3  C   UNL     1     -10.745   7.197  73.239  1.00  0.00    -0.361 C  
HETATM    4  H2  UNL     1     -10.254   5.664  74.565  1.00  0.00     0.000 HD 
HETATM    5  N   UNL     1      -9.500   7.526  73.083  1.00  0.00    -0.195 N  
HETATM    6  C   UNL     1      -9.155   8.514  72.194  1.00  0.00    -0.249 C  
HETATM    7  H   UNL     1      -8.775   7.049  73.621  1.00  0.00     0.000 HD 
HETATM    8  N   UNL     1     -10.171   9.093  71.429  1.00  0.00    -0.327 N  
HETATM    9  O   UNL     1      -7.985   8.864  72.050  1.00  0.00    -0.350 OA 
HETATM   10  C   UNL     1     -11.853   7.878  72.545  1.00  0.00    -0.390 C  
HETATM   11  C   UNL     1     -11.494   8.794  71.640  1.00  0.00    -0.316 C  
ENDROOT
BRANCH   8  12
HETATM   12  C   UNL     1      -9.789   9.881  70.268  1.00  0.00    -0.179 C  
BRANCH  12  13
HETATM   13  C   UNL     1      -9.308   9.094  69.029  1.00  0.00    -0.151 C  
BRANCH  13  14
HETATM   14  O   UNL     1      -9.350   9.945  67.838  1.00  0.00    -0.137 OA 
BRANCH  14  15
HETATM   15  C   UNL     1      -9.648  11.302  68.215  1.00  0.00    -0.193 C  
HETATM   16  P   UNL     1     -10.951  12.059  67.176  1.00  0.00    -0.305 P  
HETATM   17  O   UNL     1     -11.939  10.873  67.760  1.00  0.00    -0.553 OA 
HETATM   18  O   UNL     1     -11.086  13.168  68.387  1.00  0.00    -0.242 OA 
HETATM   19  O   UNL     1     -12.053  12.700  66.299  1.00  0.00    -0.523 OA 
ENDBRANCH  14  15
ENDBRANCH  13  14
BRANCH  13  20
HETATM   20  C   UNL     1     -10.186   7.859  68.774  1.00  0.00    -0.205 C  
HETATM   21  O   UNL     1     -11.052   8.091  67.660  1.00  0.00    -0.495 OA 
HETATM   22  H   UNL     1     -11.595   7.327  67.503  1.00  0.00     0.000 HD 
ENDBRANCH  13  20
ENDBRANCH  12  13
ENDBRANCH   8  12
TORSDOF 5
ENDMDL
MODEL      134
REMARK 921   NORMALIZED FREE ENERGY PREDICTED BY IDOCK:   -3.89 KCAL/MOL
REMARK 922        TOTAL FREE ENERGY PREDICTED BY IDOCK:   -5.96 KCAL/MOL
REMARK 923 INTER-LIGAND FREE ENERGY PREDICTED BY IDOCK:   -5.51 KCAL/MOL
REMARK 924 INTRA-LIGAND FREE ENERGY PREDICTED BY IDOCK:   -0.45 KCAL/MOL
REMARK 927      BINDING AFFINITY PREDICTED BY RF-SCORE:    0.00 PKD
ROOT
HETATM    1  N   UNL     1     -10.847   7.590  70.708  1.00  0.00    -0.237 NA 
HETATM    2  H1  UNL     1     -10.288   6.966  70.126  1.00  0.00     0.000 HD 
HETATM    3  C   UNL     1     -11.150   8.809  70.182  1.00  0.00    -0.202 C  
HETATM    4  H2  UNL     1     -11.165   7.314  71.637  1.00  0.00     0.000 HD 
HETATM    5  N   UNL     1     -11.862   9.602  70.922  1.00  0.00    -0.304 N  
HETATM    6  C   UNL     1     -12.146  10.875  70.491  1.00  0.00    -0.371 C  
HETATM    7  H   UNL     1     -12.212   9.280  71.825  1.00  0.00     0.000 HD 
HETATM    8  N   UNL     1     -11.591  11.297  69.280  1.00  0.00    -0.290 N  
HETATM    9  O   UNL     1     -12.843  11.636  71.161  1.00  0.00    -0.364 OA 
HETATM   10  C   UNL     1     -10.660   9.178  68.843  1.00  0.00    -0.214 C  
HETATM   11  C   UNL     1     -10.894  10.439  68.467  1.00  0.00    -0.237 C  
ENDROOT
BRANCH   8  12
HETATM   12  C   UNL     1     -11.600  12.721  68.983  1.00  0.00    -0.316 C  
BRANCH  12  13
HETATM   13  C   UNL     1     -11.242  13.126  67.537  1.00  0.00    -0.282 C  
BRANCH  13  14
HETATM   14  O   UNL     1     -10.007  13.913  67.519  1.00  0.00    -0.234 OA 
BRANCH  14  15
HETATM   15  C   UNL     1     -10.315  15.311  67.670  1.00  0.00    -0.250 C  
HETATM   16  P   UNL     1      -9.226  16.391  66.671  1.00  0.00    -0.300 P  
HETATM   17  O   UNL     1      -9.855  15.611  65.360  1.00  0.00    -0.310 OA 
HETATM   18  O   UNL     1     -10.380  17.543  66.902  1.00  0.00    -0.317 OA 
HETATM   19  O   UNL     1      -8.306  17.305  65.827  1.00  0.00    -0.535 OA 
ENDBRANCH  14  15
ENDBRANCH  13  14
BRANCH  13  20
HETATM   20  C   UNL     1     -12.360  13.963  66.896  1.00  0.00    -0.292 C  
HETATM   21  O   UNL     1     -12.672  13.458  65.596  1.00  0.00    -0.458 OA 
HETATM   22  H   UNL     1     -13.363  13.976  65.200  1.00  0.00     0.000 HD 
ENDBRANCH  13  20
ENDBRANCH  12  13
ENDBRANCH   8  12
TORSDOF 5
ENDMDL
MODEL      135
REMARK 921   NORMALIZED FREE ENERGY PREDICTED BY IDOCK:   -3.87 KCAL/MOL
REMARK 922        TOTAL FREE ENERGY PREDICTED BY IDOCK:   -5.93 KCAL/MOL
REMARK 923 INTER-LIGAND FREE ENERGY PREDICTED BY IDOCK:   -5.47 KCAL/MOL
REMARK 924 INTRA-LIGAND FREE ENERGY PREDICTED BY IDOCK:   -0.46 KCAL/MOL
REMARK 927      BINDING AFFINITY PREDICTED BY RF-SCORE:    0.00 PKD
ROOT
HETATM    1  N   UNL     1     -10.491  20.086  67.176  1.00  0.00    -0.416 NA 
HETATM    2  H1  UNL     1     -10.303  20.493  68.093  1.00  0.00     0.000 HD 
HETATM    3  C   UNL     1     -10.411  18.731  67.080  1.00  0.00    -0.404 C  
HETATM    4  H2  UNL     1     -10.727  20.667  66.372  1.00  0.00     0.000 HD 
HETATM    5  N   UNL     1     -10.651  18.214  65.914  1.00  0.00    -0.343 N  
HETATM    6  C   UNL     1     -10.518  16.860  65.721  1.00  0.00    -0.268 C  
HETATM    7  H   UNL     1     -10.938  18.813  65.140  1.00  0.00     0.000 HD 
HETATM    8  N   UNL     1     -10.057  16.086  66.790  1.00  0.00    -0.260 N  
HETATM    9  O   UNL     1     -10.767  16.343  64.634  1.00  0.00    -0.693 OA 
HETATM   10  C   UNL     1     -10.050  17.926  68.261  1.00  0.00    -0.376 C  
HETATM   11  C   UNL     1      -9.867  16.620  68.040  1.00  0.00    -0.245 C  
ENDROOT
BRANCH   8  12
HETATM   12  C   UNL     1      -9.595  14.736  66.508  1.00  0.00    -0.284 C  
BRANCH  12  13
HETATM   13  C   UNL     1     -10.350  13.588  67.212  1.00  0.00    -0.241 C  
BRANCH  13  14
HETATM   14  O   UNL     1      -9.828  12.292  66.773  1.00  0.00    -0.202 OA 
BRANCH  14  15
HETATM   15  C   UNL     1      -9.787  11.379  67.886  1.00  0.00    -0.179 C  
HETATM   16  P   UNL     1     -10.036   9.636  67.385  1.00  0.00    -0.234 P  
HETATM   17  O   UNL     1      -8.656   9.818  66.500  1.00  0.00    -0.126 OA 
HETATM   18  O   UNL     1      -9.390   9.261  68.852  1.00  0.00    -0.147 OA 
HETATM   19  O   UNL     1     -10.247   8.162  66.963  1.00  0.00    -0.250 OA 
ENDBRANCH  14  15
ENDBRANCH  13  14
BRANCH  13  20
HETATM   20  C   UNL     1     -11.855  13.634  66.902  1.00  0.00    -0.411 C  
HETATM   21  O   UNL     1     -12.584  14.054  68.058  1.00  0.00    -0.395 OA 
HETATM   22  H   UNL     1     -13.514  14.083  67.866  1.00  0.00     0.000 HD 
ENDBRANCH  13  20
ENDBRANCH  12  13
ENDBRANCH   8  12
TORSDOF 5
ENDMDL
MODEL      136
REMARK 921   NORMALIZED FREE ENERGY PREDICTED BY IDOCK:   -3.86 KCAL/MOL
REMARK 922        TOTAL FREE ENERGY PREDICTED BY IDOCK:   -5.93 KCAL/MOL
REMARK 923 INTER-LIGAND FREE ENERGY PREDICTED BY IDOCK:   -5.26 KCAL/MOL
REMARK 924 INTRA-LIGAND FREE ENERGY PREDICTED BY IDOCK:   -0.67 KCAL/MOL
REMARK 927      BINDING AFFINITY PREDICTED BY RF-SCORE:    0.00 PKD
ROOT
HETATM    1  N   UNL     1      -9.738  18.713  67.288  1.00  0.00    -0.296 NA 
HETATM    2  H1  UNL     1      -9.226  19.073  66.482  1.00  0.00     0.000 HD 
HETATM    3  C   UNL     1      -9.468  17.433  67.663  1.00  0.00    -0.251 C  
HETATM    4  H2  UNL     1     -10.417  19.286  67.789  1.00  0.00     0.000 HD 
HETATM    5  N   UNL     1     -10.118  16.977  68.689  1.00  0.00    -0.284 N  
HETATM    6  C   UNL     1      -9.955  15.671  69.082  1.00  0.00    -0.244 C  
HETATM    7  H   UNL     1     -10.752  17.589  69.205  1.00  0.00     0.000 HD 
HETATM    8  N   UNL     1      -9.130  14.850  68.309  1.00  0.00    -0.174 N  
HETATM    9  O   UNL     1     -10.537  15.223  70.069  1.00  0.00    -0.277 OA 
HETATM   10  C   UNL     1      -8.491  16.631  66.905  1.00  0.00    -0.246 C  
HETATM   11  C   UNL     1      -8.391  15.347  67.264  1.00  0.00    -0.199 C  
ENDROOT
BRANCH   8  12
HETATM   12  C   UNL     1      -9.214  13.412  68.509  1.00  0.00    -0.082 C  
BRANCH  12  13
HETATM   13  C   UNL     1     -10.281  12.662  67.682  1.00  0.00    -0.217 C  
BRANCH  13  14
HETATM   14  O   UNL     1     -11.155  13.616  66.995  1.00  0.00    -0.291 OA 
BRANCH  14  15
HETATM   15  C   UNL     1     -11.533  13.094  65.708  1.00  0.00    -0.325 C  
HETATM   16  P   UNL     1     -12.240  14.370  64.602  1.00  0.00    -0.352 P  
HETATM   17  O   UNL     1     -10.772  15.114  64.719  1.00  0.00    -0.403 OA 
HETATM   18  O   UNL     1     -11.926  13.302  63.388  1.00  0.00    -0.519 OA 
HETATM   19  O   UNL     1     -12.838  15.448  63.666  1.00  0.00    -0.371 OA 
ENDBRANCH  14  15
ENDBRANCH  13  14
BRANCH  13  20
HETATM   20  C   UNL     1     -11.152  11.763  68.574  1.00  0.00    -0.239 C  
HETATM   21  O   UNL     1     -11.236  12.310  69.892  1.00  0.00    -0.486 OA 
HETATM   22  H   UNL     1     -11.774  11.754  70.444  1.00  0.00     0.000 HD 
ENDBRANCH  13  20
ENDBRANCH  12  13
ENDBRANCH   8  12
TORSDOF 5
ENDMDL
MODEL      137
REMARK 921   NORMALIZED FREE ENERGY PREDICTED BY IDOCK:   -3.86 KCAL/MOL
REMARK 922        TOTAL FREE ENERGY PREDICTED BY IDOCK:   -5.92 KCAL/MOL
REMARK 923 INTER-LIGAND FREE ENERGY PREDICTED BY IDOCK:   -5.59 KCAL/MOL
REMARK 924 INTRA-LIGAND FREE ENERGY PREDICTED BY IDOCK:   -0.34 KCAL/MOL
REMARK 927      BINDING AFFINITY PREDICTED BY RF-SCORE:    0.00 PKD
ROOT
HETATM    1  N   UNL     1      -7.866  20.769  66.818  1.00  0.00    -0.556 NA 
HETATM    2  H1  UNL     1      -7.571  21.394  67.569  1.00  0.00     0.000 HD 
HETATM    3  C   UNL     1      -8.806  19.837  67.132  1.00  0.00    -0.323 C  
HETATM    4  H2  UNL     1      -7.476  20.841  65.878  1.00  0.00     0.000 HD 
HETATM    5  N   UNL     1      -9.182  19.043  66.176  1.00  0.00    -0.277 N  
HETATM    6  C   UNL     1     -10.072  18.029  66.433  1.00  0.00    -0.384 C  
HETATM    7  H   UNL     1      -8.815  19.172  65.232  1.00  0.00     0.000 HD 
HETATM    8  N   UNL     1     -10.497  17.847  67.752  1.00  0.00    -0.388 N  
HETATM    9  O   UNL     1     -10.466  17.282  65.539  1.00  0.00    -0.609 OA 
HETATM   10  C   UNL     1      -9.335  19.753  68.504  1.00  0.00    -0.367 C  
HETATM   11  C   UNL     1     -10.153  18.724  68.750  1.00  0.00    -0.354 C  
ENDROOT
BRANCH   8  12
HETATM   12  C   UNL     1     -11.156  16.596  68.091  1.00  0.00    -0.285 C  
BRANCH  12  13
HETATM   13  C   UNL     1     -10.473  15.726  69.168  1.00  0.00    -0.240 C  
BRANCH  13  14
HETATM   14  O   UNL     1      -9.018  15.889  69.106  1.00  0.00    -0.229 OA 
BRANCH  14  15
HETATM   15  C   UNL     1      -8.455  14.913  68.210  1.00  0.00    -0.151 C  
HETATM   16  P   UNL     1      -6.741  15.316  67.708  1.00  0.00    -0.179 P  
HETATM   17  O   UNL     1      -6.367  15.183  69.309  1.00  0.00    -0.105 OA 
HETATM   18  O   UNL     1      -6.643  13.735  67.257  1.00  0.00    -0.259 OA 
HETATM   19  O   UNL     1      -5.292  15.655  67.282  1.00  0.00    -0.335 OA 
ENDBRANCH  14  15
ENDBRANCH  13  14
BRANCH  13  20
HETATM   20  C   UNL     1     -10.802  14.237  68.978  1.00  0.00    -0.255 C  
HETATM   21  O   UNL     1     -11.031  13.616  70.245  1.00  0.00    -0.291 OA 
HETATM   22  H   UNL     1     -11.234  12.696  70.128  1.00  0.00     0.000 HD 
ENDBRANCH  13  20
ENDBRANCH  12  13
ENDBRANCH   8  12
TORSDOF 5
ENDMDL
MODEL      138
REMARK 921   NORMALIZED FREE ENERGY PREDICTED BY IDOCK:   -3.83 KCAL/MOL
REMARK 922        TOTAL FREE ENERGY PREDICTED BY IDOCK:   -5.89 KCAL/MOL
REMARK 923 INTER-LIGAND FREE ENERGY PREDICTED BY IDOCK:   -5.49 KCAL/MOL
REMARK 924 INTRA-LIGAND FREE ENERGY PREDICTED BY IDOCK:   -0.40 KCAL/MOL
REMARK 927      BINDING AFFINITY PREDICTED BY RF-SCORE:    0.00 PKD
ROOT
HETATM    1  N   UNL     1     -10.892  10.805  70.047  1.00  0.00    -0.457 NA 
HETATM    2  H1  UNL     1     -10.680  10.008  69.445  1.00  0.00     0.000 HD 
HETATM    3  C   UNL     1     -11.186  11.979  69.425  1.00  0.00    -0.196 C  
HETATM    4  H2  UNL     1     -10.884  10.725  71.063  1.00  0.00     0.000 HD 
HETATM    5  N   UNL     1     -11.456  12.992  70.191  1.00  0.00    -0.519 N  
HETATM    6  C   UNL     1     -11.690  14.228  69.639  1.00  0.00    -0.308 C  
HETATM    7  H   UNL     1     -11.495  12.871  71.203  1.00  0.00     0.000 HD 
HETATM    8  N   UNL     1     -11.562  14.364  68.254  1.00  0.00    -0.310 N  
HETATM    9  O   UNL     1     -11.977  15.197  70.340  1.00  0.00    -0.274 OA 
HETATM   10  C   UNL     1     -11.172  12.061  67.954  1.00  0.00    -0.323 C  
HETATM   11  C   UNL     1     -11.342  13.283  67.439  1.00  0.00    -0.303 C  
ENDROOT
BRANCH   8  12
HETATM   12  C   UNL     1     -11.473  15.708  67.704  1.00  0.00    -0.167 C  
BRANCH  12  13
HETATM   13  C   UNL     1     -10.114  16.115  67.094  1.00  0.00    -0.269 C  
BRANCH  13  14
HETATM   14  O   UNL     1      -9.613  17.333  67.734  1.00  0.00    -0.254 OA 
BRANCH  14  15
HETATM   15  C   UNL     1      -8.178  17.279  67.832  1.00  0.00    -0.219 C  
HETATM   16  P   UNL     1      -7.363  18.782  67.177  1.00  0.00    -0.216 P  
HETATM   17  O   UNL     1      -8.176  19.595  68.360  1.00  0.00    -0.334 OA 
HETATM   18  O   UNL     1      -6.046  18.278  68.027  1.00  0.00    -0.170 OA 
HETATM   19  O   UNL     1      -6.673  20.052  66.623  1.00  0.00    -0.202 OA 
ENDBRANCH  14  15
ENDBRANCH  13  14
BRANCH  13  20
HETATM   20  C   UNL     1     -10.233  16.374  65.583  1.00  0.00    -0.324 C  
HETATM   21  O   UNL     1     -10.445  17.766  65.337  1.00  0.00    -0.641 OA 
HETATM   22  H   UNL     1     -10.518  17.926  64.403  1.00  0.00     0.000 HD 
ENDBRANCH  13  20
ENDBRANCH  12  13
ENDBRANCH   8  12
TORSDOF 5
ENDMDL
MODEL      139
REMARK 921   NORMALIZED FREE ENERGY PREDICTED BY IDOCK:   -3.83 KCAL/MOL
REMARK 922        TOTAL FREE ENERGY PREDICTED BY IDOCK:   -5.89 KCAL/MOL
REMARK 923 INTER-LIGAND FREE ENERGY PREDICTED BY IDOCK:   -5.49 KCAL/MOL
REMARK 924 INTRA-LIGAND FREE ENERGY PREDICTED BY IDOCK:   -0.39 KCAL/MOL
REMARK 927      BINDING AFFINITY PREDICTED BY RF-SCORE:    0.00 PKD
ROOT
HETATM    1  N   UNL     1     -11.246   9.086  70.751  1.00  0.00    -0.263 NA 
HETATM    2  H1  UNL     1     -11.614   9.521  71.598  1.00  0.00     0.000 HD 
HETATM    3  C   UNL     1     -11.197   9.864  69.636  1.00  0.00    -0.208 C  
HETATM    4  H2  UNL     1     -10.930   8.116  70.742  1.00  0.00     0.000 HD 
HETATM    5  N   UNL     1     -10.728   9.311  68.559  1.00  0.00    -0.379 N  
HETATM    6  C   UNL     1     -10.715  10.009  67.377  1.00  0.00    -0.274 C  
HETATM    7  H   UNL     1     -10.368   8.357  68.592  1.00  0.00     0.000 HD 
HETATM    8  N   UNL     1     -11.279  11.288  67.363  1.00  0.00    -0.301 N  
HETATM    9  O   UNL     1     -10.250   9.518  66.350  1.00  0.00    -0.264 OA 
HETATM   10  C   UNL     1     -11.677  11.256  69.684  1.00  0.00    -0.420 C  
HETATM   11  C   UNL     1     -11.714  11.899  68.512  1.00  0.00    -0.330 C  
ENDROOT
BRANCH   8  12
HETATM   12  C   UNL     1     -11.575  11.891  66.073  1.00  0.00    -0.227 C  
BRANCH  12  13
HETATM   13  C   UNL     1     -10.524  12.873  65.512  1.00  0.00    -0.289 C  
BRANCH  13  14
HETATM   14  O   UNL     1     -10.522  14.115  66.290  1.00  0.00    -0.277 OA 
BRANCH  14  15
HETATM   15  C   UNL     1      -9.170  14.484  66.618  1.00  0.00    -0.266 C  
HETATM   16  P   UNL     1      -8.797  16.234  66.230  1.00  0.00    -0.285 P  
HETATM   17  O   UNL     1      -9.974  16.604  67.325  1.00  0.00    -0.258 OA 
HETATM   18  O   UNL     1      -7.511  16.046  67.241  1.00  0.00    -0.161 OA 
HETATM   19  O   UNL     1      -8.481  17.713  65.902  1.00  0.00    -0.531 OA 
ENDBRANCH  14  15
ENDBRANCH  13  14
BRANCH  13  20
HETATM   20  C   UNL     1     -10.809  13.222  64.043  1.00  0.00    -0.259 C  
HETATM   21  O   UNL     1      -9.706  12.832  63.221  1.00  0.00    -0.502 OA 
HETATM   22  H   UNL     1      -9.882  13.048  62.312  1.00  0.00     0.000 HD 
ENDBRANCH  13  20
ENDBRANCH  12  13
ENDBRANCH   8  12
TORSDOF 5
ENDMDL
MODEL      140
REMARK 921   NORMALIZED FREE ENERGY PREDICTED BY IDOCK:   -3.80 KCAL/MOL
REMARK 922        TOTAL FREE ENERGY PREDICTED BY IDOCK:   -5.85 KCAL/MOL
REMARK 923 INTER-LIGAND FREE ENERGY PREDICTED BY IDOCK:   -5.04 KCAL/MOL
REMARK 924 INTRA-LIGAND FREE ENERGY PREDICTED BY IDOCK:   -0.81 KCAL/MOL
REMARK 927      BINDING AFFINITY PREDICTED BY RF-SCORE:    0.00 PKD
ROOT
HETATM    1  N   UNL     1     -12.571  14.955  69.614  1.00  0.00    -0.590 NA 
HETATM    2  H1  UNL     1     -13.156  15.728  69.294  1.00  0.00     0.000 HD 
HETATM    3  C   UNL     1     -11.748  14.389  68.689  1.00  0.00    -0.332 C  
HETATM    4  H2  UNL     1     -12.602  14.623  70.578  1.00  0.00     0.000 HD 
HETATM    5  N   UNL     1     -11.004  13.406  69.096  1.00  0.00    -0.391 N  
HETATM    6  C   UNL     1     -10.202  12.736  68.204  1.00  0.00    -0.241 C  
HETATM    7  H   UNL     1     -11.015  13.131  70.078  1.00  0.00     0.000 HD 
HETATM    8  N   UNL     1     -10.268  13.102  66.857  1.00  0.00    -0.243 N  
HETATM    9  O   UNL     1      -9.466  11.821  68.570  1.00  0.00    -0.200 OA 
HETATM   10  C   UNL     1     -11.743  14.884  67.302  1.00  0.00    -0.308 C  
HETATM   11  C   UNL     1     -11.003  14.182  66.437  1.00  0.00    -0.311 C  
ENDROOT
BRANCH   8  12
HETATM   12  C   UNL     1      -9.694  12.197  65.873  1.00  0.00    -0.239 C  
BRANCH  12  13
HETATM   13  C   UNL     1     -10.679  11.551  64.875  1.00  0.00    -0.297 C  
BRANCH  13  14
HETATM   14  O   UNL     1     -10.516  10.096  64.869  1.00  0.00    -0.144 OA 
BRANCH  14  15
HETATM   15  C   UNL     1      -9.618   9.700  65.922  1.00  0.00    -0.257 C  
HETATM   16  P   UNL     1      -8.412   8.431  65.387  1.00  0.00    -0.139 P  
HETATM   17  O   UNL     1      -7.874   9.564  64.315  1.00  0.00    -0.117 OA 
HETATM   18  O   UNL     1      -7.557   8.870  66.724  1.00  0.00    -0.085 OA 
HETATM   19  O   UNL     1      -7.391   7.358  64.936  1.00  0.00    -0.070 OA 
ENDBRANCH  14  15
ENDBRANCH  13  14
BRANCH  13  20
HETATM   20  C   UNL     1     -10.449  12.070  63.446  1.00  0.00    -0.433 C  
HETATM   21  O   UNL     1      -9.068  11.957  63.096  1.00  0.00    -0.644 OA 
HETATM   22  H   UNL     1      -8.926  12.278  62.213  1.00  0.00     0.000 HD 
ENDBRANCH  13  20
ENDBRANCH  12  13
ENDBRANCH   8  12
TORSDOF 5
ENDMDL
MODEL      141
REMARK 921   NORMALIZED FREE ENERGY PREDICTED BY IDOCK:   -3.80 KCAL/MOL
REMARK 922        TOTAL FREE ENERGY PREDICTED BY IDOCK:   -5.85 KCAL/MOL
REMARK 923 INTER-LIGAND FREE ENERGY PREDICTED BY IDOCK:   -5.38 KCAL/MOL
REMARK 924 INTRA-LIGAND FREE ENERGY PREDICTED BY IDOCK:   -0.47 KCAL/MOL
REMARK 927      BINDING AFFINITY PREDICTED BY RF-SCORE:    0.00 PKD
ROOT
HETATM    1  N   UNL     1     -11.324   8.251  69.604  1.00  0.00    -0.437 NA 
HETATM    2  H1  UNL     1     -11.210   8.354  70.613  1.00  0.00     0.000 HD 
HETATM    3  C   UNL     1     -10.629   9.118  68.818  1.00  0.00    -0.181 C  
HETATM    4  H2  UNL     1     -11.930   7.534  69.204  1.00  0.00     0.000 HD 
HETATM    5  N   UNL     1     -10.774   8.987  67.535  1.00  0.00    -0.438 N  
HETATM    6  C   UNL     1     -10.163   9.871  66.680  1.00  0.00    -0.226 C  
HETATM    7  H   UNL     1     -11.343   8.227  67.161  1.00  0.00     0.000 HD 
HETATM    8  N   UNL     1      -9.449  10.936  67.236  1.00  0.00    -0.159 N  
HETATM    9  O   UNL     1     -10.262   9.752  65.460  1.00  0.00    -0.256 OA 
HETATM   10  C   UNL     1      -9.777  10.151  69.433  1.00  0.00    -0.247 C  
HETATM   11  C   UNL     1      -9.240  11.038  68.588  1.00  0.00    -0.185 C  
ENDROOT
BRANCH   8  12
HETATM   12  C   UNL     1      -9.092  12.048  66.368  1.00  0.00    -0.193 C  
BRANCH  12  13
HETATM   13  C   UNL     1     -10.177  13.123  66.142  1.00  0.00    -0.290 C  
BRANCH  13  14
HETATM   14  O   UNL     1     -11.346  12.850  66.982  1.00  0.00    -0.279 OA 
BRANCH  14  15
HETATM   15  C   UNL     1     -11.921  14.088  67.437  1.00  0.00    -0.404 C  
HETATM   16  P   UNL     1     -11.899  14.254  69.260  1.00  0.00    -0.333 P  
HETATM   17  O   UNL     1     -10.256  14.182  69.128  1.00  0.00    -0.173 OA 
HETATM   18  O   UNL     1     -12.140  15.860  68.984  1.00  0.00    -0.328 OA 
HETATM   19  O   UNL     1     -11.881  14.396  70.801  1.00  0.00    -0.299 OA 
ENDBRANCH  14  15
ENDBRANCH  13  14
BRANCH  13  20
HETATM   20  C   UNL     1     -10.632  13.160  64.675  1.00  0.00    -0.392 C  
HETATM   21  O   UNL     1      -9.785  12.333  63.874  1.00  0.00    -0.561 OA 
HETATM   22  H   UNL     1     -10.067  12.356  62.967  1.00  0.00     0.000 HD 
ENDBRANCH  13  20
ENDBRANCH  12  13
ENDBRANCH   8  12
TORSDOF 5
ENDMDL
MODEL      142
REMARK 921   NORMALIZED FREE ENERGY PREDICTED BY IDOCK:   -3.80 KCAL/MOL
REMARK 922        TOTAL FREE ENERGY PREDICTED BY IDOCK:   -5.85 KCAL/MOL
REMARK 923 INTER-LIGAND FREE ENERGY PREDICTED BY IDOCK:   -5.80 KCAL/MOL
REMARK 924 INTRA-LIGAND FREE ENERGY PREDICTED BY IDOCK:   -0.04 KCAL/MOL
REMARK 927      BINDING AFFINITY PREDICTED BY RF-SCORE:    0.00 PKD
ROOT
HETATM    1  N   UNL     1     -11.809  15.732  63.805  1.00  0.00    -1.078 NA 
HETATM    2  H1  UNL     1     -12.430  16.472  64.131  1.00  0.00     0.000 HD 
HETATM    3  C   UNL     1     -11.771  14.593  64.549  1.00  0.00    -0.401 C  
HETATM    4  H2  UNL     1     -11.244  15.839  62.962  1.00  0.00     0.000 HD 
HETATM    5  N   UNL     1     -10.981  13.651  64.133  1.00  0.00    -0.572 N  
HETATM    6  C   UNL     1     -10.833  12.501  64.871  1.00  0.00    -0.293 C  
HETATM    7  H   UNL     1     -10.469  13.764  63.258  1.00  0.00     0.000 HD 
HETATM    8  N   UNL     1     -11.500  12.416  66.096  1.00  0.00    -0.359 N  
HETATM    9  O   UNL     1     -10.113  11.582  64.484  1.00  0.00    -0.248 OA 
HETATM   10  C   UNL     1     -12.589  14.480  65.769  1.00  0.00    -0.196 C  
HETATM   11  C   UNL     1     -12.386  13.382  66.505  1.00  0.00    -0.295 C  
ENDROOT
BRANCH   8  12
HETATM   12  C   UNL     1     -11.093  11.375  67.026  1.00  0.00    -0.303 C  
BRANCH  12  13
HETATM   13  C   UNL     1      -9.832  11.660  67.871  1.00  0.00    -0.184 C  
BRANCH  13  14
HETATM   14  O   UNL     1     -10.089  11.370  69.283  1.00  0.00    -0.090 OA 
BRANCH  14  15
HETATM   15  C   UNL     1     -11.289  10.585  69.411  1.00  0.00    -0.269 C  
HETATM   16  P   UNL     1     -12.202  10.928  70.960  1.00  0.00    -0.296 P  
HETATM   17  O   UNL     1     -12.358  12.467  70.387  1.00  0.00    -0.303 OA 
HETATM   18  O   UNL     1     -13.480  10.210  70.210  1.00  0.00    -0.004 OA 
HETATM   19  O   UNL     1     -12.975  11.217  72.269  1.00  0.00    -0.282 OA 
ENDBRANCH  14  15
ENDBRANCH  13  14
BRANCH  13  20
HETATM   20  C   UNL     1      -9.396  13.129  67.749  1.00  0.00    -0.206 C  
HETATM   21  O   UNL     1      -8.476  13.282  66.666  1.00  0.00    -0.421 OA 
HETATM   22  H   UNL     1      -8.206  14.191  66.591  1.00  0.00     0.000 HD 
ENDBRANCH  13  20
ENDBRANCH  12  13
ENDBRANCH   8  12
TORSDOF 5
ENDMDL
MODEL      143
REMARK 921   NORMALIZED FREE ENERGY PREDICTED BY IDOCK:   -3.79 KCAL/MOL
REMARK 922        TOTAL FREE ENERGY PREDICTED BY IDOCK:   -5.84 KCAL/MOL
REMARK 923 INTER-LIGAND FREE ENERGY PREDICTED BY IDOCK:   -5.56 KCAL/MOL
REMARK 924 INTRA-LIGAND FREE ENERGY PREDICTED BY IDOCK:   -0.28 KCAL/MOL
REMARK 927      BINDING AFFINITY PREDICTED BY RF-SCORE:    0.00 PKD
ROOT
HETATM    1  N   UNL     1     -10.041   8.049  66.368  1.00  0.00    -0.476 NA 
HETATM    2  H1  UNL     1      -9.461   7.803  65.566  1.00  0.00     0.000 HD 
HETATM    3  C   UNL     1     -10.404   9.355  66.484  1.00  0.00    -0.198 C  
HETATM    4  H2  UNL     1     -10.335   7.350  67.051  1.00  0.00     0.000 HD 
HETATM    5  N   UNL     1     -11.142   9.668  67.505  1.00  0.00    -0.421 N  
HETATM    6  C   UNL     1     -11.487  10.978  67.729  1.00  0.00    -0.261 C  
HETATM    7  H   UNL     1     -11.466   8.939  68.141  1.00  0.00     0.000 HD 
HETATM    8  N   UNL     1     -10.966  11.951  66.872  1.00  0.00    -0.273 N  
HETATM    9  O   UNL     1     -12.209  11.296  68.673  1.00  0.00    -0.562 OA 
HETATM   10  C   UNL     1      -9.947  10.340  65.487  1.00  0.00    -0.364 C  
HETATM   11  C   UNL     1     -10.241  11.617  65.755  1.00  0.00    -0.240 C  
ENDROOT
BRANCH   8  12
HETATM   12  C   UNL     1     -11.041  13.342  67.289  1.00  0.00    -0.282 C  
BRANCH  12  13
HETATM   13  C   UNL     1     -10.198  13.740  68.519  1.00  0.00    -0.235 C  
BRANCH  13  14
HETATM   14  O   UNL     1     -10.427  15.146  68.861  1.00  0.00    -0.225 OA 
BRANCH  14  15
HETATM   15  C   UNL     1      -9.451  15.974  68.202  1.00  0.00    -0.208 C  
HETATM   16  P   UNL     1     -10.157  17.542  67.575  1.00  0.00    -0.352 P  
HETATM   17  O   UNL     1     -10.500  17.880  69.153  1.00  0.00    -0.279 OA 
HETATM   18  O   UNL     1      -8.596  18.061  67.502  1.00  0.00    -0.241 OA 
HETATM   19  O   UNL     1     -10.752  18.869  67.045  1.00  0.00    -0.430 OA 
ENDBRANCH  14  15
ENDBRANCH  13  14
BRANCH  13  20
HETATM   20  C   UNL     1      -8.696  13.542  68.258  1.00  0.00    -0.172 C  
HETATM   21  O   UNL     1      -8.196  12.461  69.047  1.00  0.00    -0.343 OA 
HETATM   22  H   UNL     1      -7.267  12.339  68.885  1.00  0.00     0.000 HD 
ENDBRANCH  13  20
ENDBRANCH  12  13
ENDBRANCH   8  12
TORSDOF 5
ENDMDL
MODEL      144
REMARK 921   NORMALIZED FREE ENERGY PREDICTED BY IDOCK:   -3.78 KCAL/MOL
REMARK 922        TOTAL FREE ENERGY PREDICTED BY IDOCK:   -5.82 KCAL/MOL
REMARK 923 INTER-LIGAND FREE ENERGY PREDICTED BY IDOCK:   -5.27 KCAL/MOL
REMARK 924 INTRA-LIGAND FREE ENERGY PREDICTED BY IDOCK:   -0.55 KCAL/MOL
REMARK 927      BINDING AFFINITY PREDICTED BY RF-SCORE:    0.00 PKD
ROOT
HETATM    1  N   UNL     1      -9.835   4.585  68.741  1.00  0.00    -0.144 NA 
HETATM    2  H1  UNL     1      -9.889   4.043  67.878  1.00  0.00     0.000 HD 
HETATM    3  C   UNL     1     -10.181   5.899  68.661  1.00  0.00    -0.192 C  
HETATM    4  H2  UNL     1      -9.536   4.163  69.620  1.00  0.00     0.000 HD 
HETATM    5  N   UNL     1     -10.112   6.588  69.759  1.00  0.00    -0.175 N  
HETATM    6  C   UNL     1     -10.375   7.936  69.743  1.00  0.00    -0.219 C  
HETATM    7  H   UNL     1      -9.863   6.128  70.635  1.00  0.00     0.000 HD 
HETATM    8  N   UNL     1     -10.647   8.538  68.511  1.00  0.00    -0.160 N  
HETATM    9  O   UNL     1     -10.345   8.605  70.774  1.00  0.00    -0.191 OA 
HETATM   10  C   UNL     1     -10.593   6.477  67.370  1.00  0.00    -0.364 C  
HETATM   11  C   UNL     1     -10.785   7.801  67.362  1.00  0.00    -0.230 C  
ENDROOT
BRANCH   8  12
HETATM   12  C   UNL     1     -10.592   9.989  68.431  1.00  0.00    -0.220 C  
BRANCH  12  13
HETATM   13  C   UNL     1     -11.939  10.736  68.523  1.00  0.00     0.016 C  
BRANCH  13  14
HETATM   14  O   UNL     1     -11.884  11.982  67.754  1.00  0.00    -0.488 OA 
BRANCH  14  15
HETATM   15  C   UNL     1     -11.136  11.776  66.542  1.00  0.00    -0.310 C  
HETATM   16  P   UNL     1     -11.890  12.602  65.093  1.00  0.00    -0.429 P  
HETATM   17  O   UNL     1     -11.635  14.011  65.913  1.00  0.00    -0.329 OA 
HETATM   18  O   UNL     1     -10.416  12.410  64.384  1.00  0.00    -0.305 OA 
HETATM   19  O   UNL     1     -12.526  13.300  63.867  1.00  0.00    -0.641 OA 
ENDBRANCH  14  15
ENDBRANCH  13  14
BRANCH  13  20
HETATM   20  C   UNL     1     -12.291  11.081  69.979  1.00  0.00    -0.305 C  
HETATM   21  O   UNL     1     -13.146  10.077  70.531  1.00  0.00    -0.583 OA 
HETATM   22  H   UNL     1     -13.364  10.290  71.431  1.00  0.00     0.000 HD 
ENDBRANCH  13  20
ENDBRANCH  12  13
ENDBRANCH   8  12
TORSDOF 5
ENDMDL
MODEL      145
REMARK 921   NORMALIZED FREE ENERGY PREDICTED BY IDOCK:   -3.77 KCAL/MOL
REMARK 922        TOTAL FREE ENERGY PREDICTED BY IDOCK:   -5.81 KCAL/MOL
REMARK 923 INTER-LIGAND FREE ENERGY PREDICTED BY IDOCK:   -5.76 KCAL/MOL
REMARK 924 INTRA-LIGAND FREE ENERGY PREDICTED BY IDOCK:   -0.05 KCAL/MOL
REMARK 927      BINDING AFFINITY PREDICTED BY RF-SCORE:    0.00 PKD
ROOT
HETATM    1  N   UNL     1     -13.135   7.636  72.285  1.00  0.00    -0.503 NA 
HETATM    2  H1  UNL     1     -14.036   7.699  72.760  1.00  0.00     0.000 HD 
HETATM    3  C   UNL     1     -12.628   8.793  71.778  1.00  0.00    -0.356 C  
HETATM    4  H2  UNL     1     -12.638   6.750  72.196  1.00  0.00     0.000 HD 
HETATM    5  N   UNL     1     -11.481   8.712  71.176  1.00  0.00    -0.271 N  
HETATM    6  C   UNL     1     -10.941   9.822  70.574  1.00  0.00    -0.321 C  
HETATM    7  H   UNL     1     -10.981   7.823  71.149  1.00  0.00     0.000 HD 
HETATM    8  N   UNL     1     -11.690  11.002  70.577  1.00  0.00    -0.334 N  
HETATM    9  O   UNL     1      -9.842   9.779  70.022  1.00  0.00    -0.227 OA 
HETATM   10  C   UNL     1     -13.382  10.051  71.912  1.00  0.00    -0.516 C  
HETATM   11  C   UNL     1     -12.870  11.106  71.269  1.00  0.00    -0.412 C  
ENDROOT
BRANCH   8  12
HETATM   12  C   UNL     1     -11.293  12.067  69.669  1.00  0.00    -0.179 C  
BRANCH  12  13
HETATM   13  C   UNL     1     -12.287  13.237  69.503  1.00  0.00    -0.068 C  
BRANCH  13  14
HETATM   14  O   UNL     1     -11.929  14.046  68.335  1.00  0.00    -0.349 OA 
BRANCH  14  15
HETATM   15  C   UNL     1     -10.681  13.587  67.786  1.00  0.00    -0.252 C  
HETATM   16  P   UNL     1      -9.978  14.744  66.554  1.00  0.00    -0.299 P  
HETATM   17  O   UNL     1      -9.909  15.833  67.791  1.00  0.00    -0.222 OA 
HETATM   18  O   UNL     1      -8.564  13.938  66.800  1.00  0.00    -0.164 OA 
HETATM   19  O   UNL     1      -9.383  15.722  65.512  1.00  0.00    -0.310 OA 
ENDBRANCH  14  15
ENDBRANCH  13  14
BRANCH  13  20
HETATM   20  C   UNL     1     -12.293  14.148  70.741  1.00  0.00    -0.369 C  
HETATM   21  O   UNL     1     -13.365  15.089  70.655  1.00  0.00    -0.611 OA 
HETATM   22  H   UNL     1     -13.369  15.652  71.420  1.00  0.00     0.000 HD 
ENDBRANCH  13  20
ENDBRANCH  12  13
ENDBRANCH   8  12
TORSDOF 5
ENDMDL
MODEL      146
REMARK 921   NORMALIZED FREE ENERGY PREDICTED BY IDOCK:   -3.76 KCAL/MOL
REMARK 922        TOTAL FREE ENERGY PREDICTED BY IDOCK:   -5.80 KCAL/MOL
REMARK 923 INTER-LIGAND FREE ENERGY PREDICTED BY IDOCK:   -5.37 KCAL/MOL
REMARK 924 INTRA-LIGAND FREE ENERGY PREDICTED BY IDOCK:   -0.43 KCAL/MOL
REMARK 927      BINDING AFFINITY PREDICTED BY RF-SCORE:    0.00 PKD
ROOT
HETATM    1  N   UNL     1     -11.536   6.270  69.574  1.00  0.00    -0.545 NA 
HETATM    2  H1  UNL     1     -11.228   5.410  69.119  1.00  0.00     0.000 HD 
HETATM    3  C   UNL     1     -10.869   7.410  69.244  1.00  0.00    -0.137 C  
HETATM    4  H2  UNL     1     -12.306   6.276  70.243  1.00  0.00     0.000 HD 
HETATM    5  N   UNL     1     -11.261   8.503  69.823  1.00  0.00    -0.445 N  
HETATM    6  C   UNL     1     -10.589   9.680  69.597  1.00  0.00    -0.233 C  
HETATM    7  H   UNL     1     -12.068   8.489  70.446  1.00  0.00     0.000 HD 
HETATM    8  N   UNL     1      -9.449   9.641  68.790  1.00  0.00    -0.146 N  
HETATM    9  O   UNL     1     -10.958  10.735  70.110  1.00  0.00    -0.263 OA 
HETATM   10  C   UNL     1      -9.750   7.359  68.286  1.00  0.00    -0.159 C  
HETATM   11  C   UNL     1      -9.072   8.500  68.126  1.00  0.00    -0.138 C  
ENDROOT
BRANCH   8  12
HETATM   12  C   UNL     1      -8.551  10.785  68.818  1.00  0.00    -0.156 C  
BRANCH  12  13
HETATM   13  C   UNL     1      -8.575  11.710  67.581  1.00  0.00    -0.142 C  
BRANCH  13  14
HETATM   14  O   UNL     1      -9.866  11.612  66.897  1.00  0.00    -0.194 OA 
BRANCH  14  15
HETATM   15  C   UNL     1     -10.025  12.718  65.990  1.00  0.00    -0.271 C  
HETATM   16  P   UNL     1     -11.528  12.580  64.955  1.00  0.00    -0.355 P  
HETATM   17  O   UNL     1     -12.367  12.635  66.375  1.00  0.00    -0.521 OA 
HETATM   18  O   UNL     1     -11.325  14.190  64.678  1.00  0.00    -0.359 OA 
HETATM   19  O   UNL     1     -12.800  12.464  64.080  1.00  0.00    -0.705 OA 
ENDBRANCH  14  15
ENDBRANCH  13  14
BRANCH  13  20
HETATM   20  C   UNL     1      -7.468  11.338  66.582  1.00  0.00    -0.133 C  
HETATM   21  O   UNL     1      -6.411  12.298  66.637  1.00  0.00    -0.470 OA 
HETATM   22  H   UNL     1      -5.726  12.068  66.019  1.00  0.00     0.000 HD 
ENDBRANCH  13  20
ENDBRANCH  12  13
ENDBRANCH   8  12
TORSDOF 5
ENDMDL
MODEL      147
REMARK 921   NORMALIZED FREE ENERGY PREDICTED BY IDOCK:   -3.76 KCAL/MOL
REMARK 922        TOTAL FREE ENERGY PREDICTED BY IDOCK:   -5.80 KCAL/MOL
REMARK 923 INTER-LIGAND FREE ENERGY PREDICTED BY IDOCK:   -5.68 KCAL/MOL
REMARK 924 INTRA-LIGAND FREE ENERGY PREDICTED BY IDOCK:   -0.12 KCAL/MOL
REMARK 927      BINDING AFFINITY PREDICTED BY RF-SCORE:    0.00 PKD
ROOT
HETATM    1  N   UNL     1     -14.378   8.702  72.850  1.00  0.00    -1.063 NA 
HETATM    2  H1  UNL     1     -15.110   9.336  72.530  1.00  0.00     0.000 HD 
HETATM    3  C   UNL     1     -13.115   8.956  72.411  1.00  0.00    -0.418 C  
HETATM    4  H2  UNL     1     -14.582   7.917  73.469  1.00  0.00     0.000 HD 
HETATM    5  N   UNL     1     -12.183   8.149  72.818  1.00  0.00    -0.611 N  
HETATM    6  C   UNL     1     -10.897   8.296  72.359  1.00  0.00    -0.351 C  
HETATM    7  H   UNL     1     -12.406   7.405  73.480  1.00  0.00     0.000 HD 
HETATM    8  N   UNL     1     -10.649   9.285  71.403  1.00  0.00    -0.339 N  
HETATM    9  O   UNL     1      -9.990   7.564  72.752  1.00  0.00    -0.189 OA 
HETATM   10  C   UNL     1     -12.861  10.089  71.504  1.00  0.00    -0.537 C  
HETATM   11  C   UNL     1     -11.618  10.180  71.021  1.00  0.00    -0.376 C  
ENDROOT
BRANCH   8  12
HETATM   12  C   UNL     1      -9.394   9.231  70.671  1.00  0.00    -0.270 C  
BRANCH  12  13
HETATM   13  C   UNL     1      -9.283   8.152  69.572  1.00  0.00    -0.158 C  
BRANCH  13  14
HETATM   14  O   UNL     1      -8.140   8.430  68.699  1.00  0.00    -0.118 OA 
BRANCH  14  15
HETATM   15  C   UNL     1      -8.446   8.033  67.350  1.00  0.00    -0.126 C  
HETATM   16  P   UNL     1      -8.302   9.410  66.153  1.00  0.00    -0.120 P  
HETATM   17  O   UNL     1      -6.711   9.464  66.587  1.00  0.00    -0.070 OA 
HETATM   18  O   UNL     1      -8.248   8.231  65.005  1.00  0.00    -0.146 OA 
HETATM   19  O   UNL     1      -8.181  10.574  65.140  1.00  0.00    -0.161 OA 
ENDBRANCH  14  15
ENDBRANCH  13  14
BRANCH  13  20
HETATM   20  C   UNL     1     -10.552   8.101  68.706  1.00  0.00    -0.121 C  
HETATM   21  O   UNL     1     -11.341   6.960  69.054  1.00  0.00    -0.506 OA 
HETATM   22  H   UNL     1     -12.125   6.929  68.519  1.00  0.00     0.000 HD 
ENDBRANCH  13  20
ENDBRANCH  12  13
ENDBRANCH   8  12
TORSDOF 5
ENDMDL
MODEL      148
REMARK 921   NORMALIZED FREE ENERGY PREDICTED BY IDOCK:   -3.76 KCAL/MOL
REMARK 922        TOTAL FREE ENERGY PREDICTED BY IDOCK:   -5.80 KCAL/MOL
REMARK 923 INTER-LIGAND FREE ENERGY PREDICTED BY IDOCK:   -5.05 KCAL/MOL
REMARK 924 INTRA-LIGAND FREE ENERGY PREDICTED BY IDOCK:   -0.75 KCAL/MOL
REMARK 927      BINDING AFFINITY PREDICTED BY RF-SCORE:    0.00 PKD
ROOT
HETATM    1  N   UNL     1      -7.341   5.883  66.982  1.00  0.00    -0.075 NA 
HETATM    2  H1  UNL     1      -7.232   5.434  66.073  1.00  0.00     0.000 HD 
HETATM    3  C   UNL     1      -8.047   7.046  67.010  1.00  0.00    -0.117 C  
HETATM    4  H2  UNL     1      -6.940   5.480  67.830  1.00  0.00     0.000 HD 
HETATM    5  N   UNL     1      -8.186   7.617  68.167  1.00  0.00    -0.123 N  
HETATM    6  C   UNL     1      -8.822   8.830  68.264  1.00  0.00    -0.141 C  
HETATM    7  H   UNL     1      -7.821   7.164  69.006  1.00  0.00     0.000 HD 
HETATM    8  N   UNL     1      -9.246   9.446  67.083  1.00  0.00    -0.133 N  
HETATM    9  O   UNL     1      -8.992   9.378  69.352  1.00  0.00    -0.141 OA 
HETATM   10  C   UNL     1      -8.598   7.606  65.763  1.00  0.00    -0.156 C  
HETATM   11  C   UNL     1      -9.160   8.814  65.868  1.00  0.00    -0.218 C  
ENDROOT
BRANCH   8  12
HETATM   12  C   UNL     1      -9.606  10.854  67.137  1.00  0.00    -0.165 C  
BRANCH  12  13
HETATM   13  C   UNL     1     -11.112  11.184  67.051  1.00  0.00    -0.273 C  
BRANCH  13  14
HETATM   14  O   UNL     1     -11.411  11.874  65.794  1.00  0.00    -0.329 OA 
BRANCH  14  15
HETATM   15  C   UNL     1     -10.931  13.229  65.853  1.00  0.00    -0.274 C  
HETATM   16  P   UNL     1     -11.809  14.346  64.698  1.00  0.00    -0.438 P  
HETATM   17  O   UNL     1     -13.165  13.981  65.565  1.00  0.00    -0.710 OA 
HETATM   18  O   UNL     1     -11.197  15.565  65.621  1.00  0.00    -0.269 OA 
HETATM   19  O   UNL     1     -12.551  15.291  63.723  1.00  0.00    -0.733 OA 
ENDBRANCH  14  15
ENDBRANCH  13  14
BRANCH  13  20
HETATM   20  C   UNL     1     -11.556  12.084  68.215  1.00  0.00    -0.334 C  
HETATM   21  O   UNL     1     -10.648  11.957  69.311  1.00  0.00    -0.418 OA 
HETATM   22  H   UNL     1     -10.922  12.514  70.031  1.00  0.00     0.000 HD 
ENDBRANCH  13  20
ENDBRANCH  12  13
ENDBRANCH   8  12
TORSDOF 5
ENDMDL
MODEL      149
REMARK 921   NORMALIZED FREE ENERGY PREDICTED BY IDOCK:   -3.76 KCAL/MOL
REMARK 922        TOTAL FREE ENERGY PREDICTED BY IDOCK:   -5.80 KCAL/MOL
REMARK 923 INTER-LIGAND FREE ENERGY PREDICTED BY IDOCK:   -5.47 KCAL/MOL
REMARK 924 INTRA-LIGAND FREE ENERGY PREDICTED BY IDOCK:   -0.33 KCAL/MOL
REMARK 927      BINDING AFFINITY PREDICTED BY RF-SCORE:    0.00 PKD
ROOT
HETATM    1  N   UNL     1     -12.806  13.745  64.715  1.00  0.00    -0.704 NA 
HETATM    2  H1  UNL     1     -13.244  14.649  64.892  1.00  0.00     0.000 HD 
HETATM    3  C   UNL     1     -12.244  13.117  65.784  1.00  0.00    -0.456 C  
HETATM    4  H2  UNL     1     -12.791  13.332  63.783  1.00  0.00     0.000 HD 
HETATM    5  N   UNL     1     -11.687  11.967  65.558  1.00  0.00    -0.247 N  
HETATM    6  C   UNL     1     -11.035  11.308  66.571  1.00  0.00    -0.245 C  
HETATM    7  H   UNL     1     -11.734  11.552  64.627  1.00  0.00     0.000 HD 
HETATM    8  N   UNL     1     -10.937  11.943  67.812  1.00  0.00    -0.215 N  
HETATM    9  O   UNL     1     -10.525  10.203  66.390  1.00  0.00    -0.208 OA 
HETATM   10  C   UNL     1     -12.271  13.754  67.112  1.00  0.00    -0.352 C  
HETATM   11  C   UNL     1     -11.580  13.127  68.070  1.00  0.00    -0.334 C  
ENDROOT
BRANCH   8  12
HETATM   12  C   UNL     1      -9.977  11.422  68.773  1.00  0.00    -0.177 C  
BRANCH  12  13
HETATM   13  C   UNL     1     -10.545  10.540  69.905  1.00  0.00    -0.211 C  
BRANCH  13  14
HETATM   14  O   UNL     1     -10.727   9.164  69.437  1.00  0.00    -0.226 OA 
BRANCH  14  15
HETATM   15  C   UNL     1      -9.793   8.293  70.102  1.00  0.00    -0.184 C  
HETATM   16  P   UNL     1     -10.168   8.076  71.881  1.00  0.00    -0.256 P  
HETATM   17  O   UNL     1     -11.595   7.419  71.378  1.00  0.00    -0.259 OA 
HETATM   18  O   UNL     1      -9.193   6.752  71.789  1.00  0.00    -0.147 OA 
HETATM   19  O   UNL     1     -10.484   7.891  73.385  1.00  0.00    -0.301 OA 
ENDBRANCH  14  15
ENDBRANCH  13  14
BRANCH  13  20
HETATM   20  C   UNL     1     -11.902  11.066  70.399  1.00  0.00    -0.367 C  
HETATM   21  O   UNL     1     -12.924  10.094  70.165  1.00  0.00    -0.580 OA 
HETATM   22  H   UNL     1     -13.763  10.420  70.470  1.00  0.00     0.000 HD 
ENDBRANCH  13  20
ENDBRANCH  12  13
ENDBRANCH   8  12
TORSDOF 5
ENDMDL
MODEL      150
REMARK 921   NORMALIZED FREE ENERGY PREDICTED BY IDOCK:   -3.76 KCAL/MOL
REMARK 922        TOTAL FREE ENERGY PREDICTED BY IDOCK:   -5.79 KCAL/MOL
REMARK 923 INTER-LIGAND FREE ENERGY PREDICTED BY IDOCK:   -5.40 KCAL/MOL
REMARK 924 INTRA-LIGAND FREE ENERGY PREDICTED BY IDOCK:   -0.40 KCAL/MOL
REMARK 927      BINDING AFFINITY PREDICTED BY RF-SCORE:    0.00 PKD
ROOT
HETATM    1  N   UNL     1     -11.231  11.513  63.102  1.00  0.00    -0.833 NA 
HETATM    2  H1  UNL     1     -10.597  11.142  62.393  1.00  0.00     0.000 HD 
HETATM    3  C   UNL     1     -10.835  11.395  64.399  1.00  0.00    -0.330 C  
HETATM    4  H2  UNL     1     -12.117  11.952  62.851  1.00  0.00     0.000 HD 
HETATM    5  N   UNL     1     -11.640  11.868  65.300  1.00  0.00    -0.269 N  
HETATM    6  C   UNL     1     -11.344  11.719  66.633  1.00  0.00    -0.316 C  
HETATM    7  H   UNL     1     -12.494  12.350  65.018  1.00  0.00     0.000 HD 
HETATM    8  N   UNL     1     -10.200  10.994  66.975  1.00  0.00    -0.203 N  
HETATM    9  O   UNL     1     -12.077  12.184  67.505  1.00  0.00    -0.534 OA 
HETATM   10  C   UNL     1      -9.555  10.740  64.723  1.00  0.00    -0.314 C  
HETATM   11  C   UNL     1      -9.314  10.551  66.025  1.00  0.00    -0.178 C  
ENDROOT
BRANCH   8  12
HETATM   12  C   UNL     1     -10.060  10.546  68.352  1.00  0.00    -0.164 C  
BRANCH  12  13
HETATM   13  C   UNL     1     -10.642   9.155  68.686  1.00  0.00    -0.174 C  
BRANCH  13  14
HETATM   14  O   UNL     1     -11.142   9.131  70.063  1.00  0.00    -0.235 OA 
BRANCH  14  15
HETATM   15  C   UNL     1     -11.413   7.774  70.461  1.00  0.00    -0.205 C  
HETATM   16  P   UNL     1     -11.042   7.464  72.227  1.00  0.00    -0.306 P  
HETATM   17  O   UNL     1     -12.200   8.596  72.546  1.00  0.00    -0.381 OA 
HETATM   18  O   UNL     1     -11.987   6.127  72.053  1.00  0.00    -0.324 OA 
HETATM   19  O   UNL     1     -10.730   7.201  73.720  1.00  0.00    -0.361 OA 
ENDBRANCH  14  15
ENDBRANCH  13  14
BRANCH  13  20
HETATM   20  C   UNL     1      -9.582   8.053  68.536  1.00  0.00    -0.155 C  
HETATM   21  O   UNL     1      -8.305   8.535  68.961  1.00  0.00    -0.115 OA 
HETATM   22  H   UNL     1      -7.650   7.853  68.868  1.00  0.00     0.000 HD 
ENDBRANCH  13  20
ENDBRANCH  12  13
ENDBRANCH   8  12
TORSDOF 5
ENDMDL
MODEL      151
REMARK 921   NORMALIZED FREE ENERGY PREDICTED BY IDOCK:   -3.71 KCAL/MOL
REMARK 922        TOTAL FREE ENERGY PREDICTED BY IDOCK:   -5.74 KCAL/MOL
REMARK 923 INTER-LIGAND FREE ENERGY PREDICTED BY IDOCK:   -5.25 KCAL/MOL
REMARK 924 INTRA-LIGAND FREE ENERGY PREDICTED BY IDOCK:   -0.48 KCAL/MOL
REMARK 927      BINDING AFFINITY PREDICTED BY RF-SCORE:    0.00 PKD
ROOT
HETATM    1  N   UNL     1     -10.872  15.215  66.001  1.00  0.00    -0.329 NA 
HETATM    2  H1  UNL     1     -10.359  14.956  65.158  1.00  0.00     0.000 HD 
HETATM    3  C   UNL     1     -11.127  14.218  66.892  1.00  0.00    -0.312 C  
HETATM    4  H2  UNL     1     -11.178  16.174  66.168  1.00  0.00     0.000 HD 
HETATM    5  N   UNL     1     -11.779  14.548  67.965  1.00  0.00    -0.348 N  
HETATM    6  C   UNL     1     -12.139  13.585  68.875  1.00  0.00    -0.279 C  
HETATM    7  H   UNL     1     -12.025  15.524  68.132  1.00  0.00     0.000 HD 
HETATM    8  N   UNL     1     -11.841  12.253  68.574  1.00  0.00    -0.325 N  
HETATM    9  O   UNL     1     -12.731  13.876  69.913  1.00  0.00    -0.212 OA 
HETATM   10  C   UNL     1     -10.684  12.842  66.609  1.00  0.00    -0.280 C  
HETATM   11  C   UNL     1     -11.095  11.910  67.475  1.00  0.00    -0.273 C  
ENDROOT
BRANCH   8  12
HETATM   12  C   UNL     1     -12.503  11.213  69.346  1.00  0.00    -0.017 C  
BRANCH  12  13
HETATM   13  C   UNL     1     -11.837  10.817  70.682  1.00  0.00    -0.360 C  
BRANCH  13  14
HETATM   14  O   UNL     1     -11.220   9.493  70.571  1.00  0.00    -0.252 OA 
BRANCH  14  15
HETATM   15  C   UNL     1     -10.938   8.973  71.883  1.00  0.00    -0.353 C  
HETATM   16  P   UNL     1     -11.674   7.320  72.165  1.00  0.00    -0.255 P  
HETATM   17  O   UNL     1     -10.713   6.812  70.924  1.00  0.00    -0.224 OA 
HETATM   18  O   UNL     1     -10.611   7.207  73.417  1.00  0.00    -0.325 OA 
HETATM   19  O   UNL     1     -12.295   5.923  72.404  1.00  0.00    -0.198 OA 
ENDBRANCH  14  15
ENDBRANCH  13  14
BRANCH  13  20
HETATM   20  C   UNL     1     -12.860  10.780  71.829  1.00  0.00    -0.423 C  
HETATM   21  O   UNL     1     -13.195  12.109  72.234  1.00  0.00    -0.489 OA 
HETATM   22  H   UNL     1     -13.828  12.086  72.943  1.00  0.00     0.000 HD 
ENDBRANCH  13  20
ENDBRANCH  12  13
ENDBRANCH   8  12
TORSDOF 5
ENDMDL
MODEL      152
REMARK 921   NORMALIZED FREE ENERGY PREDICTED BY IDOCK:   -3.71 KCAL/MOL
REMARK 922        TOTAL FREE ENERGY PREDICTED BY IDOCK:   -5.74 KCAL/MOL
REMARK 923 INTER-LIGAND FREE ENERGY PREDICTED BY IDOCK:   -5.06 KCAL/MOL
REMARK 924 INTRA-LIGAND FREE ENERGY PREDICTED BY IDOCK:   -0.67 KCAL/MOL
REMARK 927      BINDING AFFINITY PREDICTED BY RF-SCORE:    0.00 PKD
ROOT
HETATM    1  N   UNL     1     -10.141   4.157  66.441  1.00  0.00    -0.389 NA 
HETATM    2  H1  UNL     1     -10.969   3.806  66.922  1.00  0.00     0.000 HD 
HETATM    3  C   UNL     1      -9.942   5.503  66.467  1.00  0.00    -0.185 C  
HETATM    4  H2  UNL     1      -9.493   3.530  65.965  1.00  0.00     0.000 HD 
HETATM    5  N   UNL     1      -8.888   5.949  65.856  1.00  0.00    -0.150 N  
HETATM    6  C   UNL     1      -8.659   7.301  65.775  1.00  0.00    -0.131 C  
HETATM    7  H   UNL     1      -8.228   5.295  65.435  1.00  0.00     0.000 HD 
HETATM    8  N   UNL     1      -9.622   8.163  66.307  1.00  0.00    -0.207 N  
HETATM    9  O   UNL     1      -7.652   7.747  65.227  1.00  0.00    -0.081 OA 
HETATM   10  C   UNL     1     -10.909   6.380  67.151  1.00  0.00    -0.467 C  
HETATM   11  C   UNL     1     -10.703   7.693  67.010  1.00  0.00    -0.270 C  
ENDROOT
BRANCH   8  12
HETATM   12  C   UNL     1      -9.563   9.568  65.935  1.00  0.00    -0.261 C  
BRANCH  12  13
HETATM   13  C   UNL     1      -9.515  10.586  67.095  1.00  0.00    -0.159 C  
BRANCH  13  14
HETATM   14  O   UNL     1     -10.580  11.580  66.943  1.00  0.00    -0.225 OA 
BRANCH  14  15
HETATM   15  C   UNL     1     -10.901  11.745  65.550  1.00  0.00    -0.297 C  
HETATM   16  P   UNL     1     -12.186  13.016  65.262  1.00  0.00    -0.490 P  
HETATM   17  O   UNL     1     -11.114  14.080  65.925  1.00  0.00    -0.297 OA 
HETATM   18  O   UNL     1     -11.657  13.008  63.702  1.00  0.00    -0.451 OA 
HETATM   19  O   UNL     1     -13.272  14.092  65.017  1.00  0.00    -0.720 OA 
ENDBRANCH  14  15
ENDBRANCH  13  14
BRANCH  13  20
HETATM   20  C   UNL     1      -8.167  11.323  67.138  1.00  0.00    -0.149 C  
HETATM   21  O   UNL     1      -7.301  10.829  66.114  1.00  0.00    -0.134 OA 
HETATM   22  H   UNL     1      -6.467  11.284  66.141  1.00  0.00     0.000 HD 
ENDBRANCH  13  20
ENDBRANCH  12  13
ENDBRANCH   8  12
TORSDOF 5
ENDMDL
MODEL      153
REMARK 921   NORMALIZED FREE ENERGY PREDICTED BY IDOCK:   -3.70 KCAL/MOL
REMARK 922        TOTAL FREE ENERGY PREDICTED BY IDOCK:   -5.72 KCAL/MOL
REMARK 923 INTER-LIGAND FREE ENERGY PREDICTED BY IDOCK:   -5.58 KCAL/MOL
REMARK 924 INTRA-LIGAND FREE ENERGY PREDICTED BY IDOCK:   -0.13 KCAL/MOL
REMARK 927      BINDING AFFINITY PREDICTED BY RF-SCORE:    0.00 PKD
ROOT
HETATM    1  N   UNL     1     -12.369  13.858  63.107  1.00  0.00    -1.106 NA 
HETATM    2  H1  UNL     1     -13.176  14.483  63.102  1.00  0.00     0.000 HD 
HETATM    3  C   UNL     1     -11.946  13.415  64.322  1.00  0.00    -0.430 C  
HETATM    4  H2  UNL     1     -11.903  13.578  62.243  1.00  0.00     0.000 HD 
HETATM    5  N   UNL     1     -10.921  12.619  64.328  1.00  0.00    -0.340 N  
HETATM    6  C   UNL     1     -10.390  12.190  65.520  1.00  0.00    -0.263 C  
HETATM    7  H   UNL     1     -10.508  12.312  63.447  1.00  0.00     0.000 HD 
HETATM    8  N   UNL     1     -10.944  12.687  66.703  1.00  0.00    -0.251 N  
HETATM    9  O   UNL     1      -9.437  11.413  65.552  1.00  0.00    -0.223 OA 
HETATM   10  C   UNL     1     -12.634  13.853  65.549  1.00  0.00    -0.560 C  
HETATM   11  C   UNL     1     -12.067  13.475  66.699  1.00  0.00    -0.396 C  
ENDROOT
BRANCH   8  12
HETATM   12  C   UNL     1     -10.192  12.514  67.936  1.00  0.00    -0.219 C  
BRANCH  12  13
HETATM   13  C   UNL     1     -10.654  11.375  68.870  1.00  0.00    -0.202 C  
BRANCH  13  14
HETATM   14  O   UNL     1     -10.557  10.084  68.185  1.00  0.00    -0.198 OA 
BRANCH  14  15
HETATM   15  C   UNL     1     -10.328   9.036  69.145  1.00  0.00    -0.219 C  
HETATM   16  P   UNL     1      -9.344   7.651  68.465  1.00  0.00    -0.147 P  
HETATM   17  O   UNL     1      -8.144   8.764  68.253  1.00  0.00    -0.111 OA 
HETATM   18  O   UNL     1      -9.081   7.240  70.037  1.00  0.00    -0.148 OA 
HETATM   19  O   UNL     1      -8.511   6.479  67.890  1.00  0.00    -0.118 OA 
ENDBRANCH  14  15
ENDBRANCH  13  14
BRANCH  13  20
HETATM   20  C   UNL     1     -12.109  11.576  69.323  1.00  0.00    -0.278 C  
HETATM   21  O   UNL     1     -12.188  11.564  70.750  1.00  0.00    -0.374 OA 
HETATM   22  H   UNL     1     -13.088  11.688  71.029  1.00  0.00     0.000 HD 
ENDBRANCH  13  20
ENDBRANCH  12  13
ENDBRANCH   8  12
TORSDOF 5
ENDMDL
MODEL      154
REMARK 921   NORMALIZED FREE ENERGY PREDICTED BY IDOCK:   -3.69 KCAL/MOL
REMARK 922        TOTAL FREE ENERGY PREDICTED BY IDOCK:   -5.70 KCAL/MOL
REMARK 923 INTER-LIGAND FREE ENERGY PREDICTED BY IDOCK:   -5.31 KCAL/MOL
REMARK 924 INTRA-LIGAND FREE ENERGY PREDICTED BY IDOCK:   -0.40 KCAL/MOL
REMARK 927      BINDING AFFINITY PREDICTED BY RF-SCORE:    0.00 PKD
ROOT
HETATM    1  N   UNL     1     -10.974  15.248  69.417  1.00  0.00    -0.255 NA 
HETATM    2  H1  UNL     1     -10.348  15.235  68.611  1.00  0.00     0.000 HD 
HETATM    3  C   UNL     1     -11.408  14.041  69.874  1.00  0.00    -0.145 C  
HETATM    4  H2  UNL     1     -11.259  16.122  69.859  1.00  0.00     0.000 HD 
HETATM    5  N   UNL     1     -12.202  14.058  70.900  1.00  0.00    -0.351 N  
HETATM    6  C   UNL     1     -12.740  12.886  71.372  1.00  0.00    -0.270 C  
HETATM    7  H   UNL     1     -12.428  14.943  71.356  1.00  0.00     0.000 HD 
HETATM    8  N   UNL     1     -12.459  11.707  70.678  1.00  0.00    -0.322 N  
HETATM    9  O   UNL     1     -13.473  12.872  72.361  1.00  0.00    -0.566 OA 
HETATM   10  C   UNL     1     -10.987  12.801  69.199  1.00  0.00    -0.185 C  
HETATM   11  C   UNL     1     -11.568  11.678  69.634  1.00  0.00    -0.330 C  
ENDROOT
BRANCH   8  12
HETATM   12  C   UNL     1     -13.277  10.537  70.956  1.00  0.00    -0.239 C  
BRANCH  12  13
HETATM   13  C   UNL     1     -12.658   9.466  71.880  1.00  0.00    -0.401 C  
BRANCH  13  14
HETATM   14  O   UNL     1     -11.912   8.483  71.092  1.00  0.00    -0.287 OA 
BRANCH  14  15
HETATM   15  C   UNL     1     -10.729   8.079  71.806  1.00  0.00    -0.240 C  
HETATM   16  P   UNL     1     -10.790   6.333  72.353  1.00  0.00    -0.271 P  
HETATM   17  O   UNL     1     -10.876   5.957  70.749  1.00  0.00    -0.267 OA 
HETATM   18  O   UNL     1      -9.159   6.470  72.531  1.00  0.00    -0.137 OA 
HETATM   19  O   UNL     1     -10.841   4.858  72.817  1.00  0.00    -0.216 OA 
ENDBRANCH  14  15
ENDBRANCH  13  14
BRANCH  13  20
HETATM   20  C   UNL     1     -13.739   8.725  72.683  1.00  0.00    -0.293 C  
HETATM   21  O   UNL     1     -14.177   7.568  71.968  1.00  0.00    -0.531 OA 
HETATM   22  H   UNL     1     -14.846   7.110  72.464  1.00  0.00     0.000 HD 
ENDBRANCH  13  20
ENDBRANCH  12  13
ENDBRANCH   8  12
TORSDOF 5
ENDMDL
MODEL      155
REMARK 921   NORMALIZED FREE ENERGY PREDICTED BY IDOCK:   -3.69 KCAL/MOL
REMARK 922        TOTAL FREE ENERGY PREDICTED BY IDOCK:   -5.70 KCAL/MOL
REMARK 923 INTER-LIGAND FREE ENERGY PREDICTED BY IDOCK:   -4.87 KCAL/MOL
REMARK 924 INTRA-LIGAND FREE ENERGY PREDICTED BY IDOCK:   -0.83 KCAL/MOL
REMARK 927      BINDING AFFINITY PREDICTED BY RF-SCORE:    0.00 PKD
ROOT
HETATM    1  N   UNL     1     -12.347   8.335  72.774  1.00  0.00    -0.594 NA 
HETATM    2  H1  UNL     1     -12.662   9.155  73.294  1.00  0.00     0.000 HD 
HETATM    3  C   UNL     1     -11.797   8.561  71.550  1.00  0.00    -0.299 C  
HETATM    4  H2  UNL     1     -12.440   7.393  73.154  1.00  0.00     0.000 HD 
HETATM    5  N   UNL     1     -11.396   7.518  70.890  1.00  0.00    -0.273 N  
HETATM    6  C   UNL     1     -10.898   7.658  69.618  1.00  0.00    -0.191 C  
HETATM    7  H   UNL     1     -11.451   6.592  71.316  1.00  0.00     0.000 HD 
HETATM    8  N   UNL     1     -10.903   8.934  69.048  1.00  0.00    -0.114 N  
HETATM    9  O   UNL     1     -10.485   6.689  68.983  1.00  0.00    -0.185 OA 
HETATM   10  C   UNL     1     -11.694   9.935  71.028  1.00  0.00    -0.466 C  
HETATM   11  C   UNL     1     -11.264  10.046  69.767  1.00  0.00    -0.258 C  
ENDROOT
BRANCH   8  12
HETATM   12  C   UNL     1     -10.701   9.042  67.611  1.00  0.00    -0.163 C  
BRANCH  12  13
HETATM   13  C   UNL     1      -9.443   9.807  67.147  1.00  0.00    -0.154 C  
BRANCH  13  14
HETATM   14  O   UNL     1      -9.814  10.897  66.242  1.00  0.00    -0.202 OA 
BRANCH  14  15
HETATM   15  C   UNL     1      -9.731  12.157  66.933  1.00  0.00    -0.206 C  
HETATM   16  P   UNL     1     -10.981  13.365  66.362  1.00  0.00    -0.296 P  
HETATM   17  O   UNL     1     -12.102  12.278  66.895  1.00  0.00    -0.583 OA 
HETATM   18  O   UNL     1     -10.661  14.161  67.767  1.00  0.00    -0.240 OA 
HETATM   19  O   UNL     1     -12.038  14.388  65.879  1.00  0.00    -0.384 OA 
ENDBRANCH  14  15
ENDBRANCH  13  14
BRANCH  13  20
HETATM   20  C   UNL     1      -8.463   8.879  66.412  1.00  0.00    -0.117 C  
HETATM   21  O   UNL     1      -8.912   7.524  66.491  1.00  0.00    -0.148 OA 
HETATM   22  H   UNL     1      -8.306   6.951  66.036  1.00  0.00     0.000 HD 
ENDBRANCH  13  20
ENDBRANCH  12  13
ENDBRANCH   8  12
TORSDOF 5
ENDMDL
MODEL      156
REMARK 921   NORMALIZED FREE ENERGY PREDICTED BY IDOCK:   -3.69 KCAL/MOL
REMARK 922        TOTAL FREE ENERGY PREDICTED BY IDOCK:   -5.70 KCAL/MOL
REMARK 923 INTER-LIGAND FREE ENERGY PREDICTED BY IDOCK:   -5.44 KCAL/MOL
REMARK 924 INTRA-LIGAND FREE ENERGY PREDICTED BY IDOCK:   -0.26 KCAL/MOL
REMARK 927      BINDING AFFINITY PREDICTED BY RF-SCORE:    0.00 PKD
ROOT
HETATM    1  N   UNL     1      -9.120  19.160  65.959  1.00  0.00    -0.447 NA 
HETATM    2  H1  UNL     1      -8.584  19.143  65.091  1.00  0.00     0.000 HD 
HETATM    3  C   UNL     1      -9.240  17.980  66.627  1.00  0.00    -0.284 C  
HETATM    4  H2  UNL     1      -9.544  20.019  66.309  1.00  0.00     0.000 HD 
HETATM    5  N   UNL     1      -9.921  18.002  67.731  1.00  0.00    -0.311 N  
HETATM    6  C   UNL     1     -10.148  16.837  68.423  1.00  0.00    -0.285 C  
HETATM    7  H   UNL     1     -10.288  18.886  68.087  1.00  0.00     0.000 HD 
HETATM    8  N   UNL     1      -9.686  15.642  67.866  1.00  0.00    -0.211 N  
HETATM    9  O   UNL     1     -10.765  16.836  69.487  1.00  0.00    -0.330 OA 
HETATM   10  C   UNL     1      -8.627  16.757  66.081  1.00  0.00    -0.299 C  
HETATM   11  C   UNL     1      -8.910  15.625  66.734  1.00  0.00    -0.272 C  
ENDROOT
BRANCH   8  12
HETATM   12  C   UNL     1     -10.204  14.392  68.401  1.00  0.00    -0.243 C  
BRANCH  12  13
HETATM   13  C   UNL     1     -11.654  14.027  68.017  1.00  0.00    -0.337 C  
BRANCH  13  14
HETATM   14  O   UNL     1     -12.099  12.853  68.771  1.00  0.00    -0.280 OA 
BRANCH  14  15
HETATM   15  C   UNL     1     -11.629  11.653  68.132  1.00  0.00    -0.319 C  
HETATM   16  P   UNL     1     -10.607  10.611  69.238  1.00  0.00    -0.228 P  
HETATM   17  O   UNL     1     -11.958  10.493  70.178  1.00  0.00    -0.281 OA 
HETATM   18  O   UNL     1     -10.902   9.405  68.156  1.00  0.00    -0.203 OA 
HETATM   19  O   UNL     1      -9.744   9.730  70.172  1.00  0.00    -0.242 OA 
ENDBRANCH  14  15
ENDBRANCH  13  14
BRANCH  13  20
HETATM   20  C   UNL     1     -11.774  13.713  66.517  1.00  0.00    -0.382 C  
HETATM   21  O   UNL     1     -13.029  14.179  66.015  1.00  0.00    -0.487 OA 
HETATM   22  H   UNL     1     -13.104  13.985  65.088  1.00  0.00     0.000 HD 
ENDBRANCH  13  20
ENDBRANCH  12  13
ENDBRANCH   8  12
TORSDOF 5
ENDMDL
MODEL      157
REMARK 921   NORMALIZED FREE ENERGY PREDICTED BY IDOCK:   -3.68 KCAL/MOL
REMARK 922        TOTAL FREE ENERGY PREDICTED BY IDOCK:   -5.70 KCAL/MOL
REMARK 923 INTER-LIGAND FREE ENERGY PREDICTED BY IDOCK:   -5.19 KCAL/MOL
REMARK 924 INTRA-LIGAND FREE ENERGY PREDICTED BY IDOCK:   -0.51 KCAL/MOL
REMARK 927      BINDING AFFINITY PREDICTED BY RF-SCORE:    0.00 PKD
ROOT
HETATM    1  N   UNL     1     -11.083  14.969  64.391  1.00  0.00    -0.657 NA 
HETATM    2  H1  UNL     1     -10.628  14.664  63.530  1.00  0.00     0.000 HD 
HETATM    3  C   UNL     1     -11.122  14.071  65.413  1.00  0.00    -0.318 C  
HETATM    4  H2  UNL     1     -11.489  15.900  64.481  1.00  0.00     0.000 HD 
HETATM    5  N   UNL     1     -11.700  14.460  66.508  1.00  0.00    -0.383 N  
HETATM    6  C   UNL     1     -11.844  13.585  67.558  1.00  0.00    -0.368 C  
HETATM    7  H   UNL     1     -12.049  15.415  66.590  1.00  0.00     0.000 HD 
HETATM    8  N   UNL     1     -11.412  12.268  67.379  1.00  0.00    -0.330 N  
HETATM    9  O   UNL     1     -12.362  13.937  68.616  1.00  0.00    -0.278 OA 
HETATM   10  C   UNL     1     -10.539  12.729  65.240  1.00  0.00    -0.312 C  
HETATM   11  C   UNL     1     -10.742  11.874  66.249  1.00  0.00    -0.271 C  
ENDROOT
BRANCH   8  12
HETATM   12  C   UNL     1     -11.858  11.267  68.336  1.00  0.00    -0.261 C  
BRANCH  12  13
HETATM   13  C   UNL     1     -10.914  10.980  69.524  1.00  0.00    -0.243 C  
BRANCH  13  14
HETATM   14  O   UNL     1     -10.018   9.866  69.205  1.00  0.00    -0.178 OA 
BRANCH  14  15
HETATM   15  C   UNL     1     -10.698   8.918  68.361  1.00  0.00    -0.076 C  
HETATM   16  P   UNL     1      -9.627   8.253  67.033  1.00  0.00    -0.234 P  
HETATM   17  O   UNL     1      -8.691   7.652  68.252  1.00  0.00    -0.124 OA 
HETATM   18  O   UNL     1     -10.748   7.053  66.912  1.00  0.00    -0.324 OA 
HETATM   19  O   UNL     1      -8.722   7.690  65.910  1.00  0.00    -0.157 OA 
ENDBRANCH  14  15
ENDBRANCH  13  14
BRANCH  13  20
HETATM   20  C   UNL     1     -11.704  10.619  70.792  1.00  0.00    -0.335 C  
HETATM   21  O   UNL     1     -12.796  11.525  70.968  1.00  0.00    -0.336 OA 
HETATM   22  H   UNL     1     -13.284  11.302  71.752  1.00  0.00     0.000 HD 
ENDBRANCH  13  20
ENDBRANCH  12  13
ENDBRANCH   8  12
TORSDOF 5
ENDMDL
MODEL      158
REMARK 921   NORMALIZED FREE ENERGY PREDICTED BY IDOCK:   -3.68 KCAL/MOL
REMARK 922        TOTAL FREE ENERGY PREDICTED BY IDOCK:   -5.69 KCAL/MOL
REMARK 923 INTER-LIGAND FREE ENERGY PREDICTED BY IDOCK:   -5.26 KCAL/MOL
REMARK 924 INTRA-LIGAND FREE ENERGY PREDICTED BY IDOCK:   -0.44 KCAL/MOL
REMARK 927      BINDING AFFINITY PREDICTED BY RF-SCORE:    0.00 PKD
ROOT
HETATM    1  N   UNL     1      -6.279  18.638  66.926  1.00  0.00    -0.176 NA 
HETATM    2  H1  UNL     1      -5.784  19.074  67.705  1.00  0.00     0.000 HD 
HETATM    3  C   UNL     1      -7.333  17.838  67.243  1.00  0.00    -0.187 C  
HETATM    4  H2  UNL     1      -5.998  18.795  65.958  1.00  0.00     0.000 HD 
HETATM    5  N   UNL     1      -7.963  17.284  66.252  1.00  0.00    -0.297 N  
HETATM    6  C   UNL     1      -8.990  16.405  66.496  1.00  0.00    -0.276 C  
HETATM    7  H   UNL     1      -7.695  17.501  65.292  1.00  0.00     0.000 HD 
HETATM    8  N   UNL     1      -9.280  16.084  67.825  1.00  0.00    -0.204 N  
HETATM    9  O   UNL     1      -9.622  15.890  65.574  1.00  0.00    -0.380 OA 
HETATM   10  C   UNL     1      -7.699  17.622  68.654  1.00  0.00    -0.281 C  
HETATM   11  C   UNL     1      -8.660  16.718  68.872  1.00  0.00    -0.218 C  
ENDROOT
BRANCH   8  12
HETATM   12  C   UNL     1     -10.117  14.923  68.081  1.00  0.00    -0.222 C  
BRANCH  12  13
HETATM   13  C   UNL     1     -11.621  15.073  67.764  1.00  0.00    -0.319 C  
BRANCH  13  14
HETATM   14  O   UNL     1     -12.381  15.294  68.996  1.00  0.00    -0.162 OA 
BRANCH  14  15
HETATM   15  C   UNL     1     -12.381  14.096  69.793  1.00  0.00    -0.299 C  
HETATM   16  P   UNL     1     -12.745  14.416  71.558  1.00  0.00    -0.382 P  
HETATM   17  O   UNL     1     -14.204  14.979  71.033  1.00  0.00    -0.345 OA 
HETATM   18  O   UNL     1     -13.073  12.805  71.646  1.00  0.00    -0.401 OA 
HETATM   19  O   UNL     1     -13.053  14.686  73.051  1.00  0.00    -0.476 OA 
ENDBRANCH  14  15
ENDBRANCH  13  14
BRANCH  13  20
HETATM   20  C   UNL     1     -12.175  13.818  67.070  1.00  0.00    -0.340 C  
HETATM   21  O   UNL     1     -11.197  13.272  66.183  1.00  0.00    -0.290 OA 
HETATM   22  H   UNL     1     -11.540  12.496  65.755  1.00  0.00     0.000 HD 
ENDBRANCH  13  20
ENDBRANCH  12  13
ENDBRANCH   8  12
TORSDOF 5
ENDMDL
MODEL      159
REMARK 921   NORMALIZED FREE ENERGY PREDICTED BY IDOCK:   -3.68 KCAL/MOL
REMARK 922        TOTAL FREE ENERGY PREDICTED BY IDOCK:   -5.69 KCAL/MOL
REMARK 923 INTER-LIGAND FREE ENERGY PREDICTED BY IDOCK:   -5.00 KCAL/MOL
REMARK 924 INTRA-LIGAND FREE ENERGY PREDICTED BY IDOCK:   -0.69 KCAL/MOL
REMARK 927      BINDING AFFINITY PREDICTED BY RF-SCORE:    0.00 PKD
ROOT
HETATM    1  N   UNL     1      -8.317  12.746  66.754  1.00  0.00    -0.404 NA 
HETATM    2  H1  UNL     1      -7.300  12.757  66.840  1.00  0.00     0.000 HD 
HETATM    3  C   UNL     1      -8.995  11.948  67.623  1.00  0.00    -0.169 C  
HETATM    4  H2  UNL     1      -8.801  13.307  66.053  1.00  0.00     0.000 HD 
HETATM    5  N   UNL     1     -10.289  11.935  67.514  1.00  0.00    -0.198 N  
HETATM    6  C   UNL     1     -11.037  11.098  68.306  1.00  0.00    -0.251 C  
HETATM    7  H   UNL     1     -10.750  12.546  66.840  1.00  0.00     0.000 HD 
HETATM    8  N   UNL     1     -10.361  10.230  69.167  1.00  0.00    -0.208 N  
HETATM    9  O   UNL     1     -12.265  11.088  68.242  1.00  0.00    -0.582 OA 
HETATM   10  C   UNL     1      -8.260  11.140  68.612  1.00  0.00    -0.152 C  
HETATM   11  C   UNL     1      -9.000  10.289  69.331  1.00  0.00    -0.176 C  
ENDROOT
BRANCH   8  12
HETATM   12  C   UNL     1     -11.107   9.125  69.749  1.00  0.00    -0.125 C  
BRANCH  12  13
HETATM   13  C   UNL     1     -11.466   9.247  71.245  1.00  0.00    -0.347 C  
BRANCH  13  14
HETATM   14  O   UNL     1     -11.804   7.933  71.797  1.00  0.00    -0.270 OA 
BRANCH  14  15
HETATM   15  C   UNL     1     -11.231   6.897  70.978  1.00  0.00    -0.282 C  
HETATM   16  P   UNL     1     -10.221   5.710  71.938  1.00  0.00    -0.206 P  
HETATM   17  O   UNL     1     -11.616   5.357  72.746  1.00  0.00    -0.307 OA 
HETATM   18  O   UNL     1     -10.384   4.719  70.634  1.00  0.00    -0.208 OA 
HETATM   19  O   UNL     1      -9.366   4.706  72.749  1.00  0.00    -0.127 OA 
ENDBRANCH  14  15
ENDBRANCH  13  14
BRANCH  13  20
HETATM   20  C   UNL     1     -12.664  10.186  71.460  1.00  0.00    -0.436 C  
HETATM   21  O   UNL     1     -13.740   9.819  70.593  1.00  0.00    -0.556 OA 
HETATM   22  H   UNL     1     -14.480  10.399  70.726  1.00  0.00     0.000 HD 
ENDBRANCH  13  20
ENDBRANCH  12  13
ENDBRANCH   8  12
TORSDOF 5
ENDMDL
MODEL      160
REMARK 921   NORMALIZED FREE ENERGY PREDICTED BY IDOCK:   -3.68 KCAL/MOL
REMARK 922        TOTAL FREE ENERGY PREDICTED BY IDOCK:   -5.69 KCAL/MOL
REMARK 923 INTER-LIGAND FREE ENERGY PREDICTED BY IDOCK:   -5.23 KCAL/MOL
REMARK 924 INTRA-LIGAND FREE ENERGY PREDICTED BY IDOCK:   -0.45 KCAL/MOL
REMARK 927      BINDING AFFINITY PREDICTED BY RF-SCORE:    0.00 PKD
ROOT
HETATM    1  N   UNL     1     -12.005  15.727  69.400  1.00  0.00    -0.437 NA 
HETATM    2  H1  UNL     1     -11.773  16.695  69.173  1.00  0.00     0.000 HD 
HETATM    3  C   UNL     1     -11.749  14.795  68.442  1.00  0.00    -0.314 C  
HETATM    4  H2  UNL     1     -12.409  15.471  70.301  1.00  0.00     0.000 HD 
HETATM    5  N   UNL     1     -12.045  13.565  68.731  1.00  0.00    -0.326 N  
HETATM    6  C   UNL     1     -11.884  12.579  67.788  1.00  0.00    -0.313 C  
HETATM    7  H   UNL     1     -12.396  13.330  69.660  1.00  0.00     0.000 HD 
HETATM    8  N   UNL     1     -11.464  12.955  66.510  1.00  0.00    -0.323 N  
HETATM    9  O   UNL     1     -12.129  11.402  68.047  1.00  0.00    -0.629 OA 
HETATM   10  C   UNL     1     -11.181  15.206  67.146  1.00  0.00    -0.320 C  
HETATM   11  C   UNL     1     -11.089  14.243  66.222  1.00  0.00    -0.323 C  
ENDROOT
BRANCH   8  12
HETATM   12  C   UNL     1     -11.614  11.992  65.430  1.00  0.00    -0.286 C  
BRANCH  12  13
HETATM   13  C   UNL     1     -10.381  11.122  65.105  1.00  0.00    -0.293 C  
BRANCH  13  14
HETATM   14  O   UNL     1      -9.317  11.362  66.083  1.00  0.00    -0.203 OA 
BRANCH  14  15
HETATM   15  C   UNL     1      -8.356  10.292  66.033  1.00  0.00    -0.142 C  
HETATM   16  P   UNL     1      -7.902   9.666  67.692  1.00  0.00    -0.093 P  
HETATM   17  O   UNL     1      -9.492   9.252  67.840  1.00  0.00    -0.136 OA 
HETATM   18  O   UNL     1      -7.334   8.343  66.891  1.00  0.00    -0.081 OA 
HETATM   19  O   UNL     1      -7.518   9.135  69.094  1.00  0.00    -0.070 OA 
ENDBRANCH  14  15
ENDBRANCH  13  14
BRANCH  13  20
HETATM   20  C   UNL     1      -9.830  11.431  63.704  1.00  0.00    -0.348 C  
HETATM   21  O   UNL     1     -10.762  12.231  62.973  1.00  0.00    -0.597 OA 
HETATM   22  H   UNL     1     -10.421  12.422  62.106  1.00  0.00     0.000 HD 
ENDBRANCH  13  20
ENDBRANCH  12  13
ENDBRANCH   8  12
TORSDOF 5
ENDMDL
MODEL      161
REMARK 921   NORMALIZED FREE ENERGY PREDICTED BY IDOCK:   -3.67 KCAL/MOL
REMARK 922        TOTAL FREE ENERGY PREDICTED BY IDOCK:   -5.69 KCAL/MOL
REMARK 923 INTER-LIGAND FREE ENERGY PREDICTED BY IDOCK:   -5.24 KCAL/MOL
REMARK 924 INTRA-LIGAND FREE ENERGY PREDICTED BY IDOCK:   -0.44 KCAL/MOL
REMARK 927      BINDING AFFINITY PREDICTED BY RF-SCORE:    0.00 PKD
ROOT
HETATM    1  N   UNL     1      -6.915   6.452  69.646  1.00  0.00    -0.068 NA 
HETATM    2  H1  UNL     1      -7.102   5.911  68.801  1.00  0.00     0.000 HD 
HETATM    3  C   UNL     1      -7.998   6.854  70.367  1.00  0.00    -0.114 C  
HETATM    4  H2  UNL     1      -5.964   6.680  69.936  1.00  0.00     0.000 HD 
HETATM    5  N   UNL     1      -7.760   7.541  71.442  1.00  0.00    -0.084 N  
HETATM    6  C   UNL     1      -8.802   8.045  72.181  1.00  0.00    -0.159 C  
HETATM    7  H   UNL     1      -6.798   7.708  71.738  1.00  0.00     0.000 HD 
HETATM    8  N   UNL     1     -10.101   7.850  71.703  1.00  0.00    -0.177 N  
HETATM    9  O   UNL     1      -8.603   8.674  73.219  1.00  0.00    -0.375 OA 
HETATM   10  C   UNL     1      -9.357   6.520  69.907  1.00  0.00    -0.155 C  
HETATM   11  C   UNL     1     -10.357   7.069  70.604  1.00  0.00    -0.207 C  
ENDROOT
BRANCH   8  12
HETATM   12  C   UNL     1     -11.169   8.652  72.279  1.00  0.00    -0.328 C  
BRANCH  12  13
HETATM   13  C   UNL     1     -12.071   9.416  71.285  1.00  0.00    -0.345 C  
BRANCH  13  14
HETATM   14  O   UNL     1     -11.290  10.415  70.553  1.00  0.00    -0.310 OA 
BRANCH  14  15
HETATM   15  C   UNL     1     -11.996  10.813  69.364  1.00  0.00    -0.281 C  
HETATM   16  P   UNL     1     -11.164  12.173  68.465  1.00  0.00    -0.311 P  
HETATM   17  O   UNL     1      -9.903  11.124  68.285  1.00  0.00    -0.175 OA 
HETATM   18  O   UNL     1     -12.098  11.722  67.186  1.00  0.00    -0.592 OA 
HETATM   19  O   UNL     1     -10.461  13.323  67.703  1.00  0.00    -0.225 OA 
ENDBRANCH  14  15
ENDBRANCH  13  14
BRANCH  13  20
HETATM   20  C   UNL     1     -13.220  10.134  72.010  1.00  0.00    -0.430 C  
HETATM   21  O   UNL     1     -13.792   9.277  73.000  1.00  0.00    -0.905 OA 
HETATM   22  H   UNL     1     -14.503   9.721  73.447  1.00  0.00     0.000 HD 
ENDBRANCH  13  20
ENDBRANCH  12  13
ENDBRANCH   8  12
TORSDOF 5
ENDMDL
MODEL      162
REMARK 921   NORMALIZED FREE ENERGY PREDICTED BY IDOCK:   -3.67 KCAL/MOL
REMARK 922        TOTAL FREE ENERGY PREDICTED BY IDOCK:   -5.68 KCAL/MOL
REMARK 923 INTER-LIGAND FREE ENERGY PREDICTED BY IDOCK:   -5.09 KCAL/MOL
REMARK 924 INTRA-LIGAND FREE ENERGY PREDICTED BY IDOCK:   -0.60 KCAL/MOL
REMARK 927      BINDING AFFINITY PREDICTED BY RF-SCORE:    0.00 PKD
ROOT
HETATM    1  N   UNL     1     -14.401   8.301  71.454  1.00  0.00    -0.625 NA 
HETATM    2  H1  UNL     1     -14.724   8.921  72.196  1.00  0.00     0.000 HD 
HETATM    3  C   UNL     1     -13.072   8.005  71.438  1.00  0.00    -0.237 C  
HETATM    4  H2  UNL     1     -15.042   7.921  70.757  1.00  0.00     0.000 HD 
HETATM    5  N   UNL     1     -12.662   7.215  70.493  1.00  0.00    -0.573 N  
HETATM    6  C   UNL     1     -11.324   6.930  70.368  1.00  0.00    -0.328 C  
HETATM    7  H   UNL     1     -13.333   6.806  69.843  1.00  0.00     0.000 HD 
HETATM    8  N   UNL     1     -10.433   7.564  71.238  1.00  0.00    -0.207 N  
HETATM    9  O   UNL     1     -10.914   6.162  69.500  1.00  0.00    -0.320 OA 
HETATM   10  C   UNL     1     -12.174   8.586  72.451  1.00  0.00    -0.432 C  
HETATM   11  C   UNL     1     -10.870   8.346  72.277  1.00  0.00    -0.352 C  
ENDROOT
BRANCH   8  12
HETATM   12  C   UNL     1      -9.017   7.538  70.906  1.00  0.00    -0.149 C  
BRANCH  12  13
HETATM   13  C   UNL     1      -8.422   8.836  70.318  1.00  0.00    -0.149 C  
BRANCH  13  14
HETATM   14  O   UNL     1      -8.980   9.096  68.989  1.00  0.00    -0.139 OA 
BRANCH  14  15
HETATM   15  C   UNL     1      -8.959  10.509  68.717  1.00  0.00    -0.166 C  
HETATM   16  P   UNL     1     -10.587  11.156  68.187  1.00  0.00    -0.227 P  
HETATM   17  O   UNL     1     -11.128  10.675  69.670  1.00  0.00    -0.245 OA 
HETATM   18  O   UNL     1      -9.975  12.636  68.569  1.00  0.00    -0.219 OA 
HETATM   19  O   UNL     1     -11.964  11.704  67.739  1.00  0.00    -0.608 OA 
ENDBRANCH  14  15
ENDBRANCH  13  14
BRANCH  13  20
HETATM   20  C   UNL     1      -6.893   8.745  70.193  1.00  0.00    -0.040 C  
HETATM   21  O   UNL     1      -6.273   9.170  71.409  1.00  0.00    -0.072 OA 
HETATM   22  H   UNL     1      -5.327   9.114  71.331  1.00  0.00     0.000 HD 
ENDBRANCH  13  20
ENDBRANCH  12  13
ENDBRANCH   8  12
TORSDOF 5
ENDMDL
MODEL      163
REMARK 921   NORMALIZED FREE ENERGY PREDICTED BY IDOCK:   -3.67 KCAL/MOL
REMARK 922        TOTAL FREE ENERGY PREDICTED BY IDOCK:   -5.68 KCAL/MOL
REMARK 923 INTER-LIGAND FREE ENERGY PREDICTED BY IDOCK:   -5.17 KCAL/MOL
REMARK 924 INTRA-LIGAND FREE ENERGY PREDICTED BY IDOCK:   -0.51 KCAL/MOL
REMARK 927      BINDING AFFINITY PREDICTED BY RF-SCORE:    0.00 PKD
ROOT
HETATM    1  N   UNL     1      -6.998  15.266  69.736  1.00  0.00    -0.186 NA 
HETATM    2  H1  UNL     1      -6.105  15.176  69.251  1.00  0.00     0.000 HD 
HETATM    3  C   UNL     1      -8.108  14.877  69.050  1.00  0.00    -0.165 C  
HETATM    4  H2  UNL     1      -7.056  15.628  70.687  1.00  0.00     0.000 HD 
HETATM    5  N   UNL     1      -9.244  14.990  69.667  1.00  0.00    -0.455 N  
HETATM    6  C   UNL     1     -10.414  14.688  69.015  1.00  0.00    -0.246 C  
HETATM    7  H   UNL     1      -9.268  15.304  70.638  1.00  0.00     0.000 HD 
HETATM    8  N   UNL     1     -10.341  14.326  67.667  1.00  0.00    -0.246 N  
HETATM    9  O   UNL     1     -11.501  14.759  69.587  1.00  0.00    -0.262 OA 
HETATM   10  C   UNL     1      -7.986  14.373  67.671  1.00  0.00    -0.191 C  
HETATM   11  C   UNL     1      -9.138  14.142  67.033  1.00  0.00    -0.243 C  
ENDROOT
BRANCH   8  12
HETATM   12  C   UNL     1     -11.569  14.335  66.889  1.00  0.00    -0.387 C  
BRANCH  12  13
HETATM   13  C   UNL     1     -12.283  12.977  66.712  1.00  0.00    -0.194 C  
BRANCH  13  14
HETATM   14  O   UNL     1     -11.870  12.044  67.763  1.00  0.00    -0.488 OA 
BRANCH  14  15
HETATM   15  C   UNL     1     -11.250  10.886  67.174  1.00  0.00    -0.184 C  
HETATM   16  P   UNL     1      -9.982  10.130  68.257  1.00  0.00    -0.161 P  
HETATM   17  O   UNL     1     -11.216   9.873  69.321  1.00  0.00    -0.211 OA 
HETATM   18  O   UNL     1     -10.147   8.801  67.298  1.00  0.00    -0.195 OA 
HETATM   19  O   UNL     1      -8.911   9.490  69.171  1.00  0.00    -0.135 OA 
ENDBRANCH  14  15
ENDBRANCH  13  14
BRANCH  13  20
HETATM   20  C   UNL     1     -11.957  12.346  65.348  1.00  0.00    -0.398 C  
HETATM   21  O   UNL     1     -13.097  12.413  64.489  1.00  0.00    -0.823 OA 
HETATM   22  H   UNL     1     -12.895  12.022  63.646  1.00  0.00     0.000 HD 
ENDBRANCH  13  20
ENDBRANCH  12  13
ENDBRANCH   8  12
TORSDOF 5
ENDMDL
MODEL      164
REMARK 921   NORMALIZED FREE ENERGY PREDICTED BY IDOCK:   -3.65 KCAL/MOL
REMARK 922        TOTAL FREE ENERGY PREDICTED BY IDOCK:   -5.65 KCAL/MOL
REMARK 923 INTER-LIGAND FREE ENERGY PREDICTED BY IDOCK:   -5.55 KCAL/MOL
REMARK 924 INTRA-LIGAND FREE ENERGY PREDICTED BY IDOCK:   -0.10 KCAL/MOL
REMARK 927      BINDING AFFINITY PREDICTED BY RF-SCORE:    0.00 PKD
ROOT
HETATM    1  N   UNL     1     -12.430  14.353  63.900  1.00  0.00    -1.005 NA 
HETATM    2  H1  UNL     1     -12.939  13.859  63.167  1.00  0.00     0.000 HD 
HETATM    3  C   UNL     1     -11.427  13.669  64.515  1.00  0.00    -0.379 C  
HETATM    4  H2  UNL     1     -12.660  15.313  64.159  1.00  0.00     0.000 HD 
HETATM    5  N   UNL     1     -10.779  14.298  65.447  1.00  0.00    -0.323 N  
HETATM    6  C   UNL     1      -9.803  13.649  66.163  1.00  0.00    -0.293 C  
HETATM    7  H   UNL     1     -10.994  15.275  65.648  1.00  0.00     0.000 HD 
HETATM    8  N   UNL     1      -9.587  12.294  65.902  1.00  0.00    -0.229 N  
HETATM    9  O   UNL     1      -9.154  14.232  67.032  1.00  0.00    -0.213 OA 
HETATM   10  C   UNL     1     -11.134  12.279  64.125  1.00  0.00    -0.423 C  
HETATM   11  C   UNL     1     -10.224  11.646  64.873  1.00  0.00    -0.270 C  
ENDROOT
BRANCH   8  12
HETATM   12  C   UNL     1      -8.813  11.526  66.865  1.00  0.00    -0.182 C  
BRANCH  12  13
HETATM   13  C   UNL     1      -9.570  11.023  68.113  1.00  0.00    -0.171 C  
BRANCH  13  14
HETATM   14  O   UNL     1      -9.110   9.682  68.481  1.00  0.00    -0.130 OA 
BRANCH  14  15
HETATM   15  C   UNL     1      -8.645   9.682  69.844  1.00  0.00    -0.203 C  
HETATM   16  P   UNL     1      -9.913   9.096  71.027  1.00  0.00    -0.278 P  
HETATM   17  O   UNL     1      -9.852   7.668  70.203  1.00  0.00    -0.183 OA 
HETATM   18  O   UNL     1      -8.653   8.883  72.067  1.00  0.00    -0.367 OA 
HETATM   19  O   UNL     1     -10.984   8.601  72.029  1.00  0.00    -0.316 OA 
ENDBRANCH  14  15
ENDBRANCH  13  14
BRANCH  13  20
HETATM   20  C   UNL     1     -11.086  10.963  67.863  1.00  0.00    -0.302 C  
HETATM   21  O   UNL     1     -11.753  11.961  68.638  1.00  0.00    -0.283 OA 
HETATM   22  H   UNL     1     -12.690  11.924  68.483  1.00  0.00     0.000 HD 
ENDBRANCH  13  20
ENDBRANCH  12  13
ENDBRANCH   8  12
TORSDOF 5
ENDMDL
MODEL      165
REMARK 921   NORMALIZED FREE ENERGY PREDICTED BY IDOCK:   -3.65 KCAL/MOL
REMARK 922        TOTAL FREE ENERGY PREDICTED BY IDOCK:   -5.65 KCAL/MOL
REMARK 923 INTER-LIGAND FREE ENERGY PREDICTED BY IDOCK:   -5.27 KCAL/MOL
REMARK 924 INTRA-LIGAND FREE ENERGY PREDICTED BY IDOCK:   -0.38 KCAL/MOL
REMARK 927      BINDING AFFINITY PREDICTED BY RF-SCORE:    0.00 PKD
ROOT
HETATM    1  N   UNL     1      -9.479  20.749  66.890  1.00  0.00    -0.675 NA 
HETATM    2  H1  UNL     1      -8.707  21.410  66.804  1.00  0.00     0.000 HD 
HETATM    3  C   UNL     1      -9.237  19.614  67.602  1.00  0.00    -0.333 C  
HETATM    4  H2  UNL     1     -10.387  20.929  66.462  1.00  0.00     0.000 HD 
HETATM    5  N   UNL     1     -10.220  18.774  67.711  1.00  0.00    -0.373 N  
HETATM    6  C   UNL     1     -10.030  17.574  68.352  1.00  0.00    -0.335 C  
HETATM    7  H   UNL     1     -11.134  19.004  67.320  1.00  0.00     0.000 HD 
HETATM    8  N   UNL     1      -8.746  17.270  68.813  1.00  0.00    -0.264 N  
HETATM    9  O   UNL     1     -10.953  16.773  68.494  1.00  0.00    -0.345 OA 
HETATM   10  C   UNL     1      -7.907  19.382  68.191  1.00  0.00    -0.343 C  
HETATM   11  C   UNL     1      -7.724  18.184  68.758  1.00  0.00    -0.264 C  
ENDROOT
BRANCH   8  12
HETATM   12  C   UNL     1      -8.459  15.893  69.180  1.00  0.00    -0.254 C  
BRANCH  12  13
HETATM   13  C   UNL     1      -8.211  14.907  68.018  1.00  0.00    -0.139 C  
BRANCH  13  14
HETATM   14  O   UNL     1      -8.604  13.551  68.409  1.00  0.00    -0.171 OA 
BRANCH  14  15
HETATM   15  C   UNL     1      -8.893  12.768  67.236  1.00  0.00    -0.198 C  
HETATM   16  P   UNL     1     -10.348  11.678  67.449  1.00  0.00    -0.218 P  
HETATM   17  O   UNL     1     -11.210  13.068  67.666  1.00  0.00    -0.256 OA 
HETATM   18  O   UNL     1     -10.356  11.588  65.805  1.00  0.00    -0.232 OA 
HETATM   19  O   UNL     1     -11.579  10.756  67.628  1.00  0.00    -0.523 OA 
ENDBRANCH  14  15
ENDBRANCH  13  14
BRANCH  13  20
HETATM   20  C   UNL     1      -6.730  14.883  67.609  1.00  0.00    -0.177 C  
HETATM   21  O   UNL     1      -6.479  15.872  66.608  1.00  0.00    -0.171 OA 
HETATM   22  H   UNL     1      -5.563  15.857  66.355  1.00  0.00     0.000 HD 
ENDBRANCH  13  20
ENDBRANCH  12  13
ENDBRANCH   8  12
TORSDOF 5
ENDMDL
MODEL      166
REMARK 921   NORMALIZED FREE ENERGY PREDICTED BY IDOCK:   -3.61 KCAL/MOL
REMARK 922        TOTAL FREE ENERGY PREDICTED BY IDOCK:   -5.61 KCAL/MOL
REMARK 923 INTER-LIGAND FREE ENERGY PREDICTED BY IDOCK:   -5.44 KCAL/MOL
REMARK 924 INTRA-LIGAND FREE ENERGY PREDICTED BY IDOCK:   -0.16 KCAL/MOL
REMARK 927      BINDING AFFINITY PREDICTED BY RF-SCORE:    0.00 PKD
ROOT
HETATM    1  N   UNL     1      -7.788  20.319  67.199  1.00  0.00    -0.320 NA 
HETATM    2  H1  UNL     1      -7.440  20.713  68.074  1.00  0.00     0.000 HD 
HETATM    3  C   UNL     1      -8.761  19.373  67.297  1.00  0.00    -0.296 C  
HETATM    4  H2  UNL     1      -7.424  20.621  66.295  1.00  0.00     0.000 HD 
HETATM    5  N   UNL     1      -9.204  18.874  66.184  1.00  0.00    -0.257 N  
HETATM    6  C   UNL     1     -10.133  17.862  66.206  1.00  0.00    -0.351 C  
HETATM    7  H   UNL     1      -8.862  19.233  65.293  1.00  0.00     0.000 HD 
HETATM    8  N   UNL     1     -10.524  17.355  67.448  1.00  0.00    -0.345 N  
HETATM    9  O   UNL     1     -10.590  17.393  65.165  1.00  0.00    -0.681 OA 
HETATM   10  C   UNL     1      -9.249  18.951  68.622  1.00  0.00    -0.399 C  
HETATM   11  C   UNL     1     -10.107  17.925  68.625  1.00  0.00    -0.394 C  
ENDROOT
BRANCH   8  12
HETATM   12  C   UNL     1     -11.231  16.085  67.476  1.00  0.00    -0.138 C  
BRANCH  12  13
HETATM   13  C   UNL     1     -10.459  14.854  66.954  1.00  0.00    -0.280 C  
BRANCH  13  14
HETATM   14  O   UNL     1     -11.295  13.654  67.041  1.00  0.00    -0.303 OA 
BRANCH  14  15
HETATM   15  C   UNL     1     -10.635  12.655  67.840  1.00  0.00    -0.220 C  
HETATM   16  P   UNL     1     -10.408  11.071  66.951  1.00  0.00    -0.255 P  
HETATM   17  O   UNL     1      -9.480  11.933  65.894  1.00  0.00    -0.232 OA 
HETATM   18  O   UNL     1      -9.287  10.735  68.110  1.00  0.00    -0.146 OA 
HETATM   19  O   UNL     1     -10.215   9.731  66.201  1.00  0.00    -0.259 OA 
ENDBRANCH  14  15
ENDBRANCH  13  14
BRANCH  13  20
HETATM   20  C   UNL     1      -9.177  14.611  67.765  1.00  0.00    -0.196 C  
HETATM   21  O   UNL     1      -8.070  14.400  66.885  1.00  0.00    -0.372 OA 
HETATM   22  H   UNL     1      -7.277  14.250  67.387  1.00  0.00     0.000 HD 
ENDBRANCH  13  20
ENDBRANCH  12  13
ENDBRANCH   8  12
TORSDOF 5
ENDMDL
MODEL      167
REMARK 921   NORMALIZED FREE ENERGY PREDICTED BY IDOCK:   -3.61 KCAL/MOL
REMARK 922        TOTAL FREE ENERGY PREDICTED BY IDOCK:   -5.60 KCAL/MOL
REMARK 923 INTER-LIGAND FREE ENERGY PREDICTED BY IDOCK:   -6.61 KCAL/MOL
REMARK 924 INTRA-LIGAND FREE ENERGY PREDICTED BY IDOCK:    1.01 KCAL/MOL
REMARK 927      BINDING AFFINITY PREDICTED BY RF-SCORE:    0.00 PKD
ROOT
HETATM    1  N   UNL     1     -12.520  16.083  70.783  1.00  0.00    -0.495 NA 
HETATM    2  H1  UNL     1     -12.117  17.017  70.863  1.00  0.00     0.000 HD 
HETATM    3  C   UNL     1     -11.764  15.142  70.153  1.00  0.00    -0.307 C  
HETATM    4  H2  UNL     1     -13.443  15.864  71.158  1.00  0.00     0.000 HD 
HETATM    5  N   UNL     1     -12.276  13.954  70.052  1.00  0.00    -0.339 N  
HETATM    6  C   UNL     1     -11.605  12.972  69.365  1.00  0.00    -0.299 C  
HETATM    7  H   UNL     1     -13.178  13.749  70.484  1.00  0.00     0.000 HD 
HETATM    8  N   UNL     1     -10.406  13.314  68.734  1.00  0.00    -0.189 N  
HETATM    9  O   UNL     1     -12.055  11.830  69.281  1.00  0.00    -0.292 OA 
HETATM   10  C   UNL     1     -10.442  15.500  69.610  1.00  0.00    -0.289 C  
HETATM   11  C   UNL     1      -9.832  14.550  68.894  1.00  0.00    -0.191 C  
ENDROOT
BRANCH   8  12
HETATM   12  C   UNL     1      -9.870  12.396  67.740  1.00  0.00    -0.203 C  
BRANCH  12  13
HETATM   13  C   UNL     1      -9.692  12.954  66.312  1.00  0.00    -0.268 C  
BRANCH  13  14
HETATM   14  O   UNL     1     -10.601  14.080  66.088  1.00  0.00    -0.283 OA 
BRANCH  14  15
HETATM   15  C   UNL     1     -11.003  14.117  64.706  1.00  0.00    -0.400 C  
HETATM   16  P   UNL     1     -12.368  12.955  64.332  1.00  0.00    -0.366 P  
HETATM   17  O   UNL     1     -13.256  13.838  65.405  1.00  0.00    -0.722 OA 
HETATM   18  O   UNL     1     -12.583  13.856  62.970  1.00  0.00    -0.694 OA 
HETATM   19  O   UNL     1     -13.521  11.973  64.014  1.00  0.00    -0.655 OA 
ENDBRANCH  14  15
ENDBRANCH  13  14
BRANCH  13  20
HETATM   20  C   UNL     1      -9.979  11.880  65.251  1.00  0.00    -0.251 C  
HETATM   21  O   UNL     1      -8.770  11.210  64.886  1.00  0.00    -0.365 OA 
HETATM   22  H   UNL     1      -8.948  10.546  64.230  1.00  0.00     0.000 HD 
ENDBRANCH  13  20
ENDBRANCH  12  13
ENDBRANCH   8  12
TORSDOF 5
ENDMDL
MODEL      168
REMARK 921   NORMALIZED FREE ENERGY PREDICTED BY IDOCK:   -3.59 KCAL/MOL
REMARK 922        TOTAL FREE ENERGY PREDICTED BY IDOCK:   -5.58 KCAL/MOL
REMARK 923 INTER-LIGAND FREE ENERGY PREDICTED BY IDOCK:   -5.13 KCAL/MOL
REMARK 924 INTRA-LIGAND FREE ENERGY PREDICTED BY IDOCK:   -0.45 KCAL/MOL
REMARK 927      BINDING AFFINITY PREDICTED BY RF-SCORE:    0.00 PKD
ROOT
HETATM    1  N   UNL     1     -14.378   8.702  72.850  1.00  0.00    -1.063 NA 
HETATM    2  H1  UNL     1     -15.110   9.336  72.530  1.00  0.00     0.000 HD 
HETATM    3  C   UNL     1     -13.115   8.956  72.411  1.00  0.00    -0.418 C  
HETATM    4  H2  UNL     1     -14.582   7.917  73.469  1.00  0.00     0.000 HD 
HETATM    5  N   UNL     1     -12.183   8.149  72.818  1.00  0.00    -0.611 N  
HETATM    6  C   UNL     1     -10.897   8.296  72.359  1.00  0.00    -0.351 C  
HETATM    7  H   UNL     1     -12.406   7.405  73.480  1.00  0.00     0.000 HD 
HETATM    8  N   UNL     1     -10.649   9.285  71.403  1.00  0.00    -0.339 N  
HETATM    9  O   UNL     1      -9.990   7.564  72.752  1.00  0.00    -0.189 OA 
HETATM   10  C   UNL     1     -12.861  10.089  71.504  1.00  0.00    -0.537 C  
HETATM   11  C   UNL     1     -11.618  10.180  71.021  1.00  0.00    -0.376 C  
ENDROOT
BRANCH   8  12
HETATM   12  C   UNL     1      -9.394   9.231  70.671  1.00  0.00    -0.270 C  
BRANCH  12  13
HETATM   13  C   UNL     1      -9.283   8.152  69.572  1.00  0.00    -0.158 C  
BRANCH  13  14
HETATM   14  O   UNL     1      -8.155   7.258  69.847  1.00  0.00    -0.122 OA 
BRANCH  14  15
HETATM   15  C   UNL     1      -8.571   5.888  69.704  1.00  0.00    -0.121 C  
HETATM   16  P   UNL     1      -7.709   5.023  68.340  1.00  0.00    -0.079 P  
HETATM   17  O   UNL     1      -6.325   5.312  69.190  1.00  0.00    -0.031 OA 
HETATM   18  O   UNL     1      -8.215   3.639  69.076  1.00  0.00    -0.060 OA 
HETATM   19  O   UNL     1      -6.981   4.290  67.188  1.00  0.00    -0.057 OA 
ENDBRANCH  14  15
ENDBRANCH  13  14
BRANCH  13  20
HETATM   20  C   UNL     1      -9.074   8.783  68.186  1.00  0.00    -0.140 C  
HETATM   21  O   UNL     1     -10.285   8.724  67.429  1.00  0.00    -0.213 OA 
HETATM   22  H   UNL     1     -10.155   9.114  66.573  1.00  0.00     0.000 HD 
ENDBRANCH  13  20
ENDBRANCH  12  13
ENDBRANCH   8  12
TORSDOF 5
ENDMDL
MODEL      169
REMARK 921   NORMALIZED FREE ENERGY PREDICTED BY IDOCK:   -3.59 KCAL/MOL
REMARK 922        TOTAL FREE ENERGY PREDICTED BY IDOCK:   -5.58 KCAL/MOL
REMARK 923 INTER-LIGAND FREE ENERGY PREDICTED BY IDOCK:   -5.25 KCAL/MOL
REMARK 924 INTRA-LIGAND FREE ENERGY PREDICTED BY IDOCK:   -0.33 KCAL/MOL
REMARK 927      BINDING AFFINITY PREDICTED BY RF-SCORE:    0.00 PKD
ROOT
HETATM    1  N   UNL     1     -12.530  14.123  63.394  1.00  0.00    -1.116 NA 
HETATM    2  H1  UNL     1     -13.389  14.639  63.587  1.00  0.00     0.000 HD 
HETATM    3  C   UNL     1     -11.907  13.550  64.460  1.00  0.00    -0.405 C  
HETATM    4  H2  UNL     1     -12.157  14.040  62.448  1.00  0.00     0.000 HD 
HETATM    5  N   UNL     1     -10.815  12.894  64.213  1.00  0.00    -0.373 N  
HETATM    6  C   UNL     1     -10.091  12.351  65.247  1.00  0.00    -0.265 C  
HETATM    7  H   UNL     1     -10.494  12.780  63.251  1.00  0.00     0.000 HD 
HETATM    8  N   UNL     1     -10.530  12.587  66.552  1.00  0.00    -0.236 N  
HETATM    9  O   UNL     1      -9.069  11.699  65.037  1.00  0.00    -0.040 OA 
HETATM   10  C   UNL     1     -12.467  13.706  65.814  1.00  0.00    -0.524 C  
HETATM   11  C   UNL     1     -11.718  13.224  66.811  1.00  0.00    -0.385 C  
ENDROOT
BRANCH   8  12
HETATM   12  C   UNL     1      -9.608  12.316  67.644  1.00  0.00    -0.191 C  
BRANCH  12  13
HETATM   13  C   UNL     1      -9.775  10.961  68.366  1.00  0.00    -0.176 C  
BRANCH  13  14
HETATM   14  O   UNL     1      -8.658  10.071  68.042  1.00  0.00    -0.120 OA 
BRANCH  14  15
HETATM   15  C   UNL     1      -9.101   9.036  67.145  1.00  0.00    -0.137 C  
HETATM   16  P   UNL     1      -7.749   8.368  66.107  1.00  0.00    -0.101 P  
HETATM   17  O   UNL     1      -7.054   7.896  67.527  1.00  0.00    -0.079 OA 
HETATM   18  O   UNL     1      -8.760   7.095  65.844  1.00  0.00    -0.149 OA 
HETATM   19  O   UNL     1      -6.607   7.802  65.230  1.00  0.00    -0.041 OA 
ENDBRANCH  14  15
ENDBRANCH  13  14
BRANCH  13  20
HETATM   20  C   UNL     1     -11.083  10.266  67.958  1.00  0.00    -0.274 C  
HETATM   21  O   UNL     1     -12.045  10.368  69.011  1.00  0.00    -0.635 OA 
HETATM   22  H   UNL     1     -12.854   9.938  68.759  1.00  0.00     0.000 HD 
ENDBRANCH  13  20
ENDBRANCH  12  13
ENDBRANCH   8  12
TORSDOF 5
ENDMDL
MODEL      170
REMARK 921   NORMALIZED FREE ENERGY PREDICTED BY IDOCK:   -3.58 KCAL/MOL
REMARK 922        TOTAL FREE ENERGY PREDICTED BY IDOCK:   -5.57 KCAL/MOL
REMARK 923 INTER-LIGAND FREE ENERGY PREDICTED BY IDOCK:   -5.05 KCAL/MOL
REMARK 924 INTRA-LIGAND FREE ENERGY PREDICTED BY IDOCK:   -0.52 KCAL/MOL
REMARK 927      BINDING AFFINITY PREDICTED BY RF-SCORE:    0.00 PKD
ROOT
HETATM    1  N   UNL     1     -12.030  13.362  66.577  1.00  0.00    -0.393 NA 
HETATM    2  H1  UNL     1     -11.907  12.969  65.643  1.00  0.00     0.000 HD 
HETATM    3  C   UNL     1     -10.953  13.989  67.124  1.00  0.00    -0.296 C  
HETATM    4  H2  UNL     1     -12.917  13.289  67.075  1.00  0.00     0.000 HD 
HETATM    5  N   UNL     1     -11.109  14.489  68.311  1.00  0.00    -0.252 N  
HETATM    6  C   UNL     1     -10.047  15.071  68.958  1.00  0.00    -0.241 C  
HETATM    7  H   UNL     1     -12.023  14.449  68.764  1.00  0.00     0.000 HD 
HETATM    8  N   UNL     1      -8.799  15.043  68.329  1.00  0.00    -0.167 N  
HETATM    9  O   UNL     1     -10.177  15.578  70.071  1.00  0.00    -0.301 OA 
HETATM   10  C   UNL     1      -9.683  14.060  66.379  1.00  0.00    -0.309 C  
HETATM   11  C   UNL     1      -8.646  14.575  67.048  1.00  0.00    -0.217 C  
ENDROOT
BRANCH   8  12
HETATM   12  C   UNL     1      -7.623  15.344  69.130  1.00  0.00    -0.198 C  
BRANCH  12  13
HETATM   13  C   UNL     1      -7.270  16.837  69.304  1.00  0.00    -0.181 C  
BRANCH  13  14
HETATM   14  O   UNL     1      -7.744  17.609  68.153  1.00  0.00    -0.226 OA 
BRANCH  14  15
HETATM   15  C   UNL     1      -8.565  18.703  68.602  1.00  0.00    -0.307 C  
HETATM   16  P   UNL     1      -9.584  19.423  67.263  1.00  0.00    -0.368 P  
HETATM   17  O   UNL     1     -10.289  17.935  67.161  1.00  0.00    -0.344 OA 
HETATM   18  O   UNL     1     -10.478  20.082  68.478  1.00  0.00    -0.411 OA 
HETATM   19  O   UNL     1     -10.447  20.032  66.131  1.00  0.00    -0.449 OA 
ENDBRANCH  14  15
ENDBRANCH  13  14
BRANCH  13  20
HETATM   20  C   UNL     1      -5.753  17.043  69.435  1.00  0.00    -0.179 C  
HETATM   21  O   UNL     1      -5.340  16.825  70.786  1.00  0.00    -0.209 OA 
HETATM   22  H   UNL     1      -4.402  16.952  70.867  1.00  0.00     0.000 HD 
ENDBRANCH  13  20
ENDBRANCH  12  13
ENDBRANCH   8  12
TORSDOF 5
ENDMDL
MODEL      171
REMARK 921   NORMALIZED FREE ENERGY PREDICTED BY IDOCK:   -3.58 KCAL/MOL
REMARK 922        TOTAL FREE ENERGY PREDICTED BY IDOCK:   -5.56 KCAL/MOL
REMARK 923 INTER-LIGAND FREE ENERGY PREDICTED BY IDOCK:   -5.10 KCAL/MOL
REMARK 924 INTRA-LIGAND FREE ENERGY PREDICTED BY IDOCK:   -0.46 KCAL/MOL
REMARK 927      BINDING AFFINITY PREDICTED BY RF-SCORE:    0.00 PKD
ROOT
HETATM    1  N   UNL     1     -10.974   4.940  66.065  1.00  0.00    -0.750 NA 
HETATM    2  H1  UNL     1     -11.438   4.184  66.569  1.00  0.00     0.000 HD 
HETATM    3  C   UNL     1     -10.664   6.054  66.783  1.00  0.00    -0.302 C  
HETATM    4  H2  UNL     1     -10.753   4.865  65.072  1.00  0.00     0.000 HD 
HETATM    5  N   UNL     1     -10.073   7.015  66.142  1.00  0.00    -0.401 N  
HETATM    6  C   UNL     1      -9.795   8.199  66.780  1.00  0.00    -0.259 C  
HETATM    7  H   UNL     1      -9.815   6.892  65.162  1.00  0.00     0.000 HD 
HETATM    8  N   UNL     1     -10.226   8.350  68.101  1.00  0.00    -0.201 N  
HETATM    9  O   UNL     1      -9.211   9.114  66.203  1.00  0.00    -0.172 OA 
HETATM   10  C   UNL     1     -11.013   6.133  68.212  1.00  0.00    -0.397 C  
HETATM   11  C   UNL     1     -10.791   7.313  68.800  1.00  0.00    -0.086 C  
ENDROOT
BRANCH   8  12
HETATM   12  C   UNL     1     -10.242   9.690  68.667  1.00  0.00    -0.189 C  
BRANCH  12  13
HETATM   13  C   UNL     1     -11.394  10.615  68.216  1.00  0.00    -0.289 C  
BRANCH  13  14
HETATM   14  O   UNL     1     -10.870  11.733  67.428  1.00  0.00    -0.227 OA 
BRANCH  14  15
HETATM   15  C   UNL     1     -10.218  12.679  68.295  1.00  0.00    -0.239 C  
HETATM   16  P   UNL     1      -8.558  13.166  67.696  1.00  0.00    -0.222 P  
HETATM   17  O   UNL     1      -9.341  13.763  66.372  1.00  0.00    -0.262 OA 
HETATM   18  O   UNL     1      -8.710  14.446  68.721  1.00  0.00    -0.178 OA 
HETATM   19  O   UNL     1      -7.155  13.579  67.191  1.00  0.00    -0.053 OA 
ENDBRANCH  14  15
ENDBRANCH  13  14
BRANCH  13  20
HETATM   20  C   UNL     1     -12.158  11.187  69.421  1.00  0.00    -0.326 C  
HETATM   21  O   UNL     1     -12.766  10.129  70.166  1.00  0.00    -0.547 OA 
HETATM   22  H   UNL     1     -13.239  10.483  70.911  1.00  0.00     0.000 HD 
ENDBRANCH  13  20
ENDBRANCH  12  13
ENDBRANCH   8  12
TORSDOF 5
ENDMDL
MODEL      172
REMARK 921   NORMALIZED FREE ENERGY PREDICTED BY IDOCK:   -3.58 KCAL/MOL
REMARK 922        TOTAL FREE ENERGY PREDICTED BY IDOCK:   -5.56 KCAL/MOL
REMARK 923 INTER-LIGAND FREE ENERGY PREDICTED BY IDOCK:   -5.20 KCAL/MOL
REMARK 924 INTRA-LIGAND FREE ENERGY PREDICTED BY IDOCK:   -0.36 KCAL/MOL
REMARK 927      BINDING AFFINITY PREDICTED BY RF-SCORE:    0.00 PKD
ROOT
HETATM    1  N   UNL     1     -10.606  17.999  67.216  1.00  0.00    -0.373 NA 
HETATM    2  H1  UNL     1     -10.133  18.352  66.383  1.00  0.00     0.000 HD 
HETATM    3  C   UNL     1     -10.326  16.719  67.582  1.00  0.00    -0.309 C  
HETATM    4  H2  UNL     1     -11.256  18.578  67.748  1.00  0.00     0.000 HD 
HETATM    5  N   UNL     1     -10.927  16.271  68.642  1.00  0.00    -0.322 N  
HETATM    6  C   UNL     1     -10.753  14.965  69.032  1.00  0.00    -0.247 C  
HETATM    7  H   UNL     1     -11.530  16.889  69.186  1.00  0.00     0.000 HD 
HETATM    8  N   UNL     1      -9.973  14.136  68.221  1.00  0.00    -0.235 N  
HETATM    9  O   UNL     1     -11.288  14.525  70.048  1.00  0.00    -0.259 OA 
HETATM   10  C   UNL     1      -9.395  15.907  66.779  1.00  0.00    -0.262 C  
HETATM   11  C   UNL     1      -9.285  14.624  67.138  1.00  0.00    -0.221 C  
ENDROOT
BRANCH   8  12
HETATM   12  C   UNL     1     -10.057  12.699  68.431  1.00  0.00    -0.222 C  
BRANCH  12  13
HETATM   13  C   UNL     1     -11.342  12.003  67.933  1.00  0.00    -0.305 C  
BRANCH  13  14
HETATM   14  O   UNL     1     -11.590  10.782  68.702  1.00  0.00    -0.290 OA 
BRANCH  14  15
HETATM   15  C   UNL     1     -10.449  10.483  69.527  1.00  0.00    -0.235 C  
HETATM   16  P   UNL     1     -10.872   9.448  70.977  1.00  0.00    -0.365 P  
HETATM   17  O   UNL     1     -11.336   8.308  69.879  1.00  0.00    -0.105 OA 
HETATM   18  O   UNL     1      -9.257   9.133  71.055  1.00  0.00    -0.244 OA 
HETATM   19  O   UNL     1     -11.227   8.574  72.203  1.00  0.00    -0.319 OA 
ENDBRANCH  14  15
ENDBRANCH  13  14
BRANCH  13  20
HETATM   20  C   UNL     1     -11.236  11.627  66.446  1.00  0.00    -0.287 C  
HETATM   21  O   UNL     1     -12.166  12.392  65.676  1.00  0.00    -0.599 OA 
HETATM   22  H   UNL     1     -12.100  12.159  64.757  1.00  0.00     0.000 HD 
ENDBRANCH  13  20
ENDBRANCH  12  13
ENDBRANCH   8  12
TORSDOF 5
ENDMDL
MODEL      173
REMARK 921   NORMALIZED FREE ENERGY PREDICTED BY IDOCK:   -3.57 KCAL/MOL
REMARK 922        TOTAL FREE ENERGY PREDICTED BY IDOCK:   -5.55 KCAL/MOL
REMARK 923 INTER-LIGAND FREE ENERGY PREDICTED BY IDOCK:   -4.81 KCAL/MOL
REMARK 924 INTRA-LIGAND FREE ENERGY PREDICTED BY IDOCK:   -0.74 KCAL/MOL
REMARK 927      BINDING AFFINITY PREDICTED BY RF-SCORE:    0.00 PKD
ROOT
HETATM    1  N   UNL     1     -13.186  10.685  72.242  1.00  0.00    -0.574 NA 
HETATM    2  H1  UNL     1     -12.883  11.587  71.875  1.00  0.00     0.000 HD 
HETATM    3  C   UNL     1     -12.553   9.582  71.757  1.00  0.00    -0.405 C  
HETATM    4  H2  UNL     1     -13.928  10.613  72.939  1.00  0.00     0.000 HD 
HETATM    5  N   UNL     1     -12.939   8.435  72.225  1.00  0.00    -0.499 N  
HETATM    6  C   UNL     1     -12.398   7.273  71.730  1.00  0.00    -0.341 C  
HETATM    7  H   UNL     1     -13.645   8.396  72.961  1.00  0.00     0.000 HD 
HETATM    8  N   UNL     1     -11.485   7.370  70.677  1.00  0.00    -0.288 N  
HETATM    9  O   UNL     1     -12.726   6.175  72.177  1.00  0.00    -0.158 OA 
HETATM   10  C   UNL     1     -11.498   9.725  70.739  1.00  0.00    -0.417 C  
HETATM   11  C   UNL     1     -11.027   8.583  70.226  1.00  0.00    -0.235 C  
ENDROOT
BRANCH   8  12
HETATM   12  C   UNL     1     -11.170   6.161  69.931  1.00  0.00    -0.414 C  
BRANCH  12  13
HETATM   13  C   UNL     1      -9.774   5.548  70.169  1.00  0.00    -0.182 C  
BRANCH  13  14
HETATM   14  O   UNL     1      -9.270   4.934  68.939  1.00  0.00    -0.107 OA 
BRANCH  14  15
HETATM   15  C   UNL     1      -8.876   5.958  68.007  1.00  0.00    -0.109 C  
HETATM   16  P   UNL     1      -8.924   5.392  66.266  1.00  0.00    -0.144 P  
HETATM   17  O   UNL     1     -10.541   5.167  66.509  1.00  0.00    -0.288 OA 
HETATM   18  O   UNL     1      -8.911   6.994  65.884  1.00  0.00    -0.154 OA 
HETATM   19  O   UNL     1      -8.965   4.915  64.795  1.00  0.00    -0.154 OA 
ENDBRANCH  14  15
ENDBRANCH  13  14
BRANCH  13  20
HETATM   20  C   UNL     1      -9.813   4.473  71.267  1.00  0.00    -0.190 C  
HETATM   21  O   UNL     1      -9.807   5.085  72.558  1.00  0.00    -0.152 OA 
HETATM   22  H   UNL     1      -9.832   4.420  73.236  1.00  0.00     0.000 HD 
ENDBRANCH  13  20
ENDBRANCH  12  13
ENDBRANCH   8  12
TORSDOF 5
ENDMDL
MODEL      174
REMARK 921   NORMALIZED FREE ENERGY PREDICTED BY IDOCK:   -3.56 KCAL/MOL
REMARK 922        TOTAL FREE ENERGY PREDICTED BY IDOCK:   -5.54 KCAL/MOL
REMARK 923 INTER-LIGAND FREE ENERGY PREDICTED BY IDOCK:   -5.07 KCAL/MOL
REMARK 924 INTRA-LIGAND FREE ENERGY PREDICTED BY IDOCK:   -0.47 KCAL/MOL
REMARK 927      BINDING AFFINITY PREDICTED BY RF-SCORE:    0.00 PKD
ROOT
HETATM    1  N   UNL     1      -9.070  11.109  63.997  1.00  0.00    -0.379 NA 
HETATM    2  H1  UNL     1      -9.082  12.115  63.829  1.00  0.00     0.000 HD 
HETATM    3  C   UNL     1      -9.700  10.668  65.120  1.00  0.00    -0.271 C  
HETATM    4  H2  UNL     1      -8.609  10.465  63.355  1.00  0.00     0.000 HD 
HETATM    5  N   UNL     1      -9.685   9.388  65.333  1.00  0.00    -0.439 N  
HETATM    6  C   UNL     1     -10.236   8.875  66.482  1.00  0.00    -0.249 C  
HETATM    7  H   UNL     1      -9.264   8.762  64.646  1.00  0.00     0.000 HD 
HETATM    8  N   UNL     1     -10.742   9.773  67.426  1.00  0.00    -0.269 N  
HETATM    9  O   UNL     1     -10.261   7.664  66.693  1.00  0.00    -0.258 OA 
HETATM   10  C   UNL     1     -10.342  11.631  66.033  1.00  0.00    -0.283 C  
HETATM   11  C   UNL     1     -10.818  11.120  67.174  1.00  0.00    -0.273 C  
ENDROOT
BRANCH   8  12
HETATM   12  C   UNL     1     -11.011   9.277  68.766  1.00  0.00    -0.007 C  
BRANCH  12  13
HETATM   13  C   UNL     1     -10.693  10.237  69.933  1.00  0.00    -0.294 C  
BRANCH  13  14
HETATM   14  O   UNL     1     -10.067   9.506  71.037  1.00  0.00    -0.286 OA 
BRANCH  14  15
HETATM   15  C   UNL     1     -10.059   8.096  70.749  1.00  0.00    -0.189 C  
HETATM   16  P   UNL     1     -10.307   7.064  72.240  1.00  0.00    -0.204 P  
HETATM   17  O   UNL     1     -11.775   7.806  72.365  1.00  0.00    -0.320 OA 
HETATM   18  O   UNL     1     -10.682   5.859  71.182  1.00  0.00    -0.244 OA 
HETATM   19  O   UNL     1     -10.517   6.190  73.500  1.00  0.00    -0.228 OA 
ENDBRANCH  14  15
ENDBRANCH  13  14
BRANCH  13  20
HETATM   20  C   UNL     1     -11.966  10.917  70.462  1.00  0.00    -0.371 C  
HETATM   21  O   UNL     1     -11.793  12.336  70.489  1.00  0.00    -0.509 OA 
HETATM   22  H   UNL     1     -12.580  12.756  70.816  1.00  0.00     0.000 HD 
ENDBRANCH  13  20
ENDBRANCH  12  13
ENDBRANCH   8  12
TORSDOF 5
ENDMDL
MODEL      175
REMARK 921   NORMALIZED FREE ENERGY PREDICTED BY IDOCK:   -3.55 KCAL/MOL
REMARK 922        TOTAL FREE ENERGY PREDICTED BY IDOCK:   -5.53 KCAL/MOL
REMARK 923 INTER-LIGAND FREE ENERGY PREDICTED BY IDOCK:   -4.89 KCAL/MOL
REMARK 924 INTRA-LIGAND FREE ENERGY PREDICTED BY IDOCK:   -0.64 KCAL/MOL
REMARK 927      BINDING AFFINITY PREDICTED BY RF-SCORE:    0.00 PKD
ROOT
HETATM    1  N   UNL     1      -7.486  10.096  70.568  1.00  0.00    -0.430 NA 
HETATM    2  H1  UNL     1      -6.490  10.314  70.557  1.00  0.00     0.000 HD 
HETATM    3  C   UNL     1      -8.087   9.917  69.360  1.00  0.00    -0.139 C  
HETATM    4  H2  UNL     1      -8.007  10.015  71.442  1.00  0.00     0.000 HD 
HETATM    5  N   UNL     1      -9.355   9.639  69.375  1.00  0.00    -0.180 N  
HETATM    6  C   UNL     1     -10.047   9.518  68.195  1.00  0.00    -0.182 C  
HETATM    7  H   UNL     1      -9.838   9.511  70.265  1.00  0.00     0.000 HD 
HETATM    8  N   UNL     1      -9.361   9.768  67.003  1.00  0.00    -0.145 N  
HETATM    9  O   UNL     1     -11.241   9.227  68.181  1.00  0.00     0.026 OA 
HETATM   10  C   UNL     1      -7.307  10.058  68.119  1.00  0.00    -0.083 C  
HETATM   11  C   UNL     1      -8.008   9.997  66.982  1.00  0.00    -0.106 C  
ENDROOT
BRANCH   8  12
HETATM   12  C   UNL     1     -10.143   9.974  65.794  1.00  0.00    -0.250 C  
BRANCH  12  13
HETATM   13  C   UNL     1     -10.408  11.439  65.386  1.00  0.00    -0.279 C  
BRANCH  13  14
HETATM   14  O   UNL     1     -11.790  11.812  65.695  1.00  0.00    -0.346 OA 
BRANCH  14  15
HETATM   15  C   UNL     1     -11.849  12.446  66.986  1.00  0.00    -0.297 C  
HETATM   16  P   UNL     1     -11.354  14.208  66.935  1.00  0.00    -0.362 P  
HETATM   17  O   UNL     1     -12.642  14.418  65.926  1.00  0.00    -0.383 OA 
HETATM   18  O   UNL     1     -12.109  14.325  68.394  1.00  0.00    -0.335 OA 
HETATM   19  O   UNL     1     -10.937  15.698  66.894  1.00  0.00    -0.315 OA 
ENDBRANCH  14  15
ENDBRANCH  13  14
BRANCH  13  20
HETATM   20  C   UNL     1     -10.173  11.654  63.882  1.00  0.00    -0.365 C  
HETATM   21  O   UNL     1      -9.965  13.041  63.608  1.00  0.00    -0.717 OA 
HETATM   22  H   UNL     1      -9.819  13.173  62.678  1.00  0.00     0.000 HD 
ENDBRANCH  13  20
ENDBRANCH  12  13
ENDBRANCH   8  12
TORSDOF 5
ENDMDL
MODEL      176
REMARK 921   NORMALIZED FREE ENERGY PREDICTED BY IDOCK:   -3.55 KCAL/MOL
REMARK 922        TOTAL FREE ENERGY PREDICTED BY IDOCK:   -5.53 KCAL/MOL
REMARK 923 INTER-LIGAND FREE ENERGY PREDICTED BY IDOCK:   -5.04 KCAL/MOL
REMARK 924 INTRA-LIGAND FREE ENERGY PREDICTED BY IDOCK:   -0.48 KCAL/MOL
REMARK 927      BINDING AFFINITY PREDICTED BY RF-SCORE:    0.00 PKD
ROOT
HETATM    1  N   UNL     1     -10.830  11.612  63.204  1.00  0.00    -0.680 NA 
HETATM    2  H1  UNL     1     -10.465  11.196  62.347  1.00  0.00     0.000 HD 
HETATM    3  C   UNL     1     -10.387  11.084  64.378  1.00  0.00    -0.358 C  
HETATM    4  H2  UNL     1     -11.495  12.386  63.182  1.00  0.00     0.000 HD 
HETATM    5  N   UNL     1     -10.852  11.613  65.468  1.00  0.00    -0.287 N  
HETATM    6  C   UNL     1     -10.509  11.087  66.689  1.00  0.00    -0.256 C  
HETATM    7  H   UNL     1     -11.473  12.422  65.417  1.00  0.00     0.000 HD 
HETATM    8  N   UNL     1      -9.711   9.940  66.709  1.00  0.00    -0.182 N  
HETATM    9  O   UNL     1     -10.912  11.589  67.737  1.00  0.00    -0.207 OA 
HETATM   10  C   UNL     1      -9.440   9.955  64.369  1.00  0.00    -0.304 C  
HETATM   11  C   UNL     1      -9.166   9.418  65.563  1.00  0.00    -0.232 C  
ENDROOT
BRANCH   8  12
HETATM   12  C   UNL     1      -9.623   9.189  67.952  1.00  0.00    -0.146 C  
BRANCH  12  13
HETATM   13  C   UNL     1     -10.869   8.368  68.351  1.00  0.00     0.087 C  
BRANCH  13  14
HETATM   14  O   UNL     1     -11.154   8.537  69.778  1.00  0.00    -0.188 OA 
BRANCH  14  15
HETATM   15  C   UNL     1      -9.981   9.019  70.457  1.00  0.00    -0.215 C  
HETATM   16  P   UNL     1      -9.804   8.333  72.145  1.00  0.00    -0.319 P  
HETATM   17  O   UNL     1      -9.704   6.861  71.408  1.00  0.00    -0.174 OA 
HETATM   18  O   UNL     1      -8.234   8.818  72.035  1.00  0.00    -0.323 OA 
HETATM   19  O   UNL     1      -9.654   7.753  73.572  1.00  0.00    -0.277 OA 
ENDBRANCH  14  15
ENDBRANCH  13  14
BRANCH  13  20
HETATM   20  C   UNL     1     -10.667   6.871  68.070  1.00  0.00    -0.218 C  
HETATM   21  O   UNL     1     -11.457   6.468  66.949  1.00  0.00    -0.762 OA 
HETATM   22  H   UNL     1     -11.332   5.542  66.776  1.00  0.00     0.000 HD 
ENDBRANCH  13  20
ENDBRANCH  12  13
ENDBRANCH   8  12
TORSDOF 5
ENDMDL
MODEL      177
REMARK 921   NORMALIZED FREE ENERGY PREDICTED BY IDOCK:   -3.54 KCAL/MOL
REMARK 922        TOTAL FREE ENERGY PREDICTED BY IDOCK:   -5.51 KCAL/MOL
REMARK 923 INTER-LIGAND FREE ENERGY PREDICTED BY IDOCK:   -5.05 KCAL/MOL
REMARK 924 INTRA-LIGAND FREE ENERGY PREDICTED BY IDOCK:   -0.46 KCAL/MOL
REMARK 927      BINDING AFFINITY PREDICTED BY RF-SCORE:    0.00 PKD
ROOT
HETATM    1  N   UNL     1      -9.829   8.010  66.286  1.00  0.00    -0.450 NA 
HETATM    2  H1  UNL     1      -9.296   7.818  65.437  1.00  0.00     0.000 HD 
HETATM    3  C   UNL     1     -10.354   9.259  66.410  1.00  0.00    -0.168 C  
HETATM    4  H2  UNL     1      -9.961   7.300  67.007  1.00  0.00     0.000 HD 
HETATM    5  N   UNL     1     -11.031   9.503  67.490  1.00  0.00    -0.433 N  
HETATM    6  C   UNL     1     -11.529  10.762  67.721  1.00  0.00    -0.202 C  
HETATM    7  H   UNL     1     -11.194   8.758  68.168  1.00  0.00     0.000 HD 
HETATM    8  N   UNL     1     -11.225  11.767  66.799  1.00  0.00    -0.316 N  
HETATM    9  O   UNL     1     -12.199  11.011  68.722  1.00  0.00    -0.546 OA 
HETATM   10  C   UNL     1     -10.127  10.263  65.356  1.00  0.00    -0.354 C  
HETATM   11  C   UNL     1     -10.566  11.497  65.626  1.00  0.00    -0.274 C  
ENDROOT
BRANCH   8  12
HETATM   12  C   UNL     1     -11.451  13.149  67.194  1.00  0.00    -0.334 C  
BRANCH  12  13
HETATM   13  C   UNL     1     -10.193  13.999  67.479  1.00  0.00    -0.244 C  
BRANCH  13  14
HETATM   14  O   UNL     1      -9.306  13.298  68.410  1.00  0.00    -0.205 OA 
BRANCH  14  15
HETATM   15  C   UNL     1      -8.108  12.884  67.727  1.00  0.00    -0.166 C  
HETATM   16  P   UNL     1      -6.852  14.212  67.627  1.00  0.00    -0.047 P  
HETATM   17  O   UNL     1      -6.842  14.164  69.276  1.00  0.00    -0.116 OA 
HETATM   18  O   UNL     1      -5.789  12.999  67.297  1.00  0.00    -0.330 OA 
HETATM   19  O   UNL     1      -5.789  15.334  67.542  1.00  0.00    -0.293 OA 
ENDBRANCH  14  15
ENDBRANCH  13  14
BRANCH  13  20
HETATM   20  C   UNL     1     -10.563  15.359  68.092  1.00  0.00    -0.263 C  
HETATM   21  O   UNL     1     -10.780  16.323  67.059  1.00  0.00    -0.306 OA 
HETATM   22  H   UNL     1     -11.008  17.164  67.438  1.00  0.00     0.000 HD 
ENDBRANCH  13  20
ENDBRANCH  12  13
ENDBRANCH   8  12
TORSDOF 5
ENDMDL
MODEL      178
REMARK 921   NORMALIZED FREE ENERGY PREDICTED BY IDOCK:   -3.53 KCAL/MOL
REMARK 922        TOTAL FREE ENERGY PREDICTED BY IDOCK:   -5.51 KCAL/MOL
REMARK 923 INTER-LIGAND FREE ENERGY PREDICTED BY IDOCK:   -4.58 KCAL/MOL
REMARK 924 INTRA-LIGAND FREE ENERGY PREDICTED BY IDOCK:   -0.92 KCAL/MOL
REMARK 927      BINDING AFFINITY PREDICTED BY RF-SCORE:    0.00 PKD
ROOT
HETATM    1  N   UNL     1     -12.830  15.906  70.379  1.00  0.00    -0.672 NA 
HETATM    2  H1  UNL     1     -12.552  16.848  70.100  1.00  0.00     0.000 HD 
HETATM    3  C   UNL     1     -12.062  14.880  69.921  1.00  0.00    -0.332 C  
HETATM    4  H2  UNL     1     -13.643  15.743  70.973  1.00  0.00     0.000 HD 
HETATM    5  N   UNL     1     -12.416  13.683  70.277  1.00  0.00    -0.299 N  
HETATM    6  C   UNL     1     -11.734  12.593  69.795  1.00  0.00    -0.284 C  
HETATM    7  H   UNL     1     -13.201  13.552  70.916  1.00  0.00     0.000 HD 
HETATM    8  N   UNL     1     -10.709  12.814  68.871  1.00  0.00    -0.205 N  
HETATM    9  O   UNL     1     -12.031  11.450  70.140  1.00  0.00    -0.324 OA 
HETATM   10  C   UNL     1     -10.904  15.155  69.052  1.00  0.00    -0.242 C  
HETATM   11  C   UNL     1     -10.291  14.080  68.545  1.00  0.00    -0.247 C  
ENDROOT
BRANCH   8  12
HETATM   12  C   UNL     1     -10.217  11.677  68.109  1.00  0.00    -0.197 C  
BRANCH  12  13
HETATM   13  C   UNL     1      -8.784  11.200  68.430  1.00  0.00    -0.157 C  
BRANCH  13  14
HETATM   14  O   UNL     1      -8.068  10.874  67.195  1.00  0.00    -0.120 OA 
BRANCH  14  15
HETATM   15  C   UNL     1      -8.903  11.153  66.056  1.00  0.00    -0.189 C  
HETATM   16  P   UNL     1      -8.729   9.908  64.725  1.00  0.00    -0.225 P  
HETATM   17  O   UNL     1      -9.290   8.820  65.831  1.00  0.00    -0.220 OA 
HETATM   18  O   UNL     1     -10.156  10.507  64.161  1.00  0.00    -0.338 OA 
HETATM   19  O   UNL     1      -8.583   8.856  63.599  1.00  0.00    -0.175 OA 
ENDBRANCH  14  15
ENDBRANCH  13  14
BRANCH  13  20
HETATM   20  C   UNL     1      -8.796   9.953  69.328  1.00  0.00    -0.174 C  
HETATM   21  O   UNL     1     -10.111   9.396  69.381  1.00  0.00    -0.182 OA 
HETATM   22  H   UNL     1     -10.119   8.625  69.936  1.00  0.00     0.000 HD 
ENDBRANCH  13  20
ENDBRANCH  12  13
ENDBRANCH   8  12
TORSDOF 5
ENDMDL
MODEL      179
REMARK 921   NORMALIZED FREE ENERGY PREDICTED BY IDOCK:   -3.53 KCAL/MOL
REMARK 922        TOTAL FREE ENERGY PREDICTED BY IDOCK:   -5.50 KCAL/MOL
REMARK 923 INTER-LIGAND FREE ENERGY PREDICTED BY IDOCK:   -5.08 KCAL/MOL
REMARK 924 INTRA-LIGAND FREE ENERGY PREDICTED BY IDOCK:   -0.42 KCAL/MOL
REMARK 927      BINDING AFFINITY PREDICTED BY RF-SCORE:    0.00 PKD
ROOT
HETATM    1  N   UNL     1     -13.161  14.052  65.218  1.00  0.00    -0.765 NA 
HETATM    2  H1  UNL     1     -13.452  14.837  65.800  1.00  0.00     0.000 HD 
HETATM    3  C   UNL     1     -12.144  13.281  65.693  1.00  0.00    -0.441 C  
HETATM    4  H2  UNL     1     -13.610  13.853  64.324  1.00  0.00     0.000 HD 
HETATM    5  N   UNL     1     -11.775  12.281  64.952  1.00  0.00    -0.358 N  
HETATM    6  C   UNL     1     -10.708  11.503  65.329  1.00  0.00    -0.279 C  
HETATM    7  H   UNL     1     -12.278  12.074  64.089  1.00  0.00     0.000 HD 
HETATM    8  N   UNL     1     -10.007  11.864  66.483  1.00  0.00    -0.199 N  
HETATM    9  O   UNL     1     -10.357  10.533  64.659  1.00  0.00    -0.344 OA 
HETATM   10  C   UNL     1     -11.509  13.609  66.981  1.00  0.00    -0.368 C  
HETATM   11  C   UNL     1     -10.435  12.878  67.301  1.00  0.00    -0.234 C  
ENDROOT
BRANCH   8  12
HETATM   12  C   UNL     1      -8.698  11.267  66.703  1.00  0.00    -0.174 C  
BRANCH  12  13
HETATM   13  C   UNL     1      -8.567  10.321  67.915  1.00  0.00    -0.118 C  
BRANCH  13  14
HETATM   14  O   UNL     1      -9.883  10.064  68.505  1.00  0.00    -0.150 OA 
BRANCH  14  15
HETATM   15  C   UNL     1      -9.764   9.941  69.934  1.00  0.00    -0.235 C  
HETATM   16  P   UNL     1     -11.245   9.197  70.710  1.00  0.00    -0.312 P  
HETATM   17  O   UNL     1     -10.905   7.862  69.802  1.00  0.00    -0.249 OA 
HETATM   18  O   UNL     1     -10.265   8.922  72.005  1.00  0.00    -0.334 OA 
HETATM   19  O   UNL     1     -12.497   8.568  71.368  1.00  0.00    -0.308 OA 
ENDBRANCH  14  15
ENDBRANCH  13  14
BRANCH  13  20
HETATM   20  C   UNL     1      -7.659  10.922  69.000  1.00  0.00    -0.135 C  
HETATM   21  O   UNL     1      -6.982  12.074  68.493  1.00  0.00    -0.077 OA 
HETATM   22  H   UNL     1      -6.420  12.446  69.164  1.00  0.00     0.000 HD 
ENDBRANCH  13  20
ENDBRANCH  12  13
ENDBRANCH   8  12
TORSDOF 5
ENDMDL
MODEL      180
REMARK 921   NORMALIZED FREE ENERGY PREDICTED BY IDOCK:   -3.51 KCAL/MOL
REMARK 922        TOTAL FREE ENERGY PREDICTED BY IDOCK:   -5.47 KCAL/MOL
REMARK 923 INTER-LIGAND FREE ENERGY PREDICTED BY IDOCK:   -5.26 KCAL/MOL
REMARK 924 INTRA-LIGAND FREE ENERGY PREDICTED BY IDOCK:   -0.21 KCAL/MOL
REMARK 927      BINDING AFFINITY PREDICTED BY RF-SCORE:    0.00 PKD
ROOT
HETATM    1  N   UNL     1     -13.578  15.531  70.851  1.00  0.00    -0.818 NA 
HETATM    2  H1  UNL     1     -13.430  15.667  71.851  1.00  0.00     0.000 HD 
HETATM    3  C   UNL     1     -12.463  15.404  70.080  1.00  0.00    -0.335 C  
HETATM    4  H2  UNL     1     -14.514  15.491  70.448  1.00  0.00     0.000 HD 
HETATM    5  N   UNL     1     -12.651  15.230  68.808  1.00  0.00    -0.308 N  
HETATM    6  C   UNL     1     -11.575  15.167  67.956  1.00  0.00    -0.328 C  
HETATM    7  H   UNL     1     -13.598  15.139  68.440  1.00  0.00     0.000 HD 
HETATM    8  N   UNL     1     -10.299  15.363  68.493  1.00  0.00    -0.222 N  
HETATM    9  O   UNL     1     -11.725  14.973  66.751  1.00  0.00    -0.288 OA 
HETATM   10  C   UNL     1     -11.126  15.483  70.696  1.00  0.00    -0.378 C  
HETATM   11  C   UNL     1     -10.095  15.481  69.845  1.00  0.00    -0.272 C  
ENDROOT
BRANCH   8  12
HETATM   12  C   UNL     1      -9.205  15.634  67.575  1.00  0.00    -0.201 C  
BRANCH  12  13
HETATM   13  C   UNL     1      -8.312  14.433  67.192  1.00  0.00    -0.191 C  
BRANCH  13  14
HETATM   14  O   UNL     1      -9.134  13.326  66.696  1.00  0.00    -0.234 OA 
BRANCH  14  15
HETATM   15  C   UNL     1      -9.125  12.246  67.648  1.00  0.00    -0.184 C  
HETATM   16  P   UNL     1     -10.802  11.612  68.019  1.00  0.00    -0.252 P  
HETATM   17  O   UNL     1     -10.877  11.215  66.419  1.00  0.00    -0.270 OA 
HETATM   18  O   UNL     1     -10.025  10.285  68.609  1.00  0.00    -0.160 OA 
HETATM   19  O   UNL     1     -12.219  11.075  68.333  1.00  0.00    -0.586 OA 
ENDBRANCH  14  15
ENDBRANCH  13  14
BRANCH  13  20
HETATM   20  C   UNL     1      -7.500  13.932  68.397  1.00  0.00    -0.117 C  
HETATM   21  O   UNL     1      -6.115  13.843  68.055  1.00  0.00    -0.114 OA 
HETATM   22  H   UNL     1      -5.613  13.533  68.800  1.00  0.00     0.000 HD 
ENDBRANCH  13  20
ENDBRANCH  12  13
ENDBRANCH   8  12
TORSDOF 5
ENDMDL
MODEL      181
REMARK 921   NORMALIZED FREE ENERGY PREDICTED BY IDOCK:   -3.51 KCAL/MOL
REMARK 922        TOTAL FREE ENERGY PREDICTED BY IDOCK:   -5.47 KCAL/MOL
REMARK 923 INTER-LIGAND FREE ENERGY PREDICTED BY IDOCK:   -5.08 KCAL/MOL
REMARK 924 INTRA-LIGAND FREE ENERGY PREDICTED BY IDOCK:   -0.39 KCAL/MOL
REMARK 927      BINDING AFFINITY PREDICTED BY RF-SCORE:    0.00 PKD
ROOT
HETATM    1  N   UNL     1     -11.928  12.078  67.829  1.00  0.00    -0.553 NA 
HETATM    2  H1  UNL     1     -11.307  11.886  67.043  1.00  0.00     0.000 HD 
HETATM    3  C   UNL     1     -11.732  11.343  68.958  1.00  0.00    -0.343 C  
HETATM    4  H2  UNL     1     -12.661  12.786  67.772  1.00  0.00     0.000 HD 
HETATM    5  N   UNL     1     -12.523  11.588  69.958  1.00  0.00    -0.172 N  
HETATM    6  C   UNL     1     -12.434  10.837  71.104  1.00  0.00    -0.414 C  
HETATM    7  H   UNL     1     -13.210  12.339  69.892  1.00  0.00     0.000 HD 
HETATM    8  N   UNL     1     -11.525   9.776  71.126  1.00  0.00    -0.373 N  
HETATM    9  O   UNL     1     -13.152  11.068  72.076  1.00  0.00    -0.496 OA 
HETATM   10  C   UNL     1     -10.675  10.318  68.997  1.00  0.00    -0.257 C  
HETATM   11  C   UNL     1     -10.644   9.557  70.097  1.00  0.00    -0.254 C  
ENDROOT
BRANCH   8  12
HETATM   12  C   UNL     1     -11.658   8.783  72.181  1.00  0.00    -0.364 C  
BRANCH  12  13
HETATM   13  C   UNL     1     -10.552   7.709  72.260  1.00  0.00    -0.246 C  
BRANCH  13  14
HETATM   14  O   UNL     1     -11.142   6.382  72.451  1.00  0.00    -0.243 OA 
BRANCH  14  15
HETATM   15  C   UNL     1     -10.646   5.477  71.448  1.00  0.00    -0.243 C  
HETATM   16  P   UNL     1      -9.441   4.270  72.113  1.00  0.00    -0.145 P  
HETATM   17  O   UNL     1     -10.678   3.742  73.069  1.00  0.00    -0.172 OA 
HETATM   18  O   UNL     1      -9.749   3.409  70.744  1.00  0.00    -0.177 OA 
HETATM   19  O   UNL     1      -8.423   3.248  72.674  1.00  0.00    -0.082 OA 
ENDBRANCH  14  15
ENDBRANCH  13  14
BRANCH  13  20
HETATM   20  C   UNL     1      -9.587   7.983  73.425  1.00  0.00    -0.207 C  
HETATM   21  O   UNL     1      -9.710   6.961  74.417  1.00  0.00    -0.337 OA 
HETATM   22  H   UNL     1      -9.113   7.131  75.137  1.00  0.00     0.000 HD 
ENDBRANCH  13  20
ENDBRANCH  12  13
ENDBRANCH   8  12
TORSDOF 5
ENDMDL
MODEL      182
REMARK 921   NORMALIZED FREE ENERGY PREDICTED BY IDOCK:   -3.50 KCAL/MOL
REMARK 922        TOTAL FREE ENERGY PREDICTED BY IDOCK:   -5.47 KCAL/MOL
REMARK 923 INTER-LIGAND FREE ENERGY PREDICTED BY IDOCK:   -5.01 KCAL/MOL
REMARK 924 INTRA-LIGAND FREE ENERGY PREDICTED BY IDOCK:   -0.46 KCAL/MOL
REMARK 927      BINDING AFFINITY PREDICTED BY RF-SCORE:    0.00 PKD
ROOT
HETATM    1  N   UNL     1     -13.529  14.327  65.491  1.00  0.00    -0.568 NA 
HETATM    2  H1  UNL     1     -13.898  14.278  64.541  1.00  0.00     0.000 HD 
HETATM    3  C   UNL     1     -12.385  13.631  65.739  1.00  0.00    -0.482 C  
HETATM    4  H2  UNL     1     -13.993  14.870  66.219  1.00  0.00     0.000 HD 
HETATM    5  N   UNL     1     -11.915  13.693  66.947  1.00  0.00    -0.405 N  
HETATM    6  C   UNL     1     -10.807  12.960  67.292  1.00  0.00    -0.255 C  
HETATM    7  H   UNL     1     -12.370  14.288  67.641  1.00  0.00     0.000 HD 
HETATM    8  N   UNL     1     -10.257  12.108  66.331  1.00  0.00    -0.216 N  
HETATM    9  O   UNL     1     -10.325  13.024  68.422  1.00  0.00    -0.244 OA 
HETATM   10  C   UNL     1     -11.752  12.845  64.666  1.00  0.00    -0.407 C  
HETATM   11  C   UNL     1     -10.711  12.091  65.036  1.00  0.00    -0.296 C  
ENDROOT
BRANCH   8  12
HETATM   12  C   UNL     1      -9.314  11.093  66.774  1.00  0.00    -0.177 C  
BRANCH  12  13
HETATM   13  C   UNL     1      -9.917   9.762  67.272  1.00  0.00    -0.191 C  
BRANCH  13  14
HETATM   14  O   UNL     1      -9.581   9.545  68.681  1.00  0.00    -0.144 OA 
BRANCH  14  15
HETATM   15  C   UNL     1      -8.295   8.906  68.784  1.00  0.00    -0.123 C  
HETATM   16  P   UNL     1      -7.179   9.741  69.971  1.00  0.00    -0.157 P  
HETATM   17  O   UNL     1      -8.308   9.365  71.114  1.00  0.00    -0.310 OA 
HETATM   18  O   UNL     1      -6.318   8.338  69.944  1.00  0.00    -0.032 OA 
HETATM   19  O   UNL     1      -6.236  10.446  70.975  1.00  0.00    -0.311 OA 
ENDBRANCH  14  15
ENDBRANCH  13  14
BRANCH  13  20
HETATM   20  C   UNL     1      -9.391   8.569  66.458  1.00  0.00    -0.203 C  
HETATM   21  O   UNL     1     -10.386   7.545  66.383  1.00  0.00    -0.490 OA 
HETATM   22  H   UNL     1     -10.060   6.808  65.880  1.00  0.00     0.000 HD 
ENDBRANCH  13  20
ENDBRANCH  12  13
ENDBRANCH   8  12
TORSDOF 5
ENDMDL
MODEL      183
REMARK 921   NORMALIZED FREE ENERGY PREDICTED BY IDOCK:   -3.50 KCAL/MOL
REMARK 922        TOTAL FREE ENERGY PREDICTED BY IDOCK:   -5.46 KCAL/MOL
REMARK 923 INTER-LIGAND FREE ENERGY PREDICTED BY IDOCK:   -5.04 KCAL/MOL
REMARK 924 INTRA-LIGAND FREE ENERGY PREDICTED BY IDOCK:   -0.43 KCAL/MOL
REMARK 927      BINDING AFFINITY PREDICTED BY RF-SCORE:    0.00 PKD
ROOT
HETATM    1  N   UNL     1     -12.522  16.074  69.564  1.00  0.00    -0.450 NA 
HETATM    2  H1  UNL     1     -11.959  16.461  68.806  1.00  0.00     0.000 HD 
HETATM    3  C   UNL     1     -12.314  14.765  69.874  1.00  0.00    -0.283 C  
HETATM    4  H2  UNL     1     -13.205  16.640  70.066  1.00  0.00     0.000 HD 
HETATM    5  N   UNL     1     -13.029  14.273  70.839  1.00  0.00    -0.343 N  
HETATM    6  C   UNL     1     -12.928  12.941  71.160  1.00  0.00    -0.174 C  
HETATM    7  H   UNL     1     -13.666  14.876  71.360  1.00  0.00     0.000 HD 
HETATM    8  N   UNL     1     -12.094  12.138  70.378  1.00  0.00    -0.352 N  
HETATM    9  O   UNL     1     -13.573  12.458  72.089  1.00  0.00    -0.483 OA 
HETATM   10  C   UNL     1     -11.329  13.974  69.115  1.00  0.00    -0.323 C  
HETATM   11  C   UNL     1     -11.289  12.668  69.401  1.00  0.00    -0.208 C  
ENDROOT
BRANCH   8  12
HETATM   12  C   UNL     1     -12.236  10.694  70.486  1.00  0.00    -0.358 C  
BRANCH  12  13
HETATM   13  C   UNL     1     -10.959   9.901  70.836  1.00  0.00    -0.322 C  
BRANCH  13  14
HETATM   14  O   UNL     1     -10.551   9.069  69.701  1.00  0.00    -0.219 OA 
BRANCH  14  15
HETATM   15  C   UNL     1      -9.630   9.796  68.868  1.00  0.00    -0.167 C  
HETATM   16  P   UNL     1      -9.807   9.391  67.091  1.00  0.00    -0.219 P  
HETATM   17  O   UNL     1     -11.339   9.986  67.230  1.00  0.00    -0.159 OA 
HETATM   18  O   UNL     1      -8.978  10.789  66.826  1.00  0.00    -0.144 OA 
HETATM   19  O   UNL     1      -9.955   9.049  65.589  1.00  0.00    -0.176 OA 
ENDBRANCH  14  15
ENDBRANCH  13  14
BRANCH  13  20
HETATM   20  C   UNL     1     -11.182   8.987  72.051  1.00  0.00    -0.309 C  
HETATM   21  O   UNL     1     -12.570   8.675  72.186  1.00  0.00    -0.346 OA 
HETATM   22  H   UNL     1     -12.708   8.110  72.938  1.00  0.00     0.000 HD 
ENDBRANCH  13  20
ENDBRANCH  12  13
ENDBRANCH   8  12
TORSDOF 5
ENDMDL
MODEL      184
REMARK 921   NORMALIZED FREE ENERGY PREDICTED BY IDOCK:   -3.49 KCAL/MOL
REMARK 922        TOTAL FREE ENERGY PREDICTED BY IDOCK:   -5.45 KCAL/MOL
REMARK 923 INTER-LIGAND FREE ENERGY PREDICTED BY IDOCK:   -4.71 KCAL/MOL
REMARK 924 INTRA-LIGAND FREE ENERGY PREDICTED BY IDOCK:   -0.73 KCAL/MOL
REMARK 927      BINDING AFFINITY PREDICTED BY RF-SCORE:    0.00 PKD
ROOT
HETATM    1  N   UNL     1      -9.918  13.246  68.028  1.00  0.00    -0.227 NA 
HETATM    2  H1  UNL     1      -9.167  13.205  67.338  1.00  0.00     0.000 HD 
HETATM    3  C   UNL     1     -10.162  12.109  68.735  1.00  0.00    -0.116 C  
HETATM    4  H2  UNL     1     -10.458  14.098  68.180  1.00  0.00     0.000 HD 
HETATM    5  N   UNL     1     -11.117  12.162  69.612  1.00  0.00    -0.474 N  
HETATM    6  C   UNL     1     -11.471  11.035  70.312  1.00  0.00    -0.273 C  
HETATM    7  H   UNL     1     -11.605  13.042  69.782  1.00  0.00     0.000 HD 
HETATM    8  N   UNL     1     -10.823   9.837  70.000  1.00  0.00    -0.258 N  
HETATM    9  O   UNL     1     -12.353  11.066  71.169  1.00  0.00    -0.361 OA 
HETATM   10  C   UNL     1      -9.371  10.894  68.476  1.00  0.00    -0.181 C  
HETATM   11  C   UNL     1      -9.769   9.793  69.122  1.00  0.00    -0.184 C  
ENDROOT
BRANCH   8  12
HETATM   12  C   UNL     1     -11.411   8.596  70.479  1.00  0.00    -0.218 C  
BRANCH  12  13
HETATM   13  C   UNL     1     -10.529   7.726  71.402  1.00  0.00    -0.208 C  
BRANCH  13  14
HETATM   14  O   UNL     1     -10.629   6.316  71.020  1.00  0.00    -0.220 OA 
BRANCH  14  15
HETATM   15  C   UNL     1     -10.978   6.209  69.627  1.00  0.00    -0.389 C  
HETATM   16  P   UNL     1      -9.608   5.562  68.599  1.00  0.00    -0.152 P  
HETATM   17  O   UNL     1      -9.722   4.196  69.518  1.00  0.00    -0.200 OA 
HETATM   18  O   UNL     1     -10.773   5.253  67.477  1.00  0.00    -0.142 OA 
HETATM   19  O   UNL     1      -8.451   5.014  67.729  1.00  0.00    -0.105 OA 
ENDBRANCH  14  15
ENDBRANCH  13  14
BRANCH  13  20
HETATM   20  C   UNL     1     -10.952   7.862  72.873  1.00  0.00    -0.388 C  
HETATM   21  O   UNL     1     -12.289   8.362  72.957  1.00  0.00    -0.616 OA 
HETATM   22  H   UNL     1     -12.550   8.445  73.867  1.00  0.00     0.000 HD 
ENDBRANCH  13  20
ENDBRANCH  12  13
ENDBRANCH   8  12
TORSDOF 5
ENDMDL
MODEL      185
REMARK 921   NORMALIZED FREE ENERGY PREDICTED BY IDOCK:   -3.48 KCAL/MOL
REMARK 922        TOTAL FREE ENERGY PREDICTED BY IDOCK:   -5.43 KCAL/MOL
REMARK 923 INTER-LIGAND FREE ENERGY PREDICTED BY IDOCK:   -4.88 KCAL/MOL
REMARK 924 INTRA-LIGAND FREE ENERGY PREDICTED BY IDOCK:   -0.55 KCAL/MOL
REMARK 927      BINDING AFFINITY PREDICTED BY RF-SCORE:    0.00 PKD
ROOT
HETATM    1  N   UNL     1     -12.407  15.241  68.637  1.00  0.00    -0.560 NA 
HETATM    2  H1  UNL     1     -13.397  15.341  68.413  1.00  0.00     0.000 HD 
HETATM    3  C   UNL     1     -11.635  14.591  67.723  1.00  0.00    -0.365 C  
HETATM    4  H2  UNL     1     -12.014  15.610  69.503  1.00  0.00     0.000 HD 
HETATM    5  N   UNL     1     -10.375  14.465  68.008  1.00  0.00    -0.225 N  
HETATM    6  C   UNL     1      -9.548  13.758  67.170  1.00  0.00    -0.244 C  
HETATM    7  H   UNL     1      -9.999  14.891  68.855  1.00  0.00     0.000 HD 
HETATM    8  N   UNL     1     -10.118  13.134  66.057  1.00  0.00    -0.282 N  
HETATM    9  O   UNL     1      -8.345  13.648  67.403  1.00  0.00    -0.173 OA 
HETATM   10  C   UNL     1     -12.241  14.057  66.491  1.00  0.00    -0.485 C  
HETATM   11  C   UNL     1     -11.435  13.321  65.719  1.00  0.00    -0.323 C  
ENDROOT
BRANCH   8  12
HETATM   12  C   UNL     1      -9.335  12.121  65.365  1.00  0.00     0.071 C  
BRANCH  12  13
HETATM   13  C   UNL     1     -10.112  10.905  64.818  1.00  0.00    -0.321 C  
BRANCH  13  14
HETATM   14  O   UNL     1      -9.913   9.741  65.685  1.00  0.00    -0.301 OA 
BRANCH  14  15
HETATM   15  C   UNL     1     -10.697   9.884  66.883  1.00  0.00    -0.125 C  
HETATM   16  P   UNL     1      -9.943   9.052  68.329  1.00  0.00    -0.187 P  
HETATM   17  O   UNL     1      -8.680  10.092  68.120  1.00  0.00    -0.120 OA 
HETATM   18  O   UNL     1     -10.948   9.997  69.229  1.00  0.00    -0.223 OA 
HETATM   19  O   UNL     1      -9.307   8.349  69.553  1.00  0.00    -0.157 OA 
ENDBRANCH  14  15
ENDBRANCH  13  14
BRANCH  13  20
HETATM   20  C   UNL     1      -9.650  10.536  63.399  1.00  0.00    -0.331 C  
HETATM   21  O   UNL     1     -10.078  11.532  62.467  1.00  0.00    -0.533 OA 
HETATM   22  H   UNL     1      -9.792  11.305  61.590  1.00  0.00     0.000 HD 
ENDBRANCH  13  20
ENDBRANCH  12  13
ENDBRANCH   8  12
TORSDOF 5
ENDMDL
MODEL      186
REMARK 921   NORMALIZED FREE ENERGY PREDICTED BY IDOCK:   -3.44 KCAL/MOL
REMARK 922        TOTAL FREE ENERGY PREDICTED BY IDOCK:   -5.39 KCAL/MOL
REMARK 923 INTER-LIGAND FREE ENERGY PREDICTED BY IDOCK:   -4.95 KCAL/MOL
REMARK 924 INTRA-LIGAND FREE ENERGY PREDICTED BY IDOCK:   -0.43 KCAL/MOL
REMARK 927      BINDING AFFINITY PREDICTED BY RF-SCORE:    0.00 PKD
ROOT
HETATM    1  N   UNL     1     -10.500  18.855  65.648  1.00  0.00    -0.562 NA 
HETATM    2  H1  UNL     1     -10.600  18.933  64.636  1.00  0.00     0.000 HD 
HETATM    3  C   UNL     1     -10.562  17.601  66.175  1.00  0.00    -0.220 C  
HETATM    4  H2  UNL     1     -10.359  19.676  66.237  1.00  0.00     0.000 HD 
HETATM    5  N   UNL     1     -10.434  17.503  67.463  1.00  0.00    -0.355 N  
HETATM    6  C   UNL     1     -10.560  16.279  68.075  1.00  0.00    -0.308 C  
HETATM    7  H   UNL     1     -10.240  18.334  68.021  1.00  0.00     0.000 HD 
HETATM    8  N   UNL     1     -10.892  15.178  67.281  1.00  0.00    -0.309 N  
HETATM    9  O   UNL     1     -10.414  16.155  69.289  1.00  0.00    -0.229 OA 
HETATM   10  C   UNL     1     -10.783  16.441  65.294  1.00  0.00    -0.312 C  
HETATM   11  C   UNL     1     -10.962  15.269  65.913  1.00  0.00    -0.325 C  
ENDROOT
BRANCH   8  12
HETATM   12  C   UNL     1     -11.354  13.970  67.945  1.00  0.00    -0.291 C  
BRANCH  12  13
HETATM   13  C   UNL     1     -10.643  12.655  67.557  1.00  0.00    -0.221 C  
BRANCH  13  14
HETATM   14  O   UNL     1     -11.107  11.556  68.407  1.00  0.00    -0.201 OA 
BRANCH  14  15
HETATM   15  C   UNL     1     -11.085  10.322  67.666  1.00  0.00    -0.251 C  
HETATM   16  P   UNL     1     -10.052   9.035  68.458  1.00  0.00    -0.199 P  
HETATM   17  O   UNL     1     -11.102   9.141  69.726  1.00  0.00    -0.215 OA 
HETATM   18  O   UNL     1     -10.868   7.976  67.496  1.00  0.00    -0.202 OA 
HETATM   19  O   UNL     1      -9.179   7.946  69.126  1.00  0.00    -0.145 OA 
ENDBRANCH  14  15
ENDBRANCH  13  14
BRANCH  13  20
HETATM   20  C   UNL     1      -9.118  12.776  67.711  1.00  0.00    -0.197 C  
HETATM   21  O   UNL     1      -8.482  12.636  66.439  1.00  0.00    -0.413 OA 
HETATM   22  H   UNL     1      -7.539  12.710  66.534  1.00  0.00     0.000 HD 
ENDBRANCH  13  20
ENDBRANCH  12  13
ENDBRANCH   8  12
TORSDOF 5
ENDMDL
MODEL      187
REMARK 921   NORMALIZED FREE ENERGY PREDICTED BY IDOCK:   -3.44 KCAL/MOL
REMARK 922        TOTAL FREE ENERGY PREDICTED BY IDOCK:   -5.38 KCAL/MOL
REMARK 923 INTER-LIGAND FREE ENERGY PREDICTED BY IDOCK:   -5.96 KCAL/MOL
REMARK 924 INTRA-LIGAND FREE ENERGY PREDICTED BY IDOCK:    0.58 KCAL/MOL
REMARK 927      BINDING AFFINITY PREDICTED BY RF-SCORE:    0.00 PKD
ROOT
HETATM    1  N   UNL     1      -7.711  20.800  66.712  1.00  0.00    -0.549 NA 
HETATM    2  H1  UNL     1      -6.716  20.987  66.592  1.00  0.00     0.000 HD 
HETATM    3  C   UNL     1      -8.096  19.495  66.685  1.00  0.00    -0.306 C  
HETATM    4  H2  UNL     1      -8.386  21.554  66.845  1.00  0.00     0.000 HD 
HETATM    5  N   UNL     1      -9.362  19.256  66.839  1.00  0.00    -0.306 N  
HETATM    6  C   UNL     1      -9.836  17.970  66.751  1.00  0.00    -0.335 C  
HETATM    7  H   UNL     1     -10.007  20.025  67.025  1.00  0.00     0.000 HD 
HETATM    8  N   UNL     1      -8.930  16.957  66.428  1.00  0.00    -0.271 N  
HETATM    9  O   UNL     1     -11.027  17.715  66.921  1.00  0.00    -0.110 OA 
HETATM   10  C   UNL     1      -7.095  18.434  66.474  1.00  0.00    -0.251 C  
HETATM   11  C   UNL     1      -7.582  17.197  66.330  1.00  0.00    -0.312 C  
ENDROOT
BRANCH   8  12
HETATM   12  C   UNL     1      -9.463  15.672  66.003  1.00  0.00    -0.355 C  
BRANCH  12  13
HETATM   13  C   UNL     1     -10.887  15.322  66.488  1.00  0.00    -0.311 C  
BRANCH  13  14
HETATM   14  O   UNL     1     -10.825  14.475  67.681  1.00  0.00    -0.264 OA 
BRANCH  14  15
HETATM   15  C   UNL     1     -11.983  14.706  68.505  1.00  0.00    -0.263 C  
HETATM   16  P   UNL     1     -11.563  14.939  70.271  1.00  0.00    -0.304 P  
HETATM   17  O   UNL     1     -10.711  16.260  69.771  1.00  0.00    -0.317 OA 
HETATM   18  O   UNL     1     -13.066  15.599  70.404  1.00  0.00    -0.379 OA 
HETATM   19  O   UNL     1     -11.209  15.137  71.765  1.00  0.00    -0.389 OA 
ENDBRANCH  14  15
ENDBRANCH  13  14
BRANCH  13  20
HETATM   20  C   UNL     1     -11.680  14.576  65.403  1.00  0.00    -0.354 C  
HETATM   21  O   UNL     1     -10.804  14.147  64.358  1.00  0.00    -0.581 OA 
HETATM   22  H   UNL     1     -11.295  13.686  63.688  1.00  0.00     0.000 HD 
ENDBRANCH  13  20
ENDBRANCH  12  13
ENDBRANCH   8  12
TORSDOF 5
ENDMDL
MODEL      188
REMARK 921   NORMALIZED FREE ENERGY PREDICTED BY IDOCK:   -3.44 KCAL/MOL
REMARK 922        TOTAL FREE ENERGY PREDICTED BY IDOCK:   -5.38 KCAL/MOL
REMARK 923 INTER-LIGAND FREE ENERGY PREDICTED BY IDOCK:   -4.93 KCAL/MOL
REMARK 924 INTRA-LIGAND FREE ENERGY PREDICTED BY IDOCK:   -0.45 KCAL/MOL
REMARK 927      BINDING AFFINITY PREDICTED BY RF-SCORE:    0.00 PKD
ROOT
HETATM    1  N   UNL     1     -10.150   9.836  65.641  1.00  0.00    -0.274 NA 
HETATM    2  H1  UNL     1      -9.760   9.398  64.806  1.00  0.00     0.000 HD 
HETATM    3  C   UNL     1     -10.514  11.143  65.533  1.00  0.00    -0.256 C  
HETATM    4  H2  UNL     1     -10.262   9.319  66.513  1.00  0.00     0.000 HD 
HETATM    5  N   UNL     1     -11.011  11.699  66.595  1.00  0.00    -0.287 N  
HETATM    6  C   UNL     1     -11.333  13.034  66.585  1.00  0.00    -0.325 C  
HETATM    7  H   UNL     1     -11.163  11.145  67.438  1.00  0.00     0.000 HD 
HETATM    8  N   UNL     1     -11.047  13.771  65.433  1.00  0.00    -0.296 N  
HETATM    9  O   UNL     1     -11.832  13.578  67.569  1.00  0.00    -0.343 OA 
HETATM   10  C   UNL     1     -10.322  11.861  64.261  1.00  0.00    -0.362 C  
HETATM   11  C   UNL     1     -10.583  13.172  64.289  1.00  0.00    -0.412 C  
ENDROOT
BRANCH   8  12
HETATM   12  C   UNL     1     -11.065  15.223  65.527  1.00  0.00    -0.327 C  
BRANCH  12  13
HETATM   13  C   UNL     1      -9.716  15.911  65.827  1.00  0.00    -0.325 C  
BRANCH  13  14
HETATM   14  O   UNL     1      -8.736  14.928  66.294  1.00  0.00    -0.177 OA 
BRANCH  14  15
HETATM   15  C   UNL     1      -8.492  15.111  67.701  1.00  0.00    -0.160 C  
HETATM   16  P   UNL     1      -7.564  13.721  68.448  1.00  0.00    -0.146 P  
HETATM   17  O   UNL     1      -6.350  14.128  67.407  1.00  0.00    -0.324 OA 
HETATM   18  O   UNL     1      -7.249  14.768  69.680  1.00  0.00    -0.169 OA 
HETATM   19  O   UNL     1      -6.779  12.547  69.080  1.00  0.00    -0.103 OA 
ENDBRANCH  14  15
ENDBRANCH  13  14
BRANCH  13  20
HETATM   20  C   UNL     1      -9.868  16.995  66.906  1.00  0.00    -0.271 C  
HETATM   21  O   UNL     1     -10.170  18.255  66.302  1.00  0.00    -0.376 OA 
HETATM   22  H   UNL     1     -10.263  18.925  66.969  1.00  0.00     0.000 HD 
ENDBRANCH  13  20
ENDBRANCH  12  13
ENDBRANCH   8  12
TORSDOF 5
ENDMDL
MODEL      189
REMARK 921   NORMALIZED FREE ENERGY PREDICTED BY IDOCK:   -3.44 KCAL/MOL
REMARK 922        TOTAL FREE ENERGY PREDICTED BY IDOCK:   -5.38 KCAL/MOL
REMARK 923 INTER-LIGAND FREE ENERGY PREDICTED BY IDOCK:   -4.98 KCAL/MOL
REMARK 924 INTRA-LIGAND FREE ENERGY PREDICTED BY IDOCK:   -0.40 KCAL/MOL
REMARK 927      BINDING AFFINITY PREDICTED BY RF-SCORE:    0.00 PKD
ROOT
HETATM    1  N   UNL     1     -10.579  16.727  65.129  1.00  0.00    -0.682 NA 
HETATM    2  H1  UNL     1      -9.719  17.171  64.806  1.00  0.00     0.000 HD 
HETATM    3  C   UNL     1     -10.441  15.649  65.948  1.00  0.00    -0.344 C  
HETATM    4  H2  UNL     1     -11.498  17.076  64.854  1.00  0.00     0.000 HD 
HETATM    5  N   UNL     1     -11.535  15.085  66.360  1.00  0.00    -0.281 N  
HETATM    6  C   UNL     1     -11.475  13.948  67.128  1.00  0.00    -0.347 C  
HETATM    7  H   UNL     1     -12.439  15.487  66.113  1.00  0.00     0.000 HD 
HETATM    8  N   UNL     1     -10.219  13.394  67.386  1.00  0.00    -0.235 N  
HETATM    9  O   UNL     1     -12.497  13.412  67.556  1.00  0.00    -0.135 OA 
HETATM   10  C   UNL     1      -9.097  15.165  66.311  1.00  0.00    -0.313 C  
HETATM   11  C   UNL     1      -9.060  14.024  67.007  1.00  0.00    -0.246 C  
ENDROOT
BRANCH   8  12
HETATM   12  C   UNL     1     -10.162  12.033  67.897  1.00  0.00    -0.196 C  
BRANCH  12  13
HETATM   13  C   UNL     1     -10.621  10.916  66.935  1.00  0.00    -0.261 C  
BRANCH  13  14
HETATM   14  O   UNL     1     -11.052   9.738  67.691  1.00  0.00    -0.244 OA 
BRANCH  14  15
HETATM   15  C   UNL     1     -10.774   9.927  69.091  1.00  0.00    -0.224 C  
HETATM   16  P   UNL     1     -10.499   8.351  69.981  1.00  0.00    -0.226 P  
HETATM   17  O   UNL     1      -9.210   8.144  68.971  1.00  0.00    -0.148 OA 
HETATM   18  O   UNL     1      -9.805   9.283  71.147  1.00  0.00    -0.285 OA 
HETATM   19  O   UNL     1     -10.266   7.019  70.733  1.00  0.00    -0.195 OA 
ENDBRANCH  14  15
ENDBRANCH  13  14
BRANCH  13  20
HETATM   20  C   UNL     1      -9.490  10.495  65.984  1.00  0.00    -0.183 C  
HETATM   21  O   UNL     1      -9.695   9.153  65.536  1.00  0.00    -0.432 OA 
HETATM   22  H   UNL     1      -8.995   8.893  64.949  1.00  0.00     0.000 HD 
ENDBRANCH  13  20
ENDBRANCH  12  13
ENDBRANCH   8  12
TORSDOF 5
ENDMDL
MODEL      190
REMARK 921   NORMALIZED FREE ENERGY PREDICTED BY IDOCK:   -3.42 KCAL/MOL
REMARK 922        TOTAL FREE ENERGY PREDICTED BY IDOCK:   -5.36 KCAL/MOL
REMARK 923 INTER-LIGAND FREE ENERGY PREDICTED BY IDOCK:   -5.29 KCAL/MOL
REMARK 924 INTRA-LIGAND FREE ENERGY PREDICTED BY IDOCK:   -0.07 KCAL/MOL
REMARK 927      BINDING AFFINITY PREDICTED BY RF-SCORE:    0.00 PKD
ROOT
HETATM    1  N   UNL     1     -12.305   9.262  71.966  1.00  0.00    -0.371 NA 
HETATM    2  H1  UNL     1     -12.657   9.437  72.908  1.00  0.00     0.000 HD 
HETATM    3  C   UNL     1     -12.126  10.349  71.168  1.00  0.00    -0.386 C  
HETATM    4  H2  UNL     1     -12.097   8.318  71.640  1.00  0.00     0.000 HD 
HETATM    5  N   UNL     1     -11.677  10.126  69.971  1.00  0.00    -0.379 N  
HETATM    6  C   UNL     1     -11.540  11.165  69.082  1.00  0.00    -0.324 C  
HETATM    7  H   UNL     1     -11.425   9.178  69.689  1.00  0.00     0.000 HD 
HETATM    8  N   UNL     1     -11.959  12.435  69.487  1.00  0.00    -0.288 N  
HETATM    9  O   UNL     1     -11.090  10.984  67.952  1.00  0.00    -0.243 OA 
HETATM   10  C   UNL     1     -12.453  11.696  71.669  1.00  0.00    -0.154 C  
HETATM   11  C   UNL     1     -12.372  12.685  70.772  1.00  0.00    -0.283 C  
ENDROOT
BRANCH   8  12
HETATM   12  C   UNL     1     -12.136  13.455  68.465  1.00  0.00    -0.248 C  
BRANCH  12  13
HETATM   13  C   UNL     1     -11.102  14.601  68.450  1.00  0.00    -0.257 C  
BRANCH  13  14
HETATM   14  O   UNL     1      -9.805  14.111  67.976  1.00  0.00    -0.212 OA 
BRANCH  14  15
HETATM   15  C   UNL     1      -9.894  13.764  66.582  1.00  0.00    -0.284 C  
HETATM   16  P   UNL     1     -10.445  15.161  65.535  1.00  0.00    -0.435 P  
HETATM   17  O   UNL     1      -9.074  15.927  66.042  1.00  0.00    -0.335 OA 
HETATM   18  O   UNL     1      -9.837  14.286  64.279  1.00  0.00     0.287 OA 
HETATM   19  O   UNL     1     -10.910  16.341  64.648  1.00  0.00    -0.687 OA 
ENDBRANCH  14  15
ENDBRANCH  13  14
BRANCH  13  20
HETATM   20  C   UNL     1     -10.910  15.202  69.852  1.00  0.00    -0.270 C  
HETATM   21  O   UNL     1      -9.577  14.967  70.311  1.00  0.00    -0.422 OA 
HETATM   22  H   UNL     1      -9.458  15.338  71.177  1.00  0.00     0.000 HD 
ENDBRANCH  13  20
ENDBRANCH  12  13
ENDBRANCH   8  12
TORSDOF 5
ENDMDL
MODEL      191
REMARK 921   NORMALIZED FREE ENERGY PREDICTED BY IDOCK:   -3.42 KCAL/MOL
REMARK 922        TOTAL FREE ENERGY PREDICTED BY IDOCK:   -5.35 KCAL/MOL
REMARK 923 INTER-LIGAND FREE ENERGY PREDICTED BY IDOCK:   -4.96 KCAL/MOL
REMARK 924 INTRA-LIGAND FREE ENERGY PREDICTED BY IDOCK:   -0.39 KCAL/MOL
REMARK 927      BINDING AFFINITY PREDICTED BY RF-SCORE:    0.00 PKD
ROOT
HETATM    1  N   UNL     1      -7.384   9.862  65.270  1.00  0.00    -0.124 NA 
HETATM    2  H1  UNL     1      -6.447   9.702  65.640  1.00  0.00     0.000 HD 
HETATM    3  C   UNL     1      -8.153  10.775  65.925  1.00  0.00    -0.148 C  
HETATM    4  H2  UNL     1      -7.728   9.363  64.450  1.00  0.00     0.000 HD 
HETATM    5  N   UNL     1      -9.344  10.979  65.453  1.00  0.00    -0.210 N  
HETATM    6  C   UNL     1     -10.204  11.831  66.103  1.00  0.00    -0.220 C  
HETATM    7  H   UNL     1      -9.643  10.507  64.600  1.00  0.00     0.000 HD 
HETATM    8  N   UNL     1      -9.779  12.405  67.304  1.00  0.00    -0.198 N  
HETATM    9  O   UNL     1     -11.328  12.064  65.660  1.00  0.00    -0.333 OA 
HETATM   10  C   UNL     1      -7.627  11.465  67.116  1.00  0.00    -0.145 C  
HETATM   11  C   UNL     1      -8.498  12.242  67.768  1.00  0.00    -0.163 C  
ENDROOT
BRANCH   8  12
HETATM   12  C   UNL     1     -10.780  13.024  68.159  1.00  0.00    -0.242 C  
BRANCH  12  13
HETATM   13  C   UNL     1     -11.076  14.517  67.903  1.00  0.00    -0.279 C  
BRANCH  13  14
HETATM   14  O   UNL     1      -9.947  15.150  67.217  1.00  0.00    -0.228 OA 
BRANCH  14  15
HETATM   15  C   UNL     1      -9.589  16.373  67.887  1.00  0.00    -0.228 C  
HETATM   16  P   UNL     1      -8.747  17.567  66.785  1.00  0.00    -0.276 P  
HETATM   17  O   UNL     1     -10.145  17.562  65.908  1.00  0.00    -0.505 OA 
HETATM   18  O   UNL     1      -9.129  18.689  67.929  1.00  0.00    -0.284 OA 
HETATM   19  O   UNL     1      -8.036  18.578  65.855  1.00  0.00    -0.488 OA 
ENDBRANCH  14  15
ENDBRANCH  13  14
BRANCH  13  20
HETATM   20  C   UNL     1     -11.328  15.272  69.219  1.00  0.00    -0.298 C  
HETATM   21  O   UNL     1     -12.689  15.115  69.624  1.00  0.00    -0.594 OA 
HETATM   22  H   UNL     1     -12.845  15.582  70.437  1.00  0.00     0.000 HD 
ENDBRANCH  13  20
ENDBRANCH  12  13
ENDBRANCH   8  12
TORSDOF 5
ENDMDL
MODEL      192
REMARK 921   NORMALIZED FREE ENERGY PREDICTED BY IDOCK:   -3.42 KCAL/MOL
REMARK 922        TOTAL FREE ENERGY PREDICTED BY IDOCK:   -5.35 KCAL/MOL
REMARK 923 INTER-LIGAND FREE ENERGY PREDICTED BY IDOCK:   -5.18 KCAL/MOL
REMARK 924 INTRA-LIGAND FREE ENERGY PREDICTED BY IDOCK:   -0.18 KCAL/MOL
REMARK 927      BINDING AFFINITY PREDICTED BY RF-SCORE:    0.00 PKD
ROOT
HETATM    1  N   UNL     1     -10.886   8.976  68.912  1.00  0.00    -0.415 NA 
HETATM    2  H1  UNL     1     -11.276   8.634  69.791  1.00  0.00     0.000 HD 
HETATM    3  C   UNL     1     -11.097  10.288  68.618  1.00  0.00    -0.239 C  
HETATM    4  H2  UNL     1     -10.364   8.364  68.284  1.00  0.00     0.000 HD 
HETATM    5  N   UNL     1     -10.601  10.722  67.500  1.00  0.00    -0.220 N  
HETATM    6  C   UNL     1     -10.835  12.015  67.100  1.00  0.00    -0.253 C  
HETATM    7  H   UNL     1     -10.037  10.103  66.918  1.00  0.00     0.000 HD 
HETATM    8  N   UNL     1     -11.668  12.808  67.894  1.00  0.00    -0.348 N  
HETATM    9  O   UNL     1     -10.353  12.459  66.059  1.00  0.00    -0.241 OA 
HETATM   10  C   UNL     1     -11.870  11.137  69.542  1.00  0.00    -0.423 C  
HETATM   11  C   UNL     1     -12.139  12.373  69.107  1.00  0.00    -0.146 C  
ENDROOT
BRANCH   8  12
HETATM   12  C   UNL     1     -12.190  14.039  67.321  1.00  0.00    -0.290 C  
BRANCH  12  13
HETATM   13  C   UNL     1     -11.499  15.349  67.757  1.00  0.00    -0.278 C  
BRANCH  13  14
HETATM   14  O   UNL     1     -10.092  15.343  67.349  1.00  0.00    -0.230 OA 
BRANCH  14  15
HETATM   15  C   UNL     1      -9.370  16.361  68.066  1.00  0.00    -0.216 C  
HETATM   16  P   UNL     1      -7.613  16.474  67.563  1.00  0.00    -0.171 P  
HETATM   17  O   UNL     1      -8.190  16.863  66.067  1.00  0.00    -0.447 OA 
HETATM   18  O   UNL     1      -7.642  17.958  68.277  1.00  0.00    -0.246 OA 
HETATM   19  O   UNL     1      -6.128  16.571  67.138  1.00  0.00    -0.151 OA 
ENDBRANCH  14  15
ENDBRANCH  13  14
BRANCH  13  20
HETATM   20  C   UNL     1     -11.560  15.535  69.282  1.00  0.00    -0.357 C  
HETATM   21  O   UNL     1     -12.849  16.016  69.669  1.00  0.00    -0.506 OA 
HETATM   22  H   UNL     1     -12.887  16.131  70.611  1.00  0.00     0.000 HD 
ENDBRANCH  13  20
ENDBRANCH  12  13
ENDBRANCH   8  12
TORSDOF 5
ENDMDL
MODEL      193
REMARK 921   NORMALIZED FREE ENERGY PREDICTED BY IDOCK:   -3.42 KCAL/MOL
REMARK 922        TOTAL FREE ENERGY PREDICTED BY IDOCK:   -5.35 KCAL/MOL
REMARK 923 INTER-LIGAND FREE ENERGY PREDICTED BY IDOCK:   -4.82 KCAL/MOL
REMARK 924 INTRA-LIGAND FREE ENERGY PREDICTED BY IDOCK:   -0.53 KCAL/MOL
REMARK 927      BINDING AFFINITY PREDICTED BY RF-SCORE:    0.00 PKD
ROOT
HETATM    1  N   UNL     1     -11.450   6.398  70.950  1.00  0.00    -0.338 NA 
HETATM    2  H1  UNL     1     -11.496   6.932  71.818  1.00  0.00     0.000 HD 
HETATM    3  C   UNL     1     -11.026   7.066  69.842  1.00  0.00    -0.263 C  
HETATM    4  H2  UNL     1     -11.708   5.412  70.913  1.00  0.00     0.000 HD 
HETATM    5  N   UNL     1     -10.966   6.387  68.738  1.00  0.00    -0.359 N  
HETATM    6  C   UNL     1     -10.618   7.010  67.565  1.00  0.00    -0.280 C  
HETATM    7  H   UNL     1     -11.178   5.389  68.742  1.00  0.00     0.000 HD 
HETATM    8  N   UNL     1     -10.402   8.390  67.593  1.00  0.00    -0.242 N  
HETATM    9  O   UNL     1     -10.526   6.382  66.511  1.00  0.00    -0.170 OA 
HETATM   10  C   UNL     1     -10.677   8.495  69.930  1.00  0.00    -0.224 C  
HETATM   11  C   UNL     1     -10.400   9.098  68.769  1.00  0.00    -0.214 C  
ENDROOT
BRANCH   8  12
HETATM   12  C   UNL     1     -10.369   9.103  66.325  1.00  0.00    -0.096 C  
BRANCH  12  13
HETATM   13  C   UNL     1      -9.072   9.877  66.004  1.00  0.00    -0.158 C  
BRANCH  13  14
HETATM   14  O   UNL     1      -9.307  11.321  66.088  1.00  0.00    -0.198 OA 
BRANCH  14  15
HETATM   15  C   UNL     1     -10.720  11.584  66.149  1.00  0.00    -0.274 C  
HETATM   16  P   UNL     1     -11.220  13.023  65.135  1.00  0.00    -0.319 P  
HETATM   17  O   UNL     1     -10.663  12.157  63.846  1.00  0.00    -0.331 OA 
HETATM   18  O   UNL     1     -12.744  12.412  65.256  1.00  0.00    -0.617 OA 
HETATM   19  O   UNL     1     -11.644  14.240  64.277  1.00  0.00    -0.357 OA 
ENDBRANCH  14  15
ENDBRANCH  13  14
BRANCH  13  20
HETATM   20  C   UNL     1      -8.560   9.551  64.591  1.00  0.00    -0.187 C  
HETATM   21  O   UNL     1      -8.219   8.167  64.498  1.00  0.00    -0.195 OA 
HETATM   22  H   UNL     1      -7.902   7.965  63.625  1.00  0.00     0.000 HD 
ENDBRANCH  13  20
ENDBRANCH  12  13
ENDBRANCH   8  12
TORSDOF 5
ENDMDL
MODEL      194
REMARK 921   NORMALIZED FREE ENERGY PREDICTED BY IDOCK:   -3.39 KCAL/MOL
REMARK 922        TOTAL FREE ENERGY PREDICTED BY IDOCK:   -5.32 KCAL/MOL
REMARK 923 INTER-LIGAND FREE ENERGY PREDICTED BY IDOCK:   -4.76 KCAL/MOL
REMARK 924 INTRA-LIGAND FREE ENERGY PREDICTED BY IDOCK:   -0.56 KCAL/MOL
REMARK 927      BINDING AFFINITY PREDICTED BY RF-SCORE:    0.00 PKD
ROOT
HETATM    1  N   UNL     1     -13.423  11.273  72.136  1.00  0.00    -0.528 NA 
HETATM    2  H1  UNL     1     -12.847  12.106  72.012  1.00  0.00     0.000 HD 
HETATM    3  C   UNL     1     -12.869  10.086  71.768  1.00  0.00    -0.446 C  
HETATM    4  H2  UNL     1     -14.367  11.327  72.518  1.00  0.00     0.000 HD 
HETATM    5  N   UNL     1     -13.602   9.026  71.927  1.00  0.00    -0.404 N  
HETATM    6  C   UNL     1     -13.140   7.802  71.510  1.00  0.00    -0.320 C  
HETATM    7  H   UNL     1     -14.521   9.103  72.362  1.00  0.00     0.000 HD 
HETATM    8  N   UNL     1     -11.904   7.752  70.859  1.00  0.00    -0.273 N  
HETATM    9  O   UNL     1     -13.802   6.779  71.676  1.00  0.00    -0.232 OA 
HETATM   10  C   UNL     1     -11.508  10.049  71.204  1.00  0.00    -0.432 C  
HETATM   11  C   UNL     1     -11.100   8.859  70.749  1.00  0.00    -0.261 C  
ENDROOT
BRANCH   8  12
HETATM   12  C   UNL     1     -11.565   6.543  70.125  1.00  0.00    -0.402 C  
BRANCH  12  13
HETATM   13  C   UNL     1     -10.419   5.685  70.701  1.00  0.00    -0.270 C  
BRANCH  13  14
HETATM   14  O   UNL     1     -10.216   5.993  72.119  1.00  0.00    -0.187 OA 
BRANCH  14  15
HETATM   15  C   UNL     1     -10.884   5.012  72.933  1.00  0.00    -0.261 C  
HETATM   16  P   UNL     1     -10.285   3.309  72.629  1.00  0.00    -0.095 P  
HETATM   17  O   UNL     1      -8.819   3.858  73.150  1.00  0.00    -0.096 OA 
HETATM   18  O   UNL     1     -10.987   2.946  74.074  1.00  0.00    -0.191 OA 
HETATM   19  O   UNL     1      -9.780   1.869  72.373  1.00  0.00    -0.090 OA 
ENDBRANCH  14  15
ENDBRANCH  13  14
BRANCH  13  20
HETATM   20  C   UNL     1      -9.099   5.940  69.956  1.00  0.00    -0.144 C  
HETATM   21  O   UNL     1      -9.355   6.578  68.703  1.00  0.00    -0.127 OA 
HETATM   22  H   UNL     1      -8.539   6.736  68.243  1.00  0.00     0.000 HD 
ENDBRANCH  13  20
ENDBRANCH  12  13
ENDBRANCH   8  12
TORSDOF 5
ENDMDL
MODEL      195
REMARK 921   NORMALIZED FREE ENERGY PREDICTED BY IDOCK:   -3.37 KCAL/MOL
REMARK 922        TOTAL FREE ENERGY PREDICTED BY IDOCK:   -5.29 KCAL/MOL
REMARK 923 INTER-LIGAND FREE ENERGY PREDICTED BY IDOCK:   -5.21 KCAL/MOL
REMARK 924 INTRA-LIGAND FREE ENERGY PREDICTED BY IDOCK:   -0.09 KCAL/MOL
REMARK 927      BINDING AFFINITY PREDICTED BY RF-SCORE:    0.00 PKD
ROOT
HETATM    1  N   UNL     1     -13.115  10.506  70.505  1.00  0.00    -0.418 NA 
HETATM    2  H1  UNL     1     -13.356  11.424  70.880  1.00  0.00     0.000 HD 
HETATM    3  C   UNL     1     -11.951  10.416  69.806  1.00  0.00    -0.171 C  
HETATM    4  H2  UNL     1     -13.718   9.695  70.648  1.00  0.00     0.000 HD 
HETATM    5  N   UNL     1     -11.645   9.248  69.331  1.00  0.00    -0.303 N  
HETATM    6  C   UNL     1     -10.524   9.095  68.552  1.00  0.00    -0.204 C  
HETATM    7  H   UNL     1     -12.238   8.443  69.535  1.00  0.00     0.000 HD 
HETATM    8  N   UNL     1      -9.778  10.235  68.242  1.00  0.00    -0.140 N  
HETATM    9  O   UNL     1     -10.196   7.993  68.114  1.00  0.00    -0.194 OA 
HETATM   10  C   UNL     1     -11.115  11.613  69.607  1.00  0.00    -0.177 C  
HETATM   11  C   UNL     1     -10.062  11.457  68.798  1.00  0.00    -0.188 C  
ENDROOT
BRANCH   8  12
HETATM   12  C   UNL     1      -8.806  10.144  67.164  1.00  0.00    -0.132 C  
BRANCH  12  13
HETATM   13  C   UNL     1      -9.170  10.861  65.846  1.00  0.00    -0.191 C  
BRANCH  13  14
HETATM   14  O   UNL     1     -10.400  11.638  66.012  1.00  0.00    -0.227 OA 
BRANCH  14  15
HETATM   15  C   UNL     1     -10.202  12.977  65.524  1.00  0.00    -0.285 C  
HETATM   16  P   UNL     1     -11.549  13.537  64.417  1.00  0.00    -0.395 P  
HETATM   17  O   UNL     1     -12.541  13.342  65.720  1.00  0.00    -0.438 OA 
HETATM   18  O   UNL     1     -10.981  15.054  64.712  1.00  0.00    -0.392 OA 
HETATM   19  O   UNL     1     -12.687  14.011  63.481  1.00  0.00    -0.805 OA 
ENDBRANCH  14  15
ENDBRANCH  13  14
BRANCH  13  20
HETATM   20  C   UNL     1      -9.382   9.856  64.702  1.00  0.00    -0.277 C  
HETATM   21  O   UNL     1      -8.778   8.602  65.028  1.00  0.00    -0.269 OA 
HETATM   22  H   UNL     1      -8.909   7.981  64.321  1.00  0.00     0.000 HD 
ENDBRANCH  13  20
ENDBRANCH  12  13
ENDBRANCH   8  12
TORSDOF 5
ENDMDL
MODEL      196
REMARK 921   NORMALIZED FREE ENERGY PREDICTED BY IDOCK:   -3.37 KCAL/MOL
REMARK 922        TOTAL FREE ENERGY PREDICTED BY IDOCK:   -5.29 KCAL/MOL
REMARK 923 INTER-LIGAND FREE ENERGY PREDICTED BY IDOCK:   -4.80 KCAL/MOL
REMARK 924 INTRA-LIGAND FREE ENERGY PREDICTED BY IDOCK:   -0.49 KCAL/MOL
REMARK 927      BINDING AFFINITY PREDICTED BY RF-SCORE:    0.00 PKD
ROOT
HETATM    1  N   UNL     1     -10.806  17.611  67.820  1.00  0.00    -0.319 NA 
HETATM    2  H1  UNL     1     -10.231  17.899  67.028  1.00  0.00     0.000 HD 
HETATM    3  C   UNL     1     -10.898  16.273  68.054  1.00  0.00    -0.339 C  
HETATM    4  H2  UNL     1     -11.288  18.291  68.407  1.00  0.00     0.000 HD 
HETATM    5  N   UNL     1     -11.629  15.907  69.062  1.00  0.00    -0.390 N  
HETATM    6  C   UNL     1     -11.830  14.572  69.317  1.00  0.00    -0.323 C  
HETATM    7  H   UNL     1     -12.056  16.610  69.665  1.00  0.00     0.000 HD 
HETATM    8  N   UNL     1     -11.283  13.643  68.427  1.00  0.00    -0.261 N  
HETATM    9  O   UNL     1     -12.495  14.199  70.282  1.00  0.00    -0.342 OA 
HETATM   10  C   UNL     1     -10.200  15.319  67.174  1.00  0.00    -0.252 C  
HETATM   11  C   UNL     1     -10.456  14.026  67.401  1.00  0.00    -0.263 C  
ENDROOT
BRANCH   8  12
HETATM   12  C   UNL     1     -11.762  12.271  68.490  1.00  0.00    -0.331 C  
BRANCH  12  13
HETATM   13  C   UNL     1     -10.905  11.278  69.304  1.00  0.00    -0.212 C  
BRANCH  13  14
HETATM   14  O   UNL     1     -10.004  10.538  68.418  1.00  0.00    -0.155 OA 
BRANCH  14  15
HETATM   15  C   UNL     1     -10.748   9.561  67.668  1.00  0.00    -0.250 C  
HETATM   16  P   UNL     1      -9.716   8.155  67.111  1.00  0.00    -0.246 P  
HETATM   17  O   UNL     1      -9.470   7.856  68.714  1.00  0.00    -0.147 OA 
HETATM   18  O   UNL     1     -11.145   7.368  66.887  1.00  0.00    -0.236 OA 
HETATM   19  O   UNL     1      -8.845   6.966  66.640  1.00  0.00    -0.124 OA 
ENDBRANCH  14  15
ENDBRANCH  13  14
BRANCH  13  20
HETATM   20  C   UNL     1     -11.784  10.266  70.057  1.00  0.00    -0.254 C  
HETATM   21  O   UNL     1     -11.169   9.905  71.295  1.00  0.00    -0.361 OA 
HETATM   22  H   UNL     1     -11.712   9.279  71.761  1.00  0.00     0.000 HD 
ENDBRANCH  13  20
ENDBRANCH  12  13
ENDBRANCH   8  12
TORSDOF 5
ENDMDL
MODEL      197
REMARK 921   NORMALIZED FREE ENERGY PREDICTED BY IDOCK:   -3.37 KCAL/MOL
REMARK 922        TOTAL FREE ENERGY PREDICTED BY IDOCK:   -5.29 KCAL/MOL
REMARK 923 INTER-LIGAND FREE ENERGY PREDICTED BY IDOCK:   -5.10 KCAL/MOL
REMARK 924 INTRA-LIGAND FREE ENERGY PREDICTED BY IDOCK:   -0.19 KCAL/MOL
REMARK 927      BINDING AFFINITY PREDICTED BY RF-SCORE:    0.00 PKD
ROOT
HETATM    1  N   UNL     1     -12.659  13.883  63.177  1.00  0.00    -0.976 NA 
HETATM    2  H1  UNL     1     -12.709  14.839  62.824  1.00  0.00     0.000 HD 
HETATM    3  C   UNL     1     -11.795  13.655  64.204  1.00  0.00    -0.422 C  
HETATM    4  H2  UNL     1     -13.228  13.135  62.780  1.00  0.00     0.000 HD 
HETATM    5  N   UNL     1     -11.732  12.439  64.653  1.00  0.00    -0.350 N  
HETATM    6  C   UNL     1     -10.831  12.115  65.638  1.00  0.00    -0.284 C  
HETATM    7  H   UNL     1     -12.352  11.722  64.275  1.00  0.00     0.000 HD 
HETATM    8  N   UNL     1      -9.956  13.110  66.081  1.00  0.00    -0.287 N  
HETATM    9  O   UNL     1     -10.772  10.977  66.101  1.00  0.00    -0.253 OA 
HETATM   10  C   UNL     1     -10.978  14.757  64.741  1.00  0.00    -0.393 C  
HETATM   11  C   UNL     1     -10.065  14.410  65.655  1.00  0.00    -0.353 C  
ENDROOT
BRANCH   8  12
HETATM   12  C   UNL     1      -8.796  12.705  66.860  1.00  0.00    -0.201 C  
BRANCH  12  13
HETATM   13  C   UNL     1      -8.553  13.466  68.181  1.00  0.00    -0.174 C  
BRANCH  13  14
HETATM   14  O   UNL     1      -9.722  14.279  68.523  1.00  0.00    -0.219 OA 
BRANCH  14  15
HETATM   15  C   UNL     1     -10.442  13.667  69.609  1.00  0.00     0.480 C  
HETATM   16  P   UNL     1     -11.963  14.583  70.058  1.00  0.00    -0.366 P  
HETATM   17  O   UNL     1     -12.473  14.250  68.525  1.00  0.00    -0.118 OA 
HETATM   18  O   UNL     1     -12.414  13.194  70.820  1.00  0.00    -0.349 OA 
HETATM   19  O   UNL     1     -13.249  15.355  70.439  1.00  0.00    -0.292 OA 
ENDBRANCH  14  15
ENDBRANCH  13  14
BRANCH  13  20
HETATM   20  C   UNL     1      -7.331  14.394  68.077  1.00  0.00    -0.143 C  
HETATM   21  O   UNL     1      -6.398  13.875  67.127  1.00  0.00    -0.405 OA 
HETATM   22  H   UNL     1      -5.643  14.448  67.063  1.00  0.00     0.000 HD 
ENDBRANCH  13  20
ENDBRANCH  12  13
ENDBRANCH   8  12
TORSDOF 5
ENDMDL
MODEL      198
REMARK 921   NORMALIZED FREE ENERGY PREDICTED BY IDOCK:   -3.36 KCAL/MOL
REMARK 922        TOTAL FREE ENERGY PREDICTED BY IDOCK:   -5.28 KCAL/MOL
REMARK 923 INTER-LIGAND FREE ENERGY PREDICTED BY IDOCK:   -4.77 KCAL/MOL
REMARK 924 INTRA-LIGAND FREE ENERGY PREDICTED BY IDOCK:   -0.51 KCAL/MOL
REMARK 927      BINDING AFFINITY PREDICTED BY RF-SCORE:    0.00 PKD
ROOT
HETATM    1  N   UNL     1     -12.279  13.054  65.837  1.00  0.00    -0.451 NA 
HETATM    2  H1  UNL     1     -12.190  13.328  64.858  1.00  0.00     0.000 HD 
HETATM    3  C   UNL     1     -11.492  12.027  66.258  1.00  0.00    -0.345 C  
HETATM    4  H2  UNL     1     -12.925  13.527  66.468  1.00  0.00     0.000 HD 
HETATM    5  N   UNL     1     -11.604  11.679  67.503  1.00  0.00    -0.299 N  
HETATM    6  C   UNL     1     -10.897  10.603  67.983  1.00  0.00    -0.261 C  
HETATM    7  H   UNL     1     -12.218  12.204  68.126  1.00  0.00     0.000 HD 
HETATM    8  N   UNL     1     -10.121   9.871  67.080  1.00  0.00    -0.203 N  
HETATM    9  O   UNL     1     -10.964  10.272  69.166  1.00  0.00    -0.216 OA 
HETATM   10  C   UNL     1     -10.582  11.357  65.311  1.00  0.00    -0.336 C  
HETATM   11  C   UNL     1      -9.949  10.276  65.781  1.00  0.00    -0.271 C  
ENDROOT
BRANCH   8  12
HETATM   12  C   UNL     1      -9.649   8.558  67.492  1.00  0.00    -0.154 C  
BRANCH  12  13
HETATM   13  C   UNL     1     -10.462   7.345  66.991  1.00  0.00    -0.333 C  
BRANCH  13  14
HETATM   14  O   UNL     1     -11.374   6.877  68.036  1.00  0.00    -0.062 OA 
BRANCH  14  15
HETATM   15  C   UNL     1     -10.638   6.155  69.041  1.00  0.00    -0.279 C  
HETATM   16  P   UNL     1     -10.743   6.933  70.695  1.00  0.00    -0.259 P  
HETATM   17  O   UNL     1     -12.366   6.652  70.593  1.00  0.00    -0.340 OA 
HETATM   18  O   UNL     1     -10.234   5.474  71.266  1.00  0.00    -0.204 OA 
HETATM   19  O   UNL     1     -10.831   7.589  72.094  1.00  0.00    -0.221 OA 
ENDBRANCH  14  15
ENDBRANCH  13  14
BRANCH  13  20
HETATM   20  C   UNL     1      -9.542   6.180  66.592  1.00  0.00    -0.152 C  
HETATM   21  O   UNL     1     -10.124   5.437  65.519  1.00  0.00    -0.384 OA 
HETATM   22  H   UNL     1      -9.555   4.717  65.272  1.00  0.00     0.000 HD 
ENDBRANCH  13  20
ENDBRANCH  12  13
ENDBRANCH   8  12
TORSDOF 5
ENDMDL
MODEL      199
REMARK 921   NORMALIZED FREE ENERGY PREDICTED BY IDOCK:   -3.35 KCAL/MOL
REMARK 922        TOTAL FREE ENERGY PREDICTED BY IDOCK:   -5.27 KCAL/MOL
REMARK 923 INTER-LIGAND FREE ENERGY PREDICTED BY IDOCK:   -4.76 KCAL/MOL
REMARK 924 INTRA-LIGAND FREE ENERGY PREDICTED BY IDOCK:   -0.51 KCAL/MOL
REMARK 927      BINDING AFFINITY PREDICTED BY RF-SCORE:    0.00 PKD
ROOT
HETATM    1  N   UNL     1     -13.321  15.737  70.705  1.00  0.00    -0.751 NA 
HETATM    2  H1  UNL     1     -13.097  16.243  71.563  1.00  0.00     0.000 HD 
HETATM    3  C   UNL     1     -12.270  15.279  69.972  1.00  0.00    -0.349 C  
HETATM    4  H2  UNL     1     -14.286  15.582  70.412  1.00  0.00     0.000 HD 
HETATM    5  N   UNL     1     -12.556  14.635  68.882  1.00  0.00    -0.455 N  
HETATM    6  C   UNL     1     -11.549  14.207  68.052  1.00  0.00    -0.334 C  
HETATM    7  H   UNL     1     -13.530  14.447  68.641  1.00  0.00     0.000 HD 
HETATM    8  N   UNL     1     -10.235  14.544  68.385  1.00  0.00    -0.233 N  
HETATM    9  O   UNL     1     -11.793  13.570  67.028  1.00  0.00    -0.365 OA 
HETATM   10  C   UNL     1     -10.890  15.537  70.418  1.00  0.00    -0.356 C  
HETATM   11  C   UNL     1      -9.926  15.166  69.569  1.00  0.00    -0.201 C  
ENDROOT
BRANCH   8  12
HETATM   12  C   UNL     1      -9.210  14.397  67.363  1.00  0.00    -0.198 C  
BRANCH  12  13
HETATM   13  C   UNL     1      -8.318  13.141  67.457  1.00  0.00    -0.185 C  
BRANCH  13  14
HETATM   14  O   UNL     1      -9.071  12.023  68.030  1.00  0.00    -0.175 OA 
BRANCH  14  15
HETATM   15  C   UNL     1      -9.208  10.974  67.054  1.00  0.00    -0.153 C  
HETATM   16  P   UNL     1      -8.493   9.384  67.614  1.00  0.00    -0.118 P  
HETATM   17  O   UNL     1      -9.610   9.445  68.827  1.00  0.00    -0.150 OA 
HETATM   18  O   UNL     1      -9.402   8.707  66.420  1.00  0.00    -0.178 OA 
HETATM   19  O   UNL     1      -7.889   8.040  68.086  1.00  0.00    -0.121 OA 
ENDBRANCH  14  15
ENDBRANCH  13  14
BRANCH  13  20
HETATM   20  C   UNL     1      -7.083  13.395  68.337  1.00  0.00    -0.108 C  
HETATM   21  O   UNL     1      -7.109  12.540  69.482  1.00  0.00    -0.325 OA 
HETATM   22  H   UNL     1      -6.346  12.697  70.026  1.00  0.00     0.000 HD 
ENDBRANCH  13  20
ENDBRANCH  12  13
ENDBRANCH   8  12
TORSDOF 5
ENDMDL
MODEL      200
REMARK 921   NORMALIZED FREE ENERGY PREDICTED BY IDOCK:   -3.34 KCAL/MOL
REMARK 922        TOTAL FREE ENERGY PREDICTED BY IDOCK:   -5.26 KCAL/MOL
REMARK 923 INTER-LIGAND FREE ENERGY PREDICTED BY IDOCK:   -5.05 KCAL/MOL
REMARK 924 INTRA-LIGAND FREE ENERGY PREDICTED BY IDOCK:   -0.21 KCAL/MOL
REMARK 927      BINDING AFFINITY PREDICTED BY RF-SCORE:    0.00 PKD
ROOT
HETATM    1  N   UNL     1     -12.720  10.390  71.355  1.00  0.00    -0.407 NA 
HETATM    2  H1  UNL     1     -12.905  10.903  72.217  1.00  0.00     0.000 HD 
HETATM    3  C   UNL     1     -12.321  11.123  70.280  1.00  0.00    -0.315 C  
HETATM    4  H2  UNL     1     -12.828   9.377  71.301  1.00  0.00     0.000 HD 
HETATM    5  N   UNL     1     -12.085  10.470  69.183  1.00  0.00    -0.538 N  
HETATM    6  C   UNL     1     -11.750  11.148  68.037  1.00  0.00    -0.212 C  
HETATM    7  H   UNL     1     -12.148   9.451  69.173  1.00  0.00     0.000 HD 
HETATM    8  N   UNL     1     -11.741  12.545  68.079  1.00  0.00    -0.346 N  
HETATM    9  O   UNL     1     -11.493  10.551  66.993  1.00  0.00    -0.250 OA 
HETATM   10  C   UNL     1     -12.192  12.587  70.390  1.00  0.00    -0.368 C  
HETATM   11  C   UNL     1     -11.925  13.234  69.251  1.00  0.00    -0.303 C  
ENDROOT
BRANCH   8  12
HETATM   12  C   UNL     1     -11.723  13.267  66.816  1.00  0.00    -0.385 C  
BRANCH  12  13
HETATM   13  C   UNL     1     -10.364  13.853  66.376  1.00  0.00    -0.289 C  
BRANCH  13  14
HETATM   14  O   UNL     1      -9.556  14.200  67.547  1.00  0.00    -0.215 OA 
BRANCH  14  15
HETATM   15  C   UNL     1      -8.158  14.069  67.233  1.00  0.00    -0.156 C  
HETATM   16  P   UNL     1      -7.318  12.793  68.242  1.00  0.00    -0.138 P  
HETATM   17  O   UNL     1      -8.359  11.723  67.539  1.00  0.00    -0.141 OA 
HETATM   18  O   UNL     1      -6.141  12.848  67.092  1.00  0.00    -0.304 OA 
HETATM   19  O   UNL     1      -6.608  11.714  69.094  1.00  0.00    -0.083 OA 
ENDBRANCH  14  15
ENDBRANCH  13  14
BRANCH  13  20
HETATM   20  C   UNL     1     -10.549  15.118  65.522  1.00  0.00    -0.366 C  
HETATM   21  O   UNL     1     -10.904  16.226  66.353  1.00  0.00    -0.236 OA 
HETATM   22  H   UNL     1     -11.018  17.008  65.825  1.00  0.00     0.000 HD 
ENDBRANCH  13  20
ENDBRANCH  12  13
ENDBRANCH   8  12
TORSDOF 5
ENDMDL
MODEL      201
REMARK 921   NORMALIZED FREE ENERGY PREDICTED BY IDOCK:   -3.34 KCAL/MOL
REMARK 922        TOTAL FREE ENERGY PREDICTED BY IDOCK:   -5.26 KCAL/MOL
REMARK 923 INTER-LIGAND FREE ENERGY PREDICTED BY IDOCK:   -4.77 KCAL/MOL
REMARK 924 INTRA-LIGAND FREE ENERGY PREDICTED BY IDOCK:   -0.49 KCAL/MOL
REMARK 927      BINDING AFFINITY PREDICTED BY RF-SCORE:    0.00 PKD
ROOT
HETATM    1  N   UNL     1     -11.386   6.772  71.258  1.00  0.00    -0.274 NA 
HETATM    2  H1  UNL     1     -11.521   7.027  72.237  1.00  0.00     0.000 HD 
HETATM    3  C   UNL     1     -11.126   7.790  70.392  1.00  0.00    -0.251 C  
HETATM    4  H2  UNL     1     -11.444   5.804  70.944  1.00  0.00     0.000 HD 
HETATM    5  N   UNL     1     -10.953   7.466  69.147  1.00  0.00    -0.420 N  
HETATM    6  C   UNL     1     -10.760   8.444  68.203  1.00  0.00    -0.034 C  
HETATM    7  H   UNL     1     -10.962   6.484  68.870  1.00  0.00     0.000 HD 
HETATM    8  N   UNL     1     -10.822   9.778  68.615  1.00  0.00    -0.213 N  
HETATM    9  O   UNL     1     -10.565   8.162  67.021  1.00  0.00    -0.329 OA 
HETATM   10  C   UNL     1     -11.067   9.179  70.880  1.00  0.00    -0.356 C  
HETATM   11  C   UNL     1     -10.938  10.120  69.939  1.00  0.00    -0.293 C  
ENDROOT
BRANCH   8  12
HETATM   12  C   UNL     1     -10.957  10.804  67.594  1.00  0.00    -0.306 C  
BRANCH  12  13
HETATM   13  C   UNL     1      -9.665  11.546  67.187  1.00  0.00    -0.183 C  
BRANCH  13  14
HETATM   14  O   UNL     1      -9.435  12.690  68.072  1.00  0.00    -0.197 OA 
BRANCH  14  15
HETATM   15  C   UNL     1     -10.648  13.451  68.215  1.00  0.00    -0.254 C  
HETATM   16  P   UNL     1     -10.344  15.189  68.702  1.00  0.00    -0.247 P  
HETATM   17  O   UNL     1      -9.527  15.322  67.275  1.00  0.00    -0.203 OA 
HETATM   18  O   UNL     1     -11.882  15.465  68.180  1.00  0.00    -0.320 OA 
HETATM   19  O   UNL     1     -10.089  16.659  69.114  1.00  0.00    -0.268 OA 
ENDBRANCH  14  15
ENDBRANCH  13  14
BRANCH  13  20
HETATM   20  C   UNL     1      -9.746  12.060  65.741  1.00  0.00    -0.235 C  
HETATM   21  O   UNL     1      -8.794  11.379  64.921  1.00  0.00    -0.388 OA 
HETATM   22  H   UNL     1      -8.843  11.697  64.027  1.00  0.00     0.000 HD 
ENDBRANCH  13  20
ENDBRANCH  12  13
ENDBRANCH   8  12
TORSDOF 5
ENDMDL
MODEL      202
REMARK 921   NORMALIZED FREE ENERGY PREDICTED BY IDOCK:   -3.34 KCAL/MOL
REMARK 922        TOTAL FREE ENERGY PREDICTED BY IDOCK:   -5.26 KCAL/MOL
REMARK 923 INTER-LIGAND FREE ENERGY PREDICTED BY IDOCK:   -4.92 KCAL/MOL
REMARK 924 INTRA-LIGAND FREE ENERGY PREDICTED BY IDOCK:   -0.34 KCAL/MOL
REMARK 927      BINDING AFFINITY PREDICTED BY RF-SCORE:    0.00 PKD
ROOT
HETATM    1  N   UNL     1      -9.795   9.116  66.914  1.00  0.00    -0.198 NA 
HETATM    2  H1  UNL     1     -10.725   8.735  66.734  1.00  0.00     0.000 HD 
HETATM    3  C   UNL     1      -9.706  10.466  67.061  1.00  0.00    -0.178 C  
HETATM    4  H2  UNL     1      -8.974   8.514  66.981  1.00  0.00     0.000 HD 
HETATM    5  N   UNL     1      -8.523  10.950  67.291  1.00  0.00    -0.124 N  
HETATM    6  C   UNL     1      -8.342  12.308  67.378  1.00  0.00    -0.177 C  
HETATM    7  H   UNL     1      -7.729  10.321  67.408  1.00  0.00     0.000 HD 
HETATM    8  N   UNL     1      -9.444  13.135  67.145  1.00  0.00    -0.230 N  
HETATM    9  O   UNL     1      -7.237  12.791  67.624  1.00  0.00    -0.114 OA 
HETATM   10  C   UNL     1     -10.912  11.304  66.941  1.00  0.00    -0.348 C  
HETATM   11  C   UNL     1     -10.705  12.625  66.968  1.00  0.00    -0.245 C  
ENDROOT
BRANCH   8  12
HETATM   12  C   UNL     1      -9.200  14.548  66.901  1.00  0.00    -0.250 C  
BRANCH  12  13
HETATM   13  C   UNL     1      -8.742  15.388  68.113  1.00  0.00    -0.161 C  
BRANCH  13  14
HETATM   14  O   UNL     1      -9.554  16.601  68.228  1.00  0.00    -0.222 OA 
BRANCH  14  15
HETATM   15  C   UNL     1     -10.340  16.779  67.035  1.00  0.00    -0.300 C  
HETATM   16  P   UNL     1     -10.220  18.472  66.350  1.00  0.00    -0.406 P  
HETATM   17  O   UNL     1      -8.613  18.154  66.161  1.00  0.00    -0.456 OA 
HETATM   18  O   UNL     1     -10.810  17.810  64.963  1.00  0.00    -0.774 OA 
HETATM   19  O   UNL     1     -10.120  19.904  65.770  1.00  0.00    -0.431 OA 
ENDBRANCH  14  15
ENDBRANCH  13  14
BRANCH  13  20
HETATM   20  C   UNL     1      -7.267  15.803  67.982  1.00  0.00    -0.130 C  
HETATM   21  O   UNL     1      -6.867  15.776  66.610  1.00  0.00    -0.174 OA 
HETATM   22  H   UNL     1      -5.956  16.032  66.529  1.00  0.00     0.000 HD 
ENDBRANCH  13  20
ENDBRANCH  12  13
ENDBRANCH   8  12
TORSDOF 5
ENDMDL
MODEL      203
REMARK 921   NORMALIZED FREE ENERGY PREDICTED BY IDOCK:   -3.34 KCAL/MOL
REMARK 922        TOTAL FREE ENERGY PREDICTED BY IDOCK:   -5.26 KCAL/MOL
REMARK 923 INTER-LIGAND FREE ENERGY PREDICTED BY IDOCK:   -4.50 KCAL/MOL
REMARK 924 INTRA-LIGAND FREE ENERGY PREDICTED BY IDOCK:   -0.76 KCAL/MOL
REMARK 927      BINDING AFFINITY PREDICTED BY RF-SCORE:    0.00 PKD
ROOT
HETATM    1  N   UNL     1     -12.465  11.936  62.973  1.00  0.00    -0.828 NA 
HETATM    2  H1  UNL     1     -13.147  12.639  63.259  1.00  0.00     0.000 HD 
HETATM    3  C   UNL     1     -11.510  11.603  63.885  1.00  0.00    -0.343 C  
HETATM    4  H2  UNL     1     -12.496  11.503  62.050  1.00  0.00     0.000 HD 
HETATM    5  N   UNL     1     -10.643  10.708  63.521  1.00  0.00    -0.439 N  
HETATM    6  C   UNL     1      -9.607  10.374  64.359  1.00  0.00    -0.316 C  
HETATM    7  H   UNL     1     -10.731  10.252  62.613  1.00  0.00     0.000 HD 
HETATM    8  N   UNL     1      -9.486  11.071  65.564  1.00  0.00    -0.208 N  
HETATM    9  O   UNL     1      -8.790   9.509  64.050  1.00  0.00    -0.216 OA 
HETATM   10  C   UNL     1     -11.487  12.261  65.203  1.00  0.00    -0.390 C  
HETATM   11  C   UNL     1     -10.438  11.968  65.979  1.00  0.00    -0.249 C  
ENDROOT
BRANCH   8  12
HETATM   12  C   UNL     1      -8.229  10.970  66.289  1.00  0.00    -0.164 C  
BRANCH  12  13
HETATM   13  C   UNL     1      -8.236  10.099  67.564  1.00  0.00    -0.114 C  
BRANCH  13  14
HETATM   14  O   UNL     1      -9.386   9.192  67.554  1.00  0.00    -0.133 OA 
BRANCH  14  15
HETATM   15  C   UNL     1      -8.955   7.858  67.230  1.00  0.00    -0.127 C  
HETATM   16  P   UNL     1      -7.903   7.115  68.531  1.00  0.00    -0.125 P  
HETATM   17  O   UNL     1      -9.218   7.269  69.515  1.00  0.00    -0.149 OA 
HETATM   18  O   UNL     1      -8.253   5.678  67.807  1.00  0.00    -0.101 OA 
HETATM   19  O   UNL     1      -7.015   6.485  69.630  1.00  0.00    -0.062 OA 
ENDBRANCH  14  15
ENDBRANCH  13  14
BRANCH  13  20
HETATM   20  C   UNL     1      -8.311  10.963  68.833  1.00  0.00    -0.139 C  
HETATM   21  O   UNL     1      -9.364  10.503  69.682  1.00  0.00    -0.391 OA 
HETATM   22  H   UNL     1      -9.411  11.037  70.467  1.00  0.00     0.000 HD 
ENDBRANCH  13  20
ENDBRANCH  12  13
ENDBRANCH   8  12
TORSDOF 5
ENDMDL
MODEL      204
REMARK 921   NORMALIZED FREE ENERGY PREDICTED BY IDOCK:   -3.34 KCAL/MOL
REMARK 922        TOTAL FREE ENERGY PREDICTED BY IDOCK:   -5.25 KCAL/MOL
REMARK 923 INTER-LIGAND FREE ENERGY PREDICTED BY IDOCK:   -4.87 KCAL/MOL
REMARK 924 INTRA-LIGAND FREE ENERGY PREDICTED BY IDOCK:   -0.38 KCAL/MOL
REMARK 927      BINDING AFFINITY PREDICTED BY RF-SCORE:    0.00 PKD
ROOT
HETATM    1  N   UNL     1      -9.242   6.476  65.823  1.00  0.00    -0.371 NA 
HETATM    2  H1  UNL     1      -9.989   5.844  66.112  1.00  0.00     0.000 HD 
HETATM    3  C   UNL     1      -9.359   7.777  66.208  1.00  0.00    -0.151 C  
HETATM    4  H2  UNL     1      -8.447   6.150  65.273  1.00  0.00     0.000 HD 
HETATM    5  N   UNL     1      -8.408   8.581  65.841  1.00  0.00    -0.130 N  
HETATM    6  C   UNL     1      -8.492   9.921  66.129  1.00  0.00    -0.125 C  
HETATM    7  H   UNL     1      -7.598   8.217  65.339  1.00  0.00     0.000 HD 
HETATM    8  N   UNL     1      -9.649  10.387  66.759  1.00  0.00    -0.167 N  
HETATM    9  O   UNL     1      -7.591  10.699  65.818  1.00  0.00    -0.149 OA 
HETATM   10  C   UNL     1     -10.529   8.214  66.989  1.00  0.00    -0.396 C  
HETATM   11  C   UNL     1     -10.623   9.530  67.206  1.00  0.00    -0.248 C  
ENDROOT
BRANCH   8  12
HETATM   12  C   UNL     1      -9.897  11.820  66.763  1.00  0.00    -0.198 C  
BRANCH  12  13
HETATM   13  C   UNL     1     -10.051  12.497  65.383  1.00  0.00    -0.267 C  
BRANCH  13  14
HETATM   14  O   UNL     1     -10.048  13.954  65.528  1.00  0.00    -0.309 OA 
BRANCH  14  15
HETATM   15  C   UNL     1      -9.486  14.318  66.802  1.00  0.00    -0.275 C  
HETATM   16  P   UNL     1     -10.345  15.737  67.578  1.00  0.00    -0.290 P  
HETATM   17  O   UNL     1     -11.682  14.771  67.585  1.00  0.00    -0.349 OA 
HETATM   18  O   UNL     1      -9.623  15.240  68.972  1.00  0.00    -0.212 OA 
HETATM   19  O   UNL     1     -11.070  16.936  68.235  1.00  0.00    -0.349 OA 
ENDBRANCH  14  15
ENDBRANCH  13  14
BRANCH  13  20
HETATM   20  C   UNL     1     -11.362  12.080  64.698  1.00  0.00    -0.318 C  
HETATM   21  O   UNL     1     -11.103  11.099  63.691  1.00  0.00    -0.568 OA 
HETATM   22  H   UNL     1     -11.913  10.842  63.267  1.00  0.00     0.000 HD 
ENDBRANCH  13  20
ENDBRANCH  12  13
ENDBRANCH   8  12
TORSDOF 5
ENDMDL
MODEL      205
REMARK 921   NORMALIZED FREE ENERGY PREDICTED BY IDOCK:   -3.30 KCAL/MOL
REMARK 922        TOTAL FREE ENERGY PREDICTED BY IDOCK:   -5.20 KCAL/MOL
REMARK 923 INTER-LIGAND FREE ENERGY PREDICTED BY IDOCK:   -4.50 KCAL/MOL
REMARK 924 INTRA-LIGAND FREE ENERGY PREDICTED BY IDOCK:   -0.70 KCAL/MOL
REMARK 927      BINDING AFFINITY PREDICTED BY RF-SCORE:    0.00 PKD
ROOT
HETATM    1  N   UNL     1     -13.265  15.618  70.935  1.00  0.00    -0.671 NA 
HETATM    2  H1  UNL     1     -12.967  16.273  71.658  1.00  0.00     0.000 HD 
HETATM    3  C   UNL     1     -12.287  15.074  70.161  1.00  0.00    -0.333 C  
HETATM    4  H2  UNL     1     -14.248  15.382  70.799  1.00  0.00     0.000 HD 
HETATM    5  N   UNL     1     -12.667  14.240  69.241  1.00  0.00    -0.386 N  
HETATM    6  C   UNL     1     -11.746  13.707  68.373  1.00  0.00    -0.358 C  
HETATM    7  H   UNL     1     -13.651  13.981  69.163  1.00  0.00     0.000 HD 
HETATM    8  N   UNL     1     -10.422  14.141  68.472  1.00  0.00    -0.246 N  
HETATM    9  O   UNL     1     -12.077  12.893  67.512  1.00  0.00    -0.330 OA 
HETATM   10  C   UNL     1     -10.879  15.451  70.376  1.00  0.00    -0.333 C  
HETATM   11  C   UNL     1     -10.007  14.970  69.484  1.00  0.00    -0.142 C  
ENDROOT
BRANCH   8  12
HETATM   12  C   UNL     1      -9.522  13.851  67.367  1.00  0.00    -0.226 C  
BRANCH  12  13
HETATM   13  C   UNL     1      -8.734  12.526  67.448  1.00  0.00    -0.189 C  
BRANCH  13  14
HETATM   14  O   UNL     1      -7.295  12.793  67.515  1.00  0.00    -0.133 OA 
BRANCH  14  15
HETATM   15  C   UNL     1      -6.840  12.682  68.876  1.00  0.00    -0.097 C  
HETATM   16  P   UNL     1      -7.093  11.010  69.577  1.00  0.00    -0.016 P  
HETATM   17  O   UNL     1      -6.073  10.488  68.390  1.00  0.00    -0.047 OA 
HETATM   18  O   UNL     1      -5.996  11.467  70.718  1.00  0.00    -0.332 OA 
HETATM   19  O   UNL     1      -7.305   9.597  70.170  1.00  0.00    -0.103 OA 
ENDBRANCH  14  15
ENDBRANCH  13  14
BRANCH  13  20
HETATM   20  C   UNL     1      -9.005  11.636  66.225  1.00  0.00    -0.193 C  
HETATM   21  O   UNL     1      -7.774  11.153  65.683  1.00  0.00    -0.364 OA 
HETATM   22  H   UNL     1      -7.942  10.603  64.927  1.00  0.00     0.000 HD 
ENDBRANCH  13  20
ENDBRANCH  12  13
ENDBRANCH   8  12
TORSDOF 5
ENDMDL
MODEL      206
REMARK 921   NORMALIZED FREE ENERGY PREDICTED BY IDOCK:   -3.30 KCAL/MOL
REMARK 922        TOTAL FREE ENERGY PREDICTED BY IDOCK:   -5.20 KCAL/MOL
REMARK 923 INTER-LIGAND FREE ENERGY PREDICTED BY IDOCK:   -4.65 KCAL/MOL
REMARK 924 INTRA-LIGAND FREE ENERGY PREDICTED BY IDOCK:   -0.54 KCAL/MOL
REMARK 927      BINDING AFFINITY PREDICTED BY RF-SCORE:    0.00 PKD
ROOT
HETATM    1  N   UNL     1     -12.205  15.699  68.983  1.00  0.00    -0.594 NA 
HETATM    2  H1  UNL     1     -11.705  16.560  68.760  1.00  0.00     0.000 HD 
HETATM    3  C   UNL     1     -11.596  14.531  68.640  1.00  0.00    -0.315 C  
HETATM    4  H2  UNL     1     -13.116  15.713  69.442  1.00  0.00     0.000 HD 
HETATM    5  N   UNL     1     -12.232  13.436  68.925  1.00  0.00    -0.230 N  
HETATM    6  C   UNL     1     -11.716  12.222  68.543  1.00  0.00    -0.331 C  
HETATM    7  H   UNL     1     -13.116  13.477  69.433  1.00  0.00     0.000 HD 
HETATM    8  N   UNL     1     -10.538  12.215  67.792  1.00  0.00    -0.200 N  
HETATM    9  O   UNL     1     -12.285  11.169  68.827  1.00  0.00    -0.555 OA 
HETATM   10  C   UNL     1     -10.287  14.552  67.964  1.00  0.00    -0.229 C  
HETATM   11  C   UNL     1      -9.831  13.366  67.547  1.00  0.00    -0.227 C  
ENDROOT
BRANCH   8  12
HETATM   12  C   UNL     1     -10.172  10.987  67.104  1.00  0.00    -0.206 C  
BRANCH  12  13
HETATM   13  C   UNL     1      -8.825  10.348  67.506  1.00  0.00    -0.134 C  
BRANCH  13  14
HETATM   14  O   UNL     1      -8.663   9.048  66.851  1.00  0.00    -0.121 OA 
BRANCH  14  15
HETATM   15  C   UNL     1      -9.869   8.274  66.994  1.00  0.00    -0.232 C  
HETATM   16  P   UNL     1      -9.578   6.472  66.856  1.00  0.00    -0.167 P  
HETATM   17  O   UNL     1      -8.623   6.644  68.190  1.00  0.00    -0.116 OA 
HETATM   18  O   UNL     1     -11.051   6.314  67.575  1.00  0.00    -0.348 OA 
HETATM   19  O   UNL     1      -9.334   4.948  66.739  1.00  0.00    -0.126 OA 
ENDBRANCH  14  15
ENDBRANCH  13  14
BRANCH  13  20
HETATM   20  C   UNL     1      -8.735  10.139  69.026  1.00  0.00    -0.161 C  
HETATM   21  O   UNL     1      -7.782  11.042  69.592  1.00  0.00    -0.361 OA 
HETATM   22  H   UNL     1      -7.726  10.912  70.532  1.00  0.00     0.000 HD 
ENDBRANCH  13  20
ENDBRANCH  12  13
ENDBRANCH   8  12
TORSDOF 5
ENDMDL
MODEL      207
REMARK 921   NORMALIZED FREE ENERGY PREDICTED BY IDOCK:   -3.27 KCAL/MOL
REMARK 922        TOTAL FREE ENERGY PREDICTED BY IDOCK:   -5.17 KCAL/MOL
REMARK 923 INTER-LIGAND FREE ENERGY PREDICTED BY IDOCK:   -4.74 KCAL/MOL
REMARK 924 INTRA-LIGAND FREE ENERGY PREDICTED BY IDOCK:   -0.42 KCAL/MOL
REMARK 927      BINDING AFFINITY PREDICTED BY RF-SCORE:    0.00 PKD
ROOT
HETATM    1  N   UNL     1     -10.842  15.024  65.934  1.00  0.00    -0.328 NA 
HETATM    2  H1  UNL     1     -11.797  15.202  65.621  1.00  0.00     0.000 HD 
HETATM    3  C   UNL     1     -10.455  13.721  66.010  1.00  0.00    -0.297 C  
HETATM    4  H2  UNL     1     -10.208  15.785  66.176  1.00  0.00     0.000 HD 
HETATM    5  N   UNL     1      -9.240  13.496  66.407  1.00  0.00    -0.451 N  
HETATM    6  C   UNL     1      -8.801  12.206  66.580  1.00  0.00    -0.151 C  
HETATM    7  H   UNL     1      -8.610  14.277  66.590  1.00  0.00     0.000 HD 
HETATM    8  N   UNL     1      -9.716  11.168  66.382  1.00  0.00    -0.199 N  
HETATM    9  O   UNL     1      -7.646  11.966  66.926  1.00  0.00    -0.148 OA 
HETATM   10  C   UNL     1     -11.404  12.648  65.667  1.00  0.00    -0.357 C  
HETATM   11  C   UNL     1     -10.979  11.401  65.899  1.00  0.00    -0.207 C  
ENDROOT
BRANCH   8  12
HETATM   12  C   UNL     1      -9.370   9.847  66.881  1.00  0.00    -0.152 C  
BRANCH  12  13
HETATM   13  C   UNL     1     -10.422   9.149  67.770  1.00  0.00    -0.247 C  
BRANCH  13  14
HETATM   14  O   UNL     1     -10.208   9.495  69.177  1.00  0.00    -0.186 OA 
BRANCH  14  15
HETATM   15  C   UNL     1     -11.405   9.232  69.933  1.00  0.00    -0.061 C  
HETATM   16  P   UNL     1     -12.054  10.720  70.778  1.00  0.00    -0.370 P  
HETATM   17  O   UNL     1     -12.234  11.355  69.266  1.00  0.00    -0.305 OA 
HETATM   18  O   UNL     1     -13.460   9.873  70.904  1.00  0.00    -0.334 OA 
HETATM   19  O   UNL     1     -12.604  11.978  71.493  1.00  0.00    -0.279 OA 
ENDBRANCH  14  15
ENDBRANCH  13  14
BRANCH  13  20
HETATM   20  C   UNL     1     -10.348   7.620  67.631  1.00  0.00    -0.237 C  
HETATM   21  O   UNL     1     -10.435   7.245  66.254  1.00  0.00    -0.436 OA 
HETATM   22  H   UNL     1     -10.390   6.300  66.169  1.00  0.00     0.000 HD 
ENDBRANCH  13  20
ENDBRANCH  12  13
ENDBRANCH   8  12
TORSDOF 5
ENDMDL
MODEL      208
REMARK 921   NORMALIZED FREE ENERGY PREDICTED BY IDOCK:   -3.27 KCAL/MOL
REMARK 922        TOTAL FREE ENERGY PREDICTED BY IDOCK:   -5.16 KCAL/MOL
REMARK 923 INTER-LIGAND FREE ENERGY PREDICTED BY IDOCK:   -4.73 KCAL/MOL
REMARK 924 INTRA-LIGAND FREE ENERGY PREDICTED BY IDOCK:   -0.43 KCAL/MOL
REMARK 927      BINDING AFFINITY PREDICTED BY RF-SCORE:    0.00 PKD
ROOT
HETATM    1  N   UNL     1     -11.585  14.197  70.246  1.00  0.00    -0.445 NA 
HETATM    2  H1  UNL     1     -12.509  14.148  70.676  1.00  0.00     0.000 HD 
HETATM    3  C   UNL     1     -11.206  13.133  69.486  1.00  0.00    -0.084 C  
HETATM    4  H2  UNL     1     -10.975  15.004  70.379  1.00  0.00     0.000 HD 
HETATM    5  N   UNL     1     -10.031  13.196  68.940  1.00  0.00    -0.434 N  
HETATM    6  C   UNL     1      -9.549  12.130  68.220  1.00  0.00    -0.210 C  
HETATM    7  H   UNL     1      -9.464  14.038  69.045  1.00  0.00     0.000 HD 
HETATM    8  N   UNL     1     -10.330  10.972  68.158  1.00  0.00    -0.176 N  
HETATM    9  O   UNL     1      -8.451  12.176  67.668  1.00  0.00    -0.145 OA 
HETATM   10  C   UNL     1     -12.108  11.978  69.331  1.00  0.00    -0.261 C  
HETATM   11  C   UNL     1     -11.599  10.928  68.679  1.00  0.00    -0.303 C  
ENDROOT
BRANCH   8  12
HETATM   12  C   UNL     1      -9.698   9.745  67.699  1.00  0.00    -0.156 C  
BRANCH  12  13
HETATM   13  C   UNL     1     -10.404   8.424  68.076  1.00  0.00    -0.215 C  
BRANCH  13  14
HETATM   14  O   UNL     1      -9.794   7.847  69.276  1.00  0.00    -0.171 OA 
BRANCH  14  15
HETATM   15  C   UNL     1     -10.692   7.981  70.394  1.00  0.00    -0.233 C  
HETATM   16  P   UNL     1     -10.718   6.498  71.467  1.00  0.00    -0.252 P  
HETATM   17  O   UNL     1      -9.120   6.810  71.734  1.00  0.00    -0.141 OA 
HETATM   18  O   UNL     1     -11.397   7.488  72.594  1.00  0.00    -0.317 OA 
HETATM   19  O   UNL     1     -10.740   5.245  72.375  1.00  0.00    -0.217 OA 
ENDBRANCH  14  15
ENDBRANCH  13  14
BRANCH  13  20
HETATM   20  C   UNL     1     -10.308   7.394  66.940  1.00  0.00    -0.296 C  
HETATM   21  O   UNL     1     -11.319   6.395  67.093  1.00  0.00    -0.677 OA 
HETATM   22  H   UNL     1     -11.260   5.758  66.391  1.00  0.00     0.000 HD 
ENDBRANCH  13  20
ENDBRANCH  12  13
ENDBRANCH   8  12
TORSDOF 5
ENDMDL
MODEL      209
REMARK 921   NORMALIZED FREE ENERGY PREDICTED BY IDOCK:   -3.26 KCAL/MOL
REMARK 922        TOTAL FREE ENERGY PREDICTED BY IDOCK:   -5.15 KCAL/MOL
REMARK 923 INTER-LIGAND FREE ENERGY PREDICTED BY IDOCK:   -4.85 KCAL/MOL
REMARK 924 INTRA-LIGAND FREE ENERGY PREDICTED BY IDOCK:   -0.30 KCAL/MOL
REMARK 927      BINDING AFFINITY PREDICTED BY RF-SCORE:    0.00 PKD
ROOT
HETATM    1  N   UNL     1     -11.468   6.355  70.000  1.00  0.00    -0.430 NA 
HETATM    2  H1  UNL     1     -11.101   5.598  69.423  1.00  0.00     0.000 HD 
HETATM    3  C   UNL     1     -11.198   7.624  69.589  1.00  0.00     0.025 C  
HETATM    4  H2  UNL     1     -12.012   6.170  70.843  1.00  0.00     0.000 HD 
HETATM    5  N   UNL     1     -11.666   8.587  70.322  1.00  0.00    -0.471 N  
HETATM    6  C   UNL     1     -11.373   9.893  70.013  1.00  0.00    -0.249 C  
HETATM    7  H   UNL     1     -12.252   8.374  71.130  1.00  0.00     0.000 HD 
HETATM    8  N   UNL     1     -10.512  10.136  68.940  1.00  0.00    -0.198 N  
HETATM    9  O   UNL     1     -11.828  10.824  70.675  1.00  0.00    -0.318 OA 
HETATM   10  C   UNL     1     -10.395   7.852  68.374  1.00  0.00    -0.235 C  
HETATM   11  C   UNL     1     -10.070   9.125  68.124  1.00  0.00    -0.189 C  
ENDROOT
BRANCH   8  12
HETATM   12  C   UNL     1      -9.932  11.464  68.815  1.00  0.00    -0.177 C  
BRANCH  12  13
HETATM   13  C   UNL     1     -10.248  12.235  67.514  1.00  0.00    -0.204 C  
BRANCH  13  14
HETATM   14  O   UNL     1      -9.518  13.504  67.484  1.00  0.00    -0.209 OA 
BRANCH  14  15
HETATM   15  C   UNL     1     -10.448  14.602  67.442  1.00  0.00    -0.255 C  
HETATM   16  P   UNL     1     -10.659  15.419  69.067  1.00  0.00    -0.279 P  
HETATM   17  O   UNL     1      -9.052  15.778  68.961  1.00  0.00    -0.210 OA 
HETATM   18  O   UNL     1     -11.291  16.672  68.206  1.00  0.00    -0.309 OA 
HETATM   19  O   UNL     1     -10.838  16.110  70.440  1.00  0.00    -0.315 OA 
ENDBRANCH  14  15
ENDBRANCH  13  14
BRANCH  13  20
HETATM   20  C   UNL     1     -11.750  12.536  67.392  1.00  0.00    -0.366 C  
HETATM   21  O   UNL     1     -12.278  11.943  66.204  1.00  0.00    -0.459 OA 
HETATM   22  H   UNL     1     -13.206  12.130  66.128  1.00  0.00     0.000 HD 
ENDBRANCH  13  20
ENDBRANCH  12  13
ENDBRANCH   8  12
TORSDOF 5
ENDMDL
MODEL      210
REMARK 921   NORMALIZED FREE ENERGY PREDICTED BY IDOCK:   -3.26 KCAL/MOL
REMARK 922        TOTAL FREE ENERGY PREDICTED BY IDOCK:   -5.15 KCAL/MOL
REMARK 923 INTER-LIGAND FREE ENERGY PREDICTED BY IDOCK:   -4.70 KCAL/MOL
REMARK 924 INTRA-LIGAND FREE ENERGY PREDICTED BY IDOCK:   -0.45 KCAL/MOL
REMARK 927      BINDING AFFINITY PREDICTED BY RF-SCORE:    0.00 PKD
ROOT
HETATM    1  N   UNL     1     -10.484  14.909  65.970  1.00  0.00    -0.301 NA 
HETATM    2  H1  UNL     1     -10.024  14.627  65.104  1.00  0.00     0.000 HD 
HETATM    3  C   UNL     1     -10.768  13.920  66.861  1.00  0.00    -0.284 C  
HETATM    4  H2  UNL     1     -10.720  15.883  66.159  1.00  0.00     0.000 HD 
HETATM    5  N   UNL     1     -11.353  14.278  67.963  1.00  0.00    -0.280 N  
HETATM    6  C   UNL     1     -11.737  13.329  68.878  1.00  0.00    -0.327 C  
HETATM    7  H   UNL     1     -11.528  15.266  68.150  1.00  0.00     0.000 HD 
HETATM    8  N   UNL     1     -11.540  11.984  68.552  1.00  0.00    -0.287 N  
HETATM    9  O   UNL     1     -12.267  13.645  69.942  1.00  0.00    -0.321 OA 
HETATM   10  C   UNL     1     -10.427  12.521  66.546  1.00  0.00    -0.258 C  
HETATM   11  C   UNL     1     -10.863  11.607  67.419  1.00  0.00    -0.250 C  
ENDROOT
BRANCH   8  12
HETATM   12  C   UNL     1     -12.236  10.980  69.341  1.00  0.00    -0.259 C  
BRANCH  12  13
HETATM   13  C   UNL     1     -11.402  10.248  70.416  1.00  0.00    -0.332 C  
BRANCH  13  14
HETATM   14  O   UNL     1     -10.727   9.087  69.832  1.00  0.00    -0.223 OA 
BRANCH  14  15
HETATM   15  C   UNL     1      -9.301   9.239  69.953  1.00  0.00    -0.198 C  
HETATM   16  P   UNL     1      -8.548   8.013  71.085  1.00  0.00    -0.148 P  
HETATM   17  O   UNL     1      -9.104   6.873  70.030  1.00  0.00    -0.145 OA 
HETATM   18  O   UNL     1      -7.126   8.411  70.356  1.00  0.00    -0.036 OA 
HETATM   19  O   UNL     1      -7.910   6.977  72.041  1.00  0.00    -0.092 OA 
ENDBRANCH  14  15
ENDBRANCH  13  14
BRANCH  13  20
HETATM   20  C   UNL     1     -12.286   9.763  71.576  1.00  0.00    -0.405 C  
HETATM   21  O   UNL     1     -13.531   9.271  71.075  1.00  0.00    -0.557 OA 
HETATM   22  H   UNL     1     -14.078   8.971  71.793  1.00  0.00     0.000 HD 
ENDBRANCH  13  20
ENDBRANCH  12  13
ENDBRANCH   8  12
TORSDOF 5
ENDMDL
MODEL      211
REMARK 921   NORMALIZED FREE ENERGY PREDICTED BY IDOCK:   -3.26 KCAL/MOL
REMARK 922        TOTAL FREE ENERGY PREDICTED BY IDOCK:   -5.15 KCAL/MOL
REMARK 923 INTER-LIGAND FREE ENERGY PREDICTED BY IDOCK:   -4.78 KCAL/MOL
REMARK 924 INTRA-LIGAND FREE ENERGY PREDICTED BY IDOCK:   -0.37 KCAL/MOL
REMARK 927      BINDING AFFINITY PREDICTED BY RF-SCORE:    0.00 PKD
ROOT
HETATM    1  N   UNL     1     -12.157   6.728  71.206  1.00  0.00    -0.361 NA 
HETATM    2  H1  UNL     1     -12.067   7.268  72.068  1.00  0.00     0.000 HD 
HETATM    3  C   UNL     1     -11.472   7.187  70.123  1.00  0.00    -0.205 C  
HETATM    4  H2  UNL     1     -12.730   5.886  71.159  1.00  0.00     0.000 HD 
HETATM    5  N   UNL     1     -11.585   6.500  69.028  1.00  0.00    -0.594 N  
HETATM    6  C   UNL     1     -10.984   6.941  67.874  1.00  0.00    -0.183 C  
HETATM    7  H   UNL     1     -12.122   5.632  69.023  1.00  0.00     0.000 HD 
HETATM    8  N   UNL     1     -10.316   8.168  67.909  1.00  0.00    -0.220 N  
HETATM    9  O   UNL     1     -11.052   6.293  66.831  1.00  0.00    -0.361 OA 
HETATM   10  C   UNL     1     -10.667   8.417  70.225  1.00  0.00    -0.240 C  
HETATM   11  C   UNL     1     -10.140   8.862  69.079  1.00  0.00    -0.197 C  
ENDROOT
BRANCH   8  12
HETATM   12  C   UNL     1      -9.975   8.797  66.642  1.00  0.00    -0.285 C  
BRANCH  12  13
HETATM   13  C   UNL     1      -9.452  10.248  66.713  1.00  0.00    -0.163 C  
BRANCH  13  14
HETATM   14  O   UNL     1     -10.564  11.182  66.899  1.00  0.00    -0.234 OA 
BRANCH  14  15
HETATM   15  C   UNL     1     -10.066  12.452  67.360  1.00  0.00    -0.201 C  
HETATM   16  P   UNL     1     -11.302  13.392  68.329  1.00  0.00    -0.343 P  
HETATM   17  O   UNL     1     -11.258  12.128  69.388  1.00  0.00    -0.237 OA 
HETATM   18  O   UNL     1     -10.016  14.267  68.871  1.00  0.00    -0.221 OA 
HETATM   19  O   UNL     1     -12.346  14.188  69.148  1.00  0.00    -0.301 OA 
ENDBRANCH  14  15
ENDBRANCH  13  14
BRANCH  13  20
HETATM   20  C   UNL     1      -8.703  10.637  65.428  1.00  0.00    -0.185 C  
HETATM   21  O   UNL     1      -9.609  10.682  64.323  1.00  0.00    -0.242 OA 
HETATM   22  H   UNL     1      -9.146  10.922  63.529  1.00  0.00     0.000 HD 
ENDBRANCH  13  20
ENDBRANCH  12  13
ENDBRANCH   8  12
TORSDOF 5
ENDMDL
MODEL      212
REMARK 921   NORMALIZED FREE ENERGY PREDICTED BY IDOCK:   -3.25 KCAL/MOL
REMARK 922        TOTAL FREE ENERGY PREDICTED BY IDOCK:   -5.13 KCAL/MOL
REMARK 923 INTER-LIGAND FREE ENERGY PREDICTED BY IDOCK:   -4.54 KCAL/MOL
REMARK 924 INTRA-LIGAND FREE ENERGY PREDICTED BY IDOCK:   -0.60 KCAL/MOL
REMARK 927      BINDING AFFINITY PREDICTED BY RF-SCORE:    0.00 PKD
ROOT
HETATM    1  N   UNL     1      -9.596   3.530  66.626  1.00  0.00    -0.369 NA 
HETATM    2  H1  UNL     1      -9.702   3.609  65.614  1.00  0.00     0.000 HD 
HETATM    3  C   UNL     1     -10.074   4.562  67.374  1.00  0.00    -0.062 C  
HETATM    4  H2  UNL     1      -9.155   2.717  67.056  1.00  0.00     0.000 HD 
HETATM    5  N   UNL     1      -9.939   4.459  68.661  1.00  0.00    -0.067 N  
HETATM    6  C   UNL     1     -10.330   5.493  69.478  1.00  0.00    -0.287 C  
HETATM    7  H   UNL     1      -9.543   3.611  69.067  1.00  0.00     0.000 HD 
HETATM    8  N   UNL     1     -10.804   6.662  68.877  1.00  0.00    -0.267 N  
HETATM    9  O   UNL     1     -10.240   5.409  70.701  1.00  0.00    -0.219 OA 
HETATM   10  C   UNL     1     -10.691   5.727  66.717  1.00  0.00    -0.369 C  
HETATM   11  C   UNL     1     -11.008   6.747  67.522  1.00  0.00    -0.303 C  
ENDROOT
BRANCH   8  12
HETATM   12  C   UNL     1     -10.897   7.862  69.693  1.00  0.00    -0.176 C  
BRANCH  12  13
HETATM   13  C   UNL     1     -10.037   9.065  69.251  1.00  0.00    -0.195 C  
BRANCH  13  14
HETATM   14  O   UNL     1      -8.838   9.169  70.086  1.00  0.00    -0.161 OA 
BRANCH  14  15
HETATM   15  C   UNL     1      -9.177   8.915  71.462  1.00  0.00    -0.252 C  
HETATM   16  P   UNL     1      -7.897   7.946  72.342  1.00  0.00    -0.134 P  
HETATM   17  O   UNL     1      -6.891   9.215  72.029  1.00  0.00    -0.301 OA 
HETATM   18  O   UNL     1      -8.623   8.486  73.718  1.00  0.00    -0.307 OA 
HETATM   19  O   UNL     1      -6.816   7.127  73.087  1.00  0.00    -0.068 OA 
ENDBRANCH  14  15
ENDBRANCH  13  14
BRANCH  13  20
HETATM   20  C   UNL     1     -10.819  10.384  69.360  1.00  0.00    -0.248 C  
HETATM   21  O   UNL     1     -11.792  10.468  68.316  1.00  0.00    -0.751 OA 
HETATM   22  H   UNL     1     -12.276  11.283  68.384  1.00  0.00     0.000 HD 
ENDBRANCH  13  20
ENDBRANCH  12  13
ENDBRANCH   8  12
TORSDOF 5
ENDMDL
MODEL      213
REMARK 921   NORMALIZED FREE ENERGY PREDICTED BY IDOCK:   -3.24 KCAL/MOL
REMARK 922        TOTAL FREE ENERGY PREDICTED BY IDOCK:   -5.13 KCAL/MOL
REMARK 923 INTER-LIGAND FREE ENERGY PREDICTED BY IDOCK:   -4.69 KCAL/MOL
REMARK 924 INTRA-LIGAND FREE ENERGY PREDICTED BY IDOCK:   -0.44 KCAL/MOL
REMARK 927      BINDING AFFINITY PREDICTED BY RF-SCORE:    0.00 PKD
ROOT
HETATM    1  N   UNL     1      -7.598  10.123  63.265  1.00  0.00    -0.145 NA 
HETATM    2  H1  UNL     1      -8.203   9.797  62.511  1.00  0.00     0.000 HD 
HETATM    3  C   UNL     1      -8.153  10.201  64.505  1.00  0.00    -0.160 C  
HETATM    4  H2  UNL     1      -6.624  10.377  63.097  1.00  0.00     0.000 HD 
HETATM    5  N   UNL     1      -7.383  10.614  65.464  1.00  0.00    -0.305 N  
HETATM    6  C   UNL     1      -7.891  10.790  66.728  1.00  0.00    -0.135 C  
HETATM    7  H   UNL     1      -6.398  10.809  65.279  1.00  0.00     0.000 HD 
HETATM    8  N   UNL     1      -9.258  10.576  66.921  1.00  0.00    -0.154 N  
HETATM    9  O   UNL     1      -7.175  11.152  67.660  1.00  0.00    -0.088 OA 
HETATM   10  C   UNL     1      -9.568   9.841  64.705  1.00  0.00    -0.244 C  
HETATM   11  C   UNL     1     -10.060  10.076  65.926  1.00  0.00    -0.249 C  
ENDROOT
BRANCH   8  12
HETATM   12  C   UNL     1      -9.863  11.076  68.146  1.00  0.00    -0.176 C  
BRANCH  12  13
HETATM   13  C   UNL     1     -11.401  11.202  68.155  1.00  0.00    -0.309 C  
BRANCH  13  14
HETATM   14  O   UNL     1     -11.814  12.447  67.503  1.00  0.00    -0.413 OA 
BRANCH  14  15
HETATM   15  C   UNL     1     -11.826  13.520  68.463  1.00  0.00    -0.362 C  
HETATM   16  P   UNL     1     -10.706  14.895  68.007  1.00  0.00    -0.267 P  
HETATM   17  O   UNL     1     -11.651  15.063  66.665  1.00  0.00    -0.311 OA 
HETATM   18  O   UNL     1     -11.575  15.785  69.086  1.00  0.00    -0.351 OA 
HETATM   19  O   UNL     1      -9.759  16.057  67.622  1.00  0.00    -0.222 OA 
ENDBRANCH  14  15
ENDBRANCH  13  14
BRANCH  13  20
HETATM   20  C   UNL     1     -11.957  11.198  69.588  1.00  0.00    -0.359 C  
HETATM   21  O   UNL     1     -10.980  10.678  70.494  1.00  0.00    -0.438 OA 
HETATM   22  H   UNL     1     -11.324  10.675  71.380  1.00  0.00     0.000 HD 
ENDBRANCH  13  20
ENDBRANCH  12  13
ENDBRANCH   8  12
TORSDOF 5
ENDMDL
MODEL      214
REMARK 921   NORMALIZED FREE ENERGY PREDICTED BY IDOCK:   -3.23 KCAL/MOL
REMARK 922        TOTAL FREE ENERGY PREDICTED BY IDOCK:   -5.12 KCAL/MOL
REMARK 923 INTER-LIGAND FREE ENERGY PREDICTED BY IDOCK:   -4.50 KCAL/MOL
REMARK 924 INTRA-LIGAND FREE ENERGY PREDICTED BY IDOCK:   -0.62 KCAL/MOL
REMARK 927      BINDING AFFINITY PREDICTED BY RF-SCORE:    0.00 PKD
ROOT
HETATM    1  N   UNL     1     -13.600  14.228  65.468  1.00  0.00    -0.426 NA 
HETATM    2  H1  UNL     1     -13.961  14.591  64.586  1.00  0.00     0.000 HD 
HETATM    3  C   UNL     1     -12.386  13.613  65.425  1.00  0.00    -0.476 C  
HETATM    4  H2  UNL     1     -14.121  14.322  66.340  1.00  0.00     0.000 HD 
HETATM    5  N   UNL     1     -11.926  13.151  66.547  1.00  0.00    -0.402 N  
HETATM    6  C   UNL     1     -10.743  12.453  66.570  1.00  0.00    -0.236 C  
HETATM    7  H   UNL     1     -12.443  13.307  67.413  1.00  0.00     0.000 HD 
HETATM    8  N   UNL     1     -10.103  12.205  65.353  1.00  0.00    -0.253 N  
HETATM    9  O   UNL     1     -10.271  12.031  67.625  1.00  0.00    -0.195 OA 
HETATM   10  C   UNL     1     -11.670  13.482  64.144  1.00  0.00    -0.453 C  
HETATM   11  C   UNL     1     -10.552  12.748  64.176  1.00  0.00    -0.415 C  
ENDROOT
BRANCH   8  12
HETATM   12  C   UNL     1      -9.054  11.198  65.325  1.00  0.00    -0.167 C  
BRANCH  12  13
HETATM   13  C   UNL     1      -9.406   9.854  64.652  1.00  0.00    -0.277 C  
BRANCH  13  14
HETATM   14  O   UNL     1      -9.239   8.750  65.600  1.00  0.00    -0.217 OA 
BRANCH  14  15
HETATM   15  C   UNL     1      -8.418   9.174  66.704  1.00  0.00    -0.123 C  
HETATM   16  P   UNL     1      -7.669   7.772  67.612  1.00  0.00    -0.125 P  
HETATM   17  O   UNL     1      -6.907   7.415  66.192  1.00  0.00    -0.055 OA 
HETATM   18  O   UNL     1      -6.630   8.895  68.222  1.00  0.00    -0.059 OA 
HETATM   19  O   UNL     1      -7.034   6.587  68.379  1.00  0.00    -0.075 OA 
ENDBRANCH  14  15
ENDBRANCH  13  14
BRANCH  13  20
HETATM   20  C   UNL     1      -8.510   9.586  63.432  1.00  0.00    -0.197 C  
HETATM   21  O   UNL     1      -7.748  10.753  63.114  1.00  0.00    -0.349 OA 
HETATM   22  H   UNL     1      -7.194  10.588  62.360  1.00  0.00     0.000 HD 
ENDBRANCH  13  20
ENDBRANCH  12  13
ENDBRANCH   8  12
TORSDOF 5
ENDMDL
MODEL      215
REMARK 921   NORMALIZED FREE ENERGY PREDICTED BY IDOCK:   -3.23 KCAL/MOL
REMARK 922        TOTAL FREE ENERGY PREDICTED BY IDOCK:   -5.11 KCAL/MOL
REMARK 923 INTER-LIGAND FREE ENERGY PREDICTED BY IDOCK:   -4.31 KCAL/MOL
REMARK 924 INTRA-LIGAND FREE ENERGY PREDICTED BY IDOCK:   -0.80 KCAL/MOL
REMARK 927      BINDING AFFINITY PREDICTED BY RF-SCORE:    0.00 PKD
ROOT
HETATM    1  N   UNL     1     -13.967   9.917  72.539  1.00  0.00    -0.500 NA 
HETATM    2  H1  UNL     1     -14.059  10.889  72.244  1.00  0.00     0.000 HD 
HETATM    3  C   UNL     1     -13.052   9.159  71.874  1.00  0.00    -0.411 C  
HETATM    4  H2  UNL     1     -14.533   9.532  73.296  1.00  0.00     0.000 HD 
HETATM    5  N   UNL     1     -12.935   7.923  72.251  1.00  0.00    -0.525 N  
HETATM    6  C   UNL     1     -12.087   7.077  71.579  1.00  0.00    -0.353 C  
HETATM    7  H   UNL     1     -13.474   7.579  73.046  1.00  0.00     0.000 HD 
HETATM    8  N   UNL     1     -11.419   7.571  70.456  1.00  0.00    -0.267 N  
HETATM    9  O   UNL     1     -11.936   5.909  71.935  1.00  0.00    -0.206 OA 
HETATM   10  C   UNL     1     -12.265   9.747  70.776  1.00  0.00    -0.342 C  
HETATM   11  C   UNL     1     -11.491   8.894  70.096  1.00  0.00    -0.036 C  
ENDROOT
BRANCH   8  12
HETATM   12  C   UNL     1     -10.796   6.615  69.554  1.00  0.00    -0.289 C  
BRANCH  12  13
HETATM   13  C   UNL     1      -9.262   6.474  69.651  1.00  0.00    -0.143 C  
BRANCH  13  14
HETATM   14  O   UNL     1      -8.636   6.836  68.378  1.00  0.00    -0.124 OA 
BRANCH  14  15
HETATM   15  C   UNL     1      -8.516   8.268  68.281  1.00  0.00    -0.136 C  
HETATM   16  P   UNL     1      -8.682   8.880  66.563  1.00  0.00    -0.142 P  
HETATM   17  O   UNL     1     -10.204   8.246  66.611  1.00  0.00    -0.290 OA 
HETATM   18  O   UNL     1      -8.960  10.348  67.255  1.00  0.00    -0.135 OA 
HETATM   19  O   UNL     1      -8.823   9.399  65.112  1.00  0.00    -0.171 OA 
ENDBRANCH  14  15
ENDBRANCH  13  14
BRANCH  13  20
HETATM   20  C   UNL     1      -8.852   5.035  70.001  1.00  0.00    -0.102 C  
HETATM   21  O   UNL     1      -9.345   4.682  71.296  1.00  0.00    -0.133 OA 
HETATM   22  H   UNL     1      -9.091   3.793  71.512  1.00  0.00     0.000 HD 
ENDBRANCH  13  20
ENDBRANCH  12  13
ENDBRANCH   8  12
TORSDOF 5
ENDMDL
MODEL      216
REMARK 921   NORMALIZED FREE ENERGY PREDICTED BY IDOCK:   -3.22 KCAL/MOL
REMARK 922        TOTAL FREE ENERGY PREDICTED BY IDOCK:   -5.10 KCAL/MOL
REMARK 923 INTER-LIGAND FREE ENERGY PREDICTED BY IDOCK:   -4.48 KCAL/MOL
REMARK 924 INTRA-LIGAND FREE ENERGY PREDICTED BY IDOCK:   -0.62 KCAL/MOL
REMARK 927      BINDING AFFINITY PREDICTED BY RF-SCORE:    0.00 PKD
ROOT
HETATM    1  N   UNL     1      -9.705   4.783  68.670  1.00  0.00    -0.159 NA 
HETATM    2  H1  UNL     1      -9.627   4.331  67.759  1.00  0.00     0.000 HD 
HETATM    3  C   UNL     1     -10.091   6.088  68.675  1.00  0.00    -0.168 C  
HETATM    4  H2  UNL     1      -9.503   4.282  69.535  1.00  0.00     0.000 HD 
HETATM    5  N   UNL     1     -10.190   6.663  69.834  1.00  0.00    -0.182 N  
HETATM    6  C   UNL     1     -10.503   7.998  69.916  1.00  0.00    -0.233 C  
HETATM    7  H   UNL     1     -10.036   6.123  70.686  1.00  0.00     0.000 HD 
HETATM    8  N   UNL     1     -10.641   8.714  68.724  1.00  0.00    -0.184 N  
HETATM    9  O   UNL     1     -10.632   8.558  71.003  1.00  0.00    -0.203 OA 
HETATM   10  C   UNL     1     -10.358   6.784  67.404  1.00  0.00    -0.286 C  
HETATM   11  C   UNL     1     -10.601   8.095  67.500  1.00  0.00    -0.221 C  
ENDROOT
BRANCH   8  12
HETATM   12  C   UNL     1     -10.634  10.167  68.794  1.00  0.00    -0.213 C  
BRANCH  12  13
HETATM   13  C   UNL     1     -12.007  10.868  68.702  1.00  0.00    -0.115 C  
BRANCH  13  14
HETATM   14  O   UNL     1     -11.887  12.127  67.963  1.00  0.00    -0.390 OA 
BRANCH  14  15
HETATM   15  C   UNL     1     -10.816  12.916  68.512  1.00  0.00    -0.257 C  
HETATM   16  P   UNL     1     -10.149  14.136  67.321  1.00  0.00    -0.261 P  
HETATM   17  O   UNL     1     -11.661  14.795  67.332  1.00  0.00    -0.373 OA 
HETATM   18  O   UNL     1      -9.503  14.875  68.643  1.00  0.00    -0.195 OA 
HETATM   19  O   UNL     1      -9.585  15.168  66.315  1.00  0.00    -0.257 OA 
ENDBRANCH  14  15
ENDBRANCH  13  14
BRANCH  13  20
HETATM   20  C   UNL     1     -12.573  11.177  70.097  1.00  0.00    -0.178 C  
HETATM   21  O   UNL     1     -13.309  10.055  70.590  1.00  0.00    -0.602 OA 
HETATM   22  H   UNL     1     -13.660  10.246  71.453  1.00  0.00     0.000 HD 
ENDBRANCH  13  20
ENDBRANCH  12  13
ENDBRANCH   8  12
TORSDOF 5
ENDMDL
MODEL      217
REMARK 921   NORMALIZED FREE ENERGY PREDICTED BY IDOCK:   -3.21 KCAL/MOL
REMARK 922        TOTAL FREE ENERGY PREDICTED BY IDOCK:   -5.08 KCAL/MOL
REMARK 923 INTER-LIGAND FREE ENERGY PREDICTED BY IDOCK:   -4.49 KCAL/MOL
REMARK 924 INTRA-LIGAND FREE ENERGY PREDICTED BY IDOCK:   -0.60 KCAL/MOL
REMARK 927      BINDING AFFINITY PREDICTED BY RF-SCORE:    0.00 PKD
ROOT
HETATM    1  N   UNL     1     -11.078   6.091  73.923  1.00  0.00    -0.298 NA 
HETATM    2  H1  UNL     1     -12.042   5.763  73.860  1.00  0.00     0.000 HD 
HETATM    3  C   UNL     1     -10.720   7.102  73.085  1.00  0.00    -0.346 C  
HETATM    4  H2  UNL     1     -10.415   5.683  74.582  1.00  0.00     0.000 HD 
HETATM    5  N   UNL     1      -9.494   7.520  73.165  1.00  0.00    -0.195 N  
HETATM    6  C   UNL     1      -9.039   8.487  72.302  1.00  0.00    -0.248 C  
HETATM    7  H   UNL     1      -8.868   7.131  73.871  1.00  0.00     0.000 HD 
HETATM    8  N   UNL     1      -9.909   8.943  71.309  1.00  0.00    -0.263 N  
HETATM    9  O   UNL     1      -7.890   8.920  72.377  1.00  0.00    -0.368 OA 
HETATM   10  C   UNL     1     -11.701   7.656  72.135  1.00  0.00    -0.355 C  
HETATM   11  C   UNL     1     -11.223   8.551  71.263  1.00  0.00    -0.265 C  
ENDROOT
BRANCH   8  12
HETATM   12  C   UNL     1      -9.346   9.698  70.200  1.00  0.00    -0.251 C  
BRANCH  12  13
HETATM   13  C   UNL     1     -10.289   9.982  69.010  1.00  0.00    -0.206 C  
BRANCH  13  14
HETATM   14  O   UNL     1      -9.798   9.316  67.802  1.00  0.00    -0.158 OA 
BRANCH  14  15
HETATM   15  C   UNL     1     -10.613   8.166  67.511  1.00  0.00    -0.221 C  
HETATM   16  P   UNL     1      -9.637   6.732  66.927  1.00  0.00    -0.166 P  
HETATM   17  O   UNL     1      -8.897   6.786  68.400  1.00  0.00    -0.123 OA 
HETATM   18  O   UNL     1     -10.968   5.840  67.306  1.00  0.00    -0.255 OA 
HETATM   19  O   UNL     1      -8.813   5.519  66.433  1.00  0.00    -0.119 OA 
ENDBRANCH  14  15
ENDBRANCH  13  14
BRANCH  13  20
HETATM   20  C   UNL     1     -10.393  11.489  68.725  1.00  0.00    -0.196 C  
HETATM   21  O   UNL     1     -10.950  12.167  69.853  1.00  0.00    -0.453 OA 
HETATM   22  H   UNL     1     -11.015  13.099  69.677  1.00  0.00     0.000 HD 
ENDBRANCH  13  20
ENDBRANCH  12  13
ENDBRANCH   8  12
TORSDOF 5
ENDMDL
MODEL      218
REMARK 921   NORMALIZED FREE ENERGY PREDICTED BY IDOCK:   -3.20 KCAL/MOL
REMARK 922        TOTAL FREE ENERGY PREDICTED BY IDOCK:   -5.08 KCAL/MOL
REMARK 923 INTER-LIGAND FREE ENERGY PREDICTED BY IDOCK:   -4.38 KCAL/MOL
REMARK 924 INTRA-LIGAND FREE ENERGY PREDICTED BY IDOCK:   -0.70 KCAL/MOL
REMARK 927      BINDING AFFINITY PREDICTED BY RF-SCORE:    0.00 PKD
ROOT
HETATM    1  N   UNL     1      -8.428   4.425  70.769  1.00  0.00    -0.078 NA 
HETATM    2  H1  UNL     1      -8.640   3.970  69.881  1.00  0.00     0.000 HD 
HETATM    3  C   UNL     1      -9.429   5.148  71.340  1.00  0.00    -0.152 C  
HETATM    4  H2  UNL     1      -7.511   4.341  71.208  1.00  0.00     0.000 HD 
HETATM    5  N   UNL     1      -9.159   5.726  72.471  1.00  0.00    -0.137 N  
HETATM    6  C   UNL     1     -10.094   6.533  73.071  1.00  0.00    -0.191 C  
HETATM    7  H   UNL     1      -8.252   5.580  72.914  1.00  0.00     0.000 HD 
HETATM    8  N   UNL     1     -11.298   6.759  72.397  1.00  0.00    -0.264 N  
HETATM    9  O   UNL     1      -9.874   7.068  74.157  1.00  0.00    -0.287 OA 
HETATM   10  C   UNL     1     -10.736   5.261  70.668  1.00  0.00    -0.201 C  
HETATM   11  C   UNL     1     -11.610   6.098  71.236  1.00  0.00    -0.205 C  
ENDROOT
BRANCH   8  12
HETATM   12  C   UNL     1     -12.139   7.857  72.847  1.00  0.00     0.037 C  
BRANCH  12  13
HETATM   13  C   UNL     1     -12.479   8.939  71.800  1.00  0.00    -0.362 C  
BRANCH  13  14
HETATM   14  O   UNL     1     -11.292   9.741  71.492  1.00  0.00    -0.367 OA 
BRANCH  14  15
HETATM   15  C   UNL     1     -10.976   9.630  70.093  1.00  0.00    -0.275 C  
HETATM   16  P   UNL     1      -9.183   9.778  69.755  1.00  0.00    -0.205 P  
HETATM   17  O   UNL     1      -9.017   8.423  70.682  1.00  0.00    -0.140 OA 
HETATM   18  O   UNL     1      -9.534   9.091  68.300  1.00  0.00    -0.145 OA 
HETATM   19  O   UNL     1      -7.667   9.903  69.469  1.00  0.00    -0.104 OA 
ENDBRANCH  14  15
ENDBRANCH  13  14
BRANCH  13  20
HETATM   20  C   UNL     1     -13.583   9.881  72.305  1.00  0.00    -0.242 C  
HETATM   21  O   UNL     1     -14.406   9.209  73.261  1.00  0.00    -1.059 OA 
HETATM   22  H   UNL     1     -15.088   9.791  73.573  1.00  0.00     0.000 HD 
ENDBRANCH  13  20
ENDBRANCH  12  13
ENDBRANCH   8  12
TORSDOF 5
ENDMDL
MODEL      219
REMARK 921   NORMALIZED FREE ENERGY PREDICTED BY IDOCK:   -3.19 KCAL/MOL
REMARK 922        TOTAL FREE ENERGY PREDICTED BY IDOCK:   -5.06 KCAL/MOL
REMARK 923 INTER-LIGAND FREE ENERGY PREDICTED BY IDOCK:   -4.57 KCAL/MOL
REMARK 924 INTRA-LIGAND FREE ENERGY PREDICTED BY IDOCK:   -0.49 KCAL/MOL
REMARK 927      BINDING AFFINITY PREDICTED BY RF-SCORE:    0.00 PKD
ROOT
HETATM    1  N   UNL     1     -10.826  19.235  67.337  1.00  0.00    -0.487 NA 
HETATM    2  H1  UNL     1     -11.384  19.663  66.598  1.00  0.00     0.000 HD 
HETATM    3  C   UNL     1     -10.348  17.984  67.095  1.00  0.00    -0.374 C  
HETATM    4  H2  UNL     1     -10.636  19.720  68.214  1.00  0.00     0.000 HD 
HETATM    5  N   UNL     1      -9.637  17.439  68.034  1.00  0.00    -0.268 N  
HETATM    6  C   UNL     1      -9.182  16.151  67.893  1.00  0.00    -0.200 C  
HETATM    7  H   UNL     1      -9.416  17.968  68.878  1.00  0.00     0.000 HD 
HETATM    8  N   UNL     1      -9.564  15.440  66.752  1.00  0.00    -0.231 N  
HETATM    9  O   UNL     1      -8.483  15.623  68.756  1.00  0.00    -0.164 OA 
HETATM   10  C   UNL     1     -10.658  17.308  65.823  1.00  0.00    -0.198 C  
HETATM   11  C   UNL     1     -10.259  16.035  65.729  1.00  0.00    -0.377 C  
ENDROOT
BRANCH   8  12
HETATM   12  C   UNL     1      -9.379  13.998  66.751  1.00  0.00    -0.277 C  
BRANCH  12  13
HETATM   13  C   UNL     1     -10.293  13.184  67.693  1.00  0.00    -0.223 C  
BRANCH  13  14
HETATM   14  O   UNL     1      -9.534  12.109  68.336  1.00  0.00    -0.208 OA 
BRANCH  14  15
HETATM   15  C   UNL     1      -8.139  12.227  68.002  1.00  0.00    -0.156 C  
HETATM   16  P   UNL     1      -7.385  10.629  67.524  1.00  0.00    -0.095 P  
HETATM   17  O   UNL     1      -8.467  10.627  66.278  1.00  0.00    -0.144 OA 
HETATM   18  O   UNL     1      -6.186  11.545  66.862  1.00  0.00    -0.117 OA 
HETATM   19  O   UNL     1      -6.746   9.279  67.119  1.00  0.00    -0.073 OA 
ENDBRANCH  14  15
ENDBRANCH  13  14
BRANCH  13  20
HETATM   20  C   UNL     1     -11.469  12.557  66.927  1.00  0.00    -0.353 C  
HETATM   21  O   UNL     1     -12.107  11.562  67.732  1.00  0.00    -0.626 OA 
HETATM   22  H   UNL     1     -12.834  11.174  67.259  1.00  0.00     0.000 HD 
ENDBRANCH  13  20
ENDBRANCH  12  13
ENDBRANCH   8  12
TORSDOF 5
ENDMDL
MODEL      220
REMARK 921   NORMALIZED FREE ENERGY PREDICTED BY IDOCK:   -3.19 KCAL/MOL
REMARK 922        TOTAL FREE ENERGY PREDICTED BY IDOCK:   -5.06 KCAL/MOL
REMARK 923 INTER-LIGAND FREE ENERGY PREDICTED BY IDOCK:   -4.89 KCAL/MOL
REMARK 924 INTRA-LIGAND FREE ENERGY PREDICTED BY IDOCK:   -0.16 KCAL/MOL
REMARK 927      BINDING AFFINITY PREDICTED BY RF-SCORE:    0.00 PKD
ROOT
HETATM    1  N   UNL     1     -12.013  11.813  67.621  1.00  0.00    -0.606 NA 
HETATM    2  H1  UNL     1     -12.818  12.396  67.855  1.00  0.00     0.000 HD 
HETATM    3  C   UNL     1     -11.565  10.972  68.593  1.00  0.00    -0.316 C  
HETATM    4  H2  UNL     1     -11.567  11.859  66.705  1.00  0.00     0.000 HD 
HETATM    5  N   UNL     1     -10.542  10.230  68.295  1.00  0.00    -0.206 N  
HETATM    6  C   UNL     1      -9.987   9.410  69.247  1.00  0.00    -0.181 C  
HETATM    7  H   UNL     1     -10.149  10.257  67.354  1.00  0.00     0.000 HD 
HETATM    8  N   UNL     1     -10.513   9.455  70.541  1.00  0.00    -0.252 N  
HETATM    9  O   UNL     1      -9.036   8.677  68.982  1.00  0.00    -0.140 OA 
HETATM   10  C   UNL     1     -12.225  10.945  69.910  1.00  0.00    -0.408 C  
HETATM   11  C   UNL     1     -11.634  10.188  70.840  1.00  0.00    -0.372 C  
ENDROOT
BRANCH   8  12
HETATM   12  C   UNL     1      -9.735   8.861  71.617  1.00  0.00    -0.309 C  
BRANCH  12  13
HETATM   13  C   UNL     1     -10.155   7.446  72.071  1.00  0.00    -0.182 C  
BRANCH  13  14
HETATM   14  O   UNL     1     -11.285   6.969  71.270  1.00  0.00    -0.250 OA 
BRANCH  14  15
HETATM   15  C   UNL     1     -10.820   6.041  70.273  1.00  0.00    -0.329 C  
HETATM   16  P   UNL     1      -9.508   4.926  70.895  1.00  0.00    -0.189 P  
HETATM   17  O   UNL     1     -10.640   4.386  71.967  1.00  0.00    -0.117 OA 
HETATM   18  O   UNL     1      -9.872   3.987  69.593  1.00  0.00    -0.210 OA 
HETATM   19  O   UNL     1      -8.399   3.983  71.421  1.00  0.00    -0.075 OA 
ENDBRANCH  14  15
ENDBRANCH  13  14
BRANCH  13  20
HETATM   20  C   UNL     1     -10.571   7.433  73.551  1.00  0.00    -0.338 C  
HETATM   21  O   UNL     1      -9.417   7.536  74.388  1.00  0.00    -0.414 OA 
HETATM   22  H   UNL     1      -9.673   7.527  75.303  1.00  0.00     0.000 HD 
ENDBRANCH  13  20
ENDBRANCH  12  13
ENDBRANCH   8  12
TORSDOF 5
ENDMDL
MODEL      221
REMARK 921   NORMALIZED FREE ENERGY PREDICTED BY IDOCK:   -3.18 KCAL/MOL
REMARK 922        TOTAL FREE ENERGY PREDICTED BY IDOCK:   -5.05 KCAL/MOL
REMARK 923 INTER-LIGAND FREE ENERGY PREDICTED BY IDOCK:   -4.54 KCAL/MOL
REMARK 924 INTRA-LIGAND FREE ENERGY PREDICTED BY IDOCK:   -0.51 KCAL/MOL
REMARK 927      BINDING AFFINITY PREDICTED BY RF-SCORE:    0.00 PKD
ROOT
HETATM    1  N   UNL     1     -12.735  13.900  64.268  1.00  0.00    -0.649 NA 
HETATM    2  H1  UNL     1     -13.134  13.583  63.383  1.00  0.00     0.000 HD 
HETATM    3  C   UNL     1     -11.572  13.311  64.660  1.00  0.00    -0.350 C  
HETATM    4  H2  UNL     1     -13.186  14.621  64.830  1.00  0.00     0.000 HD 
HETATM    5  N   UNL     1     -11.065  13.714  65.784  1.00  0.00    -0.287 N  
HETATM    6  C   UNL     1      -9.933  13.116  66.282  1.00  0.00    -0.285 C  
HETATM    7  H   UNL     1     -11.508  14.476  66.300  1.00  0.00     0.000 HD 
HETATM    8  N   UNL     1      -9.399  12.034  65.579  1.00  0.00    -0.104 N  
HETATM    9  O   UNL     1      -9.417  13.499  67.331  1.00  0.00    -0.211 OA 
HETATM   10  C   UNL     1     -10.959  12.260  63.828  1.00  0.00    -0.495 C  
HETATM   11  C   UNL     1      -9.894  11.650  64.358  1.00  0.00    -0.223 C  
ENDROOT
BRANCH   8  12
HETATM   12  C   UNL     1      -8.424  11.192  66.255  1.00  0.00    -0.168 C  
BRANCH  12  13
HETATM   13  C   UNL     1      -8.935   9.835  66.786  1.00  0.00    -0.138 C  
BRANCH  13  14
HETATM   14  O   UNL     1      -8.673   9.719  68.222  1.00  0.00    -0.118 OA 
BRANCH  14  15
HETATM   15  C   UNL     1      -9.915   9.584  68.937  1.00  0.00    -0.179 C  
HETATM   16  P   UNL     1     -10.303   7.847  69.365  1.00  0.00    -0.207 P  
HETATM   17  O   UNL     1      -8.914   7.881  70.255  1.00  0.00    -0.148 OA 
HETATM   18  O   UNL     1     -11.358   8.490  70.454  1.00  0.00    -0.256 OA 
HETATM   19  O   UNL     1     -10.632   6.379  69.729  1.00  0.00    -0.211 OA 
ENDBRANCH  14  15
ENDBRANCH  13  14
BRANCH  13  20
HETATM   20  C   UNL     1      -8.250   8.659  66.071  1.00  0.00    -0.127 C  
HETATM   21  O   UNL     1      -9.154   8.047  65.150  1.00  0.00    -0.384 OA 
HETATM   22  H   UNL     1      -8.731   7.320  64.708  1.00  0.00     0.000 HD 
ENDBRANCH  13  20
ENDBRANCH  12  13
ENDBRANCH   8  12
TORSDOF 5
ENDMDL
MODEL      222
REMARK 921   NORMALIZED FREE ENERGY PREDICTED BY IDOCK:   -3.18 KCAL/MOL
REMARK 922        TOTAL FREE ENERGY PREDICTED BY IDOCK:   -5.04 KCAL/MOL
REMARK 923 INTER-LIGAND FREE ENERGY PREDICTED BY IDOCK:   -4.55 KCAL/MOL
REMARK 924 INTRA-LIGAND FREE ENERGY PREDICTED BY IDOCK:   -0.49 KCAL/MOL
REMARK 927      BINDING AFFINITY PREDICTED BY RF-SCORE:    0.00 PKD
ROOT
HETATM    1  N   UNL     1     -14.382   8.014  70.979  1.00  0.00    -0.665 NA 
HETATM    2  H1  UNL     1     -14.825   8.751  71.528  1.00  0.00     0.000 HD 
HETATM    3  C   UNL     1     -13.092   7.711  71.289  1.00  0.00    -0.233 C  
HETATM    4  H2  UNL     1     -14.882   7.527  70.235  1.00  0.00     0.000 HD 
HETATM    5  N   UNL     1     -12.530   6.772  70.591  1.00  0.00    -0.511 N  
HETATM    6  C   UNL     1     -11.208   6.461  70.795  1.00  0.00    -0.327 C  
HETATM    7  H   UNL     1     -13.070   6.264  69.890  1.00  0.00     0.000 HD 
HETATM    8  N   UNL     1     -10.487   7.226  71.717  1.00  0.00    -0.197 N  
HETATM    9  O   UNL     1     -10.660   5.556  70.167  1.00  0.00    -0.285 OA 
HETATM   10  C   UNL     1     -12.397   8.447  72.359  1.00  0.00    -0.412 C  
HETATM   11  C   UNL     1     -11.096   8.173  72.501  1.00  0.00    -0.377 C  
ENDROOT
BRANCH   8  12
HETATM   12  C   UNL     1      -9.036   7.135  71.695  1.00  0.00    -0.133 C  
BRANCH  12  13
HETATM   13  C   UNL     1      -8.260   8.417  72.067  1.00  0.00    -0.155 C  
BRANCH  13  14
HETATM   14  O   UNL     1      -7.698   9.038  70.865  1.00  0.00    -0.105 OA 
BRANCH  14  15
HETATM   15  C   UNL     1      -8.743   9.681  70.112  1.00  0.00    -0.231 C  
HETATM   16  P   UNL     1      -8.361   9.802  68.326  1.00  0.00    -0.107 P  
HETATM   17  O   UNL     1      -8.339   8.153  68.340  1.00  0.00    -0.124 OA 
HETATM   18  O   UNL     1      -9.975  10.067  68.135  1.00  0.00    -0.147 OA 
HETATM   19  O   UNL     1      -8.040   9.905  66.816  1.00  0.00    -0.115 OA 
ENDBRANCH  14  15
ENDBRANCH  13  14
BRANCH  13  20
HETATM   20  C   UNL     1      -7.108   8.113  73.039  1.00  0.00    -0.110 C  
HETATM   21  O   UNL     1      -6.488   9.329  73.464  1.00  0.00    -0.316 OA 
HETATM   22  H   UNL     1      -5.776   9.141  74.065  1.00  0.00     0.000 HD 
ENDBRANCH  13  20
ENDBRANCH  12  13
ENDBRANCH   8  12
TORSDOF 5
ENDMDL
MODEL      223
REMARK 921   NORMALIZED FREE ENERGY PREDICTED BY IDOCK:   -3.15 KCAL/MOL
REMARK 922        TOTAL FREE ENERGY PREDICTED BY IDOCK:   -5.01 KCAL/MOL
REMARK 923 INTER-LIGAND FREE ENERGY PREDICTED BY IDOCK:   -4.56 KCAL/MOL
REMARK 924 INTRA-LIGAND FREE ENERGY PREDICTED BY IDOCK:   -0.45 KCAL/MOL
REMARK 927      BINDING AFFINITY PREDICTED BY RF-SCORE:    0.00 PKD
ROOT
HETATM    1  N   UNL     1     -10.567  14.202  66.148  1.00  0.00    -0.288 NA 
HETATM    2  H1  UNL     1     -11.564  14.391  66.044  1.00  0.00     0.000 HD 
HETATM    3  C   UNL     1     -10.204  12.898  66.296  1.00  0.00    -0.278 C  
HETATM    4  H2  UNL     1      -9.877  14.952  66.141  1.00  0.00     0.000 HD 
HETATM    5  N   UNL     1      -8.935  12.658  66.428  1.00  0.00    -0.417 N  
HETATM    6  C   UNL     1      -8.498  11.376  66.656  1.00  0.00    -0.171 C  
HETATM    7  H   UNL     1      -8.262  13.422  66.363  1.00  0.00     0.000 HD 
HETATM    8  N   UNL     1      -9.458  10.371  66.805  1.00  0.00    -0.163 N  
HETATM    9  O   UNL     1      -7.299  11.118  66.756  1.00  0.00    -0.132 OA 
HETATM   10  C   UNL     1     -11.232  11.843  66.318  1.00  0.00    -0.392 C  
HETATM   11  C   UNL     1     -10.793  10.611  66.600  1.00  0.00    -0.131 C  
ENDROOT
BRANCH   8  12
HETATM   12  C   UNL     1      -9.035   9.100  67.373  1.00  0.00    -0.117 C  
BRANCH  12  13
HETATM   13  C   UNL     1     -10.064   8.365  68.258  1.00  0.00    -0.199 C  
BRANCH  13  14
HETATM   14  O   UNL     1      -9.601   8.321  69.647  1.00  0.00    -0.166 OA 
BRANCH  14  15
HETATM   15  C   UNL     1     -10.628   8.823  70.522  1.00  0.00    -0.215 C  
HETATM   16  P   UNL     1     -11.644   7.493  71.263  1.00  0.00    -0.298 P  
HETATM   17  O   UNL     1     -10.242   6.971  71.958  1.00  0.00    -0.190 OA 
HETATM   18  O   UNL     1     -12.102   8.634  72.358  1.00  0.00    -0.375 OA 
HETATM   19  O   UNL     1     -12.504   6.369  71.890  1.00  0.00    -0.337 OA 
ENDBRANCH  14  15
ENDBRANCH  13  14
BRANCH  13  20
HETATM   20  C   UNL     1     -10.290   6.923  67.776  1.00  0.00    -0.203 C  
HETATM   21  O   UNL     1     -10.576   6.910  66.376  1.00  0.00    -0.492 OA 
HETATM   22  H   UNL     1     -10.715   6.019  66.078  1.00  0.00     0.000 HD 
ENDBRANCH  13  20
ENDBRANCH  12  13
ENDBRANCH   8  12
TORSDOF 5
ENDMDL
MODEL      224
REMARK 921   NORMALIZED FREE ENERGY PREDICTED BY IDOCK:   -3.15 KCAL/MOL
REMARK 922        TOTAL FREE ENERGY PREDICTED BY IDOCK:   -5.01 KCAL/MOL
REMARK 923 INTER-LIGAND FREE ENERGY PREDICTED BY IDOCK:   -4.58 KCAL/MOL
REMARK 924 INTRA-LIGAND FREE ENERGY PREDICTED BY IDOCK:   -0.43 KCAL/MOL
REMARK 927      BINDING AFFINITY PREDICTED BY RF-SCORE:    0.00 PKD
ROOT
HETATM    1  N   UNL     1      -8.538   8.381  63.467  1.00  0.00    -0.415 NA 
HETATM    2  H1  UNL     1      -8.109   7.578  63.927  1.00  0.00     0.000 HD 
HETATM    3  C   UNL     1      -9.103   9.319  64.275  1.00  0.00    -0.021 C  
HETATM    4  H2  UNL     1      -8.544   8.476  62.451  1.00  0.00     0.000 HD 
HETATM    5  N   UNL     1      -9.649  10.341  63.689  1.00  0.00    -0.305 N  
HETATM    6  C   UNL     1     -10.303  11.292  64.433  1.00  0.00    -0.329 C  
HETATM    7  H   UNL     1      -9.592  10.438  62.675  1.00  0.00     0.000 HD 
HETATM    8  N   UNL     1     -10.416  11.086  65.811  1.00  0.00    -0.246 N  
HETATM    9  O   UNL     1     -10.803  12.284  63.905  1.00  0.00    -0.339 OA 
HETATM   10  C   UNL     1      -9.091   9.139  65.737  1.00  0.00    -0.265 C  
HETATM   11  C   UNL     1      -9.784  10.042  66.439  1.00  0.00    -0.210 C  
ENDROOT
BRANCH   8  12
HETATM   12  C   UNL     1     -11.378  11.891  66.547  1.00  0.00    -0.341 C  
BRANCH  12  13
HETATM   13  C   UNL     1     -11.322  11.794  68.087  1.00  0.00    -0.284 C  
BRANCH  13  14
HETATM   14  O   UNL     1     -12.473  11.041  68.592  1.00  0.00    -0.462 OA 
BRANCH  14  15
HETATM   15  C   UNL     1     -12.616  11.256  70.008  1.00  0.00    -0.104 C  
HETATM   16  P   UNL     1     -13.085   9.736  70.913  1.00  0.00    -0.035 P  
HETATM   17  O   UNL     1     -11.651   9.117  70.379  1.00  0.00    -0.242 OA 
HETATM   18  O   UNL     1     -12.570  10.537  72.257  1.00  0.00    -0.125 OA 
HETATM   19  O   UNL     1     -13.481   8.451  71.680  1.00  0.00    -0.337 OA 
ENDBRANCH  14  15
ENDBRANCH  13  14
BRANCH  13  20
HETATM   20  C   UNL     1     -11.332  13.187  68.737  1.00  0.00    -0.291 C  
HETATM   21  O   UNL     1     -10.156  13.911  68.369  1.00  0.00    -0.228 OA 
HETATM   22  H   UNL     1     -10.162  14.772  68.771  1.00  0.00     0.000 HD 
ENDBRANCH  13  20
ENDBRANCH  12  13
ENDBRANCH   8  12
TORSDOF 5
ENDMDL
MODEL      225
REMARK 921   NORMALIZED FREE ENERGY PREDICTED BY IDOCK:   -3.15 KCAL/MOL
REMARK 922        TOTAL FREE ENERGY PREDICTED BY IDOCK:   -5.01 KCAL/MOL
REMARK 923 INTER-LIGAND FREE ENERGY PREDICTED BY IDOCK:   -4.96 KCAL/MOL
REMARK 924 INTRA-LIGAND FREE ENERGY PREDICTED BY IDOCK:   -0.05 KCAL/MOL
REMARK 927      BINDING AFFINITY PREDICTED BY RF-SCORE:    0.00 PKD
ROOT
HETATM    1  N   UNL     1      -8.199   6.272  70.325  1.00  0.00    -0.123 NA 
HETATM    2  H1  UNL     1      -7.285   6.434  70.748  1.00  0.00     0.000 HD 
HETATM    3  C   UNL     1      -8.422   6.846  69.111  1.00  0.00    -0.129 C  
HETATM    4  H2  UNL     1      -8.911   5.707  70.788  1.00  0.00     0.000 HD 
HETATM    5  N   UNL     1      -9.584   6.639  68.572  1.00  0.00    -0.126 N  
HETATM    6  C   UNL     1      -9.909   7.246  67.383  1.00  0.00    -0.159 C  
HETATM    7  H   UNL     1     -10.257   6.026  69.032  1.00  0.00     0.000 HD 
HETATM    8  N   UNL     1      -8.983   8.131  66.823  1.00  0.00    -0.139 N  
HETATM    9  O   UNL     1     -10.992   7.043  66.838  1.00  0.00    -0.371 OA 
HETATM   10  C   UNL     1      -7.375   7.669  68.480  1.00  0.00    -0.095 C  
HETATM   11  C   UNL     1      -7.730   8.299  67.356  1.00  0.00    -0.102 C  
ENDROOT
BRANCH   8  12
HETATM   12  C   UNL     1      -9.441   9.021  65.768  1.00  0.00    -0.236 C  
BRANCH  12  13
HETATM   13  C   UNL     1     -10.144  10.320  66.218  1.00  0.00    -0.236 C  
BRANCH  13  14
HETATM   14  O   UNL     1      -9.833  11.414  65.296  1.00  0.00    -0.229 OA 
BRANCH  14  15
HETATM   15  C   UNL     1     -10.909  11.583  64.355  1.00  0.00    -0.342 C  
HETATM   16  P   UNL     1     -12.117  12.854  64.877  1.00  0.00    -0.482 P  
HETATM   17  O   UNL     1     -10.858  13.917  64.790  1.00  0.00    -0.376 OA 
HETATM   18  O   UNL     1     -12.601  12.851  63.303  1.00  0.00    -0.685 OA 
HETATM   19  O   UNL     1     -13.139  13.930  65.318  1.00  0.00    -0.777 OA 
ENDBRANCH  14  15
ENDBRANCH  13  14
BRANCH  13  20
HETATM   20  C   UNL     1      -9.702  10.736  67.631  1.00  0.00    -0.166 C  
HETATM   21  O   UNL     1     -10.526  11.800  68.112  1.00  0.00    -0.188 OA 
HETATM   22  H   UNL     1     -10.252  12.057  68.985  1.00  0.00     0.000 HD 
ENDBRANCH  13  20
ENDBRANCH  12  13
ENDBRANCH   8  12
TORSDOF 5
ENDMDL
MODEL      226
REMARK 921   NORMALIZED FREE ENERGY PREDICTED BY IDOCK:   -3.15 KCAL/MOL
REMARK 922        TOTAL FREE ENERGY PREDICTED BY IDOCK:   -5.00 KCAL/MOL
REMARK 923 INTER-LIGAND FREE ENERGY PREDICTED BY IDOCK:   -4.53 KCAL/MOL
REMARK 924 INTRA-LIGAND FREE ENERGY PREDICTED BY IDOCK:   -0.47 KCAL/MOL
REMARK 927      BINDING AFFINITY PREDICTED BY RF-SCORE:    0.00 PKD
ROOT
HETATM    1  N   UNL     1      -9.429   5.996  65.471  1.00  0.00    -0.359 NA 
HETATM    2  H1  UNL     1     -10.156   5.381  65.103  1.00  0.00     0.000 HD 
HETATM    3  C   UNL     1      -9.579   6.420  66.755  1.00  0.00    -0.155 C  
HETATM    4  H2  UNL     1      -8.630   6.278  64.904  1.00  0.00     0.000 HD 
HETATM    5  N   UNL     1      -8.655   7.201  67.223  1.00  0.00    -0.121 N  
HETATM    6  C   UNL     1      -8.774   7.729  68.486  1.00  0.00    -0.128 C  
HETATM    7  H   UNL     1      -7.838   7.423  66.653  1.00  0.00     0.000 HD 
HETATM    8  N   UNL     1      -9.939   7.453  69.206  1.00  0.00    -0.169 N  
HETATM    9  O   UNL     1      -7.897   8.448  68.963  1.00  0.00    -0.098 OA 
HETATM   10  C   UNL     1     -10.757   6.004  67.538  1.00  0.00    -0.383 C  
HETATM   11  C   UNL     1     -10.886   6.575  68.740  1.00  0.00    -0.299 C  
ENDROOT
BRANCH   8  12
HETATM   12  C   UNL     1     -10.227   8.263  70.379  1.00  0.00    -0.201 C  
BRANCH  12  13
HETATM   13  C   UNL     1     -11.708   8.628  70.619  1.00  0.00    -0.155 C  
BRANCH  13  14
HETATM   14  O   UNL     1     -11.890  10.080  70.558  1.00  0.00    -0.280 OA 
BRANCH  14  15
HETATM   15  C   UNL     1     -10.956  10.652  69.624  1.00  0.00    -0.278 C  
HETATM   16  P   UNL     1     -11.658  12.060  68.688  1.00  0.00    -0.343 P  
HETATM   17  O   UNL     1     -11.819  12.801  70.153  1.00  0.00    -0.319 OA 
HETATM   18  O   UNL     1     -10.093  12.439  68.343  1.00  0.00    -0.219 OA 
HETATM   19  O   UNL     1     -12.251  13.250  67.896  1.00  0.00    -0.275 OA 
ENDBRANCH  14  15
ENDBRANCH  13  14
BRANCH  13  20
HETATM   20  C   UNL     1     -12.191   8.136  71.992  1.00  0.00    -0.339 C  
HETATM   21  O   UNL     1     -12.576   6.762  71.916  1.00  0.00    -0.411 OA 
HETATM   22  H   UNL     1     -12.875   6.457  72.765  1.00  0.00     0.000 HD 
ENDBRANCH  13  20
ENDBRANCH  12  13
ENDBRANCH   8  12
TORSDOF 5
ENDMDL
MODEL      227
REMARK 921   NORMALIZED FREE ENERGY PREDICTED BY IDOCK:   -3.09 KCAL/MOL
REMARK 922        TOTAL FREE ENERGY PREDICTED BY IDOCK:   -4.94 KCAL/MOL
REMARK 923 INTER-LIGAND FREE ENERGY PREDICTED BY IDOCK:   -4.43 KCAL/MOL
REMARK 924 INTRA-LIGAND FREE ENERGY PREDICTED BY IDOCK:   -0.50 KCAL/MOL
REMARK 927      BINDING AFFINITY PREDICTED BY RF-SCORE:    0.00 PKD
ROOT
HETATM    1  N   UNL     1      -8.528   4.034  67.607  1.00  0.00    -0.097 NA 
HETATM    2  H1  UNL     1      -7.593   4.017  67.199  1.00  0.00     0.000 HD 
HETATM    3  C   UNL     1      -8.955   5.225  68.110  1.00  0.00    -0.109 C  
HETATM    4  H2  UNL     1      -9.115   3.200  67.636  1.00  0.00     0.000 HD 
HETATM    5  N   UNL     1     -10.144   5.246  68.628  1.00  0.00    -0.175 N  
HETATM    6  C   UNL     1     -10.616   6.392  69.222  1.00  0.00    -0.259 C  
HETATM    7  H   UNL     1     -10.730   4.411  68.595  1.00  0.00     0.000 HD 
HETATM    8  N   UNL     1      -9.756   7.490  69.305  1.00  0.00    -0.162 N  
HETATM    9  O   UNL     1     -11.750   6.446  69.694  1.00  0.00    -0.389 OA 
HETATM   10  C   UNL     1      -8.073   6.404  68.065  1.00  0.00    -0.116 C  
HETATM   11  C   UNL     1      -8.524   7.491  68.700  1.00  0.00    -0.129 C  
ENDROOT
BRANCH   8  12
HETATM   12  C   UNL     1     -10.111   8.570  70.212  1.00  0.00    -0.186 C  
BRANCH  12  13
HETATM   13  C   UNL     1     -10.699   9.845  69.569  1.00  0.00    -0.242 C  
BRANCH  13  14
HETATM   14  O   UNL     1      -9.632  10.806  69.278  1.00  0.00    -0.187 OA 
BRANCH  14  15
HETATM   15  C   UNL     1      -9.476  10.946  67.854  1.00  0.00    -0.159 C  
HETATM   16  P   UNL     1     -10.940  11.692  67.047  1.00  0.00    -0.313 P  
HETATM   17  O   UNL     1     -10.631  13.017  67.980  1.00  0.00    -0.223 OA 
HETATM   18  O   UNL     1      -9.928  11.987  65.782  1.00  0.00    -0.232 OA 
HETATM   19  O   UNL     1     -12.178  12.323  66.364  1.00  0.00    -0.613 OA 
ENDBRANCH  14  15
ENDBRANCH  13  14
BRANCH  13  20
HETATM   20  C   UNL     1     -11.720  10.521  70.498  1.00  0.00    -0.350 C  
HETATM   21  O   UNL     1     -12.999  10.584  69.862  1.00  0.00    -0.492 OA 
HETATM   22  H   UNL     1     -13.630  11.002  70.436  1.00  0.00     0.000 HD 
ENDBRANCH  13  20
ENDBRANCH  12  13
ENDBRANCH   8  12
TORSDOF 5
ENDMDL
MODEL      228
REMARK 921   NORMALIZED FREE ENERGY PREDICTED BY IDOCK:   -3.09 KCAL/MOL
REMARK 922        TOTAL FREE ENERGY PREDICTED BY IDOCK:   -4.93 KCAL/MOL
REMARK 923 INTER-LIGAND FREE ENERGY PREDICTED BY IDOCK:   -4.97 KCAL/MOL
REMARK 924 INTRA-LIGAND FREE ENERGY PREDICTED BY IDOCK:    0.04 KCAL/MOL
REMARK 927      BINDING AFFINITY PREDICTED BY RF-SCORE:    0.00 PKD
ROOT
HETATM    1  N   UNL     1     -10.376  17.947  65.575  1.00  0.00    -0.597 NA 
HETATM    2  H1  UNL     1      -9.500  18.462  65.483  1.00  0.00     0.000 HD 
HETATM    3  C   UNL     1     -10.285  16.651  65.980  1.00  0.00    -0.351 C  
HETATM    4  H2  UNL     1     -11.276  18.383  65.374  1.00  0.00     0.000 HD 
HETATM    5  N   UNL     1     -11.399  15.997  66.098  1.00  0.00     0.170 N  
HETATM    6  C   UNL     1     -11.383  14.665  66.431  1.00  0.00    -0.348 C  
HETATM    7  H   UNL     1     -12.289  16.473  65.943  1.00  0.00     0.000 HD 
HETATM    8  N   UNL     1     -10.143  14.037  66.569  1.00  0.00    -0.278 N  
HETATM    9  O   UNL     1     -12.427  14.030  66.578  1.00  0.00    -0.442 OA 
HETATM   10  C   UNL     1      -8.965  16.052  66.246  1.00  0.00    -0.380 C  
HETATM   11  C   UNL     1      -8.966  14.740  66.509  1.00  0.00    -0.233 C  
ENDROOT
BRANCH   8  12
HETATM   12  C   UNL     1     -10.110  12.583  66.584  1.00  0.00    -0.230 C  
BRANCH  12  13
HETATM   13  C   UNL     1     -10.789  11.865  65.397  1.00  0.00    -0.294 C  
BRANCH  13  14
HETATM   14  O   UNL     1     -10.523  10.426  65.453  1.00  0.00    -0.237 OA 
BRANCH  14  15
HETATM   15  C   UNL     1      -9.238  10.189  66.055  1.00  0.00    -0.158 C  
HETATM   16  P   UNL     1      -9.317   9.020  67.462  1.00  0.00    -0.140 P  
HETATM   17  O   UNL     1      -9.855   7.916  66.360  1.00  0.00    -0.216 OA 
HETATM   18  O   UNL     1      -7.691   8.866  67.253  1.00  0.00    -0.092 OA 
HETATM   19  O   UNL     1      -9.382   8.031  68.651  1.00  0.00    -0.146 OA 
ENDBRANCH  14  15
ENDBRANCH  13  14
BRANCH  13  20
HETATM   20  C   UNL     1     -10.278  12.401  64.051  1.00  0.00    -0.375 C  
HETATM   21  O   UNL     1     -10.582  11.476  63.004  1.00  0.00    -0.626 OA 
HETATM   22  H   UNL     1     -10.265  11.808  62.172  1.00  0.00     0.000 HD 
ENDBRANCH  13  20
ENDBRANCH  12  13
ENDBRANCH   8  12
TORSDOF 5
ENDMDL
MODEL      229
REMARK 921   NORMALIZED FREE ENERGY PREDICTED BY IDOCK:   -3.09 KCAL/MOL
REMARK 922        TOTAL FREE ENERGY PREDICTED BY IDOCK:   -4.93 KCAL/MOL
REMARK 923 INTER-LIGAND FREE ENERGY PREDICTED BY IDOCK:   -4.75 KCAL/MOL
REMARK 924 INTRA-LIGAND FREE ENERGY PREDICTED BY IDOCK:   -0.17 KCAL/MOL
REMARK 927      BINDING AFFINITY PREDICTED BY RF-SCORE:    0.00 PKD
ROOT
HETATM    1  N   UNL     1     -10.109   4.984  72.377  1.00  0.00    -0.181 NA 
HETATM    2  H1  UNL     1     -10.833   4.265  72.353  1.00  0.00     0.000 HD 
HETATM    3  C   UNL     1     -10.479   6.239  72.004  1.00  0.00    -0.207 C  
HETATM    4  H2  UNL     1      -9.154   4.771  72.668  1.00  0.00     0.000 HD 
HETATM    5  N   UNL     1      -9.558   7.152  72.036  1.00  0.00    -0.144 N  
HETATM    6  C   UNL     1      -9.836   8.426  71.604  1.00  0.00    -0.221 C  
HETATM    7  H   UNL     1      -8.625   6.924  72.383  1.00  0.00     0.000 HD 
HETATM    8  N   UNL     1     -11.105   8.678  71.075  1.00  0.00    -0.253 N  
HETATM    9  O   UNL     1      -8.989   9.316  71.652  1.00  0.00    -0.311 OA 
HETATM   10  C   UNL     1     -11.863   6.504  71.575  1.00  0.00    -0.386 C  
HETATM   11  C   UNL     1     -12.099   7.732  71.102  1.00  0.00    -0.286 C  
ENDROOT
BRANCH   8  12
HETATM   12  C   UNL     1     -11.299   9.903  70.317  1.00  0.00    -0.291 C  
BRANCH  12  13
HETATM   13  C   UNL     1     -10.350  10.132  69.121  1.00  0.00    -0.219 C  
BRANCH  13  14
HETATM   14  O   UNL     1     -10.000  11.550  69.012  1.00  0.00    -0.142 OA 
BRANCH  14  15
HETATM   15  C   UNL     1     -10.949  12.225  68.166  1.00  0.00    -0.231 C  
HETATM   16  P   UNL     1     -11.403  13.885  68.790  1.00  0.00    -0.319 P  
HETATM   17  O   UNL     1      -9.809  14.263  68.596  1.00  0.00    -0.232 OA 
HETATM   18  O   UNL     1     -11.953  14.162  67.263  1.00  0.00    -0.397 OA 
HETATM   19  O   UNL     1     -11.787  15.289  69.316  1.00  0.00    -0.312 OA 
ENDBRANCH  14  15
ENDBRANCH  13  14
BRANCH  13  20
HETATM   20  C   UNL     1     -10.997   9.689  67.799  1.00  0.00    -0.139 C  
HETATM   21  O   UNL     1     -11.088   8.264  67.747  1.00  0.00    -0.481 OA 
HETATM   22  H   UNL     1     -11.488   7.990  66.929  1.00  0.00     0.000 HD 
ENDBRANCH  13  20
ENDBRANCH  12  13
ENDBRANCH   8  12
TORSDOF 5
ENDMDL
MODEL      230
REMARK 921   NORMALIZED FREE ENERGY PREDICTED BY IDOCK:   -3.07 KCAL/MOL
REMARK 922        TOTAL FREE ENERGY PREDICTED BY IDOCK:   -4.91 KCAL/MOL
REMARK 923 INTER-LIGAND FREE ENERGY PREDICTED BY IDOCK:   -4.63 KCAL/MOL
REMARK 924 INTRA-LIGAND FREE ENERGY PREDICTED BY IDOCK:   -0.28 KCAL/MOL
REMARK 927      BINDING AFFINITY PREDICTED BY RF-SCORE:    0.00 PKD
ROOT
HETATM    1  N   UNL     1      -7.285  13.026  67.188  1.00  0.00    -0.364 NA 
HETATM    2  H1  UNL     1      -6.509  12.427  66.907  1.00  0.00     0.000 HD 
HETATM    3  C   UNL     1      -6.963  14.247  67.697  1.00  0.00    -0.184 C  
HETATM    4  H2  UNL     1      -8.255  12.726  67.092  1.00  0.00     0.000 HD 
HETATM    5  N   UNL     1      -7.951  15.009  68.054  1.00  0.00    -0.124 N  
HETATM    6  C   UNL     1      -7.703  16.224  68.644  1.00  0.00    -0.192 C  
HETATM    7  H   UNL     1      -8.912  14.705  67.896  1.00  0.00     0.000 HD 
HETATM    8  N   UNL     1      -6.374  16.571  68.902  1.00  0.00    -0.149 N  
HETATM    9  O   UNL     1      -8.621  16.977  68.964  1.00  0.00    -0.230 OA 
HETATM   10  C   UNL     1      -5.549  14.639  67.835  1.00  0.00    -0.113 C  
HETATM   11  C   UNL     1      -5.328  15.798  68.466  1.00  0.00    -0.103 C  
ENDROOT
BRANCH   8  12
HETATM   12  C   UNL     1      -6.120  17.675  69.814  1.00  0.00    -0.216 C  
BRANCH  12  13
HETATM   13  C   UNL     1      -6.377  19.096  69.265  1.00  0.00    -0.289 C  
BRANCH  13  14
HETATM   14  O   UNL     1      -5.330  19.470  68.312  1.00  0.00    -0.186 OA 
BRANCH  14  15
HETATM   15  C   UNL     1      -5.823  19.336  66.966  1.00  0.00    -0.174 C  
HETATM   16  P   UNL     1      -7.576  19.837  66.798  1.00  0.00    -0.281 P  
HETATM   17  O   UNL     1      -7.072  21.333  67.277  1.00  0.00    -0.522 OA 
HETATM   18  O   UNL     1      -7.258  19.928  65.185  1.00  0.00    -0.355 OA 
HETATM   19  O   UNL     1      -9.058  20.260  66.655  1.00  0.00    -0.328 OA 
ENDBRANCH  14  15
ENDBRANCH  13  14
BRANCH  13  20
HETATM   20  C   UNL     1      -6.399  20.137  70.395  1.00  0.00    -0.275 C  
HETATM   21  O   UNL     1      -5.464  21.183  70.120  1.00  0.00    -0.553 OA 
HETATM   22  H   UNL     1      -5.477  21.827  70.819  1.00  0.00     0.000 HD 
ENDBRANCH  13  20
ENDBRANCH  12  13
ENDBRANCH   8  12
TORSDOF 5
ENDMDL
MODEL      231
REMARK 921   NORMALIZED FREE ENERGY PREDICTED BY IDOCK:   -3.06 KCAL/MOL
REMARK 922        TOTAL FREE ENERGY PREDICTED BY IDOCK:   -4.89 KCAL/MOL
REMARK 923 INTER-LIGAND FREE ENERGY PREDICTED BY IDOCK:   -4.56 KCAL/MOL
REMARK 924 INTRA-LIGAND FREE ENERGY PREDICTED BY IDOCK:   -0.34 KCAL/MOL
REMARK 927      BINDING AFFINITY PREDICTED BY RF-SCORE:    0.00 PKD
ROOT
HETATM    1  N   UNL     1     -11.257   4.541  65.131  1.00  0.00    -1.047 NA 
HETATM    2  H1  UNL     1     -11.781   5.336  64.767  1.00  0.00     0.000 HD 
HETATM    3  C   UNL     1     -10.526   4.754  66.259  1.00  0.00    -0.269 C  
HETATM    4  H2  UNL     1     -11.279   3.630  64.672  1.00  0.00     0.000 HD 
HETATM    5  N   UNL     1      -9.859   3.742  66.722  1.00  0.00    -0.373 N  
HETATM    6  C   UNL     1      -9.041   3.899  67.814  1.00  0.00    -0.150 C  
HETATM    7  H   UNL     1      -9.942   2.829  66.275  1.00  0.00     0.000 HD 
HETATM    8  N   UNL     1      -8.904   5.180  68.354  1.00  0.00    -0.101 N  
HETATM    9  O   UNL     1      -8.421   2.949  68.289  1.00  0.00    -0.075 OA 
HETATM   10  C   UNL     1     -10.506   6.088  66.884  1.00  0.00    -0.344 C  
HETATM   11  C   UNL     1      -9.658   6.237  67.908  1.00  0.00    -0.118 C  
ENDROOT
BRANCH   8  12
HETATM   12  C   UNL     1      -7.804   5.421  69.274  1.00  0.00    -0.089 C  
BRANCH  12  13
HETATM   13  C   UNL     1      -8.181   5.928  70.683  1.00  0.00    -0.120 C  
BRANCH  13  14
HETATM   14  O   UNL     1      -9.626   5.812  70.895  1.00  0.00    -0.162 OA 
BRANCH  14  15
HETATM   15  C   UNL     1     -10.118   6.985  71.569  1.00  0.00    -0.187 C  
HETATM   16  P   UNL     1     -11.944   7.105  71.546  1.00  0.00    -0.366 P  
HETATM   17  O   UNL     1     -11.929   5.691  72.396  1.00  0.00    -0.235 OA 
HETATM   18  O   UNL     1     -11.757   8.183  72.777  1.00  0.00    -0.403 OA 
HETATM   19  O   UNL     1     -13.489   7.207  71.527  1.00  0.00    -0.383 OA 
ENDBRANCH  14  15
ENDBRANCH  13  14
BRANCH  13  20
HETATM   20  C   UNL     1      -7.780   7.399  70.876  1.00  0.00    -0.088 C  
HETATM   21  O   UNL     1      -6.862   7.798  69.855  1.00  0.00    -0.048 OA 
HETATM   22  H   UNL     1      -6.614   8.707  69.975  1.00  0.00     0.000 HD 
ENDBRANCH  13  20
ENDBRANCH  12  13
ENDBRANCH   8  12
TORSDOF 5
ENDMDL
MODEL      232
REMARK 921   NORMALIZED FREE ENERGY PREDICTED BY IDOCK:   -3.05 KCAL/MOL
REMARK 922        TOTAL FREE ENERGY PREDICTED BY IDOCK:   -4.89 KCAL/MOL
REMARK 923 INTER-LIGAND FREE ENERGY PREDICTED BY IDOCK:   -4.48 KCAL/MOL
REMARK 924 INTRA-LIGAND FREE ENERGY PREDICTED BY IDOCK:   -0.41 KCAL/MOL
REMARK 927      BINDING AFFINITY PREDICTED BY RF-SCORE:    0.00 PKD
ROOT
HETATM    1  N   UNL     1      -8.994   4.412  71.840  1.00  0.00    -0.122 NA 
HETATM    2  H1  UNL     1      -8.607   3.480  71.694  1.00  0.00     0.000 HD 
HETATM    3  C   UNL     1      -9.582   5.006  70.766  1.00  0.00    -0.180 C  
HETATM    4  H2  UNL     1      -8.945   4.876  72.747  1.00  0.00     0.000 HD 
HETATM    5  N   UNL     1     -10.075   6.192  70.952  1.00  0.00    -0.188 N  
HETATM    6  C   UNL     1     -10.618   6.885  69.898  1.00  0.00    -0.228 C  
HETATM    7  H   UNL     1     -10.060   6.610  71.883  1.00  0.00     0.000 HD 
HETATM    8  N   UNL     1     -10.557   6.303  68.628  1.00  0.00    -0.234 N  
HETATM    9  O   UNL     1     -11.118   7.997  70.054  1.00  0.00    -0.238 OA 
HETATM   10  C   UNL     1      -9.620   4.311  69.467  1.00  0.00    -0.274 C  
HETATM   11  C   UNL     1     -10.096   5.024  68.441  1.00  0.00    -0.107 C  
ENDROOT
BRANCH   8  12
HETATM   12  C   UNL     1     -10.812   7.151  67.474  1.00  0.00    -0.241 C  
BRANCH  12  13
HETATM   13  C   UNL     1      -9.694   8.141  67.085  1.00  0.00    -0.199 C  
BRANCH  13  14
HETATM   14  O   UNL     1     -10.271   9.378  66.554  1.00  0.00    -0.258 OA 
BRANCH  14  15
HETATM   15  C   UNL     1      -9.789  10.506  67.308  1.00  0.00    -0.177 C  
HETATM   16  P   UNL     1     -10.957  11.916  67.302  1.00  0.00    -0.304 P  
HETATM   17  O   UNL     1     -12.011  10.893  68.054  1.00  0.00    -0.586 OA 
HETATM   18  O   UNL     1     -10.103  12.457  68.602  1.00  0.00    -0.210 OA 
HETATM   19  O   UNL     1     -11.944  13.108  67.298  1.00  0.00    -0.370 OA 
ENDBRANCH  14  15
ENDBRANCH  13  14
BRANCH  13  20
HETATM   20  C   UNL     1      -8.762   7.544  66.019  1.00  0.00    -0.158 C  
HETATM   21  O   UNL     1      -8.901   8.257  64.787  1.00  0.00    -0.405 OA 
HETATM   22  H   UNL     1      -8.325   7.887  64.128  1.00  0.00     0.000 HD 
ENDBRANCH  13  20
ENDBRANCH  12  13
ENDBRANCH   8  12
TORSDOF 5
ENDMDL
MODEL      233
REMARK 921   NORMALIZED FREE ENERGY PREDICTED BY IDOCK:   -3.04 KCAL/MOL
REMARK 922        TOTAL FREE ENERGY PREDICTED BY IDOCK:   -4.86 KCAL/MOL
REMARK 923 INTER-LIGAND FREE ENERGY PREDICTED BY IDOCK:   -4.26 KCAL/MOL
REMARK 924 INTRA-LIGAND FREE ENERGY PREDICTED BY IDOCK:   -0.60 KCAL/MOL
REMARK 927      BINDING AFFINITY PREDICTED BY RF-SCORE:    0.00 PKD
ROOT
HETATM    1  N   UNL     1     -13.623   9.709  70.810  1.00  0.00    -0.563 NA 
HETATM    2  H1  UNL     1     -13.558  10.725  70.741  1.00  0.00     0.000 HD 
HETATM    3  C   UNL     1     -12.469   9.040  71.086  1.00  0.00    -0.231 C  
HETATM    4  H2  UNL     1     -14.507   9.218  70.679  1.00  0.00     0.000 HD 
HETATM    5  N   UNL     1     -12.551   7.748  71.174  1.00  0.00    -0.485 N  
HETATM    6  C   UNL     1     -11.418   6.999  71.377  1.00  0.00    -0.276 C  
HETATM    7  H   UNL     1     -13.458   7.288  71.093  1.00  0.00     0.000 HD 
HETATM    8  N   UNL     1     -10.189   7.664  71.415  1.00  0.00    -0.186 N  
HETATM    9  O   UNL     1     -11.473   5.776  71.493  1.00  0.00    -0.203 OA 
HETATM   10  C   UNL     1     -11.207   9.782  71.252  1.00  0.00    -0.417 C  
HETATM   11  C   UNL     1     -10.107   9.034  71.387  1.00  0.00    -0.329 C  
ENDROOT
BRANCH   8  12
HETATM   12  C   UNL     1      -8.977   6.870  71.289  1.00  0.00    -0.142 C  
BRANCH  12  13
HETATM   13  C   UNL     1      -7.936   7.359  70.258  1.00  0.00    -0.107 C  
BRANCH  13  14
HETATM   14  O   UNL     1      -8.027   6.567  69.029  1.00  0.00    -0.108 OA 
BRANCH  14  15
HETATM   15  C   UNL     1      -9.123   7.038  68.223  1.00  0.00    -0.126 C  
HETATM   16  P   UNL     1      -9.825   5.734  67.147  1.00  0.00    -0.182 P  
HETATM   17  O   UNL     1     -10.195   4.943  68.547  1.00  0.00    -0.128 OA 
HETATM   18  O   UNL     1     -11.132   6.727  67.022  1.00  0.00    -0.403 OA 
HETATM   19  O   UNL     1     -10.419   4.633  66.236  1.00  0.00    -0.284 OA 
ENDBRANCH  14  15
ENDBRANCH  13  14
BRANCH  13  20
HETATM   20  C   UNL     1      -6.506   7.240  70.807  1.00  0.00    -0.043 C  
HETATM   21  O   UNL     1      -6.490   7.523  72.208  1.00  0.00    -0.049 OA 
HETATM   22  H   UNL     1      -5.605   7.450  72.547  1.00  0.00     0.000 HD 
ENDBRANCH  13  20
ENDBRANCH  12  13
ENDBRANCH   8  12
TORSDOF 5
ENDMDL
MODEL      234
REMARK 921   NORMALIZED FREE ENERGY PREDICTED BY IDOCK:   -3.02 KCAL/MOL
REMARK 922        TOTAL FREE ENERGY PREDICTED BY IDOCK:   -4.84 KCAL/MOL
REMARK 923 INTER-LIGAND FREE ENERGY PREDICTED BY IDOCK:   -4.39 KCAL/MOL
REMARK 924 INTRA-LIGAND FREE ENERGY PREDICTED BY IDOCK:   -0.45 KCAL/MOL
REMARK 927      BINDING AFFINITY PREDICTED BY RF-SCORE:    0.00 PKD
ROOT
HETATM    1  N   UNL     1     -10.755  10.843  69.760  1.00  0.00    -0.434 NA 
HETATM    2  H1  UNL     1      -9.822  11.240  69.653  1.00  0.00     0.000 HD 
HETATM    3  C   UNL     1     -10.859   9.719  70.520  1.00  0.00    -0.323 C  
HETATM    4  H2  UNL     1     -11.571  11.267  69.318  1.00  0.00     0.000 HD 
HETATM    5  N   UNL     1     -12.046   9.214  70.655  1.00  0.00    -0.476 N  
HETATM    6  C   UNL     1     -12.220   8.039  71.346  1.00  0.00    -0.309 C  
HETATM    7  H   UNL     1     -12.852   9.689  70.248  1.00  0.00     0.000 HD 
HETATM    8  N   UNL     1     -11.082   7.387  71.829  1.00  0.00    -0.234 N  
HETATM    9  O   UNL     1     -13.338   7.556  71.514  1.00  0.00    -0.356 OA 
HETATM   10  C   UNL     1      -9.655   9.125  71.128  1.00  0.00    -0.347 C  
HETATM   11  C   UNL     1      -9.834   7.952  71.745  1.00  0.00    -0.173 C  
ENDROOT
BRANCH   8  12
HETATM   12  C   UNL     1     -11.216   6.003  72.255  1.00  0.00    -0.293 C  
BRANCH  12  13
HETATM   13  C   UNL     1     -10.128   5.023  71.766  1.00  0.00    -0.200 C  
BRANCH  13  14
HETATM   14  O   UNL     1     -10.355   4.668  70.363  1.00  0.00    -0.195 OA 
BRANCH  14  15
HETATM   15  C   UNL     1      -9.377   3.701  69.938  1.00  0.00    -0.176 C  
HETATM   16  P   UNL     1      -9.268   3.554  68.117  1.00  0.00    -0.167 P  
HETATM   17  O   UNL     1      -8.813   5.139  68.135  1.00  0.00    -0.102 OA 
HETATM   18  O   UNL     1      -7.814   2.833  68.395  1.00  0.00    -0.054 OA 
HETATM   19  O   UNL     1      -9.175   3.428  66.577  1.00  0.00    -0.153 OA 
ENDBRANCH  14  15
ENDBRANCH  13  14
BRANCH  13  20
HETATM   20  C   UNL     1     -10.122   3.730  72.598  1.00  0.00    -0.163 C  
HETATM   21  O   UNL     1     -11.130   3.791  73.610  1.00  0.00    -0.234 OA 
HETATM   22  H   UNL     1     -11.126   2.992  74.125  1.00  0.00     0.000 HD 
ENDBRANCH  13  20
ENDBRANCH  12  13
ENDBRANCH   8  12
TORSDOF 5
ENDMDL
MODEL      235
REMARK 921   NORMALIZED FREE ENERGY PREDICTED BY IDOCK:   -3.00 KCAL/MOL
REMARK 922        TOTAL FREE ENERGY PREDICTED BY IDOCK:   -4.82 KCAL/MOL
REMARK 923 INTER-LIGAND FREE ENERGY PREDICTED BY IDOCK:   -4.20 KCAL/MOL
REMARK 924 INTRA-LIGAND FREE ENERGY PREDICTED BY IDOCK:   -0.61 KCAL/MOL
REMARK 927      BINDING AFFINITY PREDICTED BY RF-SCORE:    0.00 PKD
ROOT
HETATM    1  N   UNL     1     -13.153  10.674  72.071  1.00  0.00    -0.518 NA 
HETATM    2  H1  UNL     1     -13.797  11.382  71.719  1.00  0.00     0.000 HD 
HETATM    3  C   UNL     1     -12.184  10.249  71.214  1.00  0.00    -0.395 C  
HETATM    4  H2  UNL     1     -13.230  10.303  73.018  1.00  0.00     0.000 HD 
HETATM    5  N   UNL     1     -11.364   9.348  71.663  1.00  0.00    -0.389 N  
HETATM    6  C   UNL     1     -10.406   8.817  70.834  1.00  0.00    -0.223 C  
HETATM    7  H   UNL     1     -11.430   9.035  72.632  1.00  0.00     0.000 HD 
HETATM    8  N   UNL     1     -10.394   9.224  69.498  1.00  0.00    -0.208 N  
HETATM    9  O   UNL     1      -9.598   7.984  71.243  1.00  0.00    -0.152 OA 
HETATM   10  C   UNL     1     -12.114  10.795  69.848  1.00  0.00    -0.410 C  
HETATM   11  C   UNL     1     -11.216  10.223  69.039  1.00  0.00    -0.208 C  
ENDROOT
BRANCH   8  12
HETATM   12  C   UNL     1      -9.624   8.435  68.548  1.00  0.00    -0.149 C  
BRANCH  12  13
HETATM   13  C   UNL     1     -10.106   6.989  68.303  1.00  0.00    -0.167 C  
BRANCH  13  14
HETATM   14  O   UNL     1      -9.016   6.173  67.764  1.00  0.00    -0.117 OA 
BRANCH  14  15
HETATM   15  C   UNL     1      -7.854   6.994  67.542  1.00  0.00    -0.112 C  
HETATM   16  P   UNL     1      -6.984   6.588  65.984  1.00  0.00    -0.064 P  
HETATM   17  O   UNL     1      -8.381   7.029  65.227  1.00  0.00    -0.136 OA 
HETATM   18  O   UNL     1      -6.270   8.062  66.154  1.00  0.00    -0.044 OA 
HETATM   19  O   UNL     1      -6.247   6.246  64.667  1.00  0.00    -0.029 OA 
ENDBRANCH  14  15
ENDBRANCH  13  14
BRANCH  13  20
HETATM   20  C   UNL     1     -11.278   6.950  67.310  1.00  0.00    -0.161 C  
HETATM   21  O   UNL     1     -11.062   5.931  66.331  1.00  0.00    -0.722 OA 
HETATM   22  H   UNL     1     -11.786   5.907  65.717  1.00  0.00     0.000 HD 
ENDBRANCH  13  20
ENDBRANCH  12  13
ENDBRANCH   8  12
TORSDOF 5
ENDMDL
MODEL      236
REMARK 921   NORMALIZED FREE ENERGY PREDICTED BY IDOCK:   -3.00 KCAL/MOL
REMARK 922        TOTAL FREE ENERGY PREDICTED BY IDOCK:   -4.81 KCAL/MOL
REMARK 923 INTER-LIGAND FREE ENERGY PREDICTED BY IDOCK:   -4.54 KCAL/MOL
REMARK 924 INTRA-LIGAND FREE ENERGY PREDICTED BY IDOCK:   -0.27 KCAL/MOL
REMARK 927      BINDING AFFINITY PREDICTED BY RF-SCORE:    0.00 PKD
ROOT
HETATM    1  N   UNL     1     -12.278   9.502  71.934  1.00  0.00    -0.374 NA 
HETATM    2  H1  UNL     1     -12.071  10.488  72.098  1.00  0.00     0.000 HD 
HETATM    3  C   UNL     1     -11.356   8.792  71.229  1.00  0.00    -0.291 C  
HETATM    4  H2  UNL     1     -13.134   9.070  72.283  1.00  0.00     0.000 HD 
HETATM    5  N   UNL     1     -11.619   7.539  71.021  1.00  0.00    -0.279 N  
HETATM    6  C   UNL     1     -10.772   6.775  70.255  1.00  0.00    -0.244 C  
HETATM    7  H   UNL     1     -12.456   7.119  71.428  1.00  0.00     0.000 HD 
HETATM    8  N   UNL     1      -9.675   7.406  69.663  1.00  0.00    -0.163 N  
HETATM    9  O   UNL     1     -10.984   5.578  70.068  1.00  0.00    -0.301 OA 
HETATM   10  C   UNL     1     -10.139   9.455  70.727  1.00  0.00    -0.366 C  
HETATM   11  C   UNL     1      -9.359   8.713  69.934  1.00  0.00    -0.159 C  
ENDROOT
BRANCH   8  12
HETATM   12  C   UNL     1      -8.977   6.705  68.596  1.00  0.00    -0.124 C  
BRANCH  12  13
HETATM   13  C   UNL     1      -9.240   7.201  67.158  1.00  0.00    -0.134 C  
BRANCH  13  14
HETATM   14  O   UNL     1      -8.551   8.472  66.924  1.00  0.00    -0.114 OA 
BRANCH  14  15
HETATM   15  C   UNL     1      -9.372   9.332  66.113  1.00  0.00    -0.212 C  
HETATM   16  P   UNL     1      -8.508   9.936  64.616  1.00  0.00    -0.202 P  
HETATM   17  O   UNL     1      -8.407   8.348  64.179  1.00  0.00    -0.153 OA 
HETATM   18  O   UNL     1     -10.014  10.294  64.054  1.00  0.00    -0.299 OA 
HETATM   19  O   UNL     1      -7.779  10.447  63.350  1.00  0.00    -0.145 OA 
ENDBRANCH  14  15
ENDBRANCH  13  14
BRANCH  13  20
HETATM   20  C   UNL     1     -10.741   7.409  66.903  1.00  0.00    -0.254 C  
HETATM   21  O   UNL     1     -11.374   6.157  66.628  1.00  0.00    -0.727 OA 
HETATM   22  H   UNL     1     -12.302   6.286  66.470  1.00  0.00     0.000 HD 
ENDBRANCH  13  20
ENDBRANCH  12  13
ENDBRANCH   8  12
TORSDOF 5
ENDMDL
MODEL      237
REMARK 921   NORMALIZED FREE ENERGY PREDICTED BY IDOCK:   -2.99 KCAL/MOL
REMARK 922        TOTAL FREE ENERGY PREDICTED BY IDOCK:   -4.80 KCAL/MOL
REMARK 923 INTER-LIGAND FREE ENERGY PREDICTED BY IDOCK:   -5.07 KCAL/MOL
REMARK 924 INTRA-LIGAND FREE ENERGY PREDICTED BY IDOCK:    0.27 KCAL/MOL
REMARK 927      BINDING AFFINITY PREDICTED BY RF-SCORE:    0.00 PKD
ROOT
HETATM    1  N   UNL     1     -10.292  18.087  65.721  1.00  0.00    -0.618 NA 
HETATM    2  H1  UNL     1      -9.460  18.627  65.482  1.00  0.00     0.000 HD 
HETATM    3  C   UNL     1     -10.089  16.826  66.193  1.00  0.00    -0.345 C  
HETATM    4  H2  UNL     1     -11.230  18.473  65.612  1.00  0.00     0.000 HD 
HETATM    5  N   UNL     1     -11.147  16.140  66.498  1.00  0.00    -0.035 N  
HETATM    6  C   UNL     1     -11.026  14.836  66.911  1.00  0.00    -0.328 C  
HETATM    7  H   UNL     1     -12.070  16.570  66.431  1.00  0.00     0.000 HD 
HETATM    8  N   UNL     1      -9.750  14.267  66.924  1.00  0.00    -0.255 N  
HETATM    9  O   UNL     1     -12.011  14.174  67.233  1.00  0.00    -0.397 OA 
HETATM   10  C   UNL     1      -8.719  16.298  66.321  1.00  0.00    -0.370 C  
HETATM   11  C   UNL     1      -8.625  15.009  66.666  1.00  0.00    -0.211 C  
ENDROOT
BRANCH   8  12
HETATM   12  C   UNL     1      -9.647  12.819  67.028  1.00  0.00    -0.229 C  
BRANCH  12  13
HETATM   13  C   UNL     1     -10.509  11.995  66.047  1.00  0.00    -0.249 C  
BRANCH  13  14
HETATM   14  O   UNL     1     -11.251  10.959  66.769  1.00  0.00    -0.244 OA 
BRANCH  14  15
HETATM   15  C   UNL     1     -10.597  10.669  68.018  1.00  0.00    -0.211 C  
HETATM   16  P   UNL     1     -11.425  11.448  69.453  1.00  0.00    -0.353 P  
HETATM   17  O   UNL     1     -12.732  10.527  69.048  1.00  0.00    -0.013 OA 
HETATM   18  O   UNL     1     -10.579  10.365  70.360  1.00  0.00    -0.233 OA 
HETATM   19  O   UNL     1     -12.124  12.106  70.666  1.00  0.00    -0.365 OA 
ENDBRANCH  14  15
ENDBRANCH  13  14
BRANCH  13  20
HETATM   20  C   UNL     1      -9.643  11.314  64.976  1.00  0.00    -0.233 C  
HETATM   21  O   UNL     1     -10.235  10.075  64.578  1.00  0.00    -0.377 OA 
HETATM   22  H   UNL     1      -9.699   9.653  63.916  1.00  0.00     0.000 HD 
ENDBRANCH  13  20
ENDBRANCH  12  13
ENDBRANCH   8  12
TORSDOF 5
ENDMDL
MODEL      238
REMARK 921   NORMALIZED FREE ENERGY PREDICTED BY IDOCK:   -2.97 KCAL/MOL
REMARK 922        TOTAL FREE ENERGY PREDICTED BY IDOCK:   -4.77 KCAL/MOL
REMARK 923 INTER-LIGAND FREE ENERGY PREDICTED BY IDOCK:   -3.97 KCAL/MOL
REMARK 924 INTRA-LIGAND FREE ENERGY PREDICTED BY IDOCK:   -0.80 KCAL/MOL
REMARK 927      BINDING AFFINITY PREDICTED BY RF-SCORE:    0.00 PKD
ROOT
HETATM    1  N   UNL     1     -13.484  10.865  72.222  1.00  0.00    -0.528 NA 
HETATM    2  H1  UNL     1     -13.956  11.700  71.874  1.00  0.00     0.000 HD 
HETATM    3  C   UNL     1     -12.563  10.294  71.398  1.00  0.00    -0.434 C  
HETATM    4  H2  UNL     1     -13.692  10.477  73.142  1.00  0.00     0.000 HD 
HETATM    5  N   UNL     1     -11.963   9.233  71.842  1.00  0.00    -0.371 N  
HETATM    6  C   UNL     1     -11.075   8.559  71.040  1.00  0.00    -0.260 C  
HETATM    7  H   UNL     1     -12.150   8.898  72.787  1.00  0.00     0.000 HD 
HETATM    8  N   UNL     1     -10.898   9.012  69.729  1.00  0.00    -0.227 N  
HETATM    9  O   UNL     1     -10.471   7.567  71.447  1.00  0.00    -0.209 OA 
HETATM   10  C   UNL     1     -12.301  10.873  70.069  1.00  0.00    -0.385 C  
HETATM   11  C   UNL     1     -11.481  10.171  69.281  1.00  0.00    -0.108 C  
ENDROOT
BRANCH   8  12
HETATM   12  C   UNL     1     -10.236   8.128  68.783  1.00  0.00    -0.207 C  
BRANCH  12  13
HETATM   13  C   UNL     1      -8.926   8.648  68.154  1.00  0.00    -0.141 C  
BRANCH  13  14
HETATM   14  O   UNL     1      -8.677   7.984  66.873  1.00  0.00    -0.124 OA 
BRANCH  14  15
HETATM   15  C   UNL     1      -9.745   7.062  66.584  1.00  0.00    -0.166 C  
HETATM   16  P   UNL     1      -9.140   5.413  66.069  1.00  0.00    -0.144 P  
HETATM   17  O   UNL     1      -8.448   5.331  67.565  1.00  0.00    -0.107 OA 
HETATM   18  O   UNL     1     -10.660   4.891  66.426  1.00  0.00    -0.297 OA 
HETATM   19  O   UNL     1      -8.630   4.018  65.635  1.00  0.00    -0.109 OA 
ENDBRANCH  14  15
ENDBRANCH  13  14
BRANCH  13  20
HETATM   20  C   UNL     1      -7.722   8.391  69.075  1.00  0.00    -0.097 C  
HETATM   21  O   UNL     1      -6.688   7.712  68.357  1.00  0.00    -0.057 OA 
HETATM   22  H   UNL     1      -5.944   7.553  68.926  1.00  0.00     0.000 HD 
ENDBRANCH  13  20
ENDBRANCH  12  13
ENDBRANCH   8  12
TORSDOF 5
ENDMDL
MODEL      239
REMARK 921   NORMALIZED FREE ENERGY PREDICTED BY IDOCK:   -2.95 KCAL/MOL
REMARK 922        TOTAL FREE ENERGY PREDICTED BY IDOCK:   -4.75 KCAL/MOL
REMARK 923 INTER-LIGAND FREE ENERGY PREDICTED BY IDOCK:   -4.62 KCAL/MOL
REMARK 924 INTRA-LIGAND FREE ENERGY PREDICTED BY IDOCK:   -0.13 KCAL/MOL
REMARK 927      BINDING AFFINITY PREDICTED BY RF-SCORE:    0.00 PKD
ROOT
HETATM    1  N   UNL     1     -10.488  14.406  64.117  1.00  0.00    -0.309 NA 
HETATM    2  H1  UNL     1     -11.373  14.670  63.685  1.00  0.00     0.000 HD 
HETATM    3  C   UNL     1     -10.555  13.560  65.181  1.00  0.00    -0.355 C  
HETATM    4  H2  UNL     1      -9.596  14.759  63.769  1.00  0.00     0.000 HD 
HETATM    5  N   UNL     1      -9.428  13.224  65.731  1.00  0.00    -0.482 N  
HETATM    6  C   UNL     1      -9.419  12.433  66.854  1.00  0.00    -0.219 C  
HETATM    7  H   UNL     1      -8.548  13.548  65.329  1.00  0.00     0.000 HD 
HETATM    8  N   UNL     1     -10.649  12.068  67.410  1.00  0.00    -0.218 N  
HETATM    9  O   UNL     1      -8.364  12.077  67.376  1.00  0.00    -0.154 OA 
HETATM   10  C   UNL     1     -11.863  13.085  65.666  1.00  0.00    -0.445 C  
HETATM   11  C   UNL     1     -11.838  12.367  66.794  1.00  0.00    -0.315 C  
ENDROOT
BRANCH   8  12
HETATM   12  C   UNL     1     -10.655  11.530  68.761  1.00  0.00    -0.211 C  
BRANCH  12  13
HETATM   13  C   UNL     1     -11.104  10.061  68.915  1.00  0.00    -0.176 C  
BRANCH  13  14
HETATM   14  O   UNL     1     -11.461   9.781  70.308  1.00  0.00    -0.253 OA 
BRANCH  14  15
HETATM   15  C   UNL     1     -10.380   9.090  70.961  1.00  0.00    -0.278 C  
HETATM   16  P   UNL     1     -10.953   7.698  72.002  1.00  0.00    -0.282 P  
HETATM   17  O   UNL     1     -11.535   7.047  70.603  1.00  0.00    -0.292 OA 
HETATM   18  O   UNL     1      -9.392   7.178  71.934  1.00  0.00    -0.140 OA 
HETATM   19  O   UNL     1     -11.436   6.519  72.882  1.00  0.00    -0.189 OA 
ENDBRANCH  14  15
ENDBRANCH  13  14
BRANCH  13  20
HETATM   20  C   UNL     1      -9.991   9.087  68.496  1.00  0.00    -0.176 C  
HETATM   21  O   UNL     1      -8.710   9.694  68.680  1.00  0.00    -0.121 OA 
HETATM   22  H   UNL     1      -8.022   9.092  68.420  1.00  0.00     0.000 HD 
ENDBRANCH  13  20
ENDBRANCH  12  13
ENDBRANCH   8  12
TORSDOF 5
ENDMDL
MODEL      240
REMARK 921   NORMALIZED FREE ENERGY PREDICTED BY IDOCK:   -2.94 KCAL/MOL
REMARK 922        TOTAL FREE ENERGY PREDICTED BY IDOCK:   -4.74 KCAL/MOL
REMARK 923 INTER-LIGAND FREE ENERGY PREDICTED BY IDOCK:   -4.16 KCAL/MOL
REMARK 924 INTRA-LIGAND FREE ENERGY PREDICTED BY IDOCK:   -0.58 KCAL/MOL
REMARK 927      BINDING AFFINITY PREDICTED BY RF-SCORE:    0.00 PKD
ROOT
HETATM    1  N   UNL     1     -10.782  18.082  67.918  1.00  0.00    -0.372 NA 
HETATM    2  H1  UNL     1     -10.029  18.727  67.678  1.00  0.00     0.000 HD 
HETATM    3  C   UNL     1     -10.530  16.756  67.745  1.00  0.00    -0.335 C  
HETATM    4  H2  UNL     1     -11.680  18.415  68.270  1.00  0.00     0.000 HD 
HETATM    5  N   UNL     1     -11.488  15.935  68.051  1.00  0.00    -0.292 N  
HETATM    6  C   UNL     1     -11.334  14.588  67.835  1.00  0.00    -0.310 C  
HETATM    7  H   UNL     1     -12.355  16.292  68.453  1.00  0.00     0.000 HD 
HETATM    8  N   UNL     1     -10.157  14.150  67.221  1.00  0.00    -0.253 N  
HETATM    9  O   UNL     1     -12.216  13.787  68.143  1.00  0.00    -0.331 OA 
HETATM   10  C   UNL     1      -9.226  16.314  67.219  1.00  0.00    -0.217 C  
HETATM   11  C   UNL     1      -9.118  15.007  66.958  1.00  0.00    -0.230 C  
ENDROOT
BRANCH   8  12
HETATM   12  C   UNL     1     -10.126  12.798  66.687  1.00  0.00    -0.243 C  
BRANCH  12  13
HETATM   13  C   UNL     1      -8.840  11.983  66.947  1.00  0.00    -0.197 C  
BRANCH  13  14
HETATM   14  O   UNL     1      -8.815  10.788  66.100  1.00  0.00    -0.164 OA 
BRANCH  14  15
HETATM   15  C   UNL     1      -9.878   9.896  66.481  1.00  0.00    -0.215 C  
HETATM   16  P   UNL     1      -9.407   8.132  66.349  1.00  0.00    -0.179 P  
HETATM   17  O   UNL     1      -8.260   8.476  67.484  1.00  0.00    -0.115 OA 
HETATM   18  O   UNL     1     -10.703   7.850  67.326  1.00  0.00    -0.301 OA 
HETATM   19  O   UNL     1      -9.009   6.640  66.239  1.00  0.00    -0.149 OA 
ENDBRANCH  14  15
ENDBRANCH  13  14
BRANCH  13  20
HETATM   20  C   UNL     1      -8.746  11.539  68.415  1.00  0.00    -0.160 C  
HETATM   21  O   UNL     1      -7.432  11.053  68.700  1.00  0.00    -0.096 OA 
HETATM   22  H   UNL     1      -7.373  10.778  69.607  1.00  0.00     0.000 HD 
ENDBRANCH  13  20
ENDBRANCH  12  13
ENDBRANCH   8  12
TORSDOF 5
ENDMDL
MODEL      241
REMARK 921   NORMALIZED FREE ENERGY PREDICTED BY IDOCK:   -2.94 KCAL/MOL
REMARK 922        TOTAL FREE ENERGY PREDICTED BY IDOCK:   -4.73 KCAL/MOL
REMARK 923 INTER-LIGAND FREE ENERGY PREDICTED BY IDOCK:   -4.21 KCAL/MOL
REMARK 924 INTRA-LIGAND FREE ENERGY PREDICTED BY IDOCK:   -0.53 KCAL/MOL
REMARK 927      BINDING AFFINITY PREDICTED BY RF-SCORE:    0.00 PKD
ROOT
HETATM    1  N   UNL     1     -12.509  14.409  69.335  1.00  0.00    -0.548 NA 
HETATM    2  H1  UNL     1     -12.505  15.365  68.978  1.00  0.00     0.000 HD 
HETATM    3  C   UNL     1     -11.442  13.629  69.008  1.00  0.00    -0.301 C  
HETATM    4  H2  UNL     1     -13.274  14.055  69.909  1.00  0.00     0.000 HD 
HETATM    5  N   UNL     1     -11.447  12.414  69.463  1.00  0.00    -0.415 N  
HETATM    6  C   UNL     1     -10.442  11.545  69.114  1.00  0.00    -0.101 C  
HETATM    7  H   UNL     1     -12.198  12.103  70.080  1.00  0.00     0.000 HD 
HETATM    8  N   UNL     1      -9.471  11.991  68.214  1.00  0.00    -0.199 N  
HETATM    9  O   UNL     1     -10.409  10.397  69.555  1.00  0.00    -0.222 OA 
HETATM   10  C   UNL     1     -10.364  14.170  68.162  1.00  0.00    -0.239 C  
HETATM   11  C   UNL     1      -9.427  13.293  67.785  1.00  0.00    -0.208 C  
ENDROOT
BRANCH   8  12
HETATM   12  C   UNL     1      -8.614  10.998  67.584  1.00  0.00    -0.125 C  
BRANCH  12  13
HETATM   13  C   UNL     1      -9.063  10.477  66.202  1.00  0.00    -0.162 C  
BRANCH  13  14
HETATM   14  O   UNL     1      -9.987   9.352  66.357  1.00  0.00    -0.244 OA 
BRANCH  14  15
HETATM   15  C   UNL     1      -9.304   8.115  66.080  1.00  0.00    -0.166 C  
HETATM   16  P   UNL     1      -9.503   6.879  67.415  1.00  0.00    -0.142 P  
HETATM   17  O   UNL     1     -11.117   6.948  67.076  1.00  0.00    -0.389 OA 
HETATM   18  O   UNL     1      -9.019   5.780  66.288  1.00  0.00    -0.137 OA 
HETATM   19  O   UNL     1      -9.672   5.832  68.543  1.00  0.00    -0.121 OA 
ENDBRANCH  14  15
ENDBRANCH  13  14
BRANCH  13  20
HETATM   20  C   UNL     1      -7.864  10.007  65.363  1.00  0.00    -0.136 C  
HETATM   21  O   UNL     1      -7.746  10.802  64.181  1.00  0.00    -0.354 OA 
HETATM   22  H   UNL     1      -7.005  10.512  63.663  1.00  0.00     0.000 HD 
ENDBRANCH  13  20
ENDBRANCH  12  13
ENDBRANCH   8  12
TORSDOF 5
ENDMDL
MODEL      242
REMARK 921   NORMALIZED FREE ENERGY PREDICTED BY IDOCK:   -2.94 KCAL/MOL
REMARK 922        TOTAL FREE ENERGY PREDICTED BY IDOCK:   -4.73 KCAL/MOL
REMARK 923 INTER-LIGAND FREE ENERGY PREDICTED BY IDOCK:   -4.29 KCAL/MOL
REMARK 924 INTRA-LIGAND FREE ENERGY PREDICTED BY IDOCK:   -0.44 KCAL/MOL
REMARK 927      BINDING AFFINITY PREDICTED BY RF-SCORE:    0.00 PKD
ROOT
HETATM    1  N   UNL     1      -9.338  11.898  63.085  1.00  0.00    -0.665 NA 
HETATM    2  H1  UNL     1      -9.738  12.835  63.039  1.00  0.00     0.000 HD 
HETATM    3  C   UNL     1      -9.590  11.178  64.213  1.00  0.00    -0.252 C  
HETATM    4  H2  UNL     1      -8.776  11.518  62.323  1.00  0.00     0.000 HD 
HETATM    5  N   UNL     1      -9.081   9.986  64.270  1.00  0.00    -0.235 N  
HETATM    6  C   UNL     1      -9.231   9.228  65.406  1.00  0.00    -0.222 C  
HETATM    7  H   UNL     1      -8.569   9.611  63.471  1.00  0.00     0.000 HD 
HETATM    8  N   UNL     1      -9.880   9.805  66.500  1.00  0.00    -0.210 N  
HETATM    9  O   UNL     1      -8.783   8.085  65.474  1.00  0.00    -0.157 OA 
HETATM   10  C   UNL     1     -10.393  11.766  65.299  1.00  0.00    -0.317 C  
HETATM   11  C   UNL     1     -10.476  11.039  66.418  1.00  0.00    -0.258 C  
ENDROOT
BRANCH   8  12
HETATM   12  C   UNL     1      -9.749   9.156  67.795  1.00  0.00    -0.154 C  
BRANCH  12  13
HETATM   13  C   UNL     1     -10.111  10.005  69.032  1.00  0.00    -0.200 C  
BRANCH  13  14
HETATM   14  O   UNL     1      -9.117   9.812  70.091  1.00  0.00    -0.227 OA 
BRANCH  14  15
HETATM   15  C   UNL     1      -7.886   9.329  69.523  1.00  0.00    -0.086 C  
HETATM   16  P   UNL     1      -6.414  10.210  70.163  1.00  0.00    -0.142 P  
HETATM   17  O   UNL     1      -6.852   9.622  71.641  1.00  0.00    -0.309 OA 
HETATM   18  O   UNL     1      -5.559   8.927  69.585  1.00  0.00    -0.033 OA 
HETATM   19  O   UNL     1      -5.169  10.954  70.704  1.00  0.00    -0.074 OA 
ENDBRANCH  14  15
ENDBRANCH  13  14
BRANCH  13  20
HETATM   20  C   UNL     1     -11.492   9.623  69.589  1.00  0.00    -0.001 C  
HETATM   21  O   UNL     1     -12.486  10.530  69.106  1.00  0.00    -0.750 OA 
HETATM   22  H   UNL     1     -13.340  10.295  69.451  1.00  0.00     0.000 HD 
ENDBRANCH  13  20
ENDBRANCH  12  13
ENDBRANCH   8  12
TORSDOF 5
ENDMDL
MODEL      243
REMARK 921   NORMALIZED FREE ENERGY PREDICTED BY IDOCK:   -2.93 KCAL/MOL
REMARK 922        TOTAL FREE ENERGY PREDICTED BY IDOCK:   -4.73 KCAL/MOL
REMARK 923 INTER-LIGAND FREE ENERGY PREDICTED BY IDOCK:   -4.40 KCAL/MOL
REMARK 924 INTRA-LIGAND FREE ENERGY PREDICTED BY IDOCK:   -0.33 KCAL/MOL
REMARK 927      BINDING AFFINITY PREDICTED BY RF-SCORE:    0.00 PKD
ROOT
HETATM    1  N   UNL     1      -9.298   5.331  69.297  1.00  0.00    -0.117 NA 
HETATM    2  H1  UNL     1      -9.292   4.494  68.714  1.00  0.00     0.000 HD 
HETATM    3  C   UNL     1      -9.812   6.462  68.740  1.00  0.00    -0.139 C  
HETATM    4  H2  UNL     1      -8.937   5.321  70.251  1.00  0.00     0.000 HD 
HETATM    5  N   UNL     1      -9.820   7.526  69.483  1.00  0.00    -0.168 N  
HETATM    6  C   UNL     1     -10.255   8.722  68.967  1.00  0.00    -0.207 C  
HETATM    7  H   UNL     1      -9.503   7.474  70.452  1.00  0.00     0.000 HD 
HETATM    8  N   UNL     1     -10.617   8.762  67.617  1.00  0.00    -0.243 N  
HETATM    9  O   UNL     1     -10.300   9.738  69.658  1.00  0.00    -0.206 OA 
HETATM   10  C   UNL     1     -10.310   6.442  67.354  1.00  0.00    -0.257 C  
HETATM   11  C   UNL     1     -10.672   7.626  66.850  1.00  0.00    -0.201 C  
ENDROOT
BRANCH   8  12
HETATM   12  C   UNL     1     -10.750  10.065  66.983  1.00  0.00    -0.178 C  
BRANCH  12  13
HETATM   13  C   UNL     1      -9.449  10.717  66.468  1.00  0.00    -0.169 C  
BRANCH  13  14
HETATM   14  O   UNL     1      -9.595  12.174  66.418  1.00  0.00    -0.224 OA 
BRANCH  14  15
HETATM   15  C   UNL     1     -10.986  12.522  66.298  1.00  0.00    -0.277 C  
HETATM   16  P   UNL     1     -11.443  13.981  67.305  1.00  0.00    -0.390 P  
HETATM   17  O   UNL     1     -10.367  14.814  66.372  1.00  0.00    -0.278 OA 
HETATM   18  O   UNL     1     -12.779  14.059  66.344  1.00  0.00    -0.369 OA 
HETATM   19  O   UNL     1     -11.831  15.214  68.156  1.00  0.00    -0.333 OA 
ENDBRANCH  14  15
ENDBRANCH  13  14
BRANCH  13  20
HETATM   20  C   UNL     1      -9.090  10.217  65.059  1.00  0.00    -0.207 C  
HETATM   21  O   UNL     1     -10.280   9.969  64.307  1.00  0.00    -0.436 OA 
HETATM   22  H   UNL     1     -10.059   9.660  63.436  1.00  0.00     0.000 HD 
ENDBRANCH  13  20
ENDBRANCH  12  13
ENDBRANCH   8  12
TORSDOF 5
ENDMDL
MODEL      244
REMARK 921   NORMALIZED FREE ENERGY PREDICTED BY IDOCK:   -2.92 KCAL/MOL
REMARK 922        TOTAL FREE ENERGY PREDICTED BY IDOCK:   -4.71 KCAL/MOL
REMARK 923 INTER-LIGAND FREE ENERGY PREDICTED BY IDOCK:   -4.79 KCAL/MOL
REMARK 924 INTRA-LIGAND FREE ENERGY PREDICTED BY IDOCK:    0.08 KCAL/MOL
REMARK 927      BINDING AFFINITY PREDICTED BY RF-SCORE:    0.00 PKD
ROOT
HETATM    1  N   UNL     1     -13.329  15.446  70.586  1.00  0.00    -0.742 NA 
HETATM    2  H1  UNL     1     -13.169  16.378  70.203  1.00  0.00     0.000 HD 
HETATM    3  C   UNL     1     -12.501  14.456  70.153  1.00  0.00    -0.339 C  
HETATM    4  H2  UNL     1     -14.072  15.265  71.261  1.00  0.00     0.000 HD 
HETATM    5  N   UNL     1     -12.705  13.270  70.640  1.00  0.00    -0.210 N  
HETATM    6  C   UNL     1     -11.959  12.206  70.196  1.00  0.00    -0.314 C  
HETATM    7  H   UNL     1     -13.420  13.129  71.354  1.00  0.00     0.000 HD 
HETATM    8  N   UNL     1     -11.037  12.433  69.170  1.00  0.00    -0.231 N  
HETATM    9  O   UNL     1     -12.112  11.079  70.663  1.00  0.00    -0.322 OA 
HETATM   10  C   UNL     1     -11.449  14.752  69.165  1.00  0.00    -0.323 C  
HETATM   11  C   UNL     1     -10.775  13.695  68.700  1.00  0.00    -0.256 C  
ENDROOT
BRANCH   8  12
HETATM   12  C   UNL     1     -10.497  11.279  68.469  1.00  0.00    -0.197 C  
BRANCH  12  13
HETATM   13  C   UNL     1      -9.663  10.289  69.311  1.00  0.00    -0.225 C  
BRANCH  13  14
HETATM   14  O   UNL     1      -8.315  10.156  68.754  1.00  0.00    -0.109 OA 
BRANCH  14  15
HETATM   15  C   UNL     1      -7.748  11.459  68.529  1.00  0.00    -0.133 C  
HETATM   16  P   UNL     1      -6.539  11.482  67.154  1.00  0.00    -0.139 P  
HETATM   17  O   UNL     1      -7.802  11.027  66.195  1.00  0.00    -0.161 OA 
HETATM   18  O   UNL     1      -6.758  13.114  67.164  1.00  0.00    -0.152 OA 
HETATM   19  O   UNL     1      -5.518  11.502  65.992  1.00  0.00    -0.265 OA 
ENDBRANCH  14  15
ENDBRANCH  13  14
BRANCH  13  20
HETATM   20  C   UNL     1     -10.313   8.896  69.345  1.00  0.00    -0.213 C  
HETATM   21  O   UNL     1     -11.151   8.715  68.202  1.00  0.00    -0.459 OA 
HETATM   22  H   UNL     1     -11.553   7.854  68.223  1.00  0.00     0.000 HD 
ENDBRANCH  13  20
ENDBRANCH  12  13
ENDBRANCH   8  12
TORSDOF 5
ENDMDL
MODEL      245
REMARK 921   NORMALIZED FREE ENERGY PREDICTED BY IDOCK:   -2.92 KCAL/MOL
REMARK 922        TOTAL FREE ENERGY PREDICTED BY IDOCK:   -4.71 KCAL/MOL
REMARK 923 INTER-LIGAND FREE ENERGY PREDICTED BY IDOCK:   -4.30 KCAL/MOL
REMARK 924 INTRA-LIGAND FREE ENERGY PREDICTED BY IDOCK:   -0.40 KCAL/MOL
REMARK 927      BINDING AFFINITY PREDICTED BY RF-SCORE:    0.00 PKD
ROOT
HETATM    1  N   UNL     1      -7.225   9.507  63.782  1.00  0.00    -0.103 NA 
HETATM    2  H1  UNL     1      -7.213  10.155  62.995  1.00  0.00     0.000 HD 
HETATM    3  C   UNL     1      -8.282   9.600  64.635  1.00  0.00    -0.149 C  
HETATM    4  H2  UNL     1      -6.483   8.822  63.924  1.00  0.00     0.000 HD 
HETATM    5  N   UNL     1      -8.298   8.774  65.636  1.00  0.00    -0.130 N  
HETATM    6  C   UNL     1      -9.293   8.856  66.579  1.00  0.00    -0.195 C  
HETATM    7  H   UNL     1      -7.571   8.064  65.723  1.00  0.00     0.000 HD 
HETATM    8  N   UNL     1     -10.230   9.886  66.458  1.00  0.00    -0.234 N  
HETATM    9  O   UNL     1      -9.347   8.067  67.521  1.00  0.00    -0.143 OA 
HETATM   10  C   UNL     1      -9.328  10.612  64.407  1.00  0.00    -0.291 C  
HETATM   11  C   UNL     1     -10.254  10.717  65.367  1.00  0.00    -0.273 C  
ENDROOT
BRANCH   8  12
HETATM   12  C   UNL     1     -11.067  10.187  67.609  1.00  0.00    -0.206 C  
BRANCH  12  13
HETATM   13  C   UNL     1     -10.445  11.089  68.697  1.00  0.00    -0.192 C  
BRANCH  13  14
HETATM   14  O   UNL     1     -11.088  10.844  69.990  1.00  0.00    -0.268 OA 
BRANCH  14  15
HETATM   15  C   UNL     1     -11.193   9.428  70.224  1.00  0.00    -0.246 C  
HETATM   16  P   UNL     1     -12.112   9.026  71.755  1.00  0.00    -0.395 P  
HETATM   17  O   UNL     1     -13.396   9.776  71.039  1.00  0.00    -0.355 OA 
HETATM   18  O   UNL     1     -12.263   7.518  71.111  1.00  0.00    -0.314 OA 
HETATM   19  O   UNL     1     -12.890   8.686  73.049  1.00  0.00    -0.249 OA 
ENDBRANCH  14  15
ENDBRANCH  13  14
BRANCH  13  20
HETATM   20  C   UNL     1     -10.605  12.578  68.350  1.00  0.00    -0.242 C  
HETATM   21  O   UNL     1     -11.952  12.997  68.585  1.00  0.00    -0.319 OA 
HETATM   22  H   UNL     1     -12.051  13.917  68.371  1.00  0.00     0.000 HD 
ENDBRANCH  13  20
ENDBRANCH  12  13
ENDBRANCH   8  12
TORSDOF 5
ENDMDL
MODEL      246
REMARK 921   NORMALIZED FREE ENERGY PREDICTED BY IDOCK:   -2.91 KCAL/MOL
REMARK 922        TOTAL FREE ENERGY PREDICTED BY IDOCK:   -4.70 KCAL/MOL
REMARK 923 INTER-LIGAND FREE ENERGY PREDICTED BY IDOCK:   -4.25 KCAL/MOL
REMARK 924 INTRA-LIGAND FREE ENERGY PREDICTED BY IDOCK:   -0.45 KCAL/MOL
REMARK 927      BINDING AFFINITY PREDICTED BY RF-SCORE:    0.00 PKD
ROOT
HETATM    1  N   UNL     1     -12.837  14.322  65.785  1.00  0.00    -0.439 NA 
HETATM    2  H1  UNL     1     -12.570  14.671  64.864  1.00  0.00     0.000 HD 
HETATM    3  C   UNL     1     -11.929  13.539  66.430  1.00  0.00    -0.414 C  
HETATM    4  H2  UNL     1     -13.740  14.550  66.203  1.00  0.00     0.000 HD 
HETATM    5  N   UNL     1     -12.269  13.096  67.601  1.00  0.00    -0.210 N  
HETATM    6  C   UNL     1     -11.437  12.241  68.281  1.00  0.00    -0.315 C  
HETATM    7  H   UNL     1     -13.155  13.384  68.018  1.00  0.00     0.000 HD 
HETATM    8  N   UNL     1     -10.265  11.820  67.645  1.00  0.00    -0.197 N  
HETATM    9  O   UNL     1     -11.722  11.830  69.405  1.00  0.00    -0.289 OA 
HETATM   10  C   UNL     1     -10.642  13.219  65.788  1.00  0.00    -0.291 C  
HETATM   11  C   UNL     1      -9.873  12.338  66.436  1.00  0.00    -0.230 C  
ENDROOT
BRANCH   8  12
HETATM   12  C   UNL     1      -9.560  10.674  68.199  1.00  0.00    -0.157 C  
BRANCH  12  13
HETATM   13  C   UNL     1      -9.080   9.608  67.191  1.00  0.00    -0.134 C  
BRANCH  13  14
HETATM   14  O   UNL     1      -9.770   8.337  67.427  1.00  0.00    -0.155 OA 
BRANCH  14  15
HETATM   15  C   UNL     1      -9.295   7.743  68.649  1.00  0.00    -0.148 C  
HETATM   16  P   UNL     1     -10.654   7.221  69.760  1.00  0.00    -0.234 P  
HETATM   17  O   UNL     1     -11.098   6.201  68.541  1.00  0.00    -0.328 OA 
HETATM   18  O   UNL     1      -9.512   6.299  70.505  1.00  0.00    -0.160 OA 
HETATM   19  O   UNL     1     -11.802   6.779  70.699  1.00  0.00    -0.370 OA 
ENDBRANCH  14  15
ENDBRANCH  13  14
BRANCH  13  20
HETATM   20  C   UNL     1      -7.567   9.367  67.308  1.00  0.00    -0.091 C  
HETATM   21  O   UNL     1      -6.915   9.720  66.085  1.00  0.00    -0.089 OA 
HETATM   22  H   UNL     1      -5.979   9.571  66.157  1.00  0.00     0.000 HD 
ENDBRANCH  13  20
ENDBRANCH  12  13
ENDBRANCH   8  12
TORSDOF 5
ENDMDL
MODEL      247
REMARK 921   NORMALIZED FREE ENERGY PREDICTED BY IDOCK:   -2.90 KCAL/MOL
REMARK 922        TOTAL FREE ENERGY PREDICTED BY IDOCK:   -4.69 KCAL/MOL
REMARK 923 INTER-LIGAND FREE ENERGY PREDICTED BY IDOCK:   -4.13 KCAL/MOL
REMARK 924 INTRA-LIGAND FREE ENERGY PREDICTED BY IDOCK:   -0.56 KCAL/MOL
REMARK 927      BINDING AFFINITY PREDICTED BY RF-SCORE:    0.00 PKD
ROOT
HETATM    1  N   UNL     1     -13.532  11.319  72.150  1.00  0.00    -0.528 NA 
HETATM    2  H1  UNL     1     -13.372  12.263  71.797  1.00  0.00     0.000 HD 
HETATM    3  C   UNL     1     -12.750  10.332  71.634  1.00  0.00    -0.456 C  
HETATM    4  H2  UNL     1     -14.242  11.125  72.856  1.00  0.00     0.000 HD 
HETATM    5  N   UNL     1     -12.953   9.132  72.084  1.00  0.00    -0.402 N  
HETATM    6  C   UNL     1     -12.254   8.073  71.557  1.00  0.00    -0.299 C  
HETATM    7  H   UNL     1     -13.632   8.975  72.828  1.00  0.00     0.000 HD 
HETATM    8  N   UNL     1     -11.384   8.324  70.493  1.00  0.00    -0.253 N  
HETATM    9  O   UNL     1     -12.407   6.930  71.986  1.00  0.00    -0.315 OA 
HETATM   10  C   UNL     1     -11.745  10.649  70.604  1.00  0.00    -0.454 C  
HETATM   11  C   UNL     1     -11.119   9.599  70.061  1.00  0.00    -0.255 C  
ENDROOT
BRANCH   8  12
HETATM   12  C   UNL     1     -10.906   7.189  69.719  1.00  0.00    -0.240 C  
BRANCH  12  13
HETATM   13  C   UNL     1      -9.505   6.649  70.079  1.00  0.00    -0.157 C  
BRANCH  13  14
HETATM   14  O   UNL     1      -8.959   7.376  71.228  1.00  0.00    -0.138 OA 
BRANCH  14  15
HETATM   15  C   UNL     1      -8.917   6.513  72.379  1.00  0.00    -0.133 C  
HETATM   16  P   UNL     1      -7.610   5.236  72.262  1.00  0.00    -0.099 P  
HETATM   17  O   UNL     1      -6.548   6.497  72.219  1.00  0.00    -0.057 OA 
HETATM   18  O   UNL     1      -7.804   5.078  73.889  1.00  0.00    -0.100 OA 
HETATM   19  O   UNL     1      -6.506   4.156  72.164  1.00  0.00    -0.020 OA 
ENDBRANCH  14  15
ENDBRANCH  13  14
BRANCH  13  20
HETATM   20  C   UNL     1      -8.527   6.798  68.903  1.00  0.00    -0.120 C  
HETATM   21  O   UNL     1      -7.844   8.051  68.984  1.00  0.00    -0.105 OA 
HETATM   22  H   UNL     1      -7.239   8.143  68.257  1.00  0.00     0.000 HD 
ENDBRANCH  13  20
ENDBRANCH  12  13
ENDBRANCH   8  12
TORSDOF 5
ENDMDL
MODEL      248
REMARK 921   NORMALIZED FREE ENERGY PREDICTED BY IDOCK:   -2.90 KCAL/MOL
REMARK 922        TOTAL FREE ENERGY PREDICTED BY IDOCK:   -4.69 KCAL/MOL
REMARK 923 INTER-LIGAND FREE ENERGY PREDICTED BY IDOCK:   -4.45 KCAL/MOL
REMARK 924 INTRA-LIGAND FREE ENERGY PREDICTED BY IDOCK:   -0.24 KCAL/MOL
REMARK 927      BINDING AFFINITY PREDICTED BY RF-SCORE:    0.00 PKD
ROOT
HETATM    1  N   UNL     1      -9.152  13.155  66.326  1.00  0.00    -0.457 NA 
HETATM    2  H1  UNL     1      -9.785  13.434  65.576  1.00  0.00     0.000 HD 
HETATM    3  C   UNL     1      -9.503  12.055  67.045  1.00  0.00    -0.198 C  
HETATM    4  H2  UNL     1      -8.297  13.675  66.525  1.00  0.00     0.000 HD 
HETATM    5  N   UNL     1      -8.696  11.700  67.998  1.00  0.00    -0.150 N  
HETATM    6  C   UNL     1      -9.019  10.644  68.815  1.00  0.00    -0.172 C  
HETATM    7  H   UNL     1      -7.821  12.205  68.141  1.00  0.00     0.000 HD 
HETATM    8  N   UNL     1     -10.257  10.023  68.628  1.00  0.00    -0.172 N  
HETATM    9  O   UNL     1      -8.258  10.270  69.706  1.00  0.00    -0.164 OA 
HETATM   10  C   UNL     1     -10.754  11.339  66.738  1.00  0.00    -0.323 C  
HETATM   11  C   UNL     1     -11.080  10.354  67.581  1.00  0.00    -0.293 C  
ENDROOT
BRANCH   8  12
HETATM   12  C   UNL     1     -10.749   9.147  69.680  1.00  0.00    -0.225 C  
BRANCH  12  13
HETATM   13  C   UNL     1     -10.333   7.663  69.592  1.00  0.00    -0.213 C  
BRANCH  13  14
HETATM   14  O   UNL     1     -10.642   7.125  68.265  1.00  0.00    -0.201 OA 
BRANCH  14  15
HETATM   15  C   UNL     1     -10.439   5.700  68.256  1.00  0.00    -0.192 C  
HETATM   16  P   UNL     1     -10.382   5.002  66.564  1.00  0.00    -0.216 P  
HETATM   17  O   UNL     1      -9.056   5.959  66.342  1.00  0.00    -0.140 OA 
HETATM   18  O   UNL     1      -9.676   3.693  67.272  1.00  0.00    -0.198 OA 
HETATM   19  O   UNL     1     -10.332   4.410  65.135  1.00  0.00    -0.225 OA 
ENDBRANCH  14  15
ENDBRANCH  13  14
BRANCH  13  20
HETATM   20  C   UNL     1     -11.065   6.812  70.642  1.00  0.00    -0.291 C  
HETATM   21  O   UNL     1     -12.478   6.993  70.525  1.00  0.00    -0.617 OA 
HETATM   22  H   UNL     1     -12.931   6.467  71.175  1.00  0.00     0.000 HD 
ENDBRANCH  13  20
ENDBRANCH  12  13
ENDBRANCH   8  12
TORSDOF 5
ENDMDL
MODEL      249
REMARK 921   NORMALIZED FREE ENERGY PREDICTED BY IDOCK:   -2.90 KCAL/MOL
REMARK 922        TOTAL FREE ENERGY PREDICTED BY IDOCK:   -4.68 KCAL/MOL
REMARK 923 INTER-LIGAND FREE ENERGY PREDICTED BY IDOCK:   -4.21 KCAL/MOL
REMARK 924 INTRA-LIGAND FREE ENERGY PREDICTED BY IDOCK:   -0.48 KCAL/MOL
REMARK 927      BINDING AFFINITY PREDICTED BY RF-SCORE:    0.00 PKD
ROOT
HETATM    1  N   UNL     1     -12.349   9.339  71.944  1.00  0.00    -0.372 NA 
HETATM    2  H1  UNL     1     -13.332   9.506  72.159  1.00  0.00     0.000 HD 
HETATM    3  C   UNL     1     -11.784  10.143  71.001  1.00  0.00    -0.382 C  
HETATM    4  H2  UNL     1     -11.815   8.608  72.413  1.00  0.00     0.000 HD 
HETATM    5  N   UNL     1     -10.533   9.931  70.729  1.00  0.00    -0.357 N  
HETATM    6  C   UNL     1      -9.914  10.652  69.737  1.00  0.00     0.044 C  
HETATM    7  H   UNL     1     -10.009   9.229  71.252  1.00  0.00     0.000 HD 
HETATM    8  N   UNL     1     -10.686  11.556  69.002  1.00  0.00    -0.209 N  
HETATM    9  O   UNL     1      -8.722  10.491  69.480  1.00  0.00    -0.129 OA 
HETATM   10  C   UNL     1     -12.592  11.179  70.334  1.00  0.00    -0.328 C  
HETATM   11  C   UNL     1     -11.990  11.828  69.331  1.00  0.00    -0.298 C  
ENDROOT
BRANCH   8  12
HETATM   12  C   UNL     1     -10.140  12.064  67.753  1.00  0.00    -0.193 C  
BRANCH  12  13
HETATM   13  C   UNL     1     -11.103  12.111  66.547  1.00  0.00    -0.307 C  
BRANCH  13  14
HETATM   14  O   UNL     1     -10.449  11.572  65.353  1.00  0.00    -0.263 OA 
BRANCH  14  15
HETATM   15  C   UNL     1      -9.137  11.087  65.690  1.00  0.00    -0.206 C  
HETATM   16  P   UNL     1      -8.878   9.340  65.206  1.00  0.00    -0.194 P  
HETATM   17  O   UNL     1      -9.123   9.856  63.658  1.00  0.00    -0.241 OA 
HETATM   18  O   UNL     1      -7.273   9.671  65.369  1.00  0.00    -0.095 OA 
HETATM   19  O   UNL     1      -8.658   7.864  64.797  1.00  0.00    -0.051 OA 
ENDBRANCH  14  15
ENDBRANCH  13  14
BRANCH  13  20
HETATM   20  C   UNL     1     -11.555  13.549  66.246  1.00  0.00    -0.345 C  
HETATM   21  O   UNL     1     -10.417  14.395  66.065  1.00  0.00    -0.283 OA 
HETATM   22  H   UNL     1     -10.696  15.284  65.878  1.00  0.00     0.000 HD 
ENDBRANCH  13  20
ENDBRANCH  12  13
ENDBRANCH   8  12
TORSDOF 5
ENDMDL
MODEL      250
REMARK 921   NORMALIZED FREE ENERGY PREDICTED BY IDOCK:   -2.90 KCAL/MOL
REMARK 922        TOTAL FREE ENERGY PREDICTED BY IDOCK:   -4.68 KCAL/MOL
REMARK 923 INTER-LIGAND FREE ENERGY PREDICTED BY IDOCK:   -4.42 KCAL/MOL
REMARK 924 INTRA-LIGAND FREE ENERGY PREDICTED BY IDOCK:   -0.27 KCAL/MOL
REMARK 927      BINDING AFFINITY PREDICTED BY RF-SCORE:    0.00 PKD
ROOT
HETATM    1  N   UNL     1      -6.444   6.975  74.028  1.00  0.00    -0.074 NA 
HETATM    2  H1  UNL     1      -6.646   6.338  74.800  1.00  0.00     0.000 HD 
HETATM    3  C   UNL     1      -7.512   7.573  73.433  1.00  0.00    -0.100 C  
HETATM    4  H2  UNL     1      -5.489   7.155  73.719  1.00  0.00     0.000 HD 
HETATM    5  N   UNL     1      -7.255   8.383  72.452  1.00  0.00    -0.100 N  
HETATM    6  C   UNL     1      -8.284   8.966  71.754  1.00  0.00     0.011 C  
HETATM    7  H   UNL     1      -6.288   8.587  72.199  1.00  0.00     0.000 HD 
HETATM    8  N   UNL     1      -9.592   8.607  72.090  1.00  0.00    -0.309 N  
HETATM    9  O   UNL     1      -8.067   9.760  70.840  1.00  0.00    -0.252 OA 
HETATM   10  C   UNL     1      -8.879   7.275  73.897  1.00  0.00    -0.245 C  
HETATM   11  C   UNL     1      -9.867   7.803  73.168  1.00  0.00    -0.298 C  
ENDROOT
BRANCH   8  12
HETATM   12  C   UNL     1     -10.656   8.946  71.157  1.00  0.00    -0.265 C  
BRANCH  12  13
HETATM   13  C   UNL     1     -10.500   8.421  69.714  1.00  0.00    -0.220 C  
BRANCH  13  14
HETATM   14  O   UNL     1     -11.068   9.376  68.760  1.00  0.00    -0.096 OA 
BRANCH  14  15
HETATM   15  C   UNL     1     -11.392  10.606  69.434  1.00  0.00    -0.284 C  
HETATM   16  P   UNL     1     -11.002  12.089  68.434  1.00  0.00    -0.276 P  
HETATM   17  O   UNL     1     -12.101  11.503  67.352  1.00  0.00    -0.593 OA 
HETATM   18  O   UNL     1     -12.009  12.886  69.465  1.00  0.00    -0.312 OA 
HETATM   19  O   UNL     1     -10.672  13.343  67.589  1.00  0.00    -0.243 OA 
ENDBRANCH  14  15
ENDBRANCH  13  14
BRANCH  13  20
HETATM   20  C   UNL     1     -11.211   7.071  69.529  1.00  0.00    -0.145 C  
HETATM   21  O   UNL     1     -12.466   7.076  70.213  1.00  0.00    -0.617 OA 
HETATM   22  H   UNL     1     -12.905   6.242  70.099  1.00  0.00     0.000 HD 
ENDBRANCH  13  20
ENDBRANCH  12  13
ENDBRANCH   8  12
TORSDOF 5
ENDMDL
MODEL      251
REMARK 921   NORMALIZED FREE ENERGY PREDICTED BY IDOCK:   -2.90 KCAL/MOL
REMARK 922        TOTAL FREE ENERGY PREDICTED BY IDOCK:   -4.68 KCAL/MOL
REMARK 923 INTER-LIGAND FREE ENERGY PREDICTED BY IDOCK:   -4.14 KCAL/MOL
REMARK 924 INTRA-LIGAND FREE ENERGY PREDICTED BY IDOCK:   -0.54 KCAL/MOL
REMARK 927      BINDING AFFINITY PREDICTED BY RF-SCORE:    0.00 PKD
ROOT
HETATM    1  N   UNL     1     -11.624  14.545  68.181  1.00  0.00    -0.314 NA 
HETATM    2  H1  UNL     1     -11.188  14.947  67.351  1.00  0.00     0.000 HD 
HETATM    3  C   UNL     1     -11.224  13.293  68.535  1.00  0.00    -0.271 C  
HETATM    4  H2  UNL     1     -12.324  15.055  68.718  1.00  0.00     0.000 HD 
HETATM    5  N   UNL     1     -11.779  12.781  69.592  1.00  0.00    -0.388 N  
HETATM    6  C   UNL     1     -11.481  11.495  69.970  1.00  0.00    -0.220 C  
HETATM    7  H   UNL     1     -12.436  13.335  70.141  1.00  0.00     0.000 HD 
HETATM    8  N   UNL     1     -10.628  10.750  69.151  1.00  0.00    -0.211 N  
HETATM    9  O   UNL     1     -11.971  10.998  70.983  1.00  0.00    -0.318 OA 
HETATM   10  C   UNL     1     -10.221  12.580  67.725  1.00  0.00    -0.217 C  
HETATM   11  C   UNL     1      -9.991  11.309  68.072  1.00  0.00    -0.179 C  
ENDROOT
BRANCH   8  12
HETATM   12  C   UNL     1     -10.576   9.310  69.349  1.00  0.00    -0.223 C  
BRANCH  12  13
HETATM   13  C   UNL     1      -9.170   8.674  69.420  1.00  0.00    -0.150 C  
BRANCH  13  14
HETATM   14  O   UNL     1      -9.271   7.213  69.404  1.00  0.00    -0.148 OA 
BRANCH  14  15
HETATM   15  C   UNL     1     -10.410   6.792  70.177  1.00  0.00    -0.202 C  
HETATM   16  P   UNL     1     -10.080   5.289  71.168  1.00  0.00    -0.223 P  
HETATM   17  O   UNL     1      -8.932   6.192  71.936  1.00  0.00    -0.140 OA 
HETATM   18  O   UNL     1     -11.413   5.726  72.030  1.00  0.00    -0.266 OA 
HETATM   19  O   UNL     1      -9.802   4.019  72.007  1.00  0.00    -0.157 OA 
ENDBRANCH  14  15
ENDBRANCH  13  14
BRANCH  13  20
HETATM   20  C   UNL     1      -8.430   9.095  70.699  1.00  0.00    -0.209 C  
HETATM   21  O   UNL     1      -9.359   9.275  71.771  1.00  0.00    -0.309 OA 
HETATM   22  H   UNL     1      -8.900   9.535  72.562  1.00  0.00     0.000 HD 
ENDBRANCH  13  20
ENDBRANCH  12  13
ENDBRANCH   8  12
TORSDOF 5
ENDMDL
MODEL      252
REMARK 921   NORMALIZED FREE ENERGY PREDICTED BY IDOCK:   -2.86 KCAL/MOL
REMARK 922        TOTAL FREE ENERGY PREDICTED BY IDOCK:   -4.64 KCAL/MOL
REMARK 923 INTER-LIGAND FREE ENERGY PREDICTED BY IDOCK:   -3.89 KCAL/MOL
REMARK 924 INTRA-LIGAND FREE ENERGY PREDICTED BY IDOCK:   -0.74 KCAL/MOL
REMARK 927      BINDING AFFINITY PREDICTED BY RF-SCORE:    0.00 PKD
ROOT
HETATM    1  N   UNL     1     -13.522   9.594  70.978  1.00  0.00    -0.560 NA 
HETATM    2  H1  UNL     1     -13.286  10.543  70.687  1.00  0.00     0.000 HD 
HETATM    3  C   UNL     1     -12.503   8.831  71.459  1.00  0.00    -0.326 C  
HETATM    4  H2  UNL     1     -14.475   9.236  70.913  1.00  0.00     0.000 HD 
HETATM    5  N   UNL     1     -12.804   7.624  71.831  1.00  0.00    -0.416 N  
HETATM    6  C   UNL     1     -11.817   6.770  72.258  1.00  0.00    -0.242 C  
HETATM    7  H   UNL     1     -13.774   7.310  71.806  1.00  0.00     0.000 HD 
HETATM    8  N   UNL     1     -10.494   7.219  72.212  1.00  0.00    -0.208 N  
HETATM    9  O   UNL     1     -12.080   5.632  72.643  1.00  0.00    -0.212 OA 
HETATM   10  C   UNL     1     -11.137   9.378  71.523  1.00  0.00    -0.446 C  
HETATM   11  C   UNL     1     -10.182   8.514  71.883  1.00  0.00    -0.299 C  
ENDROOT
BRANCH   8  12
HETATM   12  C   UNL     1      -9.432   6.232  72.334  1.00  0.00    -0.144 C  
BRANCH  12  13
HETATM   13  C   UNL     1      -8.415   6.168  71.174  1.00  0.00    -0.125 C  
BRANCH  13  14
HETATM   14  O   UNL     1      -9.093   5.822  69.922  1.00  0.00    -0.140 OA 
BRANCH  14  15
HETATM   15  C   UNL     1      -9.471   4.433  69.937  1.00  0.00    -0.183 C  
HETATM   16  P   UNL     1      -9.395   3.658  68.281  1.00  0.00    -0.120 P  
HETATM   17  O   UNL     1      -7.783   4.007  68.322  1.00  0.00    -0.066 OA 
HETATM   18  O   UNL     1      -9.401   2.227  69.097  1.00  0.00    -0.132 OA 
HETATM   19  O   UNL     1      -9.330   3.000  66.881  1.00  0.00    -0.168 OA 
ENDBRANCH  14  15
ENDBRANCH  13  14
BRANCH  13  20
HETATM   20  C   UNL     1      -7.326   5.117  71.442  1.00  0.00    -0.085 C  
HETATM   21  O   UNL     1      -6.212   5.329  70.571  1.00  0.00    -0.021 OA 
HETATM   22  H   UNL     1      -5.539   4.679  70.736  1.00  0.00     0.000 HD 
ENDBRANCH  13  20
ENDBRANCH  12  13
ENDBRANCH   8  12
TORSDOF 5
ENDMDL
MODEL      253
REMARK 921   NORMALIZED FREE ENERGY PREDICTED BY IDOCK:   -2.85 KCAL/MOL
REMARK 922        TOTAL FREE ENERGY PREDICTED BY IDOCK:   -4.62 KCAL/MOL
REMARK 923 INTER-LIGAND FREE ENERGY PREDICTED BY IDOCK:   -4.67 KCAL/MOL
REMARK 924 INTRA-LIGAND FREE ENERGY PREDICTED BY IDOCK:    0.04 KCAL/MOL
REMARK 927      BINDING AFFINITY PREDICTED BY RF-SCORE:    0.00 PKD
ROOT
HETATM    1  N   UNL     1      -9.541   7.860  73.815  1.00  0.00    -0.310 NA 
HETATM    2  H1  UNL     1      -8.607   8.018  74.194  1.00  0.00     0.000 HD 
HETATM    3  C   UNL     1      -9.734   8.186  72.508  1.00  0.00    -0.287 C  
HETATM    4  H2  UNL     1     -10.293   7.477  74.388  1.00  0.00     0.000 HD 
HETATM    5  N   UNL     1     -10.922   7.985  72.026  1.00  0.00    -0.262 N  
HETATM    6  C   UNL     1     -11.214   8.358  70.737  1.00  0.00    -0.263 C  
HETATM    7  H   UNL     1     -11.640   7.550  72.606  1.00  0.00     0.000 HD 
HETATM    8  N   UNL     1     -10.222   9.011  70.002  1.00  0.00    -0.194 N  
HETATM    9  O   UNL     1     -12.324   8.151  70.248  1.00  0.00     0.339 OA 
HETATM   10  C   UNL     1      -8.628   8.753  71.717  1.00  0.00    -0.198 C  
HETATM   11  C   UNL     1      -8.947   9.165  70.485  1.00  0.00    -0.232 C  
ENDROOT
BRANCH   8  12
HETATM   12  C   UNL     1     -10.616   9.702  68.783  1.00  0.00    -0.216 C  
BRANCH  12  13
HETATM   13  C   UNL     1     -11.768  10.722  68.911  1.00  0.00    -0.267 C  
BRANCH  13  14
HETATM   14  O   UNL     1     -11.852  11.548  67.704  1.00  0.00    -0.595 OA 
BRANCH  14  15
HETATM   15  C   UNL     1     -10.773  12.499  67.686  1.00  0.00    -0.218 C  
HETATM   16  P   UNL     1     -10.782  13.557  66.191  1.00  0.00    -0.296 P  
HETATM   17  O   UNL     1     -12.253  14.086  66.720  1.00  0.00    -0.439 OA 
HETATM   18  O   UNL     1      -9.792  14.552  67.052  1.00  0.00    -0.240 OA 
HETATM   19  O   UNL     1     -10.789  14.451  64.929  1.00  0.00    -0.376 OA 
ENDBRANCH  14  15
ENDBRANCH  13  14
BRANCH  13  20
HETATM   20  C   UNL     1     -11.564  11.649  70.119  1.00  0.00    -0.217 C  
HETATM   21  O   UNL     1     -12.595  11.434  71.086  1.00  0.00    -0.394 OA 
HETATM   22  H   UNL     1     -12.469  12.007  71.833  1.00  0.00     0.000 HD 
ENDBRANCH  13  20
ENDBRANCH  12  13
ENDBRANCH   8  12
TORSDOF 5
ENDMDL
MODEL      254
REMARK 921   NORMALIZED FREE ENERGY PREDICTED BY IDOCK:   -2.84 KCAL/MOL
REMARK 922        TOTAL FREE ENERGY PREDICTED BY IDOCK:   -4.61 KCAL/MOL
REMARK 923 INTER-LIGAND FREE ENERGY PREDICTED BY IDOCK:   -4.09 KCAL/MOL
REMARK 924 INTRA-LIGAND FREE ENERGY PREDICTED BY IDOCK:   -0.52 KCAL/MOL
REMARK 927      BINDING AFFINITY PREDICTED BY RF-SCORE:    0.00 PKD
ROOT
HETATM    1  N   UNL     1     -13.270  10.119  71.640  1.00  0.00    -0.413 NA 
HETATM    2  H1  UNL     1     -14.124  10.673  71.578  1.00  0.00     0.000 HD 
HETATM    3  C   UNL     1     -12.234  10.502  70.845  1.00  0.00    -0.388 C  
HETATM    4  H2  UNL     1     -13.195   9.318  72.267  1.00  0.00     0.000 HD 
HETATM    5  N   UNL     1     -11.146   9.798  70.924  1.00  0.00    -0.334 N  
HETATM    6  C   UNL     1     -10.084  10.077  70.099  1.00  0.00    -0.211 C  
HETATM    7  H   UNL     1     -11.081   9.035  71.599  1.00  0.00     0.000 HD 
HETATM    8  N   UNL     1     -10.241  11.085  69.144  1.00  0.00    -0.197 N  
HETATM    9  O   UNL     1      -9.033   9.444  70.175  1.00  0.00    -0.189 OA 
HETATM   10  C   UNL     1     -12.384  11.655  69.939  1.00  0.00    -0.226 C  
HETATM   11  C   UNL     1     -11.364  11.874  69.103  1.00  0.00    -0.279 C  
ENDROOT
BRANCH   8  12
HETATM   12  C   UNL     1      -9.271  11.161  68.063  1.00  0.00    -0.159 C  
BRANCH  12  13
HETATM   13  C   UNL     1      -9.572  10.316  66.807  1.00  0.00    -0.172 C  
BRANCH  13  14
HETATM   14  O   UNL     1      -9.022   8.966  66.957  1.00  0.00    -0.124 OA 
BRANCH  14  15
HETATM   15  C   UNL     1      -9.957   7.997  66.449  1.00  0.00    -0.145 C  
HETATM   16  P   UNL     1      -9.438   6.272  66.772  1.00  0.00    -0.147 P  
HETATM   17  O   UNL     1      -9.544   6.665  68.371  1.00  0.00    -0.125 OA 
HETATM   18  O   UNL     1     -11.009   5.882  66.467  1.00  0.00    -0.250 OA 
HETATM   19  O   UNL     1      -9.001   4.812  67.045  1.00  0.00    -0.110 OA 
ENDBRANCH  14  15
ENDBRANCH  13  14
BRANCH  13  20
HETATM   20  C   UNL     1      -8.963  10.949  65.546  1.00  0.00    -0.197 C  
HETATM   21  O   UNL     1      -9.471  12.274  65.365  1.00  0.00    -0.422 OA 
HETATM   22  H   UNL     1      -9.094  12.665  64.585  1.00  0.00     0.000 HD 
ENDBRANCH  13  20
ENDBRANCH  12  13
ENDBRANCH   8  12
TORSDOF 5
ENDMDL
MODEL      255
REMARK 921   NORMALIZED FREE ENERGY PREDICTED BY IDOCK:   -2.83 KCAL/MOL
REMARK 922        TOTAL FREE ENERGY PREDICTED BY IDOCK:   -4.60 KCAL/MOL
REMARK 923 INTER-LIGAND FREE ENERGY PREDICTED BY IDOCK:   -4.17 KCAL/MOL
REMARK 924 INTRA-LIGAND FREE ENERGY PREDICTED BY IDOCK:   -0.43 KCAL/MOL
REMARK 927      BINDING AFFINITY PREDICTED BY RF-SCORE:    0.00 PKD
ROOT
HETATM    1  N   UNL     1     -12.729  16.025  69.617  1.00  0.00    -0.507 NA 
HETATM    2  H1  UNL     1     -12.665  16.876  69.058  1.00  0.00     0.000 HD 
HETATM    3  C   UNL     1     -12.130  14.913  69.110  1.00  0.00    -0.231 C  
HETATM    4  H2  UNL     1     -13.218  16.008  70.513  1.00  0.00     0.000 HD 
HETATM    5  N   UNL     1     -12.210  13.831  69.821  1.00  0.00    -0.327 N  
HETATM    6  C   UNL     1     -11.694  12.652  69.341  1.00  0.00    -0.325 C  
HETATM    7  H   UNL     1     -12.658  13.855  70.738  1.00  0.00     0.000 HD 
HETATM    8  N   UNL     1     -11.150  12.649  68.054  1.00  0.00    -0.237 N  
HETATM    9  O   UNL     1     -11.732  11.620  70.009  1.00  0.00    -0.318 OA 
HETATM   10  C   UNL     1     -11.447  14.972  67.805  1.00  0.00    -0.347 C  
HETATM   11  C   UNL     1     -11.005  13.804  67.328  1.00  0.00    -0.292 C  
ENDROOT
BRANCH   8  12
HETATM   12  C   UNL     1     -10.916  11.364  67.414  1.00  0.00    -0.273 C  
BRANCH  12  13
HETATM   13  C   UNL     1      -9.497  10.772  67.555  1.00  0.00    -0.154 C  
BRANCH  13  14
HETATM   14  O   UNL     1      -8.671  11.628  68.411  1.00  0.00    -0.158 OA 
BRANCH  14  15
HETATM   15  C   UNL     1      -7.316  11.144  68.425  1.00  0.00    -0.094 C  
HETATM   16  P   UNL     1      -6.529  11.284  70.072  1.00  0.00     0.063 P  
HETATM   17  O   UNL     1      -7.709  10.255  70.592  1.00  0.00    -0.098 OA 
HETATM   18  O   UNL     1      -5.434  10.198  69.494  1.00  0.00    -0.038 OA 
HETATM   19  O   UNL     1      -5.862  11.401  71.464  1.00  0.00    -0.289 OA 
ENDBRANCH  14  15
ENDBRANCH  13  14
BRANCH  13  20
HETATM   20  C   UNL     1      -8.805  10.641  66.189  1.00  0.00    -0.168 C  
HETATM   21  O   UNL     1      -9.260  11.668  65.305  1.00  0.00    -0.380 OA 
HETATM   22  H   UNL     1      -8.832  11.587  64.460  1.00  0.00     0.000 HD 
ENDBRANCH  13  20
ENDBRANCH  12  13
ENDBRANCH   8  12
TORSDOF 5
ENDMDL
MODEL      256
REMARK 921   NORMALIZED FREE ENERGY PREDICTED BY IDOCK:   -2.83 KCAL/MOL
REMARK 922        TOTAL FREE ENERGY PREDICTED BY IDOCK:   -4.60 KCAL/MOL
REMARK 923 INTER-LIGAND FREE ENERGY PREDICTED BY IDOCK:   -4.02 KCAL/MOL
REMARK 924 INTRA-LIGAND FREE ENERGY PREDICTED BY IDOCK:   -0.58 KCAL/MOL
REMARK 927      BINDING AFFINITY PREDICTED BY RF-SCORE:    0.00 PKD
ROOT
HETATM    1  N   UNL     1      -6.392   7.304  73.543  1.00  0.00    -0.064 NA 
HETATM    2  H1  UNL     1      -6.322   6.874  74.465  1.00  0.00     0.000 HD 
HETATM    3  C   UNL     1      -7.631   7.701  73.145  1.00  0.00    -0.107 C  
HETATM    4  H2  UNL     1      -5.573   7.431  72.948  1.00  0.00     0.000 HD 
HETATM    5  N   UNL     1      -7.720   8.249  71.971  1.00  0.00    -0.112 N  
HETATM    6  C   UNL     1      -8.947   8.607  71.470  1.00  0.00    -0.234 C  
HETATM    7  H   UNL     1      -6.877   8.413  71.421  1.00  0.00     0.000 HD 
HETATM    8  N   UNL     1     -10.081   8.303  72.229  1.00  0.00    -0.271 N  
HETATM    9  O   UNL     1      -9.054   9.154  70.374  1.00  0.00    -0.192 OA 
HETATM   10  C   UNL     1      -8.794   7.486  74.024  1.00  0.00    -0.292 C  
HETATM   11  C   UNL     1      -9.985   7.785  73.496  1.00  0.00    -0.222 C  
ENDROOT
BRANCH   8  12
HETATM   12  C   UNL     1     -11.379   8.365  71.574  1.00  0.00    -0.276 C  
BRANCH  12  13
HETATM   13  C   UNL     1     -12.088   7.018  71.321  1.00  0.00    -0.361 C  
BRANCH  13  14
HETATM   14  O   UNL     1     -12.019   6.665  69.902  1.00  0.00    -0.301 OA 
BRANCH  14  15
HETATM   15  C   UNL     1     -10.787   5.972  69.630  1.00  0.00    -0.369 C  
HETATM   16  P   UNL     1     -10.468   5.764  67.839  1.00  0.00    -0.193 P  
HETATM   17  O   UNL     1     -10.443   7.413  67.773  1.00  0.00    -0.211 OA 
HETATM   18  O   UNL     1      -8.910   5.471  68.285  1.00  0.00    -0.106 OA 
HETATM   19  O   UNL     1     -10.197   5.589  66.325  1.00  0.00    -0.186 OA 
ENDBRANCH  14  15
ENDBRANCH  13  14
BRANCH  13  20
HETATM   20  C   UNL     1     -13.568   7.077  71.734  1.00  0.00    -0.212 C  
HETATM   21  O   UNL     1     -14.383   7.394  70.603  1.00  0.00    -0.312 OA 
HETATM   22  H   UNL     1     -15.298   7.430  70.859  1.00  0.00     0.000 HD 
ENDBRANCH  13  20
ENDBRANCH  12  13
ENDBRANCH   8  12
TORSDOF 5
ENDMDL
MODEL      257
REMARK 921   NORMALIZED FREE ENERGY PREDICTED BY IDOCK:   -2.80 KCAL/MOL
REMARK 922        TOTAL FREE ENERGY PREDICTED BY IDOCK:   -4.55 KCAL/MOL
REMARK 923 INTER-LIGAND FREE ENERGY PREDICTED BY IDOCK:   -4.06 KCAL/MOL
REMARK 924 INTRA-LIGAND FREE ENERGY PREDICTED BY IDOCK:   -0.50 KCAL/MOL
REMARK 927      BINDING AFFINITY PREDICTED BY RF-SCORE:    0.00 PKD
ROOT
HETATM    1  N   UNL     1      -7.920   5.369  73.622  1.00  0.00    -0.109 NA 
HETATM    2  H1  UNL     1      -7.985   4.352  73.672  1.00  0.00     0.000 HD 
HETATM    3  C   UNL     1      -8.804   6.000  72.801  1.00  0.00    -0.123 C  
HETATM    4  H2  UNL     1      -7.226   5.888  74.160  1.00  0.00     0.000 HD 
HETATM    5  N   UNL     1      -8.721   7.293  72.739  1.00  0.00    -0.120 N  
HETATM    6  C   UNL     1      -9.529   7.994  71.877  1.00  0.00    -0.182 C  
HETATM    7  H   UNL     1      -8.054   7.791  73.329  1.00  0.00     0.000 HD 
HETATM    8  N   UNL     1     -10.380   7.268  71.039  1.00  0.00    -0.200 N  
HETATM    9  O   UNL     1      -9.490   9.222  71.820  1.00  0.00    -0.302 OA 
HETATM   10  C   UNL     1      -9.781   5.215  72.027  1.00  0.00    -0.205 C  
HETATM   11  C   UNL     1     -10.517   5.908  71.151  1.00  0.00    -0.233 C  
ENDROOT
BRANCH   8  12
HETATM   12  C   UNL     1     -10.980   7.960  69.909  1.00  0.00    -0.178 C  
BRANCH  12  13
HETATM   13  C   UNL     1     -10.154   7.997  68.605  1.00  0.00    -0.199 C  
BRANCH  13  14
HETATM   14  O   UNL     1      -9.757   9.371  68.292  1.00  0.00    -0.142 OA 
BRANCH  14  15
HETATM   15  C   UNL     1     -10.791  10.017  67.526  1.00  0.00    -0.265 C  
HETATM   16  P   UNL     1     -11.327  11.608  68.255  1.00  0.00    -0.334 P  
HETATM   17  O   UNL     1      -9.774  12.108  68.008  1.00  0.00    -0.191 OA 
HETATM   18  O   UNL     1     -11.969  11.919  66.771  1.00  0.00    -0.613 OA 
HETATM   19  O   UNL     1     -11.781  12.954  68.870  1.00  0.00    -0.289 OA 
ENDBRANCH  14  15
ENDBRANCH  13  14
BRANCH  13  20
HETATM   20  C   UNL     1     -10.955   7.441  67.417  1.00  0.00    -0.144 C  
HETATM   21  O   UNL     1     -10.547   6.101  67.130  1.00  0.00    -0.228 OA 
HETATM   22  H   UNL     1     -11.042   5.758  66.396  1.00  0.00     0.000 HD 
ENDBRANCH  13  20
ENDBRANCH  12  13
ENDBRANCH   8  12
TORSDOF 5
ENDMDL
MODEL      258
REMARK 921   NORMALIZED FREE ENERGY PREDICTED BY IDOCK:   -2.79 KCAL/MOL
REMARK 922        TOTAL FREE ENERGY PREDICTED BY IDOCK:   -4.54 KCAL/MOL
REMARK 923 INTER-LIGAND FREE ENERGY PREDICTED BY IDOCK:   -3.83 KCAL/MOL
REMARK 924 INTRA-LIGAND FREE ENERGY PREDICTED BY IDOCK:   -0.71 KCAL/MOL
REMARK 927      BINDING AFFINITY PREDICTED BY RF-SCORE:    0.00 PKD
ROOT
HETATM    1  N   UNL     1      -6.979   4.355  69.359  1.00  0.00    -0.049 NA 
HETATM    2  H1  UNL     1      -6.023   4.507  69.681  1.00  0.00     0.000 HD 
HETATM    3  C   UNL     1      -7.757   5.462  69.209  1.00  0.00    -0.085 C  
HETATM    4  H2  UNL     1      -7.335   3.421  69.158  1.00  0.00     0.000 HD 
HETATM    5  N   UNL     1      -8.973   5.269  68.798  1.00  0.00    -0.108 N  
HETATM    6  C   UNL     1      -9.840   6.329  68.694  1.00  0.00    -0.136 C  
HETATM    7  H   UNL     1      -9.285   4.330  68.552  1.00  0.00     0.000 HD 
HETATM    8  N   UNL     1      -9.392   7.588  69.104  1.00  0.00    -0.147 N  
HETATM    9  O   UNL     1     -10.988   6.177  68.279  1.00  0.00    -0.307 OA 
HETATM   10  C   UNL     1      -7.214   6.795  69.525  1.00  0.00    -0.081 C  
HETATM   11  C   UNL     1      -8.089   7.805  69.476  1.00  0.00    -0.126 C  
ENDROOT
BRANCH   8  12
HETATM   12  C   UNL     1     -10.383   8.631  69.317  1.00  0.00    -0.221 C  
BRANCH  12  13
HETATM   13  C   UNL     1     -10.518   9.170  70.758  1.00  0.00    -0.257 C  
BRANCH  13  14
HETATM   14  O   UNL     1     -10.981   8.109  71.656  1.00  0.00    -0.233 OA 
BRANCH  14  15
HETATM   15  C   UNL     1     -10.210   8.126  72.871  1.00  0.00    -0.270 C  
HETATM   16  P   UNL     1     -10.218   6.515  73.740  1.00  0.00    -0.344 P  
HETATM   17  O   UNL     1      -9.490   5.915  72.387  1.00  0.00    -0.147 OA 
HETATM   18  O   UNL     1      -8.901   7.092  74.544  1.00  0.00    -0.199 OA 
HETATM   19  O   UNL     1     -10.224   5.153  74.476  1.00  0.00    -0.234 OA 
ENDBRANCH  14  15
ENDBRANCH  13  14
BRANCH  13  20
HETATM   20  C   UNL     1     -11.517  10.336  70.829  1.00  0.00    -0.351 C  
HETATM   21  O   UNL     1     -12.838   9.873  70.536  1.00  0.00    -0.536 OA 
HETATM   22  H   UNL     1     -13.455  10.594  70.580  1.00  0.00     0.000 HD 
ENDBRANCH  13  20
ENDBRANCH  12  13
ENDBRANCH   8  12
TORSDOF 5
ENDMDL
MODEL      259
REMARK 921   NORMALIZED FREE ENERGY PREDICTED BY IDOCK:   -2.77 KCAL/MOL
REMARK 922        TOTAL FREE ENERGY PREDICTED BY IDOCK:   -4.52 KCAL/MOL
REMARK 923 INTER-LIGAND FREE ENERGY PREDICTED BY IDOCK:   -4.08 KCAL/MOL
REMARK 924 INTRA-LIGAND FREE ENERGY PREDICTED BY IDOCK:   -0.43 KCAL/MOL
REMARK 927      BINDING AFFINITY PREDICTED BY RF-SCORE:    0.00 PKD
ROOT
HETATM    1  N   UNL     1     -12.460  12.688  65.416  1.00  0.00    -0.655 NA 
HETATM    2  H1  UNL     1     -12.746  13.093  66.308  1.00  0.00     0.000 HD 
HETATM    3  C   UNL     1     -11.400  11.835  65.443  1.00  0.00    -0.222 C  
HETATM    4  H2  UNL     1     -12.946  12.910  64.547  1.00  0.00     0.000 HD 
HETATM    5  N   UNL     1     -11.037  11.319  64.309  1.00  0.00    -0.307 N  
HETATM    6  C   UNL     1      -9.931  10.508  64.245  1.00  0.00    -0.331 C  
HETATM    7  H   UNL     1     -11.574  11.517  63.464  1.00  0.00     0.000 HD 
HETATM    8  N   UNL     1      -9.186  10.318  65.412  1.00  0.00    -0.178 N  
HETATM    9  O   UNL     1      -9.583   9.984  63.187  1.00  0.00    -0.268 OA 
HETATM   10  C   UNL     1     -10.714  11.550  66.716  1.00  0.00    -0.311 C  
HETATM   11  C   UNL     1      -9.605  10.808  66.624  1.00  0.00    -0.178 C  
ENDROOT
BRANCH   8  12
HETATM   12  C   UNL     1      -7.852   9.753  65.288  1.00  0.00    -0.120 C  
BRANCH  12  13
HETATM   13  C   UNL     1      -7.660   8.315  65.818  1.00  0.00    -0.082 C  
BRANCH  13  14
HETATM   14  O   UNL     1      -8.953   7.634  65.920  1.00  0.00    -0.166 OA 
BRANCH  14  15
HETATM   15  C   UNL     1      -8.795   6.388  66.623  1.00  0.00    -0.130 C  
HETATM   16  P   UNL     1     -10.053   6.145  67.931  1.00  0.00    -0.195 P  
HETATM   17  O   UNL     1     -11.160   6.194  66.710  1.00  0.00    -0.322 OA 
HETATM   18  O   UNL     1      -9.621   4.557  67.866  1.00  0.00    -0.150 OA 
HETATM   19  O   UNL     1     -11.116   5.939  69.037  1.00  0.00    -0.336 OA 
ENDBRANCH  14  15
ENDBRANCH  13  14
BRANCH  13  20
HETATM   20  C   UNL     1      -7.000   8.313  67.206  1.00  0.00    -0.075 C  
HETATM   21  O   UNL     1      -6.078   9.400  67.316  1.00  0.00    -0.055 OA 
HETATM   22  H   UNL     1      -5.669   9.398  68.174  1.00  0.00     0.000 HD 
ENDBRANCH  13  20
ENDBRANCH  12  13
ENDBRANCH   8  12
TORSDOF 5
ENDMDL
MODEL      260
REMARK 921   NORMALIZED FREE ENERGY PREDICTED BY IDOCK:   -2.76 KCAL/MOL
REMARK 922        TOTAL FREE ENERGY PREDICTED BY IDOCK:   -4.50 KCAL/MOL
REMARK 923 INTER-LIGAND FREE ENERGY PREDICTED BY IDOCK:   -4.77 KCAL/MOL
REMARK 924 INTRA-LIGAND FREE ENERGY PREDICTED BY IDOCK:    0.27 KCAL/MOL
REMARK 927      BINDING AFFINITY PREDICTED BY RF-SCORE:    0.00 PKD
ROOT
HETATM    1  N   UNL     1     -14.406   8.706  72.809  1.00  0.00    -0.994 NA 
HETATM    2  H1  UNL     1     -15.081   9.368  72.425  1.00  0.00     0.000 HD 
HETATM    3  C   UNL     1     -13.107   8.875  72.441  1.00  0.00    -0.418 C  
HETATM    4  H2  UNL     1     -14.691   7.956  73.438  1.00  0.00     0.000 HD 
HETATM    5  N   UNL     1     -12.248   8.034  72.931  1.00  0.00    -0.598 N  
HETATM    6  C   UNL     1     -10.931   8.095  72.548  1.00  0.00    -0.369 C  
HETATM    7  H   UNL     1     -12.552   7.327  73.600  1.00  0.00     0.000 HD 
HETATM    8  N   UNL     1     -10.571   9.035  71.579  1.00  0.00    -0.320 N  
HETATM    9  O   UNL     1     -10.092   7.329  73.020  1.00  0.00    -0.200 OA 
HETATM   10  C   UNL     1     -12.736   9.962  71.517  1.00  0.00    -0.515 C  
HETATM   11  C   UNL     1     -11.462   9.967  71.110  1.00  0.00    -0.354 C  
ENDROOT
BRANCH   8  12
HETATM   12  C   UNL     1      -9.278   8.887  70.928  1.00  0.00    -0.231 C  
BRANCH  12  13
HETATM   13  C   UNL     1      -9.298   8.625  69.407  1.00  0.00    -0.150 C  
BRANCH  13  14
HETATM   14  O   UNL     1      -8.764   9.782  68.684  1.00  0.00    -0.117 OA 
BRANCH  14  15
HETATM   15  C   UNL     1      -7.796  10.465  69.501  1.00  0.00    -0.155 C  
HETATM   16  P   UNL     1      -7.227  12.040  68.763  1.00  0.00    -0.053 P  
HETATM   17  O   UNL     1      -8.799  12.526  68.881  1.00  0.00     0.104 OA 
HETATM   18  O   UNL     1      -6.697  12.406  70.278  1.00  0.00     0.160 OA 
HETATM   19  O   UNL     1      -6.746  13.373  68.139  1.00  0.00    -0.089 OA 
ENDBRANCH  14  15
ENDBRANCH  13  14
BRANCH  13  20
HETATM   20  C   UNL     1     -10.725   8.356  68.903  1.00  0.00    -0.068 C  
HETATM   21  O   UNL     1     -10.686   7.781  67.595  1.00  0.00    -0.404 OA 
HETATM   22  H   UNL     1     -11.568   7.614  67.284  1.00  0.00     0.000 HD 
ENDBRANCH  13  20
ENDBRANCH  12  13
ENDBRANCH   8  12
TORSDOF 5
ENDMDL
MODEL      261
REMARK 921   NORMALIZED FREE ENERGY PREDICTED BY IDOCK:   -2.72 KCAL/MOL
REMARK 922        TOTAL FREE ENERGY PREDICTED BY IDOCK:   -4.45 KCAL/MOL
REMARK 923 INTER-LIGAND FREE ENERGY PREDICTED BY IDOCK:   -4.05 KCAL/MOL
REMARK 924 INTRA-LIGAND FREE ENERGY PREDICTED BY IDOCK:   -0.40 KCAL/MOL
REMARK 927      BINDING AFFINITY PREDICTED BY RF-SCORE:    0.00 PKD
ROOT
HETATM    1  N   UNL     1     -11.181   4.499  65.319  1.00  0.00    -1.016 NA 
HETATM    2  H1  UNL     1     -12.108   4.878  65.124  1.00  0.00     0.000 HD 
HETATM    3  C   UNL     1     -10.416   5.182  66.215  1.00  0.00    -0.289 C  
HETATM    4  H2  UNL     1     -10.843   3.650  64.866  1.00  0.00     0.000 HD 
HETATM    5  N   UNL     1      -9.238   4.699  66.463  1.00  0.00    -0.125 N  
HETATM    6  C   UNL     1      -8.381   5.372  67.300  1.00  0.00    -0.107 C  
HETATM    7  H   UNL     1      -8.947   3.818  66.037  1.00  0.00     0.000 HD 
HETATM    8  N   UNL     1      -8.794   6.606  67.808  1.00  0.00    -0.115 N  
HETATM    9  O   UNL     1      -7.270   4.920  67.574  1.00  0.00    -0.068 OA 
HETATM   10  C   UNL     1     -10.932   6.414  66.837  1.00  0.00    -0.413 C  
HETATM   11  C   UNL     1     -10.063   7.086  67.600  1.00  0.00    -0.172 C  
ENDROOT
BRANCH   8  12
HETATM   12  C   UNL     1      -7.788   7.471  68.405  1.00  0.00    -0.122 C  
BRANCH  12  13
HETATM   13  C   UNL     1      -7.620   7.377  69.937  1.00  0.00    -0.090 C  
BRANCH  13  14
HETATM   14  O   UNL     1      -8.919   7.165  70.580  1.00  0.00    -0.153 OA 
BRANCH  14  15
HETATM   15  C   UNL     1      -8.910   5.920  71.303  1.00  0.00    -0.136 C  
HETATM   16  P   UNL     1     -10.464   5.621  72.222  1.00  0.00    -0.230 P  
HETATM   17  O   UNL     1     -11.201   5.637  70.745  1.00  0.00    -0.205 OA 
HETATM   18  O   UNL     1      -9.971   4.051  72.280  1.00  0.00    -0.156 OA 
HETATM   19  O   UNL     1     -11.778   5.366  72.999  1.00  0.00    -0.275 OA 
ENDBRANCH  14  15
ENDBRANCH  13  14
BRANCH  13  20
HETATM   20  C   UNL     1      -6.998   8.660  70.512  1.00  0.00    -0.043 C  
HETATM   21  O   UNL     1      -7.934   9.321  71.368  1.00  0.00    -0.335 OA 
HETATM   22  H   UNL     1      -7.549  10.114  71.723  1.00  0.00     0.000 HD 
ENDBRANCH  13  20
ENDBRANCH  12  13
ENDBRANCH   8  12
TORSDOF 5
ENDMDL
MODEL      262
REMARK 921   NORMALIZED FREE ENERGY PREDICTED BY IDOCK:   -2.71 KCAL/MOL
REMARK 922        TOTAL FREE ENERGY PREDICTED BY IDOCK:   -4.44 KCAL/MOL
REMARK 923 INTER-LIGAND FREE ENERGY PREDICTED BY IDOCK:   -4.26 KCAL/MOL
REMARK 924 INTRA-LIGAND FREE ENERGY PREDICTED BY IDOCK:   -0.18 KCAL/MOL
REMARK 927      BINDING AFFINITY PREDICTED BY RF-SCORE:    0.00 PKD
ROOT
HETATM    1  N   UNL     1      -8.890   4.199  66.976  1.00  0.00    -0.114 NA 
HETATM    2  H1  UNL     1      -8.968   4.416  65.982  1.00  0.00     0.000 HD 
HETATM    3  C   UNL     1      -9.727   4.867  67.816  1.00  0.00    -0.157 C  
HETATM    4  H2  UNL     1      -8.217   3.515  67.323  1.00  0.00     0.000 HD 
HETATM    5  N   UNL     1      -9.627   4.591  69.080  1.00  0.00    -0.166 N  
HETATM    6  C   UNL     1     -10.386   5.277  69.996  1.00  0.00    -0.295 C  
HETATM    7  H   UNL     1      -8.984   3.863  69.393  1.00  0.00     0.000 HD 
HETATM    8  N   UNL     1     -11.203   6.311  69.530  1.00  0.00    -0.413 N  
HETATM    9  O   UNL     1     -10.332   5.014  71.196  1.00  0.00    -0.220 OA 
HETATM   10  C   UNL     1     -10.674   5.861  67.279  1.00  0.00    -0.380 C  
HETATM   11  C   UNL     1     -11.359   6.560  68.189  1.00  0.00     0.002 C  
ENDROOT
BRANCH   8  12
HETATM   12  C   UNL     1     -11.740   7.250  70.502  1.00  0.00    -0.228 C  
BRANCH  12  13
HETATM   13  C   UNL     1     -10.808   8.401  70.937  1.00  0.00    -0.231 C  
BRANCH  13  14
HETATM   14  O   UNL     1      -9.599   8.416  70.111  1.00  0.00    -0.163 OA 
BRANCH  14  15
HETATM   15  C   UNL     1      -9.194   9.774  69.860  1.00  0.00    -0.234 C  
HETATM   16  P   UNL     1      -9.400  10.265  68.108  1.00  0.00    -0.145 P  
HETATM   17  O   UNL     1     -11.008   9.981  68.341  1.00  0.00    -0.239 OA 
HETATM   18  O   UNL     1      -9.296  11.811  68.667  1.00  0.00    -0.173 OA 
HETATM   19  O   UNL     1      -9.574  10.681  66.628  1.00  0.00    -0.168 OA 
ENDBRANCH  14  15
ENDBRANCH  13  14
BRANCH  13  20
HETATM   20  C   UNL     1     -10.388   8.257  72.409  1.00  0.00    -0.332 C  
HETATM   21  O   UNL     1     -11.445   7.666  73.168  1.00  0.00    -0.604 OA 
HETATM   22  H   UNL     1     -11.186   7.577  74.077  1.00  0.00     0.000 HD 
ENDBRANCH  13  20
ENDBRANCH  12  13
ENDBRANCH   8  12
TORSDOF 5
ENDMDL
MODEL      263
REMARK 921   NORMALIZED FREE ENERGY PREDICTED BY IDOCK:   -2.71 KCAL/MOL
REMARK 922        TOTAL FREE ENERGY PREDICTED BY IDOCK:   -4.43 KCAL/MOL
REMARK 923 INTER-LIGAND FREE ENERGY PREDICTED BY IDOCK:   -4.01 KCAL/MOL
REMARK 924 INTRA-LIGAND FREE ENERGY PREDICTED BY IDOCK:   -0.42 KCAL/MOL
REMARK 927      BINDING AFFINITY PREDICTED BY RF-SCORE:    0.00 PKD
ROOT
HETATM    1  N   UNL     1     -11.897  11.642  67.714  1.00  0.00    -0.611 NA 
HETATM    2  H1  UNL     1     -11.958  12.344  68.452  1.00  0.00     0.000 HD 
HETATM    3  C   UNL     1     -11.162  10.529  67.988  1.00  0.00    -0.294 C  
HETATM    4  H2  UNL     1     -12.364  11.767  66.816  1.00  0.00     0.000 HD 
HETATM    5  N   UNL     1     -11.085   9.636  67.049  1.00  0.00    -0.142 N  
HETATM    6  C   UNL     1     -10.302   8.521  67.224  1.00  0.00    -0.302 C  
HETATM    7  H   UNL     1     -11.606   9.762  66.181  1.00  0.00     0.000 HD 
HETATM    8  N   UNL     1      -9.553   8.421  68.399  1.00  0.00    -0.146 N  
HETATM    9  O   UNL     1     -10.235   7.646  66.361  1.00  0.00    -0.157 OA 
HETATM   10  C   UNL     1     -10.489  10.390  69.291  1.00  0.00    -0.257 C  
HETATM   11  C   UNL     1      -9.684   9.330  69.419  1.00  0.00    -0.172 C  
ENDROOT
BRANCH   8  12
HETATM   12  C   UNL     1      -8.482   7.438  68.447  1.00  0.00    -0.125 C  
BRANCH  12  13
HETATM   13  C   UNL     1      -8.846   6.049  69.015  1.00  0.00    -0.121 C  
BRANCH  13  14
HETATM   14  O   UNL     1     -10.290   5.957  69.247  1.00  0.00    -0.198 OA 
BRANCH  14  15
HETATM   15  C   UNL     1     -10.542   5.528  70.598  1.00  0.00    -0.259 C  
HETATM   16  P   UNL     1     -11.439   6.781  71.586  1.00  0.00    -0.316 P  
HETATM   17  O   UNL     1     -12.659   6.598  70.490  1.00  0.00    -0.171 OA 
HETATM   18  O   UNL     1     -11.782   5.536  72.608  1.00  0.00    -0.293 OA 
HETATM   19  O   UNL     1     -12.199   7.839  72.422  1.00  0.00    -0.282 OA 
ENDBRANCH  14  15
ENDBRANCH  13  14
BRANCH  13  20
HETATM   20  C   UNL     1      -8.123   5.781  70.345  1.00  0.00    -0.106 C  
HETATM   21  O   UNL     1      -6.930   6.563  70.424  1.00  0.00    -0.060 OA 
HETATM   22  H   UNL     1      -6.483   6.397  71.246  1.00  0.00     0.000 HD 
ENDBRANCH  13  20
ENDBRANCH  12  13
ENDBRANCH   8  12
TORSDOF 5
ENDMDL
MODEL      264
REMARK 921   NORMALIZED FREE ENERGY PREDICTED BY IDOCK:   -2.70 KCAL/MOL
REMARK 922        TOTAL FREE ENERGY PREDICTED BY IDOCK:   -4.43 KCAL/MOL
REMARK 923 INTER-LIGAND FREE ENERGY PREDICTED BY IDOCK:   -3.91 KCAL/MOL
REMARK 924 INTRA-LIGAND FREE ENERGY PREDICTED BY IDOCK:   -0.52 KCAL/MOL
REMARK 927      BINDING AFFINITY PREDICTED BY RF-SCORE:    0.00 PKD
ROOT
HETATM    1  N   UNL     1     -11.409   4.804  65.546  1.00  0.00    -0.947 NA 
HETATM    2  H1  UNL     1     -12.397   5.009  65.691  1.00  0.00     0.000 HD 
HETATM    3  C   UNL     1     -10.518   5.570  66.233  1.00  0.00    -0.174 C  
HETATM    4  H2  UNL     1     -11.103   4.061  64.917  1.00  0.00     0.000 HD 
HETATM    5  N   UNL     1      -9.260   5.308  66.048  1.00  0.00    -0.155 N  
HETATM    6  C   UNL     1      -8.300   6.085  66.650  1.00  0.00    -0.111 C  
HETATM    7  H   UNL     1      -8.984   4.524  65.457  1.00  0.00     0.000 HD 
HETATM    8  N   UNL     1      -8.721   7.188  67.397  1.00  0.00    -0.120 N  
HETATM    9  O   UNL     1      -7.103   5.840  66.514  1.00  0.00    -0.066 OA 
HETATM   10  C   UNL     1     -10.997   6.645  67.119  1.00  0.00    -0.478 C  
HETATM   11  C   UNL     1     -10.049   7.428  67.647  1.00  0.00    -0.186 C  
ENDROOT
BRANCH   8  12
HETATM   12  C   UNL     1      -7.732   8.195  67.748  1.00  0.00    -0.110 C  
BRANCH  12  13
HETATM   13  C   UNL     1      -8.192   9.306  68.717  1.00  0.00    -0.112 C  
BRANCH  13  14
HETATM   14  O   UNL     1      -8.245  10.596  68.024  1.00  0.00    -0.110 OA 
BRANCH  14  15
HETATM   15  C   UNL     1      -9.464  11.283  68.362  1.00  0.00    -0.192 C  
HETATM   16  P   UNL     1     -10.123  12.283  66.978  1.00  0.00    -0.216 P  
HETATM   17  O   UNL     1     -10.256  10.854  66.165  1.00  0.00    -0.235 OA 
HETATM   18  O   UNL     1     -11.539  12.270  67.817  1.00  0.00    -0.313 OA 
HETATM   19  O   UNL     1     -10.681  13.129  65.808  1.00  0.00    -0.273 OA 
ENDBRANCH  14  15
ENDBRANCH  13  14
BRANCH  13  20
HETATM   20  C   UNL     1      -7.237   9.437  69.914  1.00  0.00    -0.083 C  
HETATM   21  O   UNL     1      -5.881   9.457  69.463  1.00  0.00    -0.034 OA 
HETATM   22  H   UNL     1      -5.291   9.537  70.203  1.00  0.00     0.000 HD 
ENDBRANCH  13  20
ENDBRANCH  12  13
ENDBRANCH   8  12
TORSDOF 5
ENDMDL
MODEL      265
REMARK 921   NORMALIZED FREE ENERGY PREDICTED BY IDOCK:   -2.70 KCAL/MOL
REMARK 922        TOTAL FREE ENERGY PREDICTED BY IDOCK:   -4.43 KCAL/MOL
REMARK 923 INTER-LIGAND FREE ENERGY PREDICTED BY IDOCK:   -3.83 KCAL/MOL
REMARK 924 INTRA-LIGAND FREE ENERGY PREDICTED BY IDOCK:   -0.61 KCAL/MOL
REMARK 927      BINDING AFFINITY PREDICTED BY RF-SCORE:    0.00 PKD
ROOT
HETATM    1  N   UNL     1     -12.012  10.567  70.915  1.00  0.00    -0.357 NA 
HETATM    2  H1  UNL     1     -11.549  11.474  70.982  1.00  0.00     0.000 HD 
HETATM    3  C   UNL     1     -11.216   9.489  70.678  1.00  0.00    -0.302 C  
HETATM    4  H2  UNL     1     -13.022  10.473  71.022  1.00  0.00     0.000 HD 
HETATM    5  N   UNL     1     -11.805   8.336  70.594  1.00  0.00    -0.472 N  
HETATM    6  C   UNL     1     -11.078   7.213  70.283  1.00  0.00    -0.274 C  
HETATM    7  H   UNL     1     -12.810   8.264  70.758  1.00  0.00     0.000 HD 
HETATM    8  N   UNL     1      -9.719   7.368  69.999  1.00  0.00    -0.175 N  
HETATM    9  O   UNL     1     -11.608   6.105  70.226  1.00  0.00    -0.362 OA 
HETATM   10  C   UNL     1      -9.762   9.667  70.513  1.00  0.00    -0.280 C  
HETATM   11  C   UNL     1      -9.082   8.574  70.152  1.00  0.00    -0.152 C  
ENDROOT
BRANCH   8  12
HETATM   12  C   UNL     1      -9.025   6.267  69.350  1.00  0.00    -0.126 C  
BRANCH  12  13
HETATM   13  C   UNL     1      -8.351   6.579  67.996  1.00  0.00    -0.116 C  
BRANCH  13  14
HETATM   14  O   UNL     1      -9.309   6.416  66.901  1.00  0.00    -0.126 OA 
BRANCH  14  15
HETATM   15  C   UNL     1      -9.909   7.685  66.582  1.00  0.00    -0.213 C  
HETATM   16  P   UNL     1      -8.680   8.947  66.083  1.00  0.00    -0.175 P  
HETATM   17  O   UNL     1      -8.329   7.937  64.827  1.00  0.00    -0.136 OA 
HETATM   18  O   UNL     1      -9.967   9.757  65.450  1.00  0.00    -0.320 OA 
HETATM   19  O   UNL     1      -7.643  10.015  65.661  1.00  0.00    -0.123 OA 
ENDBRANCH  14  15
ENDBRANCH  13  14
BRANCH  13  20
HETATM   20  C   UNL     1      -7.155   5.648  67.738  1.00  0.00    -0.071 C  
HETATM   21  O   UNL     1      -6.652   5.137  68.974  1.00  0.00    -0.047 OA 
HETATM   22  H   UNL     1      -5.913   4.561  68.814  1.00  0.00     0.000 HD 
ENDBRANCH  13  20
ENDBRANCH  12  13
ENDBRANCH   8  12
TORSDOF 5
ENDMDL
MODEL      266
REMARK 921   NORMALIZED FREE ENERGY PREDICTED BY IDOCK:   -2.67 KCAL/MOL
REMARK 922        TOTAL FREE ENERGY PREDICTED BY IDOCK:   -4.39 KCAL/MOL
REMARK 923 INTER-LIGAND FREE ENERGY PREDICTED BY IDOCK:   -4.27 KCAL/MOL
REMARK 924 INTRA-LIGAND FREE ENERGY PREDICTED BY IDOCK:   -0.11 KCAL/MOL
REMARK 927      BINDING AFFINITY PREDICTED BY RF-SCORE:    0.00 PKD
ROOT
HETATM    1  N   UNL     1      -9.101   3.025  68.229  1.00  0.00    -0.146 NA 
HETATM    2  H1  UNL     1      -9.213   2.344  67.477  1.00  0.00     0.000 HD 
HETATM    3  C   UNL     1      -9.557   4.285  67.986  1.00  0.00    -0.147 C  
HETATM    4  H2  UNL     1      -8.670   2.775  69.118  1.00  0.00     0.000 HD 
HETATM    5  N   UNL     1      -9.416   5.151  68.942  1.00  0.00    -0.125 N  
HETATM    6  C   UNL     1      -9.784   6.459  68.745  1.00  0.00    -0.128 C  
HETATM    7  H   UNL     1      -9.030   4.859  69.841  1.00  0.00     0.000 HD 
HETATM    8  N   UNL     1     -10.244   6.829  67.478  1.00  0.00    -0.170 N  
HETATM    9  O   UNL     1      -9.687   7.292  69.645  1.00  0.00    -0.159 OA 
HETATM   10  C   UNL     1     -10.160   4.613  66.682  1.00  0.00    -0.263 C  
HETATM   11  C   UNL     1     -10.456   5.903  66.488  1.00  0.00    -0.190 C  
ENDROOT
BRANCH   8  12
HETATM   12  C   UNL     1     -10.312   8.247  67.162  1.00  0.00    -0.317 C  
BRANCH  12  13
HETATM   13  C   UNL     1      -8.983   9.031  67.218  1.00  0.00    -0.127 C  
BRANCH  13  14
HETATM   14  O   UNL     1      -9.243  10.471  67.272  1.00  0.00    -0.143 OA 
BRANCH  14  15
HETATM   15  C   UNL     1     -10.527  10.759  66.688  1.00  0.00    -0.246 C  
HETATM   16  P   UNL     1     -11.320  12.242  67.412  1.00  0.00    -0.356 P  
HETATM   17  O   UNL     1     -10.018  13.074  66.833  1.00  0.00    -0.234 OA 
HETATM   18  O   UNL     1     -12.272  12.225  66.068  1.00  0.00    -0.646 OA 
HETATM   19  O   UNL     1     -11.992  13.495  68.022  1.00  0.00    -0.355 OA 
ENDBRANCH  14  15
ENDBRANCH  13  14
BRANCH  13  20
HETATM   20  C   UNL     1      -8.110   8.742  65.986  1.00  0.00    -0.112 C  
HETATM   21  O   UNL     1      -8.931   8.372  64.875  1.00  0.00    -0.410 OA 
HETATM   22  H   UNL     1      -8.391   8.193  64.114  1.00  0.00     0.000 HD 
ENDBRANCH  13  20
ENDBRANCH  12  13
ENDBRANCH   8  12
TORSDOF 5
ENDMDL
MODEL      267
REMARK 921   NORMALIZED FREE ENERGY PREDICTED BY IDOCK:   -2.66 KCAL/MOL
REMARK 922        TOTAL FREE ENERGY PREDICTED BY IDOCK:   -4.37 KCAL/MOL
REMARK 923 INTER-LIGAND FREE ENERGY PREDICTED BY IDOCK:   -4.01 KCAL/MOL
REMARK 924 INTRA-LIGAND FREE ENERGY PREDICTED BY IDOCK:   -0.36 KCAL/MOL
REMARK 927      BINDING AFFINITY PREDICTED BY RF-SCORE:    0.00 PKD
ROOT
HETATM    1  N   UNL     1     -14.233   7.713  70.999  1.00  0.00    -0.662 NA 
HETATM    2  H1  UNL     1     -14.471   8.634  70.629  1.00  0.00     0.000 HD 
HETATM    3  C   UNL     1     -13.029   7.596  71.621  1.00  0.00    -0.350 C  
HETATM    4  H2  UNL     1     -14.867   6.920  70.906  1.00  0.00     0.000 HD 
HETATM    5  N   UNL     1     -12.727   6.425  72.092  1.00  0.00    -0.507 N  
HETATM    6  C   UNL     1     -11.499   6.211  72.668  1.00  0.00    -0.237 C  
HETATM    7  H   UNL     1     -13.403   5.663  72.034  1.00  0.00     0.000 HD 
HETATM    8  N   UNL     1     -10.579   7.263  72.667  1.00  0.00    -0.243 N  
HETATM    9  O   UNL     1     -11.200   5.118  73.148  1.00  0.00    -0.298 OA 
HETATM   10  C   UNL     1     -12.132   8.762  71.721  1.00  0.00    -0.418 C  
HETATM   11  C   UNL     1     -10.920   8.519  72.230  1.00  0.00    -0.355 C  
ENDROOT
BRANCH   8  12
HETATM   12  C   UNL     1      -9.188   6.957  72.958  1.00  0.00    -0.132 C  
BRANCH  12  13
HETATM   13  C   UNL     1      -8.127   7.819  72.241  1.00  0.00    -0.114 C  
BRANCH  13  14
HETATM   14  O   UNL     1      -8.203   7.619  70.792  1.00  0.00    -0.106 OA 
BRANCH  14  15
HETATM   15  C   UNL     1      -7.885   6.252  70.470  1.00  0.00    -0.106 C  
HETATM   16  P   UNL     1      -7.908   5.922  68.669  1.00  0.00    -0.103 P  
HETATM   17  O   UNL     1      -6.689   7.030  68.571  1.00  0.00    -0.058 OA 
HETATM   18  O   UNL     1      -7.041   4.572  69.040  1.00  0.00    -0.050 OA 
HETATM   19  O   UNL     1      -7.927   5.642  67.147  1.00  0.00    -0.101 OA 
ENDBRANCH  14  15
ENDBRANCH  13  14
BRANCH  13  20
HETATM   20  C   UNL     1      -6.706   7.462  72.706  1.00  0.00    -0.064 C  
HETATM   21  O   UNL     1      -6.411   8.120  73.940  1.00  0.00    -0.103 OA 
HETATM   22  H   UNL     1      -5.533   7.899  74.227  1.00  0.00     0.000 HD 
ENDBRANCH  13  20
ENDBRANCH  12  13
ENDBRANCH   8  12
TORSDOF 5
ENDMDL
MODEL      268
REMARK 921   NORMALIZED FREE ENERGY PREDICTED BY IDOCK:   -2.62 KCAL/MOL
REMARK 922        TOTAL FREE ENERGY PREDICTED BY IDOCK:   -4.32 KCAL/MOL
REMARK 923 INTER-LIGAND FREE ENERGY PREDICTED BY IDOCK:   -3.88 KCAL/MOL
REMARK 924 INTRA-LIGAND FREE ENERGY PREDICTED BY IDOCK:   -0.44 KCAL/MOL
REMARK 927      BINDING AFFINITY PREDICTED BY RF-SCORE:    0.00 PKD
ROOT
HETATM    1  N   UNL     1     -13.659  10.884  72.249  1.00  0.00    -0.466 NA 
HETATM    2  H1  UNL     1     -13.932  11.788  71.862  1.00  0.00     0.000 HD 
HETATM    3  C   UNL     1     -12.600  10.261  71.663  1.00  0.00    -0.432 C  
HETATM    4  H2  UNL     1     -14.156  10.467  73.037  1.00  0.00     0.000 HD 
HETATM    5  N   UNL     1     -12.253   9.112  72.156  1.00  0.00    -0.360 N  
HETATM    6  C   UNL     1     -11.241   8.390  71.572  1.00  0.00    -0.267 C  
HETATM    7  H   UNL     1     -12.733   8.744  72.978  1.00  0.00     0.000 HD 
HETATM    8  N   UNL     1     -10.658   8.900  70.408  1.00  0.00    -0.207 N  
HETATM    9  O   UNL     1     -10.875   7.312  72.037  1.00  0.00    -0.225 OA 
HETATM   10  C   UNL     1     -11.918  10.887  70.517  1.00  0.00    -0.466 C  
HETATM   11  C   UNL     1     -10.977  10.143  69.925  1.00  0.00    -0.293 C  
ENDROOT
BRANCH   8  12
HETATM   12  C   UNL     1      -9.840   8.004  69.604  1.00  0.00    -0.184 C  
BRANCH  12  13
HETATM   13  C   UNL     1      -8.311   8.131  69.771  1.00  0.00    -0.124 C  
BRANCH  13  14
HETATM   14  O   UNL     1      -7.706   6.809  69.947  1.00  0.00    -0.104 OA 
BRANCH  14  15
HETATM   15  C   UNL     1      -8.701   5.786  69.751  1.00  0.00    -0.127 C  
HETATM   16  P   UNL     1      -8.137   4.132  70.296  1.00  0.00    -0.058 P  
HETATM   17  O   UNL     1      -8.019   4.800  71.801  1.00  0.00    -0.095 OA 
HETATM   18  O   UNL     1      -9.734   3.730  70.283  1.00  0.00    -0.194 OA 
HETATM   19  O   UNL     1      -7.661   2.734  70.758  1.00  0.00    -0.042 OA 
ENDBRANCH  14  15
ENDBRANCH  13  14
BRANCH  13  20
HETATM   20  C   UNL     1      -7.949   8.996  70.989  1.00  0.00    -0.150 C  
HETATM   21  O   UNL     1      -7.451   8.173  72.047  1.00  0.00    -0.082 OA 
HETATM   22  H   UNL     1      -7.228   8.708  72.800  1.00  0.00     0.000 HD 
ENDBRANCH  13  20
ENDBRANCH  12  13
ENDBRANCH   8  12
TORSDOF 5
ENDMDL
MODEL      269
REMARK 921   NORMALIZED FREE ENERGY PREDICTED BY IDOCK:   -2.62 KCAL/MOL
REMARK 922        TOTAL FREE ENERGY PREDICTED BY IDOCK:   -4.32 KCAL/MOL
REMARK 923 INTER-LIGAND FREE ENERGY PREDICTED BY IDOCK:   -3.91 KCAL/MOL
REMARK 924 INTRA-LIGAND FREE ENERGY PREDICTED BY IDOCK:   -0.41 KCAL/MOL
REMARK 927      BINDING AFFINITY PREDICTED BY RF-SCORE:    0.00 PKD
ROOT
HETATM    1  N   UNL     1      -7.558   3.003  65.227  1.00  0.00    -0.079 NA 
HETATM    2  H1  UNL     1      -8.121   2.861  64.388  1.00  0.00     0.000 HD 
HETATM    3  C   UNL     1      -7.980   3.965  66.092  1.00  0.00    -0.094 C  
HETATM    4  H2  UNL     1      -6.720   2.450  65.409  1.00  0.00     0.000 HD 
HETATM    5  N   UNL     1      -7.263   4.145  67.159  1.00  0.00    -0.067 N  
HETATM    6  C   UNL     1      -7.583   5.147  68.042  1.00  0.00    -0.083 C  
HETATM    7  H   UNL     1      -6.461   3.541  67.343  1.00  0.00     0.000 HD 
HETATM    8  N   UNL     1      -8.648   5.993  67.718  1.00  0.00    -0.107 N  
HETATM    9  O   UNL     1      -6.938   5.319  69.075  1.00  0.00    -0.053 OA 
HETATM   10  C   UNL     1      -9.186   4.755  65.787  1.00  0.00    -0.149 C  
HETATM   11  C   UNL     1      -9.446   5.764  66.625  1.00  0.00    -0.149 C  
ENDROOT
BRANCH   8  12
HETATM   12  C   UNL     1      -8.780   7.239  68.455  1.00  0.00    -0.123 C  
BRANCH  12  13
HETATM   13  C   UNL     1     -10.210   7.804  68.605  1.00  0.00    -0.201 C  
BRANCH  13  14
HETATM   14  O   UNL     1     -10.198   9.262  68.471  1.00  0.00    -0.187 OA 
BRANCH  14  15
HETATM   15  C   UNL     1     -10.894   9.861  69.579  1.00  0.00    -0.246 C  
HETATM   16  P   UNL     1     -11.294  11.625  69.298  1.00  0.00    -0.296 P  
HETATM   17  O   UNL     1     -12.202  11.094  68.027  1.00  0.00    -0.584 OA 
HETATM   18  O   UNL     1     -12.377  11.438  70.525  1.00  0.00    -0.342 OA 
HETATM   19  O   UNL     1     -11.633  13.117  69.062  1.00  0.00    -0.271 OA 
ENDBRANCH  14  15
ENDBRANCH  13  14
BRANCH  13  20
HETATM   20  C   UNL     1     -10.813   7.447  69.973  1.00  0.00    -0.252 C  
HETATM   21  O   UNL     1     -11.907   6.542  69.808  1.00  0.00    -0.628 OA 
HETATM   22  H   UNL     1     -12.281   6.322  70.654  1.00  0.00     0.000 HD 
ENDBRANCH  13  20
ENDBRANCH  12  13
ENDBRANCH   8  12
TORSDOF 5
ENDMDL
MODEL      270
REMARK 921   NORMALIZED FREE ENERGY PREDICTED BY IDOCK:   -2.59 KCAL/MOL
REMARK 922        TOTAL FREE ENERGY PREDICTED BY IDOCK:   -4.29 KCAL/MOL
REMARK 923 INTER-LIGAND FREE ENERGY PREDICTED BY IDOCK:   -3.82 KCAL/MOL
REMARK 924 INTRA-LIGAND FREE ENERGY PREDICTED BY IDOCK:   -0.47 KCAL/MOL
REMARK 927      BINDING AFFINITY PREDICTED BY RF-SCORE:    0.00 PKD
ROOT
HETATM    1  N   UNL     1     -10.058   4.225  64.660  1.00  0.00    -0.344 NA 
HETATM    2  H1  UNL     1     -10.566   3.424  65.037  1.00  0.00     0.000 HD 
HETATM    3  C   UNL     1      -9.641   5.162  65.555  1.00  0.00    -0.043 C  
HETATM    4  H2  UNL     1      -9.871   4.318  63.662  1.00  0.00     0.000 HD 
HETATM    5  N   UNL     1      -8.994   6.179  65.076  1.00  0.00    -0.361 N  
HETATM    6  C   UNL     1      -8.606   7.201  65.907  1.00  0.00    -0.148 C  
HETATM    7  H   UNL     1      -8.773   6.220  64.080  1.00  0.00     0.000 HD 
HETATM    8  N   UNL     1      -8.988   7.137  67.250  1.00  0.00    -0.122 N  
HETATM    9  O   UNL     1      -7.967   8.162  65.483  1.00  0.00    -0.098 OA 
HETATM   10  C   UNL     1      -9.945   5.000  66.988  1.00  0.00    -0.231 C  
HETATM   11  C   UNL     1      -9.613   6.032  67.771  1.00  0.00    -0.112 C  
ENDROOT
BRANCH   8  12
HETATM   12  C   UNL     1      -8.882   8.347  68.050  1.00  0.00    -0.142 C  
BRANCH  12  13
HETATM   13  C   UNL     1     -10.210   9.006  68.482  1.00  0.00    -0.200 C  
BRANCH  13  14
HETATM   14  O   UNL     1     -10.589  10.057  67.535  1.00  0.00    -0.242 OA 
BRANCH  14  15
HETATM   15  C   UNL     1     -10.659  11.325  68.214  1.00  0.00    -0.197 C  
HETATM   16  P   UNL     1     -10.233  12.736  67.129  1.00  0.00    -0.237 P  
HETATM   17  O   UNL     1     -11.539  12.283  66.227  1.00  0.00    -0.366 OA 
HETATM   18  O   UNL     1     -10.978  13.664  68.267  1.00  0.00    -0.238 OA 
HETATM   19  O   UNL     1      -9.874  13.930  66.212  1.00  0.00    -0.290 OA 
ENDBRANCH  14  15
ENDBRANCH  13  14
BRANCH  13  20
HETATM   20  C   UNL     1     -10.097   9.631  69.881  1.00  0.00    -0.246 C  
HETATM   21  O   UNL     1     -10.739   8.798  70.848  1.00  0.00    -0.206 OA 
HETATM   22  H   UNL     1     -10.669   9.185  71.713  1.00  0.00     0.000 HD 
ENDBRANCH  13  20
ENDBRANCH  12  13
ENDBRANCH   8  12
TORSDOF 5
ENDMDL
MODEL      271
REMARK 921   NORMALIZED FREE ENERGY PREDICTED BY IDOCK:   -2.56 KCAL/MOL
REMARK 922        TOTAL FREE ENERGY PREDICTED BY IDOCK:   -4.25 KCAL/MOL
REMARK 923 INTER-LIGAND FREE ENERGY PREDICTED BY IDOCK:   -3.80 KCAL/MOL
REMARK 924 INTRA-LIGAND FREE ENERGY PREDICTED BY IDOCK:   -0.45 KCAL/MOL
REMARK 927      BINDING AFFINITY PREDICTED BY RF-SCORE:    0.00 PKD
ROOT
HETATM    1  N   UNL     1     -11.374  10.942  70.469  1.00  0.00    -0.450 NA 
HETATM    2  H1  UNL     1     -10.649  11.660  70.496  1.00  0.00     0.000 HD 
HETATM    3  C   UNL     1     -10.958   9.648  70.542  1.00  0.00    -0.313 C  
HETATM    4  H2  UNL     1     -12.363  11.182  70.393  1.00  0.00     0.000 HD 
HETATM    5  N   UNL     1     -11.880   8.736  70.508  1.00  0.00    -0.469 N  
HETATM    6  C   UNL     1     -11.533   7.407  70.503  1.00  0.00    -0.255 C  
HETATM    7  H   UNL     1     -12.864   9.006  70.486  1.00  0.00     0.000 HD 
HETATM    8  N   UNL     1     -10.174   7.083  70.466  1.00  0.00    -0.195 N  
HETATM    9  O   UNL     1     -12.389   6.523  70.501  1.00  0.00    -0.259 OA 
HETATM   10  C   UNL     1      -9.520   9.340  70.635  1.00  0.00    -0.333 C  
HETATM   11  C   UNL     1      -9.199   8.043  70.567  1.00  0.00    -0.154 C  
ENDROOT
BRANCH   8  12
HETATM   12  C   UNL     1      -9.805   5.718  70.122  1.00  0.00    -0.184 C  
BRANCH  12  13
HETATM   13  C   UNL     1      -8.858   5.544  68.915  1.00  0.00    -0.107 C  
BRANCH  13  14
HETATM   14  O   UNL     1      -9.498   4.731  67.879  1.00  0.00    -0.130 OA 
BRANCH  14  15
HETATM   15  C   UNL     1      -8.858   4.960  66.610  1.00  0.00    -0.110 C  
HETATM   16  P   UNL     1      -9.475   3.852  65.291  1.00  0.00    -0.183 P  
HETATM   17  O   UNL     1     -10.941   4.565  65.542  1.00  0.00    -0.247 OA 
HETATM   18  O   UNL     1      -8.802   4.936  64.249  1.00  0.00    -0.148 OA 
HETATM   19  O   UNL     1      -9.996   2.916  64.174  1.00  0.00    -0.155 OA 
ENDBRANCH  14  15
ENDBRANCH  13  14
BRANCH  13  20
HETATM   20  C   UNL     1      -7.546   4.858  69.327  1.00  0.00    -0.060 C  
HETATM   21  O   UNL     1      -6.569   5.838  69.687  1.00  0.00    -0.046 OA 
HETATM   22  H   UNL     1      -5.758   5.414  69.941  1.00  0.00     0.000 HD 
ENDBRANCH  13  20
ENDBRANCH  12  13
ENDBRANCH   8  12
TORSDOF 5
ENDMDL
MODEL      272
REMARK 921   NORMALIZED FREE ENERGY PREDICTED BY IDOCK:   -2.56 KCAL/MOL
REMARK 922        TOTAL FREE ENERGY PREDICTED BY IDOCK:   -4.24 KCAL/MOL
REMARK 923 INTER-LIGAND FREE ENERGY PREDICTED BY IDOCK:   -3.63 KCAL/MOL
REMARK 924 INTRA-LIGAND FREE ENERGY PREDICTED BY IDOCK:   -0.61 KCAL/MOL
REMARK 927      BINDING AFFINITY PREDICTED BY RF-SCORE:    0.00 PKD
ROOT
HETATM    1  N   UNL     1     -11.112  14.931  64.264  1.00  0.00    -0.607 NA 
HETATM    2  H1  UNL     1     -10.565  15.194  63.443  1.00  0.00     0.000 HD 
HETATM    3  C   UNL     1     -10.818  13.731  64.836  1.00  0.00    -0.391 C  
HETATM    4  H2  UNL     1     -11.841  15.538  64.638  1.00  0.00     0.000 HD 
HETATM    5  N   UNL     1     -11.513  13.398  65.880  1.00  0.00    -0.314 N  
HETATM    6  C   UNL     1     -11.325  12.171  66.468  1.00  0.00    -0.350 C  
HETATM    7  H   UNL     1     -12.199  14.048  66.266  1.00  0.00     0.000 HD 
HETATM    8  N   UNL     1     -10.425  11.286  65.869  1.00  0.00    -0.255 N  
HETATM    9  O   UNL     1     -11.950  11.843  67.476  1.00  0.00    -0.586 OA 
HETATM   10  C   UNL     1      -9.769  12.874  64.258  1.00  0.00     0.191 C  
HETATM   11  C   UNL     1      -9.643  11.661  64.805  1.00  0.00    -0.134 C  
ENDROOT
BRANCH   8  12
HETATM   12  C   UNL     1     -10.468   9.889  66.271  1.00  0.00    -0.101 C  
BRANCH  12  13
HETATM   13  C   UNL     1      -9.450   9.449  67.346  1.00  0.00    -0.131 C  
BRANCH  13  14
HETATM   14  O   UNL     1      -8.272   8.850  66.716  1.00  0.00    -0.109 OA 
BRANCH  14  15
HETATM   15  C   UNL     1      -8.681   7.953  65.667  1.00  0.00    -0.116 C  
HETATM   16  P   UNL     1      -7.408   7.753  64.366  1.00  0.00    -0.101 P  
HETATM   17  O   UNL     1      -6.452   7.138  65.563  1.00  0.00    -0.045 OA 
HETATM   18  O   UNL     1      -8.244   6.399  63.942  1.00  0.00    -0.078 OA 
HETATM   19  O   UNL     1      -6.332   7.582  63.267  1.00  0.00    -0.053 OA 
ENDBRANCH  14  15
ENDBRANCH  13  14
BRANCH  13  20
HETATM   20  C   UNL     1     -10.062   8.419  68.309  1.00  0.00    -0.199 C  
HETATM   21  O   UNL     1     -11.393   8.802  68.661  1.00  0.00    -0.251 OA 
HETATM   22  H   UNL     1     -11.771   8.166  69.256  1.00  0.00     0.000 HD 
ENDBRANCH  13  20
ENDBRANCH  12  13
ENDBRANCH   8  12
TORSDOF 5
ENDMDL
MODEL      273
REMARK 921   NORMALIZED FREE ENERGY PREDICTED BY IDOCK:   -2.53 KCAL/MOL
REMARK 922        TOTAL FREE ENERGY PREDICTED BY IDOCK:   -4.21 KCAL/MOL
REMARK 923 INTER-LIGAND FREE ENERGY PREDICTED BY IDOCK:   -3.75 KCAL/MOL
REMARK 924 INTRA-LIGAND FREE ENERGY PREDICTED BY IDOCK:   -0.46 KCAL/MOL
REMARK 927      BINDING AFFINITY PREDICTED BY RF-SCORE:    0.00 PKD
ROOT
HETATM    1  N   UNL     1      -7.253   6.278  73.797  1.00  0.00    -0.083 NA 
HETATM    2  H1  UNL     1      -6.662   5.450  73.711  1.00  0.00     0.000 HD 
HETATM    3  C   UNL     1      -8.307   6.368  72.942  1.00  0.00    -0.117 C  
HETATM    4  H2  UNL     1      -7.062   7.001  74.491  1.00  0.00     0.000 HD 
HETATM    5  N   UNL     1      -9.059   7.420  73.052  1.00  0.00    -0.143 N  
HETATM    6  C   UNL     1     -10.098   7.619  72.176  1.00  0.00    -0.196 C  
HETATM    7  H   UNL     1      -8.878   8.101  73.790  1.00  0.00     0.000 HD 
HETATM    8  N   UNL     1     -10.269   6.696  71.140  1.00  0.00    -0.193 N  
HETATM    9  O   UNL     1     -10.842   8.592  72.278  1.00  0.00    -0.354 OA 
HETATM   10  C   UNL     1      -8.541   5.311  71.942  1.00  0.00    -0.130 C  
HETATM   11  C   UNL     1      -9.518   5.550  71.061  1.00  0.00    -0.163 C  
ENDROOT
BRANCH   8  12
HETATM   12  C   UNL     1     -11.132   7.067  70.029  1.00  0.00    -0.278 C  
BRANCH  12  13
HETATM   13  C   UNL     1     -10.437   7.330  68.675  1.00  0.00    -0.194 C  
BRANCH  13  14
HETATM   14  O   UNL     1     -10.628   8.724  68.268  1.00  0.00    -0.210 OA 
BRANCH  14  15
HETATM   15  C   UNL     1      -9.463   9.192  67.564  1.00  0.00    -0.139 C  
HETATM   16  P   UNL     1      -9.861   9.904  65.925  1.00  0.00    -0.255 P  
HETATM   17  O   UNL     1     -10.745  11.021  66.757  1.00  0.00    -0.256 OA 
HETATM   18  O   UNL     1      -8.369  10.596  66.011  1.00  0.00    -0.150 OA 
HETATM   19  O   UNL     1     -10.196  10.506  64.539  1.00  0.00    -0.348 OA 
ENDBRANCH  14  15
ENDBRANCH  13  14
BRANCH  13  20
HETATM   20  C   UNL     1     -11.000   6.421  67.571  1.00  0.00    -0.364 C  
HETATM   21  O   UNL     1     -10.291   5.181  67.544  1.00  0.00    -0.180 OA 
HETATM   22  H   UNL     1     -10.639   4.619  66.861  1.00  0.00     0.000 HD 
ENDBRANCH  13  20
ENDBRANCH  12  13
ENDBRANCH   8  12
TORSDOF 5
ENDMDL
MODEL      274
REMARK 921   NORMALIZED FREE ENERGY PREDICTED BY IDOCK:   -2.53 KCAL/MOL
REMARK 922        TOTAL FREE ENERGY PREDICTED BY IDOCK:   -4.21 KCAL/MOL
REMARK 923 INTER-LIGAND FREE ENERGY PREDICTED BY IDOCK:   -3.87 KCAL/MOL
REMARK 924 INTRA-LIGAND FREE ENERGY PREDICTED BY IDOCK:   -0.33 KCAL/MOL
REMARK 927      BINDING AFFINITY PREDICTED BY RF-SCORE:    0.00 PKD
ROOT
HETATM    1  N   UNL     1      -7.103   5.133  68.859  1.00  0.00    -0.056 NA 
HETATM    2  H1  UNL     1      -6.114   5.365  68.764  1.00  0.00     0.000 HD 
HETATM    3  C   UNL     1      -7.972   6.178  68.936  1.00  0.00    -0.101 C  
HETATM    4  H2  UNL     1      -7.425   4.166  68.894  1.00  0.00     0.000 HD 
HETATM    5  N   UNL     1      -9.230   5.883  69.056  1.00  0.00    -0.123 N  
HETATM    6  C   UNL     1     -10.159   6.882  69.213  1.00  0.00    -0.170 C  
HETATM    7  H   UNL     1      -9.529   4.908  69.034  1.00  0.00     0.000 HD 
HETATM    8  N   UNL     1      -9.699   8.199  69.305  1.00  0.00    -0.168 N  
HETATM    9  O   UNL     1     -11.360   6.630  69.300  1.00  0.00    -0.291 OA 
HETATM   10  C   UNL     1      -7.468   7.562  68.897  1.00  0.00    -0.096 C  
HETATM   11  C   UNL     1      -8.379   8.518  69.112  1.00  0.00    -0.120 C  
ENDROOT
BRANCH   8  12
HETATM   12  C   UNL     1     -10.618   9.211  69.803  1.00  0.00    -0.229 C  
BRANCH  12  13
HETATM   13  C   UNL     1     -11.271  10.127  68.746  1.00  0.00    -0.164 C  
BRANCH  13  14
HETATM   14  O   UNL     1     -10.243  10.805  67.954  1.00  0.00    -0.167 OA 
BRANCH  14  15
HETATM   15  C   UNL     1     -10.796  11.232  66.695  1.00  0.00    -0.273 C  
HETATM   16  P   UNL     1      -9.677  10.914  65.282  1.00  0.00    -0.287 P  
HETATM   17  O   UNL     1      -9.825   9.319  65.676  1.00  0.00    -0.289 OA 
HETATM   18  O   UNL     1     -11.019  11.106  64.347  1.00  0.00    -0.322 OA 
HETATM   19  O   UNL     1      -8.731  10.646  64.086  1.00  0.00    -0.178 OA 
ENDBRANCH  14  15
ENDBRANCH  13  14
BRANCH  13  20
HETATM   20  C   UNL     1     -12.159  11.196  69.404  1.00  0.00    -0.326 C  
HETATM   21  O   UNL     1     -11.350  12.230  69.969  1.00  0.00    -0.511 OA 
HETATM   22  H   UNL     1     -11.899  12.891  70.375  1.00  0.00     0.000 HD 
ENDBRANCH  13  20
ENDBRANCH  12  13
ENDBRANCH   8  12
TORSDOF 5
ENDMDL
MODEL      275
REMARK 921   NORMALIZED FREE ENERGY PREDICTED BY IDOCK:   -2.49 KCAL/MOL
REMARK 922        TOTAL FREE ENERGY PREDICTED BY IDOCK:   -4.16 KCAL/MOL
REMARK 923 INTER-LIGAND FREE ENERGY PREDICTED BY IDOCK:   -3.62 KCAL/MOL
REMARK 924 INTRA-LIGAND FREE ENERGY PREDICTED BY IDOCK:   -0.53 KCAL/MOL
REMARK 927      BINDING AFFINITY PREDICTED BY RF-SCORE:    0.00 PKD
ROOT
HETATM    1  N   UNL     1     -11.354   4.218  64.899  1.00  0.00    -1.051 NA 
HETATM    2  H1  UNL     1     -12.035   3.602  65.345  1.00  0.00     0.000 HD 
HETATM    3  C   UNL     1     -10.406   4.768  65.706  1.00  0.00    -0.237 C  
HETATM    4  H2  UNL     1     -11.383   4.412  63.898  1.00  0.00     0.000 HD 
HETATM    5  N   UNL     1      -9.540   5.551  65.138  1.00  0.00    -0.335 N  
HETATM    6  C   UNL     1      -8.598   6.200  65.898  1.00  0.00    -0.147 C  
HETATM    7  H   UNL     1      -9.559   5.683  64.127  1.00  0.00     0.000 HD 
HETATM    8  N   UNL     1      -8.651   6.043  67.286  1.00  0.00    -0.107 N  
HETATM    9  O   UNL     1      -7.749   6.924  65.381  1.00  0.00    -0.093 OA 
HETATM   10  C   UNL     1     -10.406   4.478  67.151  1.00  0.00     0.003 C  
HETATM   11  C   UNL     1      -9.522   5.166  67.881  1.00  0.00    -0.129 C  
ENDROOT
BRANCH   8  12
HETATM   12  C   UNL     1      -7.893   6.973  68.109  1.00  0.00    -0.118 C  
BRANCH  12  13
HETATM   13  C   UNL     1      -8.371   7.151  69.566  1.00  0.00    -0.133 C  
BRANCH  13  14
HETATM   14  O   UNL     1      -8.768   8.540  69.805  1.00  0.00    -0.129 OA 
BRANCH  14  15
HETATM   15  C   UNL     1     -10.040   8.799  69.184  1.00  0.00    -0.198 C  
HETATM   16  P   UNL     1     -10.482  10.576  69.184  1.00  0.00    -0.250 P  
HETATM   17  O   UNL     1      -9.129  10.791  68.264  1.00  0.00    -0.145 OA 
HETATM   18  O   UNL     1     -11.566  10.170  68.012  1.00  0.00    -0.253 OA 
HETATM   19  O   UNL     1     -10.857  12.078  69.183  1.00  0.00    -0.203 OA 
ENDBRANCH  14  15
ENDBRANCH  13  14
BRANCH  13  20
HETATM   20  C   UNL     1      -7.265   6.783  70.568  1.00  0.00    -0.073 C  
HETATM   21  O   UNL     1      -6.156   6.196  69.884  1.00  0.00    -0.024 OA 
HETATM   22  H   UNL     1      -5.472   5.969  70.504  1.00  0.00     0.000 HD 
ENDBRANCH  13  20
ENDBRANCH  12  13
ENDBRANCH   8  12
TORSDOF 5
ENDMDL
MODEL      276
REMARK 921   NORMALIZED FREE ENERGY PREDICTED BY IDOCK:   -2.46 KCAL/MOL
REMARK 922        TOTAL FREE ENERGY PREDICTED BY IDOCK:   -4.11 KCAL/MOL
REMARK 923 INTER-LIGAND FREE ENERGY PREDICTED BY IDOCK:   -3.74 KCAL/MOL
REMARK 924 INTRA-LIGAND FREE ENERGY PREDICTED BY IDOCK:   -0.38 KCAL/MOL
REMARK 927      BINDING AFFINITY PREDICTED BY RF-SCORE:    0.00 PKD
ROOT
HETATM    1  N   UNL     1      -7.215   4.473  70.012  1.00  0.00    -0.049 NA 
HETATM    2  H1  UNL     1      -6.893   4.266  70.957  1.00  0.00     0.000 HD 
HETATM    3  C   UNL     1      -7.407   5.785  69.704  1.00  0.00    -0.071 C  
HETATM    4  H2  UNL     1      -7.384   3.733  69.330  1.00  0.00     0.000 HD 
HETATM    5  N   UNL     1      -7.816   6.048  68.501  1.00  0.00    -0.098 N  
HETATM    6  C   UNL     1      -8.103   7.342  68.140  1.00  0.00    -0.124 C  
HETATM    7  H   UNL     1      -7.925   5.294  67.823  1.00  0.00     0.000 HD 
HETATM    8  N   UNL     1      -8.005   8.335  69.118  1.00  0.00    -0.110 N  
HETATM    9  O   UNL     1      -8.464   7.621  66.997  1.00  0.00    -0.121 OA 
HETATM   10  C   UNL     1      -7.168   6.824  70.721  1.00  0.00    -0.070 C  
HETATM   11  C   UNL     1      -7.510   8.069  70.370  1.00  0.00    -0.075 C  
ENDROOT
BRANCH   8  12
HETATM   12  C   UNL     1      -8.620   9.625  68.848  1.00  0.00    -0.127 C  
BRANCH  12  13
HETATM   13  C   UNL     1     -10.105   9.777  69.244  1.00  0.00    -0.198 C  
BRANCH  13  14
HETATM   14  O   UNL     1     -10.580   8.564  69.914  1.00  0.00    -0.223 OA 
BRANCH  14  15
HETATM   15  C   UNL     1     -10.983   8.875  71.260  1.00  0.00    -0.293 C  
HETATM   16  P   UNL     1     -12.731   8.446  71.596  1.00  0.00    -0.317 P  
HETATM   17  O   UNL     1     -12.287   6.890  71.275  1.00  0.00    -0.359 OA 
HETATM   18  O   UNL     1     -12.312   8.544  73.185  1.00  0.00    -0.092 OA 
HETATM   19  O   UNL     1     -14.209   8.084  71.880  1.00  0.00    -0.396 OA 
ENDBRANCH  14  15
ENDBRANCH  13  14
BRANCH  13  20
HETATM   20  C   UNL     1     -10.990  10.029  68.013  1.00  0.00    -0.240 C  
HETATM   21  O   UNL     1     -12.079  10.888  68.356  1.00  0.00    -0.776 OA 
HETATM   22  H   UNL     1     -12.627  11.044  67.595  1.00  0.00     0.000 HD 
ENDBRANCH  13  20
ENDBRANCH  12  13
ENDBRANCH   8  12
TORSDOF 5
ENDMDL
MODEL      277
REMARK 921   NORMALIZED FREE ENERGY PREDICTED BY IDOCK:   -2.46 KCAL/MOL
REMARK 922        TOTAL FREE ENERGY PREDICTED BY IDOCK:   -4.11 KCAL/MOL
REMARK 923 INTER-LIGAND FREE ENERGY PREDICTED BY IDOCK:   -4.04 KCAL/MOL
REMARK 924 INTRA-LIGAND FREE ENERGY PREDICTED BY IDOCK:   -0.08 KCAL/MOL
REMARK 927      BINDING AFFINITY PREDICTED BY RF-SCORE:    0.00 PKD
ROOT
HETATM    1  N   UNL     1     -10.559  14.411  66.550  1.00  0.00    -0.292 NA 
HETATM    2  H1  UNL     1      -9.941  14.946  65.939  1.00  0.00     0.000 HD 
HETATM    3  C   UNL     1     -10.338  13.070  66.621  1.00  0.00    -0.260 C  
HETATM    4  H2  UNL     1     -11.306  14.859  67.081  1.00  0.00     0.000 HD 
HETATM    5  N   UNL     1     -11.124  12.389  67.398  1.00  0.00    -0.257 N  
HETATM    6  C   UNL     1     -11.009  11.022  67.466  1.00  0.00    -0.281 C  
HETATM    7  H   UNL     1     -11.827  12.870  67.959  1.00  0.00     0.000 HD 
HETATM    8  N   UNL     1     -10.078  10.399  66.631  1.00  0.00    -0.216 N  
HETATM    9  O   UNL     1     -11.722  10.358  68.216  1.00  0.00    -0.342 OA 
HETATM   10  C   UNL     1      -9.259  12.456  65.827  1.00  0.00     0.071 C  
HETATM   11  C   UNL     1      -9.203  11.120  65.859  1.00  0.00    -0.206 C  
ENDROOT
BRANCH   8  12
HETATM   12  C   UNL     1     -10.181   8.960  66.445  1.00  0.00    -0.203 C  
BRANCH  12  13
HETATM   13  C   UNL     1     -10.143   8.096  67.725  1.00  0.00    -0.204 C  
BRANCH  13  14
HETATM   14  O   UNL     1      -8.785   8.056  68.272  1.00  0.00    -0.130 OA 
BRANCH  14  15
HETATM   15  C   UNL     1      -8.838   8.006  69.709  1.00  0.00    -0.144 C  
HETATM   16  P   UNL     1      -7.569   9.059  70.504  1.00  0.00    -0.140 P  
HETATM   17  O   UNL     1      -8.322  10.324  69.759  1.00  0.00    -0.165 OA 
HETATM   18  O   UNL     1      -8.498   8.927  71.857  1.00  0.00    -0.348 OA 
HETATM   19  O   UNL     1      -6.496   9.949  71.177  1.00  0.00    -0.280 OA 
ENDBRANCH  14  15
ENDBRANCH  13  14
BRANCH  13  20
HETATM   20  C   UNL     1     -10.594   6.654  67.441  1.00  0.00    -0.301 C  
HETATM   21  O   UNL     1     -11.849   6.655  66.757  1.00  0.00    -0.338 OA 
HETATM   22  H   UNL     1     -12.128   5.763  66.582  1.00  0.00     0.000 HD 
ENDBRANCH  13  20
ENDBRANCH  12  13
ENDBRANCH   8  12
TORSDOF 5
ENDMDL
MODEL      278
REMARK 921   NORMALIZED FREE ENERGY PREDICTED BY IDOCK:   -2.41 KCAL/MOL
REMARK 922        TOTAL FREE ENERGY PREDICTED BY IDOCK:   -4.06 KCAL/MOL
REMARK 923 INTER-LIGAND FREE ENERGY PREDICTED BY IDOCK:   -4.01 KCAL/MOL
REMARK 924 INTRA-LIGAND FREE ENERGY PREDICTED BY IDOCK:   -0.05 KCAL/MOL
REMARK 927      BINDING AFFINITY PREDICTED BY RF-SCORE:    0.00 PKD
ROOT
HETATM    1  N   UNL     1     -11.224  14.454  68.243  1.00  0.00    -0.263 NA 
HETATM    2  H1  UNL     1     -10.568  14.699  67.501  1.00  0.00     0.000 HD 
HETATM    3  C   UNL     1     -11.080  13.223  68.804  1.00  0.00    -0.266 C  
HETATM    4  H2  UNL     1     -11.951  15.101  68.551  1.00  0.00     0.000 HD 
HETATM    5  N   UNL     1     -11.914  12.911  69.749  1.00  0.00    -0.315 N  
HETATM    6  C   UNL     1     -11.879  11.659  70.312  1.00  0.00    -0.326 C  
HETATM    7  H   UNL     1     -12.596  13.597  70.074  1.00  0.00     0.000 HD 
HETATM    8  N   UNL     1     -10.974  10.730  69.792  1.00  0.00    -0.261 N  
HETATM    9  O   UNL     1     -12.638  11.350  71.229  1.00  0.00    -0.394 OA 
HETATM   10  C   UNL     1     -10.029  12.310  68.323  1.00  0.00    -0.216 C  
HETATM   11  C   UNL     1     -10.049  11.076  68.839  1.00  0.00    -0.199 C  
ENDROOT
BRANCH   8  12
HETATM   12  C   UNL     1     -11.157   9.329  70.139  1.00  0.00    -0.230 C  
BRANCH  12  13
HETATM   13  C   UNL     1     -10.240   8.768  71.247  1.00  0.00    -0.262 C  
BRANCH  13  14
HETATM   14  O   UNL     1      -9.678   7.479  70.839  1.00  0.00    -0.173 OA 
BRANCH  14  15
HETATM   15  C   UNL     1      -8.949   6.894  71.934  1.00  0.00    -0.137 C  
HETATM   16  P   UNL     1      -7.623   5.759  71.380  1.00  0.00    -0.109 P  
HETATM   17  O   UNL     1      -6.962   7.081  70.648  1.00  0.00    -0.060 OA 
HETATM   18  O   UNL     1      -7.017   5.939  72.901  1.00  0.00    -0.074 OA 
HETATM   19  O   UNL     1      -6.502   4.801  70.914  1.00  0.00    -0.028 OA 
ENDBRANCH  14  15
ENDBRANCH  13  14
BRANCH  13  20
HETATM   20  C   UNL     1     -11.010   8.566  72.562  1.00  0.00    -0.253 C  
HETATM   21  O   UNL     1     -11.816   7.388  72.486  1.00  0.00    -0.443 OA 
HETATM   22  H   UNL     1     -12.292   7.263  73.299  1.00  0.00     0.000 HD 
ENDBRANCH  13  20
ENDBRANCH  12  13
ENDBRANCH   8  12
TORSDOF 5
ENDMDL
MODEL      279
REMARK 921   NORMALIZED FREE ENERGY PREDICTED BY IDOCK:   -2.40 KCAL/MOL
REMARK 922        TOTAL FREE ENERGY PREDICTED BY IDOCK:   -4.05 KCAL/MOL
REMARK 923 INTER-LIGAND FREE ENERGY PREDICTED BY IDOCK:   -3.75 KCAL/MOL
REMARK 924 INTRA-LIGAND FREE ENERGY PREDICTED BY IDOCK:   -0.30 KCAL/MOL
REMARK 927      BINDING AFFINITY PREDICTED BY RF-SCORE:    0.00 PKD
ROOT
HETATM    1  N   UNL     1      -9.306   7.712  73.954  1.00  0.00    -0.360 NA 
HETATM    2  H1  UNL     1      -8.390   7.919  74.352  1.00  0.00     0.000 HD 
HETATM    3  C   UNL     1      -9.405   7.748  72.597  1.00  0.00    -0.188 C  
HETATM    4  H2  UNL     1     -10.107   7.488  74.543  1.00  0.00     0.000 HD 
HETATM    5  N   UNL     1     -10.571   7.483  72.090  1.00  0.00    -0.213 N  
HETATM    6  C   UNL     1     -10.767   7.572  70.734  1.00  0.00    -0.229 C  
HETATM    7  H   UNL     1     -11.341   7.209  72.700  1.00  0.00     0.000 HD 
HETATM    8  N   UNL     1      -9.704   8.016  69.943  1.00  0.00    -0.179 N  
HETATM    9  O   UNL     1     -11.854   7.298  70.227  1.00  0.00    -0.190 OA 
HETATM   10  C   UNL     1      -8.229   8.092  71.779  1.00  0.00    -0.151 C  
HETATM   11  C   UNL     1      -8.454   8.232  70.468  1.00  0.00    -0.129 C  
ENDROOT
BRANCH   8  12
HETATM   12  C   UNL     1      -9.992   8.433  68.580  1.00  0.00    -0.187 C  
BRANCH  12  13
HETATM   13  C   UNL     1     -10.675   9.807  68.409  1.00  0.00    -0.221 C  
BRANCH  13  14
HETATM   14  O   UNL     1     -10.436  10.331  67.062  1.00  0.00    -0.230 OA 
BRANCH  14  15
HETATM   15  C   UNL     1      -9.957   9.277  66.206  1.00  0.00    -0.286 C  
HETATM   16  P   UNL     1      -8.672   9.844  65.032  1.00  0.00    -0.209 P  
HETATM   17  O   UNL     1      -7.776  10.202  66.370  1.00  0.00    -0.105 OA 
HETATM   18  O   UNL     1      -8.311   8.247  64.862  1.00  0.00    -0.159 OA 
HETATM   19  O   UNL     1      -7.585  10.322  64.039  1.00  0.00    -0.142 OA 
ENDBRANCH  14  15
ENDBRANCH  13  14
BRANCH  13  20
HETATM   20  C   UNL     1     -10.142  10.828  69.428  1.00  0.00    -0.139 C  
HETATM   21  O   UNL     1     -11.105  11.041  70.463  1.00  0.00    -0.429 OA 
HETATM   22  H   UNL     1     -10.776  11.672  71.092  1.00  0.00     0.000 HD 
ENDBRANCH  13  20
ENDBRANCH  12  13
ENDBRANCH   8  12
TORSDOF 5
ENDMDL
MODEL      280
REMARK 921   NORMALIZED FREE ENERGY PREDICTED BY IDOCK:   -2.37 KCAL/MOL
REMARK 922        TOTAL FREE ENERGY PREDICTED BY IDOCK:   -4.01 KCAL/MOL
REMARK 923 INTER-LIGAND FREE ENERGY PREDICTED BY IDOCK:   -4.29 KCAL/MOL
REMARK 924 INTRA-LIGAND FREE ENERGY PREDICTED BY IDOCK:    0.29 KCAL/MOL
REMARK 927      BINDING AFFINITY PREDICTED BY RF-SCORE:    0.00 PKD
ROOT
HETATM    1  N   UNL     1     -13.317  15.684  70.793  1.00  0.00    -0.771 NA 
HETATM    2  H1  UNL     1     -13.172  16.667  70.559  1.00  0.00     0.000 HD 
HETATM    3  C   UNL     1     -12.426  14.795  70.275  1.00  0.00    -0.340 C  
HETATM    4  H2  UNL     1     -14.091  15.383  71.385  1.00  0.00     0.000 HD 
HETATM    5  N   UNL     1     -12.610  13.545  70.572  1.00  0.00    -0.279 N  
HETATM    6  C   UNL     1     -11.796  12.582  70.028  1.00  0.00    -0.289 C  
HETATM    7  H   UNL     1     -13.359  13.278  71.211  1.00  0.00     0.000 HD 
HETATM    8  N   UNL     1     -10.826  12.985  69.106  1.00  0.00    -0.149 N  
HETATM    9  O   UNL     1     -11.931  11.394  70.317  1.00  0.00    -0.327 OA 
HETATM   10  C   UNL     1     -11.330  15.266  69.410  1.00  0.00    -0.304 C  
HETATM   11  C   UNL     1     -10.587  14.310  68.842  1.00  0.00    -0.245 C  
ENDROOT
BRANCH   8  12
HETATM   12  C   UNL     1     -10.199  11.963  68.282  1.00  0.00    -0.204 C  
BRANCH  12  13
HETATM   13  C   UNL     1      -9.587  10.757  69.027  1.00  0.00    -0.180 C  
BRANCH  13  14
HETATM   14  O   UNL     1      -8.185  10.579  68.643  1.00  0.00    -0.115 OA 
BRANCH  14  15
HETATM   15  C   UNL     1      -8.059   9.451  67.758  1.00  0.00    -0.107 C  
HETATM   16  P   UNL     1      -6.585   8.427  68.117  1.00  0.00    -0.062 P  
HETATM   17  O   UNL     1      -7.275   8.163  69.592  1.00  0.00    -0.062 OA 
HETATM   18  O   UNL     1      -7.342   7.263  67.232  1.00  0.00    -0.092 OA 
HETATM   19  O   UNL     1      -5.339   7.560  68.421  1.00  0.00    -0.024 OA 
ENDBRANCH  14  15
ENDBRANCH  13  14
BRANCH  13  20
HETATM   20  C   UNL     1     -10.345   9.458  68.708  1.00  0.00    -0.209 C  
HETATM   21  O   UNL     1     -11.476   9.738  67.879  1.00  0.00    -0.536 OA 
HETATM   22  H   UNL     1     -11.944   8.935  67.682  1.00  0.00     0.000 HD 
ENDBRANCH  13  20
ENDBRANCH  12  13
ENDBRANCH   8  12
TORSDOF 5
ENDMDL
MODEL      281
REMARK 921   NORMALIZED FREE ENERGY PREDICTED BY IDOCK:   -2.35 KCAL/MOL
REMARK 922        TOTAL FREE ENERGY PREDICTED BY IDOCK:   -3.97 KCAL/MOL
REMARK 923 INTER-LIGAND FREE ENERGY PREDICTED BY IDOCK:   -3.33 KCAL/MOL
REMARK 924 INTRA-LIGAND FREE ENERGY PREDICTED BY IDOCK:   -0.64 KCAL/MOL
REMARK 927      BINDING AFFINITY PREDICTED BY RF-SCORE:    0.00 PKD
ROOT
HETATM    1  N   UNL     1      -6.969  10.801  62.886  1.00  0.00    -0.351 NA 
HETATM    2  H1  UNL     1      -7.404  10.487  62.017  1.00  0.00     0.000 HD 
HETATM    3  C   UNL     1      -7.262  10.090  64.009  1.00  0.00    -0.129 C  
HETATM    4  H2  UNL     1      -6.345  11.607  62.910  1.00  0.00     0.000 HD 
HETATM    5  N   UNL     1      -6.709  10.489  65.112  1.00  0.00    -0.299 N  
HETATM    6  C   UNL     1      -7.014   9.868  66.299  1.00  0.00    -0.100 C  
HETATM    7  H   UNL     1      -6.046  11.265  65.099  1.00  0.00     0.000 HD 
HETATM    8  N   UNL     1      -7.977   8.855  66.282  1.00  0.00    -0.102 N  
HETATM    9  O   UNL     1      -6.481  10.208  67.354  1.00  0.00    -0.066 OA 
HETATM   10  C   UNL     1      -8.181   8.941  63.936  1.00  0.00    -0.171 C  
HETATM   11  C   UNL     1      -8.513   8.388  65.108  1.00  0.00    -0.160 C  
ENDROOT
BRANCH   8  12
HETATM   12  C   UNL     1      -8.547   8.432  67.551  1.00  0.00    -0.129 C  
BRANCH  12  13
HETATM   13  C   UNL     1      -9.406   7.148  67.527  1.00  0.00    -0.124 C  
BRANCH  13  14
HETATM   14  O   UNL     1     -10.508   7.256  68.485  1.00  0.00    -0.189 OA 
BRANCH  14  15
HETATM   15  C   UNL     1     -10.332   8.425  69.305  1.00  0.00    -0.214 C  
HETATM   16  P   UNL     1     -11.330   8.375  70.839  1.00  0.00    -0.246 P  
HETATM   17  O   UNL     1     -10.449   7.035  71.226  1.00  0.00    -0.207 OA 
HETATM   18  O   UNL     1     -10.314   9.553  71.380  1.00  0.00    -0.302 OA 
HETATM   19  O   UNL     1     -12.173   8.333  72.136  1.00  0.00    -0.325 OA 
ENDBRANCH  14  15
ENDBRANCH  13  14
BRANCH  13  20
HETATM   20  C   UNL     1      -8.571   5.909  67.886  1.00  0.00    -0.105 C  
HETATM   21  O   UNL     1      -9.149   5.232  69.004  1.00  0.00    -0.111 OA 
HETATM   22  H   UNL     1      -8.633   4.466  69.226  1.00  0.00     0.000 HD 
ENDBRANCH  13  20
ENDBRANCH  12  13
ENDBRANCH   8  12
TORSDOF 5
ENDMDL
MODEL      282
REMARK 921   NORMALIZED FREE ENERGY PREDICTED BY IDOCK:   -2.33 KCAL/MOL
REMARK 922        TOTAL FREE ENERGY PREDICTED BY IDOCK:   -3.95 KCAL/MOL
REMARK 923 INTER-LIGAND FREE ENERGY PREDICTED BY IDOCK:   -3.62 KCAL/MOL
REMARK 924 INTRA-LIGAND FREE ENERGY PREDICTED BY IDOCK:   -0.33 KCAL/MOL
REMARK 927      BINDING AFFINITY PREDICTED BY RF-SCORE:    0.00 PKD
ROOT
HETATM    1  N   UNL     1     -10.788   3.718  64.450  1.00  0.00    -0.520 NA 
HETATM    2  H1  UNL     1     -11.769   3.616  64.711  1.00  0.00     0.000 HD 
HETATM    3  C   UNL     1      -9.986   4.373  65.333  1.00  0.00    -0.218 C  
HETATM    4  H2  UNL     1     -10.426   3.348  63.571  1.00  0.00     0.000 HD 
HETATM    5  N   UNL     1      -8.738   4.503  65.001  1.00  0.00    -0.132 N  
HETATM    6  C   UNL     1      -7.883   5.216  65.806  1.00  0.00    -0.095 C  
HETATM    7  H   UNL     1      -8.391   4.076  64.142  1.00  0.00     0.000 HD 
HETATM    8  N   UNL     1      -8.413   5.840  66.938  1.00  0.00    -0.108 N  
HETATM    9  O   UNL     1      -6.690   5.328  65.529  1.00  0.00    -0.043 OA 
HETATM   10  C   UNL     1     -10.548   4.909  66.585  1.00  0.00    -0.200 C  
HETATM   11  C   UNL     1      -9.716   5.650  67.325  1.00  0.00    -0.135 C  
ENDROOT
BRANCH   8  12
HETATM   12  C   UNL     1      -7.610   6.857  67.598  1.00  0.00    -0.110 C  
BRANCH  12  13
HETATM   13  C   UNL     1      -8.007   8.326  67.339  1.00  0.00    -0.106 C  
BRANCH  13  14
HETATM   14  O   UNL     1      -9.073   8.735  68.257  1.00  0.00    -0.140 OA 
BRANCH  14  15
HETATM   15  C   UNL     1      -8.505   9.136  69.518  1.00  0.00    -0.128 C  
HETATM   16  P   UNL     1      -9.666   8.929  70.918  1.00  0.00    -0.284 P  
HETATM   17  O   UNL     1      -9.639   7.322  70.548  1.00  0.00    -0.169 OA 
HETATM   18  O   UNL     1      -8.327   9.028  71.870  1.00  0.00    -0.365 OA 
HETATM   19  O   UNL     1     -10.647   8.755  72.102  1.00  0.00    -0.340 OA 
ENDBRANCH  14  15
ENDBRANCH  13  14
BRANCH  13  20
HETATM   20  C   UNL     1      -8.506   8.526  65.898  1.00  0.00    -0.152 C  
HETATM   21  O   UNL     1      -9.863   8.975  65.904  1.00  0.00    -0.368 OA 
HETATM   22  H   UNL     1     -10.171   9.098  65.014  1.00  0.00     0.000 HD 
ENDBRANCH  13  20
ENDBRANCH  12  13
ENDBRANCH   8  12
TORSDOF 5
ENDMDL
MODEL      283
REMARK 921   NORMALIZED FREE ENERGY PREDICTED BY IDOCK:   -2.27 KCAL/MOL
REMARK 922        TOTAL FREE ENERGY PREDICTED BY IDOCK:   -3.88 KCAL/MOL
REMARK 923 INTER-LIGAND FREE ENERGY PREDICTED BY IDOCK:   -3.28 KCAL/MOL
REMARK 924 INTRA-LIGAND FREE ENERGY PREDICTED BY IDOCK:   -0.59 KCAL/MOL
REMARK 927      BINDING AFFINITY PREDICTED BY RF-SCORE:    0.00 PKD
ROOT
HETATM    1  N   UNL     1     -11.377  11.726  69.706  1.00  0.00    -0.462 NA 
HETATM    2  H1  UNL     1     -12.331  11.364  69.722  1.00  0.00     0.000 HD 
HETATM    3  C   UNL     1     -10.539  11.197  68.773  1.00  0.00    -0.202 C  
HETATM    4  H2  UNL     1     -11.068  12.449  70.355  1.00  0.00     0.000 HD 
HETATM    5  N   UNL     1      -9.326  11.658  68.751  1.00  0.00    -0.382 N  
HETATM    6  C   UNL     1      -8.401  11.122  67.888  1.00  0.00    -0.129 C  
HETATM    7  H   UNL     1      -9.058  12.420  69.376  1.00  0.00     0.000 HD 
HETATM    8  N   UNL     1      -8.792  10.037  67.099  1.00  0.00    -0.135 N  
HETATM    9  O   UNL     1      -7.254  11.561  67.828  1.00  0.00    -0.085 OA 
HETATM   10  C   UNL     1     -11.018  10.143  67.862  1.00  0.00    -0.335 C  
HETATM   11  C   UNL     1     -10.090   9.592  67.073  1.00  0.00    -0.214 C  
ENDROOT
BRANCH   8  12
HETATM   12  C   UNL     1      -7.752   9.258  66.445  1.00  0.00    -0.093 C  
BRANCH  12  13
HETATM   13  C   UNL     1      -8.142   7.836  65.986  1.00  0.00    -0.117 C  
BRANCH  13  14
HETATM   14  O   UNL     1      -7.663   6.842  66.949  1.00  0.00    -0.099 OA 
BRANCH  14  15
HETATM   15  C   UNL     1      -8.781   6.141  67.526  1.00  0.00    -0.104 C  
HETATM   16  P   UNL     1      -8.490   5.646  69.264  1.00  0.00    -0.106 P  
HETATM   17  O   UNL     1      -8.362   7.261  69.577  1.00  0.00    -0.129 OA 
HETATM   18  O   UNL     1     -10.125   5.465  69.346  1.00  0.00    -0.191 OA 
HETATM   19  O   UNL     1      -8.246   5.228  70.734  1.00  0.00    -0.105 OA 
ENDBRANCH  14  15
ENDBRANCH  13  14
BRANCH  13  20
HETATM   20  C   UNL     1      -7.541   7.506  64.610  1.00  0.00    -0.111 C  
HETATM   21  O   UNL     1      -8.277   8.169  63.580  1.00  0.00    -0.282 OA 
HETATM   22  H   UNL     1      -7.906   7.965  62.729  1.00  0.00     0.000 HD 
ENDBRANCH  13  20
ENDBRANCH  12  13
ENDBRANCH   8  12
TORSDOF 5
ENDMDL
MODEL      284
REMARK 921   NORMALIZED FREE ENERGY PREDICTED BY IDOCK:   -2.25 KCAL/MOL
REMARK 922        TOTAL FREE ENERGY PREDICTED BY IDOCK:   -3.85 KCAL/MOL
REMARK 923 INTER-LIGAND FREE ENERGY PREDICTED BY IDOCK:   -3.64 KCAL/MOL
REMARK 924 INTRA-LIGAND FREE ENERGY PREDICTED BY IDOCK:   -0.21 KCAL/MOL
REMARK 927      BINDING AFFINITY PREDICTED BY RF-SCORE:    0.00 PKD
ROOT
HETATM    1  N   UNL     1     -10.958  15.493  69.265  1.00  0.00    -0.249 NA 
HETATM    2  H1  UNL     1     -11.898  15.819  69.492  1.00  0.00     0.000 HD 
HETATM    3  C   UNL     1     -10.829  14.180  68.931  1.00  0.00    -0.258 C  
HETATM    4  H2  UNL     1     -10.154  16.121  69.285  1.00  0.00     0.000 HD 
HETATM    5  N   UNL     1      -9.634  13.766  68.641  1.00  0.00    -0.365 N  
HETATM    6  C   UNL     1      -9.413  12.439  68.366  1.00  0.00    -0.169 C  
HETATM    7  H   UNL     1      -8.857  14.428  68.616  1.00  0.00     0.000 HD 
HETATM    8  N   UNL     1     -10.491  11.557  68.477  1.00  0.00    -0.201 N  
HETATM    9  O   UNL     1      -8.295  12.027  68.060  1.00  0.00    -0.145 OA 
HETATM   10  C   UNL     1     -12.011  13.299  68.928  1.00  0.00    -0.336 C  
HETATM   11  C   UNL     1     -11.767  12.001  68.719  1.00  0.00    -0.321 C  
ENDROOT
BRANCH   8  12
HETATM   12  C   UNL     1     -10.207  10.131  68.523  1.00  0.00    -0.174 C  
BRANCH  12  13
HETATM   13  C   UNL     1     -10.523   9.324  67.245  1.00  0.00    -0.264 C  
BRANCH  13  14
HETATM   14  O   UNL     1      -9.604   8.190  67.120  1.00  0.00    -0.153 OA 
BRANCH  14  15
HETATM   15  C   UNL     1     -10.326   6.955  67.281  1.00  0.00    -0.251 C  
HETATM   16  P   UNL     1      -9.757   5.644  66.137  1.00  0.00     0.012 P  
HETATM   17  O   UNL     1      -8.300   5.777  66.900  1.00  0.00    -0.108 OA 
HETATM   18  O   UNL     1     -10.523   4.604  67.159  1.00  0.00    -0.099 OA 
HETATM   19  O   UNL     1      -9.276   4.534  65.171  1.00  0.00    -0.147 OA 
ENDBRANCH  14  15
ENDBRANCH  13  14
BRANCH  13  20
HETATM   20  C   UNL     1     -10.392  10.195  65.985  1.00  0.00    -0.164 C  
HETATM   21  O   UNL     1     -10.071   9.381  64.854  1.00  0.00    -0.253 OA 
HETATM   22  H   UNL     1      -9.990   9.920  64.076  1.00  0.00     0.000 HD 
ENDBRANCH  13  20
ENDBRANCH  12  13
ENDBRANCH   8  12
TORSDOF 5
ENDMDL
MODEL      285
REMARK 921   NORMALIZED FREE ENERGY PREDICTED BY IDOCK:   -2.24 KCAL/MOL
REMARK 922        TOTAL FREE ENERGY PREDICTED BY IDOCK:   -3.84 KCAL/MOL
REMARK 923 INTER-LIGAND FREE ENERGY PREDICTED BY IDOCK:   -3.40 KCAL/MOL
REMARK 924 INTRA-LIGAND FREE ENERGY PREDICTED BY IDOCK:   -0.43 KCAL/MOL
REMARK 927      BINDING AFFINITY PREDICTED BY RF-SCORE:    0.00 PKD
ROOT
HETATM    1  N   UNL     1     -11.886   6.514  69.537  1.00  0.00    -0.589 NA 
HETATM    2  H1  UNL     1     -11.638   5.529  69.434  1.00  0.00     0.000 HD 
HETATM    3  C   UNL     1     -10.861   7.409  69.509  1.00  0.00    -0.189 C  
HETATM    4  H2  UNL     1     -12.854   6.812  69.656  1.00  0.00     0.000 HD 
HETATM    5  N   UNL     1     -11.176   8.661  69.639  1.00  0.00    -0.445 N  
HETATM    6  C   UNL     1     -10.191   9.616  69.694  1.00  0.00    -0.222 C  
HETATM    7  H   UNL     1     -12.157   8.936  69.701  1.00  0.00     0.000 HD 
HETATM    8  N   UNL     1      -8.860   9.189  69.673  1.00  0.00    -0.142 N  
HETATM    9  O   UNL     1     -10.465  10.811  69.788  1.00  0.00    -0.198 OA 
HETATM   10  C   UNL     1      -9.473   6.938  69.353  1.00  0.00    -0.148 C  
HETATM   11  C   UNL     1      -8.526   7.874  69.469  1.00  0.00    -0.133 C  
ENDROOT
BRANCH   8  12
HETATM   12  C   UNL     1      -7.831  10.139  70.066  1.00  0.00    -0.115 C  
BRANCH  12  13
HETATM   13  C   UNL     1      -7.163  10.942  68.929  1.00  0.00    -0.095 C  
BRANCH  13  14
HETATM   14  O   UNL     1      -6.338  10.061  68.100  1.00  0.00    -0.053 OA 
BRANCH  14  15
HETATM   15  C   UNL     1      -6.390  10.490  66.727  1.00  0.00    -0.079 C  
HETATM   16  P   UNL     1      -6.450   9.091  65.547  1.00  0.00    -0.069 P  
HETATM   17  O   UNL     1      -7.877   8.694  66.274  1.00  0.00    -0.098 OA 
HETATM   18  O   UNL     1      -6.982  10.206  64.458  1.00  0.00    -0.135 OA 
HETATM   19  O   UNL     1      -6.502   7.910  64.548  1.00  0.00    -0.055 OA 
ENDBRANCH  14  15
ENDBRANCH  13  14
BRANCH  13  20
HETATM   20  C   UNL     1      -6.269  12.063  69.484  1.00  0.00    -0.117 C  
HETATM   21  O   UNL     1      -6.264  12.028  70.912  1.00  0.00    -0.521 OA 
HETATM   22  H   UNL     1      -5.711  12.720  71.255  1.00  0.00     0.000 HD 
ENDBRANCH  13  20
ENDBRANCH  12  13
ENDBRANCH   8  12
TORSDOF 5
ENDMDL
MODEL      286
REMARK 921   NORMALIZED FREE ENERGY PREDICTED BY IDOCK:   -2.18 KCAL/MOL
REMARK 922        TOTAL FREE ENERGY PREDICTED BY IDOCK:   -3.76 KCAL/MOL
REMARK 923 INTER-LIGAND FREE ENERGY PREDICTED BY IDOCK:   -3.33 KCAL/MOL
REMARK 924 INTRA-LIGAND FREE ENERGY PREDICTED BY IDOCK:   -0.43 KCAL/MOL
REMARK 927      BINDING AFFINITY PREDICTED BY RF-SCORE:    0.00 PKD
ROOT
HETATM    1  N   UNL     1      -7.224   5.012  63.898  1.00  0.00    -0.049 NA 
HETATM    2  H1  UNL     1      -7.798   5.233  63.084  1.00  0.00     0.000 HD 
HETATM    3  C   UNL     1      -7.885   4.687  65.043  1.00  0.00    -0.094 C  
HETATM    4  H2  UNL     1      -6.205   5.034  63.856  1.00  0.00     0.000 HD 
HETATM    5  N   UNL     1      -7.154   4.406  66.078  1.00  0.00    -0.070 N  
HETATM    6  C   UNL     1      -7.748   4.140  67.288  1.00  0.00    -0.088 C  
HETATM    7  H   UNL     1      -6.137   4.383  65.993  1.00  0.00     0.000 HD 
HETATM    8  N   UNL     1      -9.138   4.249  67.375  1.00  0.00    -0.128 N  
HETATM    9  O   UNL     1      -7.079   3.843  68.276  1.00  0.00    -0.050 OA 
HETATM   10  C   UNL     1      -9.358   4.682  65.070  1.00  0.00    -0.142 C  
HETATM   11  C   UNL     1      -9.916   4.481  66.268  1.00  0.00    -0.247 C  
ENDROOT
BRANCH   8  12
HETATM   12  C   UNL     1      -9.738   4.305  68.699  1.00  0.00    -0.104 C  
BRANCH  12  13
HETATM   13  C   UNL     1      -9.761   5.686  69.388  1.00  0.00    -0.157 C  
BRANCH  13  14
HETATM   14  O   UNL     1      -9.120   5.609  70.703  1.00  0.00    -0.146 OA 
BRANCH  14  15
HETATM   15  C   UNL     1      -9.991   6.165  71.705  1.00  0.00    -0.172 C  
HETATM   16  P   UNL     1      -9.181   7.464  72.709  1.00  0.00    -0.178 P  
HETATM   17  O   UNL     1      -9.025   8.295  71.293  1.00  0.00    -0.139 OA 
HETATM   18  O   UNL     1     -10.710   7.903  73.134  1.00  0.00    -0.368 OA 
HETATM   19  O   UNL     1      -8.498   8.563  73.559  1.00  0.00    -0.365 OA 
ENDBRANCH  14  15
ENDBRANCH  13  14
BRANCH  13  20
HETATM   20  C   UNL     1     -11.199   6.194  69.579  1.00  0.00    -0.411 C  
HETATM   21  O   UNL     1     -11.315   7.537  69.104  1.00  0.00    -0.420 OA 
HETATM   22  H   UNL     1     -12.204   7.851  69.222  1.00  0.00     0.000 HD 
ENDBRANCH  13  20
ENDBRANCH  12  13
ENDBRANCH   8  12
TORSDOF 5
ENDMDL
MODEL      287
REMARK 921   NORMALIZED FREE ENERGY PREDICTED BY IDOCK:   -2.18 KCAL/MOL
REMARK 922        TOTAL FREE ENERGY PREDICTED BY IDOCK:   -3.75 KCAL/MOL
REMARK 923 INTER-LIGAND FREE ENERGY PREDICTED BY IDOCK:   -3.34 KCAL/MOL
REMARK 924 INTRA-LIGAND FREE ENERGY PREDICTED BY IDOCK:   -0.41 KCAL/MOL
REMARK 927      BINDING AFFINITY PREDICTED BY RF-SCORE:    0.00 PKD
ROOT
HETATM    1  N   UNL     1      -7.735  11.068  62.627  1.00  0.00    -0.398 NA 
HETATM    2  H1  UNL     1      -8.503  11.208  61.970  1.00  0.00     0.000 HD 
HETATM    3  C   UNL     1      -8.056  10.541  63.840  1.00  0.00    -0.029 C  
HETATM    4  H2  UNL     1      -6.774  11.311  62.387  1.00  0.00     0.000 HD 
HETATM    5  N   UNL     1      -7.078  10.363  64.676  1.00  0.00    -0.315 N  
HETATM    6  C   UNL     1      -7.333   9.904  65.945  1.00  0.00    -0.108 C  
HETATM    7  H   UNL     1      -6.120  10.563  64.389  1.00  0.00     0.000 HD 
HETATM    8  N   UNL     1      -8.666   9.706  66.317  1.00  0.00    -0.140 N  
HETATM    9  O   UNL     1      -6.422   9.699  66.745  1.00  0.00    -0.065 OA 
HETATM   10  C   UNL     1      -9.458  10.218  64.158  1.00  0.00    -0.358 C  
HETATM   11  C   UNL     1      -9.694   9.831  65.416  1.00  0.00    -0.313 C  
ENDROOT
BRANCH   8  12
HETATM   12  C   UNL     1      -8.966   9.553  67.732  1.00  0.00    -0.122 C  
BRANCH  12  13
HETATM   13  C   UNL     1      -9.090   8.106  68.257  1.00  0.00    -0.135 C  
BRANCH  13  14
HETATM   14  O   UNL     1      -9.205   7.167  67.139  1.00  0.00    -0.128 OA 
BRANCH  14  15
HETATM   15  C   UNL     1      -8.082   6.266  67.139  1.00  0.00    -0.109 C  
HETATM   16  P   UNL     1      -8.430   4.696  66.266  1.00  0.00    -0.114 P  
HETATM   17  O   UNL     1      -8.655   5.629  64.924  1.00  0.00    -0.145 OA 
HETATM   18  O   UNL     1      -6.794   4.513  66.219  1.00  0.00    -0.055 OA 
HETATM   19  O   UNL     1      -8.724   3.367  65.528  1.00  0.00    -0.112 OA 
ENDBRANCH  14  15
ENDBRANCH  13  14
BRANCH  13  20
HETATM   20  C   UNL     1     -10.325   7.941  69.157  1.00  0.00    -0.219 C  
HETATM   21  O   UNL     1     -11.280   7.080  68.532  1.00  0.00    -0.477 OA 
HETATM   22  H   UNL     1     -12.043   6.978  69.089  1.00  0.00     0.000 HD 
ENDBRANCH  13  20
ENDBRANCH  12  13
ENDBRANCH   8  12
TORSDOF 5
ENDMDL
MODEL      288
REMARK 921   NORMALIZED FREE ENERGY PREDICTED BY IDOCK:   -2.15 KCAL/MOL
REMARK 922        TOTAL FREE ENERGY PREDICTED BY IDOCK:   -3.72 KCAL/MOL
REMARK 923 INTER-LIGAND FREE ENERGY PREDICTED BY IDOCK:   -3.32 KCAL/MOL
REMARK 924 INTRA-LIGAND FREE ENERGY PREDICTED BY IDOCK:   -0.40 KCAL/MOL
REMARK 927      BINDING AFFINITY PREDICTED BY RF-SCORE:    0.00 PKD
ROOT
HETATM    1  N   UNL     1      -9.638   5.397  69.699  1.00  0.00    -0.149 NA 
HETATM    2  H1  UNL     1      -9.458   4.792  68.897  1.00  0.00     0.000 HD 
HETATM    3  C   UNL     1      -9.973   6.688  69.428  1.00  0.00    -0.156 C  
HETATM    4  H2  UNL     1      -9.572   5.051  70.656  1.00  0.00     0.000 HD 
HETATM    5  N   UNL     1     -10.203   7.457  70.448  1.00  0.00    -0.197 N  
HETATM    6  C   UNL     1     -10.474   8.790  70.258  1.00  0.00    -0.208 C  
HETATM    7  H   UNL     1     -10.183   7.071  71.392  1.00  0.00     0.000 HD 
HETATM    8  N   UNL     1     -10.426   9.291  68.954  1.00  0.00    -0.214 N  
HETATM    9  O   UNL     1     -10.724   9.533  71.206  1.00  0.00    -0.332 OA 
HETATM   10  C   UNL     1     -10.043   7.156  68.033  1.00  0.00    -0.201 C  
HETATM   11  C   UNL     1     -10.248   8.468  67.870  1.00  0.00    -0.218 C  
ENDROOT
BRANCH   8  12
HETATM   12  C   UNL     1     -10.374  10.733  68.776  1.00  0.00    -0.192 C  
BRANCH  12  13
HETATM   13  C   UNL     1     -10.110  11.243  67.343  1.00  0.00    -0.188 C  
BRANCH  13  14
HETATM   14  O   UNL     1      -8.704  11.624  67.189  1.00  0.00    -0.153 OA 
BRANCH  14  15
HETATM   15  C   UNL     1      -7.993  11.375  68.416  1.00  0.00    -0.142 C  
HETATM   16  P   UNL     1      -6.563  12.495  68.648  1.00  0.00    -0.096 P  
HETATM   17  O   UNL     1      -7.671  13.717  68.647  1.00  0.00    -0.131 OA 
HETATM   18  O   UNL     1      -6.635  12.042  70.230  1.00  0.00    -0.043 OA 
HETATM   19  O   UNL     1      -5.354  13.441  68.846  1.00  0.00    -0.071 OA 
ENDBRANCH  14  15
ENDBRANCH  13  14
BRANCH  13  20
HETATM   20  C   UNL     1     -10.983  12.464  67.012  1.00  0.00    -0.260 C  
HETATM   21  O   UNL     1     -12.365  12.142  67.181  1.00  0.00    -0.372 OA 
HETATM   22  H   UNL     1     -12.905  12.897  66.976  1.00  0.00     0.000 HD 
ENDBRANCH  13  20
ENDBRANCH  12  13
ENDBRANCH   8  12
TORSDOF 5
ENDMDL
MODEL      289
REMARK 921   NORMALIZED FREE ENERGY PREDICTED BY IDOCK:   -2.07 KCAL/MOL
REMARK 922        TOTAL FREE ENERGY PREDICTED BY IDOCK:   -3.62 KCAL/MOL
REMARK 923 INTER-LIGAND FREE ENERGY PREDICTED BY IDOCK:   -3.58 KCAL/MOL
REMARK 924 INTRA-LIGAND FREE ENERGY PREDICTED BY IDOCK:   -0.04 KCAL/MOL
REMARK 927      BINDING AFFINITY PREDICTED BY RF-SCORE:    0.00 PKD
ROOT
HETATM    1  N   UNL     1      -8.117   7.753  74.544  1.00  0.00    -0.215 NA 
HETATM    2  H1  UNL     1      -7.813   8.657  74.908  1.00  0.00     0.000 HD 
HETATM    3  C   UNL     1      -7.935   7.537  73.212  1.00  0.00    -0.112 C  
HETATM    4  H2  UNL     1      -8.535   7.046  75.148  1.00  0.00     0.000 HD 
HETATM    5  N   UNL     1      -8.321   6.388  72.750  1.00  0.00    -0.118 N  
HETATM    6  C   UNL     1      -8.238   6.125  71.405  1.00  0.00    -0.123 C  
HETATM    7  H   UNL     1      -8.686   5.679  73.387  1.00  0.00     0.000 HD 
HETATM    8  N   UNL     1      -7.796   7.147  70.561  1.00  0.00    -0.098 N  
HETATM    9  O   UNL     1      -8.570   5.033  70.946  1.00  0.00    -0.116 OA 
HETATM   10  C   UNL     1      -7.342   8.589  72.368  1.00  0.00    -0.084 C  
HETATM   11  C   UNL     1      -7.326   8.338  71.054  1.00  0.00    -0.063 C  
ENDROOT
BRANCH   8  12
HETATM   12  C   UNL     1      -8.022   7.001  69.132  1.00  0.00    -0.119 C  
BRANCH  12  13
HETATM   13  C   UNL     1      -9.324   7.615  68.574  1.00  0.00    -0.147 C  
BRANCH  13  14
HETATM   14  O   UNL     1      -9.336   9.064  68.788  1.00  0.00    -0.139 OA 
BRANCH  14  15
HETATM   15  C   UNL     1     -10.371   9.411  69.727  1.00  0.00    -0.223 C  
HETATM   16  P   UNL     1     -11.177  11.008  69.339  1.00  0.00    -0.300 P  
HETATM   17  O   UNL     1     -11.641  10.294  67.925  1.00  0.00    -0.338 OA 
HETATM   18  O   UNL     1     -12.383  10.489  70.333  1.00  0.00    -0.301 OA 
HETATM   19  O   UNL     1     -11.860  12.358  69.011  1.00  0.00    -0.302 OA 
ENDBRANCH  14  15
ENDBRANCH  13  14
BRANCH  13  20
HETATM   20  C   UNL     1     -10.564   7.014  69.254  1.00  0.00    -0.224 C  
HETATM   21  O   UNL     1     -11.525   6.622  68.271  1.00  0.00    -0.560 OA 
HETATM   22  H   UNL     1     -12.292   6.251  68.692  1.00  0.00     0.000 HD 
ENDBRANCH  13  20
ENDBRANCH  12  13
ENDBRANCH   8  12
TORSDOF 5
ENDMDL
MODEL      290
REMARK 921   NORMALIZED FREE ENERGY PREDICTED BY IDOCK:   -2.03 KCAL/MOL
REMARK 922        TOTAL FREE ENERGY PREDICTED BY IDOCK:   -3.57 KCAL/MOL
REMARK 923 INTER-LIGAND FREE ENERGY PREDICTED BY IDOCK:   -2.78 KCAL/MOL
REMARK 924 INTRA-LIGAND FREE ENERGY PREDICTED BY IDOCK:   -0.79 KCAL/MOL
REMARK 927      BINDING AFFINITY PREDICTED BY RF-SCORE:    0.00 PKD
ROOT
HETATM    1  N   UNL     1      -8.457   4.155  66.386  1.00  0.00    -0.108 NA 
HETATM    2  H1  UNL     1      -9.205   3.639  65.923  1.00  0.00     0.000 HD 
HETATM    3  C   UNL     1      -8.402   4.066  67.743  1.00  0.00    -0.094 C  
HETATM    4  H2  UNL     1      -7.783   4.709  65.858  1.00  0.00     0.000 HD 
HETATM    5  N   UNL     1      -7.449   4.722  68.332  1.00  0.00    -0.069 N  
HETATM    6  C   UNL     1      -7.373   4.742  69.703  1.00  0.00    -0.055 C  
HETATM    7  H   UNL     1      -6.757   5.224  67.776  1.00  0.00     0.000 HD 
HETATM    8  N   UNL     1      -8.381   4.097  70.427  1.00  0.00    -0.064 N  
HETATM    9  O   UNL     1      -6.464   5.331  70.284  1.00  0.00    -0.032 OA 
HETATM   10  C   UNL     1      -9.404   3.269  68.473  1.00  0.00    -0.237 C  
HETATM   11  C   UNL     1      -9.350   3.349  69.807  1.00  0.00    -0.168 C  
ENDROOT
BRANCH   8  12
HETATM   12  C   UNL     1      -8.499   4.392  71.846  1.00  0.00    -0.111 C  
BRANCH  12  13
HETATM   13  C   UNL     1      -9.542   5.459  72.244  1.00  0.00    -0.155 C  
BRANCH  13  14
HETATM   14  O   UNL     1      -8.880   6.619  72.844  1.00  0.00    -0.126 OA 
BRANCH  14  15
HETATM   15  C   UNL     1      -8.706   7.650  71.855  1.00  0.00    -0.113 C  
HETATM   16  P   UNL     1     -10.245   8.023  70.938  1.00  0.00    -0.195 P  
HETATM   17  O   UNL     1     -10.867   8.470  72.400  1.00  0.00    -0.346 OA 
HETATM   18  O   UNL     1      -9.492   9.422  70.506  1.00  0.00    -0.240 OA 
HETATM   19  O   UNL     1     -11.547   8.340  70.162  1.00  0.00    -0.086 OA 
ENDBRANCH  14  15
ENDBRANCH  13  14
BRANCH  13  20
HETATM   20  C   UNL     1     -10.556   4.902  73.255  1.00  0.00    -0.232 C  
HETATM   21  O   UNL     1     -10.807   5.863  74.283  1.00  0.00    -0.345 OA 
HETATM   22  H   UNL     1     -11.434   5.519  74.909  1.00  0.00     0.000 HD 
ENDBRANCH  13  20
ENDBRANCH  12  13
ENDBRANCH   8  12
TORSDOF 5
ENDMDL
MODEL      291
REMARK 921   NORMALIZED FREE ENERGY PREDICTED BY IDOCK:   -1.99 KCAL/MOL
REMARK 922        TOTAL FREE ENERGY PREDICTED BY IDOCK:   -3.51 KCAL/MOL
REMARK 923 INTER-LIGAND FREE ENERGY PREDICTED BY IDOCK:   -3.60 KCAL/MOL
REMARK 924 INTRA-LIGAND FREE ENERGY PREDICTED BY IDOCK:    0.09 KCAL/MOL
REMARK 927      BINDING AFFINITY PREDICTED BY RF-SCORE:    0.00 PKD
ROOT
HETATM    1  N   UNL     1      -7.143  11.234  62.453  1.00  0.00    -0.385 NA 
HETATM    2  H1  UNL     1      -7.613  11.074  61.561  1.00  0.00     0.000 HD 
HETATM    3  C   UNL     1      -7.258  10.252  63.389  1.00  0.00    -0.088 C  
HETATM    4  H2  UNL     1      -6.613  12.086  62.634  1.00  0.00     0.000 HD 
HETATM    5  N   UNL     1      -6.660  10.455  64.523  1.00  0.00    -0.307 N  
HETATM    6  C   UNL     1      -6.792   9.544  65.542  1.00  0.00    -0.085 C  
HETATM    7  H   UNL     1      -6.092  11.291  64.657  1.00  0.00     0.000 HD 
HETATM    8  N   UNL     1      -7.633   8.447  65.339  1.00  0.00    -0.088 N  
HETATM    9  O   UNL     1      -6.212   9.698  66.616  1.00  0.00    -0.063 OA 
HETATM   10  C   UNL     1      -8.046   9.042  63.097  1.00  0.00    -0.169 C  
HETATM   11  C   UNL     1      -8.213   8.197  64.120  1.00  0.00    -0.080 C  
ENDROOT
BRANCH   8  12
HETATM   12  C   UNL     1      -8.043   7.673  66.501  1.00  0.00    -0.119 C  
BRANCH  12  13
HETATM   13  C   UNL     1      -8.538   8.476  67.723  1.00  0.00    -0.134 C  
BRANCH  13  14
HETATM   14  O   UNL     1      -8.571   7.622  68.913  1.00  0.00    -0.128 OA 
BRANCH  14  15
HETATM   15  C   UNL     1      -9.579   8.094  69.826  1.00  0.00    -0.171 C  
HETATM   16  P   UNL     1      -8.933   8.375  71.515  1.00  0.00    -0.234 P  
HETATM   17  O   UNL     1      -7.947   9.503  70.822  1.00  0.00    -0.251 OA 
HETATM   18  O   UNL     1     -10.290   9.279  71.741  1.00  0.00    -0.328 OA 
HETATM   19  O   UNL     1      -8.387   8.614  72.944  1.00  0.00    -0.400 OA 
ENDBRANCH  14  15
ENDBRANCH  13  14
BRANCH  13  20
HETATM   20  C   UNL     1      -9.950   9.037  67.490  1.00  0.00    -0.207 C  
HETATM   21  O   UNL     1     -10.652   8.230  66.542  1.00  0.00    -0.365 OA 
HETATM   22  H   UNL     1     -11.524   8.577  66.398  1.00  0.00     0.000 HD 
ENDBRANCH  13  20
ENDBRANCH  12  13
ENDBRANCH   8  12
TORSDOF 5
ENDMDL
MODEL      292
REMARK 921   NORMALIZED FREE ENERGY PREDICTED BY IDOCK:   -1.99 KCAL/MOL
REMARK 922        TOTAL FREE ENERGY PREDICTED BY IDOCK:   -3.51 KCAL/MOL
REMARK 923 INTER-LIGAND FREE ENERGY PREDICTED BY IDOCK:   -3.31 KCAL/MOL
REMARK 924 INTRA-LIGAND FREE ENERGY PREDICTED BY IDOCK:   -0.20 KCAL/MOL
REMARK 927      BINDING AFFINITY PREDICTED BY RF-SCORE:    0.00 PKD
ROOT
HETATM    1  N   UNL     1      -9.313   4.684  63.444  1.00  0.00    -0.330 NA 
HETATM    2  H1  UNL     1     -10.235   4.566  63.023  1.00  0.00     0.000 HD 
HETATM    3  C   UNL     1      -9.265   4.753  64.803  1.00  0.00    -0.097 C  
HETATM    4  H2  UNL     1      -8.469   4.747  62.875  1.00  0.00     0.000 HD 
HETATM    5  N   UNL     1      -8.092   4.902  65.338  1.00  0.00    -0.110 N  
HETATM    6  C   UNL     1      -7.971   5.053  66.698  1.00  0.00    -0.107 C  
HETATM    7  H   UNL     1      -7.259   4.907  64.748  1.00  0.00     0.000 HD 
HETATM    8  N   UNL     1      -9.141   5.107  67.460  1.00  0.00    -0.113 N  
HETATM    9  O   UNL     1      -6.869   5.166  67.232  1.00  0.00    -0.057 OA 
HETATM   10  C   UNL     1     -10.508   4.674  65.591  1.00  0.00    -0.260 C  
HETATM   11  C   UNL     1     -10.376   4.883  66.905  1.00  0.00    -0.186 C  
ENDROOT
BRANCH   8  12
HETATM   12  C   UNL     1      -9.045   5.597  68.826  1.00  0.00    -0.118 C  
BRANCH  12  13
HETATM   13  C   UNL     1      -9.353   7.095  69.044  1.00  0.00    -0.140 C  
BRANCH  13  14
HETATM   14  O   UNL     1     -10.799   7.309  69.138  1.00  0.00    -0.208 OA 
BRANCH  14  15
HETATM   15  C   UNL     1     -11.112   8.006  70.358  1.00  0.00    -0.238 C  
HETATM   16  P   UNL     1     -12.585   7.328  71.206  1.00  0.00    -0.282 P  
HETATM   17  O   UNL     1     -11.722   5.928  71.331  1.00  0.00    -0.164 OA 
HETATM   18  O   UNL     1     -12.027   8.130  72.532  1.00  0.00    -0.376 OA 
HETATM   19  O   UNL     1     -13.831   6.755  71.925  1.00  0.00    -0.227 OA 
ENDBRANCH  14  15
ENDBRANCH  13  14
BRANCH  13  20
HETATM   20  C   UNL     1      -8.810   7.952  67.889  1.00  0.00    -0.123 C  
HETATM   21  O   UNL     1      -9.887   8.597  67.205  1.00  0.00    -0.172 OA 
HETATM   22  H   UNL     1      -9.551   9.127  66.491  1.00  0.00     0.000 HD 
ENDBRANCH  13  20
ENDBRANCH  12  13
ENDBRANCH   8  12
TORSDOF 5
ENDMDL
MODEL      293
REMARK 921   NORMALIZED FREE ENERGY PREDICTED BY IDOCK:   -1.96 KCAL/MOL
REMARK 922        TOTAL FREE ENERGY PREDICTED BY IDOCK:   -3.47 KCAL/MOL
REMARK 923 INTER-LIGAND FREE ENERGY PREDICTED BY IDOCK:   -2.94 KCAL/MOL
REMARK 924 INTRA-LIGAND FREE ENERGY PREDICTED BY IDOCK:   -0.52 KCAL/MOL
REMARK 927      BINDING AFFINITY PREDICTED BY RF-SCORE:    0.00 PKD
ROOT
HETATM    1  N   UNL     1      -6.284   2.678  71.150  1.00  0.00    -0.018 NA 
HETATM    2  H1  UNL     1      -6.477   1.828  71.681  1.00  0.00     0.000 HD 
HETATM    3  C   UNL     1      -7.008   3.782  71.478  1.00  0.00    -0.031 C  
HETATM    4  H2  UNL     1      -5.582   2.698  70.410  1.00  0.00     0.000 HD 
HETATM    5  N   UNL     1      -6.761   4.863  70.803  1.00  0.00    -0.038 N  
HETATM    6  C   UNL     1      -7.502   5.998  71.027  1.00  0.00    -0.092 C  
HETATM    7  H   UNL     1      -6.016   4.870  70.106  1.00  0.00     0.000 HD 
HETATM    8  N   UNL     1      -8.556   5.925  71.942  1.00  0.00    -0.137 N  
HETATM    9  O   UNL     1      -7.269   7.043  70.421  1.00  0.00    -0.071 OA 
HETATM   10  C   UNL     1      -8.025   3.710  72.542  1.00  0.00    -0.073 C  
HETATM   11  C   UNL     1      -8.776   4.805  72.703  1.00  0.00    -0.115 C  
ENDROOT
BRANCH   8  12
HETATM   12  C   UNL     1      -9.542   6.995  71.937  1.00  0.00    -0.150 C  
BRANCH  12  13
HETATM   13  C   UNL     1     -10.884   6.692  71.237  1.00  0.00    -0.238 C  
BRANCH  13  14
HETATM   14  O   UNL     1     -10.899   7.271  69.891  1.00  0.00    -0.242 OA 
BRANCH  14  15
HETATM   15  C   UNL     1     -11.132   8.689  69.971  1.00  0.00    -0.157 C  
HETATM   16  P   UNL     1      -9.856   9.669  69.098  1.00  0.00    -0.211 P  
HETATM   17  O   UNL     1     -10.362   8.892  67.734  1.00  0.00    -0.218 OA 
HETATM   18  O   UNL     1     -10.953  10.897  69.153  1.00  0.00    -0.206 OA 
HETATM   19  O   UNL     1      -8.779  10.500  68.360  1.00  0.00    -0.125 OA 
ENDBRANCH  14  15
ENDBRANCH  13  14
BRANCH  13  20
HETATM   20  C   UNL     1     -12.071   7.268  72.025  1.00  0.00    -0.290 C  
HETATM   21  O   UNL     1     -12.977   6.224  72.387  1.00  0.00    -0.533 OA 
HETATM   22  H   UNL     1     -13.711   6.581  72.874  1.00  0.00     0.000 HD 
ENDBRANCH  13  20
ENDBRANCH  12  13
ENDBRANCH   8  12
TORSDOF 5
ENDMDL
MODEL      294
REMARK 921   NORMALIZED FREE ENERGY PREDICTED BY IDOCK:   -1.95 KCAL/MOL
REMARK 922        TOTAL FREE ENERGY PREDICTED BY IDOCK:   -3.46 KCAL/MOL
REMARK 923 INTER-LIGAND FREE ENERGY PREDICTED BY IDOCK:   -3.45 KCAL/MOL
REMARK 924 INTRA-LIGAND FREE ENERGY PREDICTED BY IDOCK:   -0.01 KCAL/MOL
REMARK 927      BINDING AFFINITY PREDICTED BY RF-SCORE:    0.00 PKD
ROOT
HETATM    1  N   UNL     1      -6.907   8.158  74.521  1.00  0.00    -0.132 NA 
HETATM    2  H1  UNL     1      -6.152   8.805  74.293  1.00  0.00     0.000 HD 
HETATM    3  C   UNL     1      -7.784   7.865  73.522  1.00  0.00    -0.157 C  
HETATM    4  H2  UNL     1      -7.000   7.750  75.451  1.00  0.00     0.000 HD 
HETATM    5  N   UNL     1      -8.744   7.041  73.812  1.00  0.00    -0.147 N  
HETATM    6  C   UNL     1      -9.710   6.754  72.879  1.00  0.00    -0.155 C  
HETATM    7  H   UNL     1      -8.781   6.605  74.734  1.00  0.00     0.000 HD 
HETATM    8  N   UNL     1      -9.659   7.424  71.653  1.00  0.00    -0.151 N  
HETATM    9  O   UNL     1     -10.613   5.955  73.119  1.00  0.00    -0.216 OA 
HETATM   10  C   UNL     1      -7.628   8.487  72.196  1.00  0.00    -0.122 C  
HETATM   11  C   UNL     1      -8.610   8.244  71.321  1.00  0.00    -0.147 C  
ENDROOT
BRANCH   8  12
HETATM   12  C   UNL     1     -10.839   7.388  70.804  1.00  0.00    -0.241 C  
BRANCH  12  13
HETATM   13  C   UNL     1     -11.691   8.675  70.754  1.00  0.00    -0.210 C  
BRANCH  13  14
HETATM   14  O   UNL     1     -10.830   9.850  70.600  1.00  0.00    -0.301 OA 
BRANCH  14  15
HETATM   15  C   UNL     1     -11.254  10.621  69.461  1.00  0.00    -0.272 C  
HETATM   16  P   UNL     1      -9.852  11.238  68.458  1.00  0.00    -0.177 P  
HETATM   17  O   UNL     1      -9.487   9.649  68.207  1.00  0.00    -0.136 OA 
HETATM   18  O   UNL     1     -10.973  11.467  67.274  1.00  0.00    -0.240 OA 
HETATM   19  O   UNL     1      -8.668  11.760  67.609  1.00  0.00    -0.148 OA 
ENDBRANCH  14  15
ENDBRANCH  13  14
BRANCH  13  20
HETATM   20  C   UNL     1     -12.522   8.848  72.036  1.00  0.00    -0.392 C  
HETATM   21  O   UNL     1     -12.586  10.229  72.400  1.00  0.00    -0.101 OA 
HETATM   22  H   UNL     1     -13.099  10.335  73.192  1.00  0.00     0.000 HD 
ENDBRANCH  13  20
ENDBRANCH  12  13
ENDBRANCH   8  12
TORSDOF 5
ENDMDL
MODEL      295
REMARK 921   NORMALIZED FREE ENERGY PREDICTED BY IDOCK:   -1.93 KCAL/MOL
REMARK 922        TOTAL FREE ENERGY PREDICTED BY IDOCK:   -3.44 KCAL/MOL
REMARK 923 INTER-LIGAND FREE ENERGY PREDICTED BY IDOCK:   -3.49 KCAL/MOL
REMARK 924 INTRA-LIGAND FREE ENERGY PREDICTED BY IDOCK:    0.06 KCAL/MOL
REMARK 927      BINDING AFFINITY PREDICTED BY RF-SCORE:    0.00 PKD
ROOT
HETATM    1  N   UNL     1      -7.671   8.515  74.044  1.00  0.00    -0.400 NA 
HETATM    2  H1  UNL     1      -7.721   9.531  74.112  1.00  0.00     0.000 HD 
HETATM    3  C   UNL     1      -7.739   7.982  72.793  1.00  0.00    -0.128 C  
HETATM    4  H2  UNL     1      -7.575   7.926  74.872  1.00  0.00     0.000 HD 
HETATM    5  N   UNL     1      -7.675   6.688  72.706  1.00  0.00    -0.100 N  
HETATM    6  C   UNL     1      -7.810   6.073  71.486  1.00  0.00    -0.106 C  
HETATM    7  H   UNL     1      -7.524   6.128  73.545  1.00  0.00     0.000 HD 
HETATM    8  N   UNL     1      -8.082   6.874  70.373  1.00  0.00    -0.114 N  
HETATM    9  O   UNL     1      -7.725   4.852  71.373  1.00  0.00    -0.083 OA 
HETATM   10  C   UNL     1      -7.894   8.863  71.622  1.00  0.00    -0.069 C  
HETATM   11  C   UNL     1      -8.084   8.244  70.452  1.00  0.00    -0.108 C  
ENDROOT
BRANCH   8  12
HETATM   12  C   UNL     1      -8.557   6.224  69.161  1.00  0.00    -0.120 C  
BRANCH  12  13
HETATM   13  C   UNL     1      -9.950   6.650  68.651  1.00  0.00    -0.147 C  
BRANCH  13  14
HETATM   14  O   UNL     1     -10.061   8.110  68.632  1.00  0.00    -0.186 OA 
BRANCH  14  15
HETATM   15  C   UNL     1     -10.252   8.569  67.281  1.00  0.00    -0.276 C  
HETATM   16  P   UNL     1      -9.283  10.075  66.898  1.00  0.00    -0.151 P  
HETATM   17  O   UNL     1      -7.951   9.152  67.206  1.00  0.00    -0.101 OA 
HETATM   18  O   UNL     1      -9.547   9.682  65.320  1.00  0.00    -0.274 OA 
HETATM   19  O   UNL     1      -8.465  11.347  66.573  1.00  0.00    -0.167 OA 
ENDBRANCH  14  15
ENDBRANCH  13  14
BRANCH  13  20
HETATM   20  C   UNL     1     -11.069   6.090  69.543  1.00  0.00    -0.398 C  
HETATM   21  O   UNL     1     -11.911   7.151  70.001  1.00  0.00    -0.565 OA 
HETATM   22  H   UNL     1     -12.603   6.805  70.553  1.00  0.00     0.000 HD 
ENDBRANCH  13  20
ENDBRANCH  12  13
ENDBRANCH   8  12
TORSDOF 5
ENDMDL
MODEL      296
REMARK 921   NORMALIZED FREE ENERGY PREDICTED BY IDOCK:   -1.93 KCAL/MOL
REMARK 922        TOTAL FREE ENERGY PREDICTED BY IDOCK:   -3.43 KCAL/MOL
REMARK 923 INTER-LIGAND FREE ENERGY PREDICTED BY IDOCK:   -4.21 KCAL/MOL
REMARK 924 INTRA-LIGAND FREE ENERGY PREDICTED BY IDOCK:    0.78 KCAL/MOL
REMARK 927      BINDING AFFINITY PREDICTED BY RF-SCORE:    0.00 PKD
ROOT
HETATM    1  N   UNL     1     -11.580   6.617  69.891  1.00  0.00    -0.592 NA 
HETATM    2  H1  UNL     1     -11.195   5.717  69.604  1.00  0.00     0.000 HD 
HETATM    3  C   UNL     1     -10.888   7.727  69.512  1.00  0.00    -0.153 C  
HETATM    4  H2  UNL     1     -12.441   6.683  70.433  1.00  0.00     0.000 HD 
HETATM    5  N   UNL     1     -11.378   8.872  69.876  1.00  0.00    -0.443 N  
HETATM    6  C   UNL     1     -10.697  10.032  69.595  1.00  0.00    -0.255 C  
HETATM    7  H   UNL     1     -12.269   8.911  70.371  1.00  0.00     0.000 HD 
HETATM    8  N   UNL     1      -9.449   9.927  68.976  1.00  0.00    -0.174 N  
HETATM    9  O   UNL     1     -11.154  11.131  69.903  1.00  0.00    -0.243 OA 
HETATM   10  C   UNL     1      -9.639   7.591  68.743  1.00  0.00    -0.149 C  
HETATM   11  C   UNL     1      -8.961   8.724  68.532  1.00  0.00    -0.138 C  
ENDROOT
BRANCH   8  12
HETATM   12  C   UNL     1      -8.583  11.096  68.981  1.00  0.00    -0.024 C  
BRANCH  12  13
HETATM   13  C   UNL     1      -8.511  11.906  67.668  1.00  0.00    -0.156 C  
BRANCH  13  14
HETATM   14  O   UNL     1      -9.777  11.806  66.938  1.00  0.00    -0.193 OA 
BRANCH  14  15
HETATM   15  C   UNL     1     -10.518  13.032  67.073  1.00  0.00    -0.247 C  
HETATM   16  P   UNL     1      -9.619  14.304  68.036  1.00  0.00    -0.235 P  
HETATM   17  O   UNL     1      -8.481  14.231  66.844  1.00  0.00    -0.192 OA 
HETATM   18  O   UNL     1     -10.676  15.371  67.360  1.00  0.00    -0.284 OA 
HETATM   19  O   UNL     1      -8.861  15.380  68.849  1.00  0.00    -0.181 OA 
ENDBRANCH  14  15
ENDBRANCH  13  14
BRANCH  13  20
HETATM   20  C   UNL     1      -7.383  11.397  66.756  1.00  0.00    -0.135 C  
HETATM   21  O   UNL     1      -6.443  12.443  66.503  1.00  0.00    -0.416 OA 
HETATM   22  H   UNL     1      -5.746  12.128  65.939  1.00  0.00     0.000 HD 
ENDBRANCH  13  20
ENDBRANCH  12  13
ENDBRANCH   8  12
TORSDOF 5
ENDMDL
MODEL      297
REMARK 921   NORMALIZED FREE ENERGY PREDICTED BY IDOCK:   -1.92 KCAL/MOL
REMARK 922        TOTAL FREE ENERGY PREDICTED BY IDOCK:   -3.42 KCAL/MOL
REMARK 923 INTER-LIGAND FREE ENERGY PREDICTED BY IDOCK:   -2.89 KCAL/MOL
REMARK 924 INTRA-LIGAND FREE ENERGY PREDICTED BY IDOCK:   -0.53 KCAL/MOL
REMARK 927      BINDING AFFINITY PREDICTED BY RF-SCORE:    0.00 PKD
ROOT
HETATM    1  N   UNL     1      -6.242   3.754  70.906  1.00  0.00    -0.018 NA 
HETATM    2  H1  UNL     1      -6.205   3.277  71.807  1.00  0.00     0.000 HD 
HETATM    3  C   UNL     1      -6.682   5.042  70.913  1.00  0.00    -0.036 C  
HETATM    4  H2  UNL     1      -5.963   3.289  70.042  1.00  0.00     0.000 HD 
HETATM    5  N   UNL     1      -6.728   5.649  69.767  1.00  0.00    -0.050 N  
HETATM    6  C   UNL     1      -7.230   6.925  69.684  1.00  0.00    -0.080 C  
HETATM    7  H   UNL     1      -6.391   5.179  68.927  1.00  0.00     0.000 HD 
HETATM    8  N   UNL     1      -7.742   7.507  70.847  1.00  0.00    -0.088 N  
HETATM    9  O   UNL     1      -7.258   7.532  68.615  1.00  0.00    -0.081 OA 
HETATM   10  C   UNL     1      -7.092   5.676  72.179  1.00  0.00    -0.087 C  
HETATM   11  C   UNL     1      -7.634   6.893  72.070  1.00  0.00    -0.093 C  
ENDROOT
BRANCH   8  12
HETATM   12  C   UNL     1      -8.570   8.695  70.710  1.00  0.00    -0.171 C  
BRANCH  12  13
HETATM   13  C   UNL     1     -10.098   8.477  70.724  1.00  0.00    -0.198 C  
BRANCH  13  14
HETATM   14  O   UNL     1     -10.726   9.202  69.618  1.00  0.00    -0.228 OA 
BRANCH  14  15
HETATM   15  C   UNL     1      -9.738   9.986  68.923  1.00  0.00    -0.181 C  
HETATM   16  P   UNL     1     -10.477  11.205  67.775  1.00  0.00    -0.220 P  
HETATM   17  O   UNL     1     -11.171  11.870  69.116  1.00  0.00    -0.235 OA 
HETATM   18  O   UNL     1      -9.004  11.940  67.818  1.00  0.00    -0.160 OA 
HETATM   19  O   UNL     1     -11.101  12.236  66.804  1.00  0.00    -0.265 OA 
ENDBRANCH  14  15
ENDBRANCH  13  14
BRANCH  13  20
HETATM   20  C   UNL     1     -10.722   8.966  72.041  1.00  0.00    -0.319 C  
HETATM   21  O   UNL     1     -11.357   7.880  72.719  1.00  0.00    -0.382 OA 
HETATM   22  H   UNL     1     -11.743   8.183  73.533  1.00  0.00     0.000 HD 
ENDBRANCH  13  20
ENDBRANCH  12  13
ENDBRANCH   8  12
TORSDOF 5
ENDMDL
MODEL      298
REMARK 921   NORMALIZED FREE ENERGY PREDICTED BY IDOCK:   -1.90 KCAL/MOL
REMARK 922        TOTAL FREE ENERGY PREDICTED BY IDOCK:   -3.40 KCAL/MOL
REMARK 923 INTER-LIGAND FREE ENERGY PREDICTED BY IDOCK:   -2.85 KCAL/MOL
REMARK 924 INTRA-LIGAND FREE ENERGY PREDICTED BY IDOCK:   -0.55 KCAL/MOL
REMARK 927      BINDING AFFINITY PREDICTED BY RF-SCORE:    0.00 PKD
ROOT
HETATM    1  N   UNL     1      -7.772   3.270  72.387  1.00  0.00    -0.057 NA 
HETATM    2  H1  UNL     1      -8.007   2.328  72.073  1.00  0.00     0.000 HD 
HETATM    3  C   UNL     1      -8.556   4.283  71.924  1.00  0.00    -0.107 C  
HETATM    4  H2  UNL     1      -6.989   3.445  73.016  1.00  0.00     0.000 HD 
HETATM    5  N   UNL     1      -8.257   5.481  72.324  1.00  0.00    -0.111 N  
HETATM    6  C   UNL     1      -8.955   6.561  71.842  1.00  0.00    -0.137 C  
HETATM    7  H   UNL     1      -7.502   5.620  72.997  1.00  0.00     0.000 HD 
HETATM    8  N   UNL     1      -9.935   6.331  70.873  1.00  0.00    -0.184 N  
HETATM    9  O   UNL     1      -8.711   7.703  72.228  1.00  0.00    -0.114 OA 
HETATM   10  C   UNL     1      -9.669   3.994  71.003  1.00  0.00    -0.252 C  
HETATM   11  C   UNL     1     -10.297   5.061  70.498  1.00  0.00    -0.215 C  
ENDROOT
BRANCH   8  12
HETATM   12  C   UNL     1     -10.435   7.471  70.121  1.00  0.00    -0.222 C  
BRANCH  12  13
HETATM   13  C   UNL     1      -9.586   7.927  68.915  1.00  0.00    -0.155 C  
BRANCH  13  14
HETATM   14  O   UNL     1      -9.668   9.381  68.755  1.00  0.00    -0.152 OA 
BRANCH  14  15
HETATM   15  C   UNL     1      -8.460   9.995  69.241  1.00  0.00    -0.163 C  
HETATM   16  P   UNL     1      -7.015   9.672  68.165  1.00  0.00    -0.078 P  
HETATM   17  O   UNL     1      -7.857  10.473  66.994  1.00  0.00    -0.110 OA 
HETATM   18  O   UNL     1      -6.319  10.946  68.942  1.00  0.00    -0.044 OA 
HETATM   19  O   UNL     1      -5.793   9.400  67.256  1.00  0.00    -0.045 OA 
ENDBRANCH  14  15
ENDBRANCH  13  14
BRANCH  13  20
HETATM   20  C   UNL     1     -10.065   7.268  67.611  1.00  0.00    -0.181 C  
HETATM   21  O   UNL     1     -11.473   7.033  67.666  1.00  0.00    -0.525 OA 
HETATM   22  H   UNL     1     -11.769   6.626  66.860  1.00  0.00     0.000 HD 
ENDBRANCH  13  20
ENDBRANCH  12  13
ENDBRANCH   8  12
TORSDOF 5
ENDMDL
MODEL      299
REMARK 921   NORMALIZED FREE ENERGY PREDICTED BY IDOCK:   -1.80 KCAL/MOL
REMARK 922        TOTAL FREE ENERGY PREDICTED BY IDOCK:   -3.27 KCAL/MOL
REMARK 923 INTER-LIGAND FREE ENERGY PREDICTED BY IDOCK:   -2.80 KCAL/MOL
REMARK 924 INTRA-LIGAND FREE ENERGY PREDICTED BY IDOCK:   -0.47 KCAL/MOL
REMARK 927      BINDING AFFINITY PREDICTED BY RF-SCORE:    0.00 PKD
ROOT
HETATM    1  N   UNL     1     -10.021   5.612  73.323  1.00  0.00    -0.172 NA 
HETATM    2  H1  UNL     1     -10.636   4.816  73.150  1.00  0.00     0.000 HD 
HETATM    3  C   UNL     1      -9.792   6.447  72.273  1.00  0.00    -0.157 C  
HETATM    4  H2  UNL     1      -9.599   5.774  74.237  1.00  0.00     0.000 HD 
HETATM    5  N   UNL     1      -9.011   7.460  72.493  1.00  0.00    -0.129 N  
HETATM    6  C   UNL     1      -8.674   8.305  71.464  1.00  0.00    -0.163 C  
HETATM    7  H   UNL     1      -8.647   7.628  73.431  1.00  0.00     0.000 HD 
HETATM    8  N   UNL     1      -9.141   7.999  70.183  1.00  0.00    -0.151 N  
HETATM    9  O   UNL     1      -7.959   9.288  71.653  1.00  0.00    -0.321 OA 
HETATM   10  C   UNL     1     -10.406   6.171  70.962  1.00  0.00    -0.260 C  
HETATM   11  C   UNL     1     -10.019   6.968  69.961  1.00  0.00    -0.181 C  
ENDROOT
BRANCH   8  12
HETATM   12  C   UNL     1      -8.526   8.675  69.051  1.00  0.00    -0.124 C  
BRANCH  12  13
HETATM   13  C   UNL     1      -8.675   7.991  67.675  1.00  0.00    -0.126 C  
BRANCH  13  14
HETATM   14  O   UNL     1      -7.537   7.105  67.422  1.00  0.00    -0.104 OA 
BRANCH  14  15
HETATM   15  C   UNL     1      -8.007   5.776  67.128  1.00  0.00    -0.102 C  
HETATM   16  P   UNL     1      -7.828   5.333  65.361  1.00  0.00    -0.102 P  
HETATM   17  O   UNL     1      -6.207   5.531  65.598  1.00  0.00    -0.032 OA 
HETATM   18  O   UNL     1      -8.005   3.778  65.870  1.00  0.00    -0.092 OA 
HETATM   19  O   UNL     1      -7.677   4.958  63.867  1.00  0.00    -0.070 OA 
ENDBRANCH  14  15
ENDBRANCH  13  14
BRANCH  13  20
HETATM   20  C   UNL     1      -8.747   9.025  66.540  1.00  0.00    -0.129 C  
HETATM   21  O   UNL     1     -10.066   9.061  65.989  1.00  0.00    -0.380 OA 
HETATM   22  H   UNL     1     -10.110   9.700  65.287  1.00  0.00     0.000 HD 
ENDBRANCH  13  20
ENDBRANCH  12  13
ENDBRANCH   8  12
TORSDOF 5
ENDMDL
MODEL      300
REMARK 921   NORMALIZED FREE ENERGY PREDICTED BY IDOCK:   -1.79 KCAL/MOL
REMARK 922        TOTAL FREE ENERGY PREDICTED BY IDOCK:   -3.25 KCAL/MOL
REMARK 923 INTER-LIGAND FREE ENERGY PREDICTED BY IDOCK:   -3.36 KCAL/MOL
REMARK 924 INTRA-LIGAND FREE ENERGY PREDICTED BY IDOCK:    0.10 KCAL/MOL
REMARK 927      BINDING AFFINITY PREDICTED BY RF-SCORE:    0.00 PKD
ROOT
HETATM    1  N   UNL     1      -9.384   5.059  69.027  1.00  0.00    -0.118 NA 
HETATM    2  H1  UNL     1      -9.149   4.345  68.336  1.00  0.00     0.000 HD 
HETATM    3  C   UNL     1      -9.732   6.284  68.546  1.00  0.00    -0.129 C  
HETATM    4  H2  UNL     1      -9.359   4.864  70.028  1.00  0.00     0.000 HD 
HETATM    5  N   UNL     1     -10.032   7.191  69.424  1.00  0.00    -0.162 N  
HETATM    6  C   UNL     1     -10.322   8.471  69.019  1.00  0.00    -0.216 C  
HETATM    7  H   UNL     1     -10.052   6.953  70.416  1.00  0.00     0.000 HD 
HETATM    8  N   UNL     1     -10.218   8.769  67.658  1.00  0.00    -0.223 N  
HETATM    9  O   UNL     1     -10.638   9.341  69.829  1.00  0.00    -0.216 OA 
HETATM   10  C   UNL     1      -9.741   6.532  67.094  1.00  0.00    -0.176 C  
HETATM   11  C   UNL     1      -9.966   7.797  66.723  1.00  0.00    -0.261 C  
ENDROOT
BRANCH   8  12
HETATM   12  C   UNL     1     -10.189  10.169  67.265  1.00  0.00    -0.222 C  
BRANCH  12  13
HETATM   13  C   UNL     1      -9.268  11.097  68.086  1.00  0.00    -0.166 C  
BRANCH  13  14
HETATM   14  O   UNL     1      -9.944  12.366  68.367  1.00  0.00    -0.220 OA 
BRANCH  14  15
HETATM   15  C   UNL     1      -9.004  13.452  68.273  1.00  0.00    -0.176 C  
HETATM   16  P   UNL     1      -9.817  15.091  68.200  1.00  0.00    -0.223 P  
HETATM   17  O   UNL     1     -10.414  14.730  69.695  1.00  0.00    -0.201 OA 
HETATM   18  O   UNL     1      -8.342  15.693  68.617  1.00  0.00    -0.157 OA 
HETATM   19  O   UNL     1     -10.503  16.477  68.138  1.00  0.00    -0.285 OA 
ENDBRANCH  14  15
ENDBRANCH  13  14
BRANCH  13  20
HETATM   20  C   UNL     1      -7.962  11.400  67.334  1.00  0.00    -0.139 C  
HETATM   21  O   UNL     1      -6.850  10.830  68.028  1.00  0.00    -0.067 OA 
HETATM   22  H   UNL     1      -6.043  11.018  67.563  1.00  0.00     0.000 HD 
ENDBRANCH  13  20
ENDBRANCH  12  13
ENDBRANCH   8  12
TORSDOF 5
ENDMDL
MODEL      301
REMARK 921   NORMALIZED FREE ENERGY PREDICTED BY IDOCK:   -1.74 KCAL/MOL
REMARK 922        TOTAL FREE ENERGY PREDICTED BY IDOCK:   -3.19 KCAL/MOL
REMARK 923 INTER-LIGAND FREE ENERGY PREDICTED BY IDOCK:   -2.86 KCAL/MOL
REMARK 924 INTRA-LIGAND FREE ENERGY PREDICTED BY IDOCK:   -0.33 KCAL/MOL
REMARK 927      BINDING AFFINITY PREDICTED BY RF-SCORE:    0.00 PKD
ROOT
HETATM    1  N   UNL     1      -9.361  14.130  67.129  1.00  0.00    -0.227 NA 
HETATM    2  H1  UNL     1     -10.031  14.087  66.360  1.00  0.00     0.000 HD 
HETATM    3  C   UNL     1      -8.758  12.962  67.481  1.00  0.00    -0.190 C  
HETATM    4  H2  UNL     1      -9.153  15.005  67.610  1.00  0.00     0.000 HD 
HETATM    5  N   UNL     1      -7.906  13.016  68.458  1.00  0.00    -0.214 N  
HETATM    6  C   UNL     1      -7.313  11.866  68.919  1.00  0.00    -0.080 C  
HETATM    7  H   UNL     1      -7.677  13.914  68.885  1.00  0.00     0.000 HD 
HETATM    8  N   UNL     1      -7.706  10.651  68.351  1.00  0.00    -0.101 N  
HETATM    9  O   UNL     1      -6.481  11.895  69.824  1.00  0.00    -0.126 OA 
HETATM   10  C   UNL     1      -9.097  11.714  66.774  1.00  0.00    -0.186 C  
HETATM   11  C   UNL     1      -8.556  10.598  67.275  1.00  0.00    -0.126 C  
ENDROOT
BRANCH   8  12
HETATM   12  C   UNL     1      -7.349   9.424  69.045  1.00  0.00    -0.072 C  
BRANCH  12  13
HETATM   13  C   UNL     1      -8.458   8.358  69.176  1.00  0.00    -0.123 C  
BRANCH  13  14
HETATM   14  O   UNL     1      -9.244   8.588  70.391  1.00  0.00    -0.151 OA 
BRANCH  14  15
HETATM   15  C   UNL     1     -10.316   9.507  70.113  1.00  0.00    -0.255 C  
HETATM   16  P   UNL     1     -11.859   9.092  71.007  1.00  0.00    -0.237 P  
HETATM   17  O   UNL     1     -10.985   9.337  72.385  1.00  0.00     0.060 OA 
HETATM   18  O   UNL     1     -12.312  10.639  70.673  1.00  0.00    -0.310 OA 
HETATM   19  O   UNL     1     -13.163   8.741  71.762  1.00  0.00    -0.330 OA 
ENDBRANCH  14  15
ENDBRANCH  13  14
BRANCH  13  20
HETATM   20  C   UNL     1      -7.867   6.940  69.242  1.00  0.00    -0.114 C  
HETATM   21  O   UNL     1      -6.911   6.755  68.197  1.00  0.00    -0.071 OA 
HETATM   22  H   UNL     1      -6.546   5.879  68.237  1.00  0.00     0.000 HD 
ENDBRANCH  13  20
ENDBRANCH  12  13
ENDBRANCH   8  12
TORSDOF 5
ENDMDL
MODEL      302
REMARK 921   NORMALIZED FREE ENERGY PREDICTED BY IDOCK:   -1.70 KCAL/MOL
REMARK 922        TOTAL FREE ENERGY PREDICTED BY IDOCK:   -3.14 KCAL/MOL
REMARK 923 INTER-LIGAND FREE ENERGY PREDICTED BY IDOCK:   -3.31 KCAL/MOL
REMARK 924 INTRA-LIGAND FREE ENERGY PREDICTED BY IDOCK:    0.17 KCAL/MOL
REMARK 927      BINDING AFFINITY PREDICTED BY RF-SCORE:    0.00 PKD
ROOT
HETATM    1  N   UNL     1      -9.802  12.390  64.007  1.00  0.00    -0.594 NA 
HETATM    2  H1  UNL     1     -10.314  11.918  63.261  1.00  0.00     0.000 HD 
HETATM    3  C   UNL     1      -9.672  11.715  65.181  1.00  0.00    -0.219 C  
HETATM    4  H2  UNL     1      -9.406  13.321  63.878  1.00  0.00     0.000 HD 
HETATM    5  N   UNL     1      -9.020  12.315  66.130  1.00  0.00    -0.415 N  
HETATM    6  C   UNL     1      -8.911  11.728  67.367  1.00  0.00    -0.173 C  
HETATM    7  H   UNL     1      -8.588  13.223  65.956  1.00  0.00     0.000 HD 
HETATM    8  N   UNL     1      -9.575  10.517  67.581  1.00  0.00    -0.156 N  
HETATM    9  O   UNL     1      -8.274  12.263  68.273  1.00  0.00    -0.158 OA 
HETATM   10  C   UNL     1     -10.272  10.378  65.335  1.00  0.00    -0.329 C  
HETATM   11  C   UNL     1     -10.208   9.850  66.562  1.00  0.00    -0.222 C  
ENDROOT
BRANCH   8  12
HETATM   12  C   UNL     1      -9.749  10.065  68.952  1.00  0.00    -0.181 C  
BRANCH  12  13
HETATM   13  C   UNL     1      -8.837   8.909  69.418  1.00  0.00    -0.143 C  
BRANCH  13  14
HETATM   14  O   UNL     1      -8.518   9.054  70.841  1.00  0.00    -0.177 OA 
BRANCH  14  15
HETATM   15  C   UNL     1      -8.569   7.769  71.487  1.00  0.00    -0.117 C  
HETATM   16  P   UNL     1      -7.193   6.669  70.992  1.00  0.00    -0.080 P  
HETATM   17  O   UNL     1      -6.201   7.811  71.649  1.00  0.00    -0.035 OA 
HETATM   18  O   UNL     1      -7.573   5.806  72.342  1.00  0.00    -0.098 OA 
HETATM   19  O   UNL     1      -6.030   5.737  70.574  1.00  0.00    -0.023 OA 
ENDBRANCH  14  15
ENDBRANCH  13  14
BRANCH  13  20
HETATM   20  C   UNL     1      -7.520   8.880  68.627  1.00  0.00    -0.088 C  
HETATM   21  O   UNL     1      -7.560   7.846  67.640  1.00  0.00    -0.104 OA 
HETATM   22  H   UNL     1      -6.746   7.828  67.151  1.00  0.00     0.000 HD 
ENDBRANCH  13  20
ENDBRANCH  12  13
ENDBRANCH   8  12
TORSDOF 5
ENDMDL
MODEL      303
REMARK 921   NORMALIZED FREE ENERGY PREDICTED BY IDOCK:   -1.67 KCAL/MOL
REMARK 922        TOTAL FREE ENERGY PREDICTED BY IDOCK:   -3.10 KCAL/MOL
REMARK 923 INTER-LIGAND FREE ENERGY PREDICTED BY IDOCK:   -3.11 KCAL/MOL
REMARK 924 INTRA-LIGAND FREE ENERGY PREDICTED BY IDOCK:    0.01 KCAL/MOL
REMARK 927      BINDING AFFINITY PREDICTED BY RF-SCORE:    0.00 PKD
ROOT
HETATM    1  N   UNL     1      -6.018  11.069  62.508  1.00  0.00    -0.345 NA 
HETATM    2  H1  UNL     1      -6.630  11.111  61.692  1.00  0.00     0.000 HD 
HETATM    3  C   UNL     1      -6.460  10.334  63.566  1.00  0.00    -0.105 C  
HETATM    4  H2  UNL     1      -5.120  11.552  62.530  1.00  0.00     0.000 HD 
HETATM    5  N   UNL     1      -5.681  10.280  64.603  1.00  0.00    -0.121 N  
HETATM    6  C   UNL     1      -6.090   9.620  65.736  1.00  0.00    -0.062 C  
HETATM    7  H   UNL     1      -4.765  10.728  64.577  1.00  0.00     0.000 HD 
HETATM    8  N   UNL     1      -7.379   9.080  65.753  1.00  0.00    -0.089 N  
HETATM    9  O   UNL     1      -5.360   9.529  66.721  1.00  0.00    -0.044 OA 
HETATM   10  C   UNL     1      -7.770   9.664  63.504  1.00  0.00    -0.130 C  
HETATM   11  C   UNL     1      -8.177   9.079  64.636  1.00  0.00    -0.160 C  
ENDROOT
BRANCH   8  12
HETATM   12  C   UNL     1      -7.940   8.686  67.036  1.00  0.00    -0.096 C  
BRANCH  12  13
HETATM   13  C   UNL     1      -9.363   8.088  67.012  1.00  0.00    -0.156 C  
BRANCH  13  14
HETATM   14  O   UNL     1     -10.309   9.049  66.441  1.00  0.00    -0.261 OA 
BRANCH  14  15
HETATM   15  C   UNL     1     -10.960   9.781  67.495  1.00  0.00    -0.138 C  
HETATM   16  P   UNL     1     -10.533  11.561  67.494  1.00  0.00    -0.218 P  
HETATM   17  O   UNL     1     -11.227  11.605  65.998  1.00  0.00    -0.300 OA 
HETATM   18  O   UNL     1     -11.870  11.747  68.437  1.00  0.00    -0.364 OA 
HETATM   19  O   UNL     1     -10.173  13.066  67.495  1.00  0.00    -0.218 OA 
ENDBRANCH  14  15
ENDBRANCH  13  14
BRANCH  13  20
HETATM   20  C   UNL     1      -9.840   7.721  68.426  1.00  0.00    -0.168 C  
HETATM   21  O   UNL     1     -10.131   6.323  68.501  1.00  0.00    -0.140 OA 
HETATM   22  H   UNL     1     -10.426   6.096  69.375  1.00  0.00     0.000 HD 
ENDBRANCH  13  20
ENDBRANCH  12  13
ENDBRANCH   8  12
TORSDOF 5
ENDMDL
MODEL      304
REMARK 921   NORMALIZED FREE ENERGY PREDICTED BY IDOCK:   -1.05 KCAL/MOL
REMARK 922        TOTAL FREE ENERGY PREDICTED BY IDOCK:   -2.29 KCAL/MOL
REMARK 923 INTER-LIGAND FREE ENERGY PREDICTED BY IDOCK:   -2.15 KCAL/MOL
REMARK 924 INTRA-LIGAND FREE ENERGY PREDICTED BY IDOCK:   -0.14 KCAL/MOL
REMARK 927      BINDING AFFINITY PREDICTED BY RF-SCORE:    0.00 PKD
ROOT
HETATM    1  N   UNL     1      -7.262  11.204  62.394  1.00  0.00    -0.405 NA 
HETATM    2  H1  UNL     1      -7.894  10.882  61.661  1.00  0.00     0.000 HD 
HETATM    3  C   UNL     1      -7.025  10.341  63.420  1.00  0.00    -0.088 C  
HETATM    4  H2  UNL     1      -6.830  12.128  62.361  1.00  0.00     0.000 HD 
HETATM    5  N   UNL     1      -6.221  10.751  64.353  1.00  0.00    -0.368 N  
HETATM    6  C   UNL     1      -5.990   9.966  65.456  1.00  0.00    -0.076 C  
HETATM    7  H   UNL     1      -5.760  11.657  64.266  1.00  0.00     0.000 HD 
HETATM    8  N   UNL     1      -6.694   8.764  65.565  1.00  0.00    -0.070 N  
HETATM    9  O   UNL     1      -5.211  10.319  66.339  1.00  0.00    -0.038 OA 
HETATM   10  C   UNL     1      -7.681   9.022  63.442  1.00  0.00    -0.124 C  
HETATM   11  C   UNL     1      -7.493   8.299  64.551  1.00  0.00    -0.101 C  
ENDROOT
BRANCH   8  12
HETATM   12  C   UNL     1      -6.718   8.101  66.860  1.00  0.00    -0.065 C  
BRANCH  12  13
HETATM   13  C   UNL     1      -7.394   6.713  66.911  1.00  0.00    -0.082 C  
BRANCH  13  14
HETATM   14  O   UNL     1      -7.638   6.317  68.300  1.00  0.00    -0.095 OA 
BRANCH  14  15
HETATM   15  C   UNL     1      -7.607   4.882  68.412  1.00  0.00    -0.078 C  
HETATM   16  P   UNL     1      -8.806   4.239  69.637  1.00  0.00    -0.104 P  
HETATM   17  O   UNL     1      -9.968   4.901  68.671  1.00  0.00    -0.161 OA 
HETATM   18  O   UNL     1      -8.596   2.790  68.884  1.00  0.00    -0.064 OA 
HETATM   19  O   UNL     1      -9.819   3.694  70.672  1.00  0.00    -0.178 OA 
ENDBRANCH  14  15
ENDBRANCH  13  14
BRANCH  13  20
HETATM   20  C   UNL     1      -6.518   5.638  66.247  1.00  0.00    -0.044 C  
HETATM   21  O   UNL     1      -5.148   6.044  66.256  1.00  0.00    -0.008 OA 
HETATM   22  H   UNL     1      -4.606   5.380  65.846  1.00  0.00     0.000 HD 
ENDBRANCH  13  20
ENDBRANCH  12  13
ENDBRANCH   8  12
TORSDOF 5
ENDMDL
