MODEL        1
REMARK 921   NORMALIZED FREE ENERGY PREDICTED BY IDOCK:   -6.30 KCAL/MOL
REMARK 922        TOTAL FREE ENERGY PREDICTED BY IDOCK:  -10.59 KCAL/MOL
REMARK 923 INTER-LIGAND FREE ENERGY PREDICTED BY IDOCK:   -9.62 KCAL/MOL
REMARK 924 INTRA-LIGAND FREE ENERGY PREDICTED BY IDOCK:   -0.97 KCAL/MOL
REMARK 927      BINDING AFFINITY PREDICTED BY RF-SCORE:    0.00 PKD
ROOT
HETATM    1  C   UNK A   0     -10.230  19.328  68.455  1.00  0.00    -0.471 C  
HETATM    2  C   UNK A   0      -9.941  18.336  67.353  1.00  0.00    -0.344 C  
HETATM    3  C   UNK A   0      -8.589  17.667  67.405  1.00  0.00    -0.229 C  
HETATM    4  C   UNK A   0     -10.516  18.747  66.018  1.00  0.00    -0.483 C  
HETATM    5  C   UNK A   0      -9.833  16.845  67.695  1.00  0.00    -0.259 C  
ENDROOT
BRANCH   5   6
HETATM    6  C   UNK A   0     -10.154  15.748  66.721  1.00  0.00    -0.271 C  
HETATM    7  N   UNK A   1     -11.280  15.002  66.983  1.00  0.00    -0.336 N  
HETATM    8  O   UNK A   0      -9.392  15.511  65.792  1.00  0.00    -0.332 OA 
HETATM    9  H   UNK A   1     -11.819  15.281  67.804  1.00  0.00     0.000 HD 
BRANCH   7  10
HETATM   10  C   UNK A   1     -11.774  13.914  66.268  1.00  0.00    -0.383 C  
HETATM   11  C   UNK A   1     -11.558  12.644  66.695  1.00  0.00    -0.443 C  
HETATM   12  C   UNK A   1     -12.531  13.969  64.954  1.00  0.00    -0.396 C  
HETATM   13  O   UNK A   1     -12.198  14.974  64.121  1.00  0.00    -0.589 OA 
HETATM   14  O   UNK A   1     -13.267  13.065  64.583  1.00  0.00    -0.643 OA 
BRANCH  11  15
HETATM   15  C   UNK A   1     -10.769  12.217  67.895  1.00  0.00    -0.243 C  
BRANCH  15  16
HETATM   16  C   UNK A   1     -11.244  10.939  68.614  1.00  0.00    -0.326 C  
BRANCH  16  17
HETATM   17  C   UNK A   1     -11.472  11.315  70.084  1.00  0.00    -0.336 C  
BRANCH  17  18
HETATM   18  C   UNK A   1     -12.586  10.555  70.794  1.00  0.00    -0.382 C  
BRANCH  18  19
HETATM   19  S   UNK A   1     -13.255  11.689  72.068  1.00  0.00    -0.116 SA 
BRANCH  19  20
HETATM   20  C   UNK A   1     -12.783  13.288  71.330  1.00  0.00    -0.323 C  
BRANCH  20  21
HETATM   21  C   UNK A   1     -13.604  14.433  71.943  1.00  0.00    -0.403 C  
HETATM   22  N   UNK A   1     -14.036  15.443  70.923  1.00  0.00    -0.864 NA 
HETATM   23  C   UNK A   1     -12.716  15.141  72.968  1.00  0.00    -0.450 C  
HETATM   24  O   UNK A   1     -12.470  14.723  74.088  1.00  0.00    -0.503 OA 
HETATM   25  O   UNK A   1     -12.184  16.282  72.456  1.00  0.00    -0.493 OA 
HETATM   26  H1  UNK A   1     -14.581  16.203  71.329  1.00  0.00     0.000 HD 
HETATM   27  H2  UNK A   1     -14.543  14.997  70.158  1.00  0.00     0.000 HD 
ENDBRANCH  20  21
ENDBRANCH  19  20
ENDBRANCH  18  19
ENDBRANCH  17  18
ENDBRANCH  16  17
ENDBRANCH  15  16
ENDBRANCH  11  15
ENDBRANCH   7  10
ENDBRANCH   5   6
TORSDOF 9
ENDMDL
MODEL        2
REMARK 921   NORMALIZED FREE ENERGY PREDICTED BY IDOCK:   -6.15 KCAL/MOL
REMARK 922        TOTAL FREE ENERGY PREDICTED BY IDOCK:  -10.35 KCAL/MOL
REMARK 923 INTER-LIGAND FREE ENERGY PREDICTED BY IDOCK:   -9.14 KCAL/MOL
REMARK 924 INTRA-LIGAND FREE ENERGY PREDICTED BY IDOCK:   -1.22 KCAL/MOL
REMARK 927      BINDING AFFINITY PREDICTED BY RF-SCORE:    0.00 PKD
ROOT
HETATM    1  C   UNK A   0      -9.160   9.257  67.271  1.00  0.00    -0.143 C  
HETATM    2  C   UNK A   0      -9.231  10.724  66.916  1.00  0.00    -0.172 C  
HETATM    3  C   UNK A   0      -8.900  11.074  65.486  1.00  0.00    -0.179 C  
HETATM    4  C   UNK A   0      -8.759  11.628  68.030  1.00  0.00    -0.157 C  
HETATM    5  C   UNK A   0     -10.333  11.215  65.969  1.00  0.00    -0.308 C  
ENDROOT
BRANCH   5   6
HETATM    6  C   UNK A   0     -10.895  12.606  66.006  1.00  0.00    -0.277 C  
HETATM    7  N   UNK A   1     -10.276  13.542  65.209  1.00  0.00    -0.407 N  
HETATM    8  O   UNK A   0     -11.812  12.877  66.771  1.00  0.00    -0.371 OA 
HETATM    9  H   UNK A   1      -9.505  13.200  64.635  1.00  0.00     0.000 HD 
BRANCH   7  10
HETATM   10  C   UNK A   1     -10.572  14.898  65.089  1.00  0.00    -0.428 C  
HETATM   11  C   UNK A   1      -9.910  15.823  65.829  1.00  0.00    -0.383 C  
HETATM   12  C   UNK A   1     -11.650  15.510  64.214  1.00  0.00    -0.194 C  
HETATM   13  O   UNK A   1     -12.756  14.765  64.028  1.00  0.00    -0.786 OA 
HETATM   14  O   UNK A   1     -11.611  16.676  63.844  1.00  0.00    -1.204 OA 
BRANCH  11  15
HETATM   15  C   UNK A   1      -8.857  15.566  66.863  1.00  0.00    -0.284 C  
BRANCH  15  16
HETATM   16  C   UNK A   1      -8.329  16.794  67.630  1.00  0.00    -0.191 C  
BRANCH  16  17
HETATM   17  C   UNK A   1      -8.941  16.736  69.036  1.00  0.00    -0.188 C  
BRANCH  17  18
HETATM   18  C   UNK A   1      -9.563  15.402  69.430  1.00  0.00    -0.270 C  
BRANCH  18  19
HETATM   19  S   UNK A   1     -11.207  15.789  70.139  1.00  0.00    -0.380 SA 
BRANCH  19  20
HETATM   20  C   UNK A   1     -11.903  14.106  70.232  1.00  0.00    -0.303 C  
BRANCH  20  21
HETATM   21  C   UNK A   1     -13.350  14.143  70.750  1.00  0.00    -0.072 C  
HETATM   22  N   UNK A   1     -13.897  15.537  70.828  1.00  0.00    -0.865 NA 
HETATM   23  C   UNK A   1     -13.351  13.550  72.159  1.00  0.00    -0.500 C  
HETATM   24  O   UNK A   1     -13.295  12.359  72.418  1.00  0.00    -0.481 OA 
HETATM   25  O   UNK A   1     -13.372  14.526  73.105  1.00  0.00    -0.595 OA 
HETATM   26  H1  UNK A   1     -14.857  15.562  71.171  1.00  0.00     0.000 HD 
HETATM   27  H2  UNK A   1     -13.817  16.013  69.929  1.00  0.00     0.000 HD 
ENDBRANCH  20  21
ENDBRANCH  19  20
ENDBRANCH  18  19
ENDBRANCH  17  18
ENDBRANCH  16  17
ENDBRANCH  15  16
ENDBRANCH  11  15
ENDBRANCH   7  10
ENDBRANCH   5   6
TORSDOF 9
ENDMDL
MODEL        3
REMARK 921   NORMALIZED FREE ENERGY PREDICTED BY IDOCK:   -6.06 KCAL/MOL
REMARK 922        TOTAL FREE ENERGY PREDICTED BY IDOCK:  -10.22 KCAL/MOL
REMARK 923 INTER-LIGAND FREE ENERGY PREDICTED BY IDOCK:   -8.55 KCAL/MOL
REMARK 924 INTRA-LIGAND FREE ENERGY PREDICTED BY IDOCK:   -1.67 KCAL/MOL
REMARK 927      BINDING AFFINITY PREDICTED BY RF-SCORE:    0.00 PKD
ROOT
HETATM    1  C   UNK A   0     -11.036  16.438  68.289  1.00  0.00    -0.355 C  
HETATM    2  C   UNK A   0     -10.776  15.046  68.814  1.00  0.00    -0.241 C  
HETATM    3  C   UNK A   0     -11.294  14.756  70.201  1.00  0.00    -0.291 C  
HETATM    4  C   UNK A   0      -9.436  14.491  68.391  1.00  0.00    -0.209 C  
HETATM    5  C   UNK A   0     -11.955  14.084  69.010  1.00  0.00    -0.392 C  
ENDROOT
BRANCH   5   6
HETATM    6  C   UNK A   0     -11.828  12.591  68.925  1.00  0.00    -0.301 C  
HETATM    7  N   UNK A   1     -11.212  11.964  69.983  1.00  0.00    -0.485 N  
HETATM    8  O   UNK A   0     -12.199  12.001  67.918  1.00  0.00    -0.470 OA 
HETATM    9  H   UNK A   1     -10.922  12.569  70.752  1.00  0.00     0.000 HD 
BRANCH   7  10
HETATM   10  C   UNK A   1     -10.935  10.607  70.134  1.00  0.00    -0.222 C  
HETATM   11  C   UNK A   1      -9.900  10.031  69.473  1.00  0.00    -0.249 C  
HETATM   12  C   UNK A   1     -11.730   9.613  70.960  1.00  0.00    -0.353 C  
HETATM   13  O   UNK A   1     -13.054   9.840  71.047  1.00  0.00    -0.348 OA 
HETATM   14  O   UNK A   1     -11.244   8.569  71.375  1.00  0.00    -0.241 OA 
BRANCH  11  15
HETATM   15  C   UNK A   1      -8.971  10.690  68.499  1.00  0.00    -0.156 C  
BRANCH  15  16
HETATM   16  C   UNK A   1      -8.904  10.078  67.087  1.00  0.00    -0.142 C  
BRANCH  16  17
HETATM   17  C   UNK A   1      -9.449  11.137  66.118  1.00  0.00    -0.229 C  
BRANCH  17  18
HETATM   18  C   UNK A   1      -9.895  10.617  64.757  1.00  0.00    -0.310 C  
BRANCH  18  19
HETATM   19  S   UNK A   1     -11.266  11.704  64.214  1.00  0.00    -0.285 SA 
BRANCH  19  20
HETATM   20  C   UNK A   1     -10.494  13.332  64.497  1.00  0.00    -0.415 C  
BRANCH  20  21
HETATM   21  C   UNK A   1     -11.449  14.260  65.266  1.00  0.00    -0.344 C  
HETATM   22  N   UNK A   1     -12.874  13.801  65.201  1.00  0.00    -0.748 NA 
HETATM   23  C   UNK A   1     -11.362  15.645  64.625  1.00  0.00    -0.349 C  
HETATM   24  O   UNK A   1     -10.455  16.442  64.798  1.00  0.00    -0.620 OA 
HETATM   25  O   UNK A   1     -12.408  15.865  63.785  1.00  0.00    -0.791 OA 
HETATM   26  H1  UNK A   1     -13.508  14.416  65.711  1.00  0.00     0.000 HD 
HETATM   27  H2  UNK A   1     -12.964  12.837  65.520  1.00  0.00     0.000 HD 
ENDBRANCH  20  21
ENDBRANCH  19  20
ENDBRANCH  18  19
ENDBRANCH  17  18
ENDBRANCH  16  17
ENDBRANCH  15  16
ENDBRANCH  11  15
ENDBRANCH   7  10
ENDBRANCH   5   6
TORSDOF 9
ENDMDL
MODEL        4
REMARK 921   NORMALIZED FREE ENERGY PREDICTED BY IDOCK:   -6.01 KCAL/MOL
REMARK 922        TOTAL FREE ENERGY PREDICTED BY IDOCK:  -10.13 KCAL/MOL
REMARK 923 INTER-LIGAND FREE ENERGY PREDICTED BY IDOCK:   -9.51 KCAL/MOL
REMARK 924 INTRA-LIGAND FREE ENERGY PREDICTED BY IDOCK:   -0.63 KCAL/MOL
REMARK 927      BINDING AFFINITY PREDICTED BY RF-SCORE:    0.00 PKD
ROOT
HETATM    1  C   UNK A   0      -9.982  19.953  68.989  1.00  0.00    -0.386 C  
HETATM    2  C   UNK A   0      -9.507  19.102  67.835  1.00  0.00    -0.381 C  
HETATM    3  C   UNK A   0      -8.295  18.243  68.104  1.00  0.00    -0.296 C  
HETATM    4  C   UNK A   0      -9.651  19.783  66.495  1.00  0.00    -0.509 C  
HETATM    5  C   UNK A   0      -9.648  17.576  67.919  1.00  0.00    -0.277 C  
ENDROOT
BRANCH   5   6
HETATM    6  C   UNK A   0      -9.801  16.693  66.715  1.00  0.00    -0.273 C  
HETATM    7  N   UNK A   1     -10.871  15.828  66.719  1.00  0.00    -0.295 N  
HETATM    8  O   UNK A   0      -8.960  16.717  65.826  1.00  0.00    -0.508 OA 
HETATM    9  H   UNK A   1     -11.487  15.883  67.530  1.00  0.00     0.000 HD 
BRANCH   7  10
HETATM   10  C   UNK A   1     -11.215  14.884  65.753  1.00  0.00    -0.334 C  
HETATM   11  C   UNK A   1     -10.855  13.583  65.892  1.00  0.00    -0.279 C  
HETATM   12  C   UNK A   1     -11.945  15.154  64.451  1.00  0.00    -0.310 C  
HETATM   13  O   UNK A   1     -11.720  16.355  63.883  1.00  0.00    -1.085 OA 
HETATM   14  O   UNK A   1     -12.559  14.282  63.850  1.00  0.00    -0.787 OA 
BRANCH  11  15
HETATM   15  C   UNK A   1     -10.045  12.984  67.001  1.00  0.00    -0.243 C  
BRANCH  15  16
HETATM   16  C   UNK A   1     -10.727  12.886  68.379  1.00  0.00    -0.273 C  
BRANCH  16  17
HETATM   17  C   UNK A   1     -11.313  11.471  68.485  1.00  0.00    -0.337 C  
BRANCH  17  18
HETATM   18  C   UNK A   1     -10.316  10.331  68.314  1.00  0.00    -0.181 C  
BRANCH  18  19
HETATM   19  S   UNK A   1      -9.802   9.839  70.002  1.00  0.00    -0.243 SA 
BRANCH  19  20
HETATM   20  C   UNK A   1     -11.234   8.811  70.470  1.00  0.00    -0.247 C  
BRANCH  20  21
HETATM   21  C   UNK A   1     -11.650   9.089  71.923  1.00  0.00    -0.370 C  
HETATM   22  N   UNK A   1     -11.890   7.831  72.703  1.00  0.00    -0.568 NA 
HETATM   23  C   UNK A   1     -12.956   9.884  71.886  1.00  0.00    -0.448 C  
HETATM   24  O   UNK A   1     -13.043  11.075  71.638  1.00  0.00    -0.446 OA 
HETATM   25  O   UNK A   1     -14.029   9.081  72.114  1.00  0.00    -0.431 OA 
HETATM   26  H1  UNK A   1     -12.167   8.015  73.668  1.00  0.00     0.000 HD 
HETATM   27  H2  UNK A   1     -11.077   7.216  72.666  1.00  0.00     0.000 HD 
ENDBRANCH  20  21
ENDBRANCH  19  20
ENDBRANCH  18  19
ENDBRANCH  17  18
ENDBRANCH  16  17
ENDBRANCH  15  16
ENDBRANCH  11  15
ENDBRANCH   7  10
ENDBRANCH   5   6
TORSDOF 9
ENDMDL
MODEL        5
REMARK 921   NORMALIZED FREE ENERGY PREDICTED BY IDOCK:   -5.98 KCAL/MOL
REMARK 922        TOTAL FREE ENERGY PREDICTED BY IDOCK:  -10.09 KCAL/MOL
REMARK 923 INTER-LIGAND FREE ENERGY PREDICTED BY IDOCK:   -9.12 KCAL/MOL
REMARK 924 INTRA-LIGAND FREE ENERGY PREDICTED BY IDOCK:   -0.97 KCAL/MOL
REMARK 927      BINDING AFFINITY PREDICTED BY RF-SCORE:    0.00 PKD
ROOT
HETATM    1  C   UNK A   0     -11.653   5.856  72.567  1.00  0.00    -0.327 C  
HETATM    2  C   UNK A   0     -11.620   6.873  71.451  1.00  0.00    -0.340 C  
HETATM    3  C   UNK A   0     -12.758   7.864  71.426  1.00  0.00    -0.312 C  
HETATM    4  C   UNK A   0     -11.097   6.311  70.150  1.00  0.00    -0.443 C  
HETATM    5  C   UNK A   0     -11.364   8.348  71.786  1.00  0.00    -0.366 C  
ENDROOT
BRANCH   5   6
HETATM    6  C   UNK A   0     -10.722   9.313  70.832  1.00  0.00    -0.301 C  
HETATM    7  N   UNK A   1     -11.543   9.882  69.886  1.00  0.00    -0.409 N  
HETATM    8  O   UNK A   0      -9.513   9.505  70.876  1.00  0.00    -0.239 OA 
HETATM    9  H   UNK A   1     -12.528   9.621  69.935  1.00  0.00     0.000 HD 
BRANCH   7  10
HETATM   10  C   UNK A   1     -11.195  10.769  68.870  1.00  0.00    -0.268 C  
HETATM   11  C   UNK A   1     -11.511  12.086  68.958  1.00  0.00    -0.357 C  
HETATM   12  C   UNK A   1     -10.506  10.418  67.564  1.00  0.00    -0.245 C  
HETATM   13  O   UNK A   1     -10.782   9.200  67.058  1.00  0.00    -0.234 OA 
HETATM   14  O   UNK A   1      -9.882  11.242  66.909  1.00  0.00    -0.189 OA 
BRANCH  11  15
HETATM   15  C   UNK A   1     -12.274  12.760  70.057  1.00  0.00    -0.279 C  
BRANCH  15  16
HETATM   16  C   UNK A   1     -12.390  14.295  69.975  1.00  0.00    -0.403 C  
BRANCH  16  17
HETATM   17  C   UNK A   1     -11.766  14.716  68.638  1.00  0.00    -0.362 C  
BRANCH  17  18
HETATM   18  C   UNK A   1     -10.861  15.941  68.690  1.00  0.00    -0.291 C  
BRANCH  18  19
HETATM   19  S   UNK A   1     -10.525  16.408  66.950  1.00  0.00    -0.257 SA 
BRANCH  19  20
HETATM   20  C   UNK A   1     -11.143  14.913  66.108  1.00  0.00    -0.335 C  
BRANCH  20  21
HETATM   21  C   UNK A   1     -10.841  14.974  64.602  1.00  0.00    -0.269 C  
HETATM   22  N   UNK A   1     -11.464  16.164  63.938  1.00  0.00    -1.418 NA 
HETATM   23  C   UNK A   1     -11.423  13.711  63.964  1.00  0.00    -0.271 C  
HETATM   24  O   UNK A   1     -10.916  12.603  64.017  1.00  0.00    -0.349 OA 
HETATM   25  O   UNK A   1     -12.616  13.967  63.366  1.00  0.00    -0.853 OA 
HETATM   26  H1  UNK A   1     -11.264  16.204  62.938  1.00  0.00     0.000 HD 
HETATM   27  H2  UNK A   1     -11.188  17.029  64.402  1.00  0.00     0.000 HD 
ENDBRANCH  20  21
ENDBRANCH  19  20
ENDBRANCH  18  19
ENDBRANCH  17  18
ENDBRANCH  16  17
ENDBRANCH  15  16
ENDBRANCH  11  15
ENDBRANCH   7  10
ENDBRANCH   5   6
TORSDOF 9
ENDMDL
MODEL        6
REMARK 921   NORMALIZED FREE ENERGY PREDICTED BY IDOCK:   -5.98 KCAL/MOL
REMARK 922        TOTAL FREE ENERGY PREDICTED BY IDOCK:  -10.09 KCAL/MOL
REMARK 923 INTER-LIGAND FREE ENERGY PREDICTED BY IDOCK:   -9.05 KCAL/MOL
REMARK 924 INTRA-LIGAND FREE ENERGY PREDICTED BY IDOCK:   -1.03 KCAL/MOL
REMARK 927      BINDING AFFINITY PREDICTED BY RF-SCORE:    0.00 PKD
ROOT
HETATM    1  C   UNK A   0     -10.204  14.096  64.899  1.00  0.00    -0.371 C  
HETATM    2  C   UNK A   0     -11.067  13.090  65.623  1.00  0.00    -0.301 C  
HETATM    3  C   UNK A   0     -10.563  11.667  65.627  1.00  0.00    -0.324 C  
HETATM    4  C   UNK A   0     -12.546  13.353  65.466  1.00  0.00    -0.520 C  
HETATM    5  C   UNK A   0     -10.554  12.458  66.924  1.00  0.00    -0.251 C  
ENDROOT
BRANCH   5   6
HETATM    6  C   UNK A   0     -11.458  11.966  68.016  1.00  0.00    -0.323 C  
HETATM    7  N   UNK A   1     -11.393  12.634  69.217  1.00  0.00    -0.359 N  
HETATM    8  O   UNK A   0     -12.151  10.972  67.837  1.00  0.00    -0.600 OA 
HETATM    9  H   UNK A   1     -10.757  13.431  69.251  1.00  0.00     0.000 HD 
BRANCH   7  10
HETATM   10  C   UNK A   1     -12.090  12.357  70.392  1.00  0.00    -0.297 C  
HETATM   11  C   UNK A   1     -12.716  13.346  71.078  1.00  0.00    -0.387 C  
HETATM   12  C   UNK A   1     -12.201  11.008  71.076  1.00  0.00    -0.351 C  
HETATM   13  O   UNK A   1     -11.137  10.191  70.951  1.00  0.00    -0.338 OA 
HETATM   14  O   UNK A   1     -13.113  10.736  71.845  1.00  0.00    -0.481 OA 
BRANCH  11  15
HETATM   15  C   UNK A   1     -12.729  14.808  70.747  1.00  0.00    -0.422 C  
BRANCH  15  16
HETATM   16  C   UNK A   1     -11.399  15.566  70.920  1.00  0.00    -0.406 C  
BRANCH  16  17
HETATM   17  C   UNK A   1     -11.272  16.519  69.724  1.00  0.00    -0.166 C  
BRANCH  17  18
HETATM   18  C   UNK A   1     -11.018  15.855  68.376  1.00  0.00    -0.331 C  
BRANCH  18  19
HETATM   19  S   UNK A   1      -9.209  15.932  68.096  1.00  0.00    -0.192 SA 
BRANCH  19  20
HETATM   20  C   UNK A   1      -9.170  17.073  66.673  1.00  0.00    -0.256 C  
BRANCH  20  21
HETATM   21  C   UNK A   1     -10.576  17.616  66.373  1.00  0.00    -0.208 C  
HETATM   22  N   UNK A   1     -10.951  17.475  64.928  1.00  0.00    -0.827 NA 
HETATM   23  C   UNK A   1     -10.581  19.104  66.725  1.00  0.00    -0.439 C  
HETATM   24  O   UNK A   1     -10.653  19.556  67.856  1.00  0.00    -0.426 OA 
HETATM   25  O   UNK A   1     -10.441  19.874  65.613  1.00  0.00    -0.477 OA 
HETATM   26  H1  UNK A   1     -11.884  17.836  64.729  1.00  0.00     0.000 HD 
HETATM   27  H2  UNK A   1     -10.858  16.508  64.618  1.00  0.00     0.000 HD 
ENDBRANCH  20  21
ENDBRANCH  19  20
ENDBRANCH  18  19
ENDBRANCH  17  18
ENDBRANCH  16  17
ENDBRANCH  15  16
ENDBRANCH  11  15
ENDBRANCH   7  10
ENDBRANCH   5   6
TORSDOF 9
ENDMDL
MODEL        7
REMARK 921   NORMALIZED FREE ENERGY PREDICTED BY IDOCK:   -5.96 KCAL/MOL
REMARK 922        TOTAL FREE ENERGY PREDICTED BY IDOCK:  -10.06 KCAL/MOL
REMARK 923 INTER-LIGAND FREE ENERGY PREDICTED BY IDOCK:   -8.79 KCAL/MOL
REMARK 924 INTRA-LIGAND FREE ENERGY PREDICTED BY IDOCK:   -1.26 KCAL/MOL
REMARK 927      BINDING AFFINITY PREDICTED BY RF-SCORE:    0.00 PKD
ROOT
HETATM    1  C   UNK A   0     -13.804   8.196  71.741  1.00  0.00    -0.452 C  
HETATM    2  C   UNK A   0     -12.661   9.131  71.423  1.00  0.00    -0.383 C  
HETATM    3  C   UNK A   0     -11.327   8.774  72.033  1.00  0.00    -0.441 C  
HETATM    4  C   UNK A   0     -13.080  10.580  71.350  1.00  0.00    -0.509 C  
HETATM    5  C   UNK A   0     -11.514   8.638  70.531  1.00  0.00    -0.208 C  
ENDROOT
BRANCH   5   6
HETATM    6  C   UNK A   0     -10.689   9.547  69.667  1.00  0.00    -0.238 C  
HETATM    7  N   UNK A   1     -11.183   9.819  68.413  1.00  0.00    -0.512 N  
HETATM    8  O   UNK A   0      -9.603   9.949  70.063  1.00  0.00    -0.234 OA 
HETATM    9  H   UNK A   1     -12.087   9.403  68.188  1.00  0.00     0.000 HD 
BRANCH   7  10
HETATM   10  C   UNK A   1     -10.601  10.593  67.410  1.00  0.00    -0.256 C  
HETATM   11  C   UNK A   1     -10.923  11.904  67.268  1.00  0.00    -0.319 C  
HETATM   12  C   UNK A   1      -9.626  10.111  66.353  1.00  0.00    -0.191 C  
HETATM   13  O   UNK A   1      -9.780   8.838  65.941  1.00  0.00    -0.237 OA 
HETATM   14  O   UNK A   1      -8.861  10.869  65.772  1.00  0.00    -0.183 OA 
BRANCH  11  15
HETATM   15  C   UNK A   1     -11.922  12.681  68.071  1.00  0.00    -0.300 C  
BRANCH  15  16
HETATM   16  C   UNK A   1     -11.423  13.272  69.404  1.00  0.00    -0.323 C  
BRANCH  16  17
HETATM   17  C   UNK A   1     -12.069  14.658  69.543  1.00  0.00    -0.335 C  
BRANCH  17  18
HETATM   18  C   UNK A   1     -11.199  15.728  70.192  1.00  0.00    -0.349 C  
BRANCH  18  19
HETATM   19  S   UNK A   1      -9.919  16.169  68.959  1.00  0.00    -0.255 SA 
BRANCH  19  20
HETATM   20  C   UNK A   1     -10.963  16.302  67.469  1.00  0.00    -0.207 C  
BRANCH  20  21
HETATM   21  C   UNK A   1     -10.105  16.235  66.196  1.00  0.00    -0.344 C  
HETATM   22  N   UNK A   1      -9.481  17.554  65.853  1.00  0.00    -0.527 NA 
HETATM   23  C   UNK A   1     -11.022  15.825  65.043  1.00  0.00    -0.417 C  
HETATM   24  O   UNK A   1     -11.416  14.690  64.831  1.00  0.00    -0.366 OA 
HETATM   25  O   UNK A   1     -11.391  16.903  64.300  1.00  0.00    -1.202 OA 
HETATM   26  H1  UNK A   1      -8.912  17.510  65.008  1.00  0.00     0.000 HD 
HETATM   27  H2  UNK A   1      -8.943  17.921  66.638  1.00  0.00     0.000 HD 
ENDBRANCH  20  21
ENDBRANCH  19  20
ENDBRANCH  18  19
ENDBRANCH  17  18
ENDBRANCH  16  17
ENDBRANCH  15  16
ENDBRANCH  11  15
ENDBRANCH   7  10
ENDBRANCH   5   6
TORSDOF 9
ENDMDL
MODEL        8
REMARK 921   NORMALIZED FREE ENERGY PREDICTED BY IDOCK:   -5.94 KCAL/MOL
REMARK 922        TOTAL FREE ENERGY PREDICTED BY IDOCK:  -10.04 KCAL/MOL
REMARK 923 INTER-LIGAND FREE ENERGY PREDICTED BY IDOCK:   -8.80 KCAL/MOL
REMARK 924 INTRA-LIGAND FREE ENERGY PREDICTED BY IDOCK:   -1.24 KCAL/MOL
REMARK 927      BINDING AFFINITY PREDICTED BY RF-SCORE:    0.00 PKD
ROOT
HETATM    1  C   UNK A   0      -6.427  16.993  66.872  1.00  0.00    -0.248 C  
HETATM    2  C   UNK A   0      -7.836  16.577  67.221  1.00  0.00    -0.185 C  
HETATM    3  C   UNK A   0      -8.911  17.606  66.965  1.00  0.00    -0.258 C  
HETATM    4  C   UNK A   0      -7.913  15.717  68.460  1.00  0.00    -0.138 C  
HETATM    5  C   UNK A   0      -8.857  16.361  66.096  1.00  0.00    -0.349 C  
ENDROOT
BRANCH   5   6
HETATM    6  C   UNK A   0     -10.018  15.416  66.203  1.00  0.00    -0.307 C  
HETATM    7  N   UNK A   1     -10.001  14.322  65.369  1.00  0.00    -0.513 N  
HETATM    8  O   UNK A   0     -10.950  15.674  66.953  1.00  0.00    -0.315 OA 
HETATM    9  H   UNK A   1      -9.180  14.231  64.769  1.00  0.00     0.000 HD 
BRANCH   7  10
HETATM   10  C   UNK A   1     -10.965  13.324  65.242  1.00  0.00    -0.291 C  
HETATM   11  C   UNK A   1     -10.746  12.079  65.735  1.00  0.00    -0.319 C  
HETATM   12  C   UNK A   1     -12.298  13.446  64.528  1.00  0.00    -0.360 C  
HETATM   13  O   UNK A   1     -12.327  14.273  63.465  1.00  0.00    -0.714 OA 
HETATM   14  O   UNK A   1     -13.245  12.712  64.777  1.00  0.00    -0.846 OA 
BRANCH  11  15
HETATM   15  C   UNK A   1      -9.505  11.580  66.410  1.00  0.00    -0.230 C  
BRANCH  15  16
HETATM   16  C   UNK A   1      -9.696  10.854  67.755  1.00  0.00    -0.183 C  
BRANCH  16  17
HETATM   17  C   UNK A   1     -11.176  11.002  68.133  1.00  0.00    -0.364 C  
BRANCH  17  18
HETATM   18  C   UNK A   1     -11.448  11.560  69.525  1.00  0.00    -0.311 C  
BRANCH  18  19
HETATM   19  S   UNK A   1     -11.669  13.368  69.322  1.00  0.00    -0.344 SA 
BRANCH  19  20
HETATM   20  C   UNK A   1     -12.778  13.700  70.731  1.00  0.00    -0.268 C  
BRANCH  20  21
HETATM   21  C   UNK A   1     -13.179  15.183  70.770  1.00  0.00    -0.382 C  
HETATM   22  N   UNK A   1     -12.513  15.987  69.694  1.00  0.00    -0.484 NA 
HETATM   23  C   UNK A   1     -12.744  15.744  72.124  1.00  0.00    -0.447 C  
HETATM   24  O   UNK A   1     -13.331  15.562  73.178  1.00  0.00    -0.494 OA 
HETATM   25  O   UNK A   1     -11.579  16.437  72.020  1.00  0.00    -0.444 OA 
HETATM   26  H1  UNK A   1     -12.780  16.972  69.719  1.00  0.00     0.000 HD 
HETATM   27  H2  UNK A   1     -12.688  15.584  68.774  1.00  0.00     0.000 HD 
ENDBRANCH  20  21
ENDBRANCH  19  20
ENDBRANCH  18  19
ENDBRANCH  17  18
ENDBRANCH  16  17
ENDBRANCH  15  16
ENDBRANCH  11  15
ENDBRANCH   7  10
ENDBRANCH   5   6
TORSDOF 9
ENDMDL
MODEL        9
REMARK 921   NORMALIZED FREE ENERGY PREDICTED BY IDOCK:   -5.94 KCAL/MOL
REMARK 922        TOTAL FREE ENERGY PREDICTED BY IDOCK:  -10.03 KCAL/MOL
REMARK 923 INTER-LIGAND FREE ENERGY PREDICTED BY IDOCK:   -9.04 KCAL/MOL
REMARK 924 INTRA-LIGAND FREE ENERGY PREDICTED BY IDOCK:   -0.99 KCAL/MOL
REMARK 927      BINDING AFFINITY PREDICTED BY RF-SCORE:    0.00 PKD
ROOT
HETATM    1  C   UNK A   0      -9.578  10.715  64.415  1.00  0.00    -0.349 C  
HETATM    2  C   UNK A   0     -10.643  11.728  64.764  1.00  0.00    -0.351 C  
HETATM    3  C   UNK A   0     -11.503  11.397  65.960  1.00  0.00     0.012 C  
HETATM    4  C   UNK A   0     -11.273  12.369  63.551  1.00  0.00    -0.540 C  
HETATM    5  C   UNK A   0     -10.509  12.542  66.057  1.00  0.00    -0.282 C  
ENDROOT
BRANCH   5   6
HETATM    6  C   UNK A   0     -11.086  13.917  66.231  1.00  0.00    -0.304 C  
HETATM    7  N   UNK A   1     -10.186  14.953  66.334  1.00  0.00    -0.274 N  
HETATM    8  O   UNK A   0     -12.296  14.065  66.345  1.00  0.00    -0.460 OA 
HETATM    9  H   UNK A   1      -9.201  14.700  66.251  1.00  0.00     0.000 HD 
BRANCH   7  10
HETATM   10  C   UNK A   1     -10.454  16.306  66.538  1.00  0.00    -0.290 C  
HETATM   11  C   UNK A   1     -10.623  16.800  67.790  1.00  0.00    -0.341 C  
HETATM   12  C   UNK A   1     -10.645  17.358  65.462  1.00  0.00    -0.108 C  
HETATM   13  O   UNK A   1     -11.198  16.933  64.309  1.00  0.00    -1.204 OA 
HETATM   14  O   UNK A   1     -10.482  18.551  65.675  1.00  0.00    -0.615 OA 
BRANCH  11  15
HETATM   15  C   UNK A   1     -10.602  16.030  69.076  1.00  0.00    -0.257 C  
BRANCH  15  16
HETATM   16  C   UNK A   1     -11.969  15.695  69.701  1.00  0.00    -0.367 C  
BRANCH  16  17
HETATM   17  C   UNK A   1     -11.703  14.707  70.846  1.00  0.00    -0.335 C  
BRANCH  17  18
HETATM   18  C   UNK A   1     -12.681  14.771  72.012  1.00  0.00    -0.329 C  
BRANCH  18  19
HETATM   19  S   UNK A   1     -13.480  13.125  72.108  1.00  0.00    -0.514 SA 
BRANCH  19  20
HETATM   20  C   UNK A   1     -12.420  12.204  70.943  1.00  0.00    -0.279 C  
BRANCH  20  21
HETATM   21  C   UNK A   1     -12.817  10.720  70.903  1.00  0.00    -0.351 C  
HETATM   22  N   UNK A   1     -13.409  10.248  72.197  1.00  0.00    -0.563 NA 
HETATM   23  C   UNK A   1     -11.549   9.910  70.633  1.00  0.00    -0.335 C  
HETATM   24  O   UNK A   1     -11.012   9.791  69.544  1.00  0.00    -0.232 OA 
HETATM   25  O   UNK A   1     -11.055   9.372  71.780  1.00  0.00    -0.370 OA 
HETATM   26  H1  UNK A   1     -13.673   9.263  72.171  1.00  0.00     0.000 HD 
HETATM   27  H2  UNK A   1     -14.198  10.831  72.474  1.00  0.00     0.000 HD 
ENDBRANCH  20  21
ENDBRANCH  19  20
ENDBRANCH  18  19
ENDBRANCH  17  18
ENDBRANCH  16  17
ENDBRANCH  15  16
ENDBRANCH  11  15
ENDBRANCH   7  10
ENDBRANCH   5   6
TORSDOF 9
ENDMDL
MODEL       10
REMARK 921   NORMALIZED FREE ENERGY PREDICTED BY IDOCK:   -5.92 KCAL/MOL
REMARK 922        TOTAL FREE ENERGY PREDICTED BY IDOCK:   -9.99 KCAL/MOL
REMARK 923 INTER-LIGAND FREE ENERGY PREDICTED BY IDOCK:   -8.43 KCAL/MOL
REMARK 924 INTRA-LIGAND FREE ENERGY PREDICTED BY IDOCK:   -1.57 KCAL/MOL
REMARK 927      BINDING AFFINITY PREDICTED BY RF-SCORE:    0.00 PKD
ROOT
HETATM    1  C   UNK A   0      -8.072  16.635  68.587  1.00  0.00    -0.237 C  
HETATM    2  C   UNK A   0      -9.546  16.316  68.498  1.00  0.00    -0.222 C  
HETATM    3  C   UNK A   0     -10.021  15.751  67.182  1.00  0.00    -0.242 C  
HETATM    4  C   UNK A   0     -10.414  17.306  69.238  1.00  0.00    -0.220 C  
HETATM    5  C   UNK A   0      -9.993  14.852  68.406  1.00  0.00    -0.222 C  
ENDROOT
BRANCH   5   6
HETATM    6  C   UNK A   0     -11.319  14.359  68.907  1.00  0.00    -0.274 C  
HETATM    7  N   UNK A   1     -11.342  13.838  70.180  1.00  0.00    -0.488 N  
HETATM    8  O   UNK A   0     -12.295  14.368  68.167  1.00  0.00    -0.196 OA 
HETATM    9  H   UNK A   1     -10.457  13.862  70.688  1.00  0.00     0.000 HD 
BRANCH   7  10
HETATM   10  C   UNK A   1     -12.423  13.283  70.862  1.00  0.00    -0.342 C  
HETATM   11  C   UNK A   1     -12.739  11.972  70.715  1.00  0.00    -0.231 C  
HETATM   12  C   UNK A   1     -13.390  14.021  71.769  1.00  0.00    -0.386 C  
HETATM   13  O   UNK A   1     -13.638  15.306  71.450  1.00  0.00    -0.448 OA 
HETATM   14  O   UNK A   1     -14.047  13.450  72.629  1.00  0.00    -0.767 OA 
BRANCH  11  15
HETATM   15  C   UNK A   1     -12.062  10.974  69.825  1.00  0.00    -0.424 C  
BRANCH  15  16
HETATM   16  C   UNK A   1     -10.822  10.264  70.402  1.00  0.00    -0.320 C  
BRANCH  16  17
HETATM   17  C   UNK A   1      -9.802  10.153  69.260  1.00  0.00    -0.235 C  
BRANCH  17  18
HETATM   18  C   UNK A   1     -10.388   9.897  67.877  1.00  0.00    -0.212 C  
BRANCH  18  19
HETATM   19  S   UNK A   1      -9.988  11.372  66.867  1.00  0.00    -0.211 SA 
BRANCH  19  20
HETATM   20  C   UNK A   1     -11.645  11.748  66.206  1.00  0.00    -0.149 C  
BRANCH  20  21
HETATM   21  C   UNK A   1     -11.562  12.813  65.101  1.00  0.00    -0.338 C  
HETATM   22  N   UNK A   1     -12.674  13.815  65.181  1.00  0.00    -0.686 NA 
HETATM   23  C   UNK A   1     -11.663  12.093  63.756  1.00  0.00    -0.485 C  
HETATM   24  O   UNK A   1     -10.757  11.474  63.223  1.00  0.00    -0.362 OA 
HETATM   25  O   UNK A   1     -12.919  12.181  63.243  1.00  0.00    -0.735 OA 
HETATM   26  H1  UNK A   1     -12.619  14.522  64.448  1.00  0.00     0.000 HD 
HETATM   27  H2  UNK A   1     -12.713  14.247  66.105  1.00  0.00     0.000 HD 
ENDBRANCH  20  21
ENDBRANCH  19  20
ENDBRANCH  18  19
ENDBRANCH  17  18
ENDBRANCH  16  17
ENDBRANCH  15  16
ENDBRANCH  11  15
ENDBRANCH   7  10
ENDBRANCH   5   6
TORSDOF 9
ENDMDL
MODEL       11
REMARK 921   NORMALIZED FREE ENERGY PREDICTED BY IDOCK:   -5.89 KCAL/MOL
REMARK 922        TOTAL FREE ENERGY PREDICTED BY IDOCK:   -9.95 KCAL/MOL
REMARK 923 INTER-LIGAND FREE ENERGY PREDICTED BY IDOCK:   -8.84 KCAL/MOL
REMARK 924 INTRA-LIGAND FREE ENERGY PREDICTED BY IDOCK:   -1.12 KCAL/MOL
REMARK 927      BINDING AFFINITY PREDICTED BY RF-SCORE:    0.00 PKD
ROOT
HETATM    1  C   UNK A   0     -14.237   8.525  72.042  1.00  0.00    -0.535 C  
HETATM    2  C   UNK A   0     -12.942   9.234  71.721  1.00  0.00    -0.471 C  
HETATM    3  C   UNK A   0     -11.689   8.606  72.282  1.00  0.00    -0.428 C  
HETATM    4  C   UNK A   0     -13.075  10.738  71.705  1.00  0.00    -0.573 C  
HETATM    5  C   UNK A   0     -11.931   8.562  70.782  1.00  0.00    -0.129 C  
ENDROOT
BRANCH   5   6
HETATM    6  C   UNK A   0     -10.966   9.326  69.924  1.00  0.00    -0.213 C  
HETATM    7  N   UNK A   1     -11.339   9.541  68.618  1.00  0.00    -0.464 N  
HETATM    8  O   UNK A   0      -9.878   9.664  70.376  1.00  0.00    -0.248 OA 
HETATM    9  H   UNK A   1     -12.259   9.188  68.353  1.00  0.00     0.000 HD 
BRANCH   7  10
HETATM   10  C   UNK A   1     -10.617  10.181  67.612  1.00  0.00    -0.265 C  
HETATM   11  C   UNK A   1     -10.860  11.479  67.300  1.00  0.00    -0.301 C  
HETATM   12  C   UNK A   1      -9.557   9.553  66.727  1.00  0.00    -0.176 C  
HETATM   13  O   UNK A   1      -9.725   8.249  66.435  1.00  0.00    -0.236 OA 
HETATM   14  O   UNK A   1      -8.699  10.217  66.160  1.00  0.00    -0.145 OA 
BRANCH  11  15
HETATM   15  C   UNK A   1     -11.902  12.373  67.901  1.00  0.00    -0.370 C  
BRANCH  15  16
HETATM   16  C   UNK A   1     -11.808  13.871  67.552  1.00  0.00    -0.431 C  
BRANCH  16  17
HETATM   17  C   UNK A   1     -10.334  14.271  67.702  1.00  0.00    -0.248 C  
BRANCH  17  18
HETATM   18  C   UNK A   1     -10.017  15.196  68.870  1.00  0.00    -0.227 C  
BRANCH  18  19
HETATM   19  S   UNK A   1     -11.630  15.766  69.528  1.00  0.00    -0.360 SA 
BRANCH  19  20
HETATM   20  C   UNK A   1     -11.403  15.352  71.290  1.00  0.00    -0.387 C  
BRANCH  20  21
HETATM   21  C   UNK A   1     -12.662  14.674  71.855  1.00  0.00    -0.332 C  
HETATM   22  N   UNK A   1     -13.895  15.003  71.068  1.00  0.00    -0.663 NA 
HETATM   23  C   UNK A   1     -12.857  15.182  73.284  1.00  0.00    -0.523 C  
HETATM   24  O   UNK A   1     -12.223  14.804  74.255  1.00  0.00    -0.552 OA 
HETATM   25  O   UNK A   1     -13.802  16.159  73.335  1.00  0.00    -0.558 OA 
HETATM   26  H1  UNK A   1     -14.730  14.553  71.443  1.00  0.00     0.000 HD 
HETATM   27  H2  UNK A   1     -13.770  14.779  70.081  1.00  0.00     0.000 HD 
ENDBRANCH  20  21
ENDBRANCH  19  20
ENDBRANCH  18  19
ENDBRANCH  17  18
ENDBRANCH  16  17
ENDBRANCH  15  16
ENDBRANCH  11  15
ENDBRANCH   7  10
ENDBRANCH   5   6
TORSDOF 9
ENDMDL
MODEL       12
REMARK 921   NORMALIZED FREE ENERGY PREDICTED BY IDOCK:   -5.89 KCAL/MOL
REMARK 922        TOTAL FREE ENERGY PREDICTED BY IDOCK:   -9.95 KCAL/MOL
REMARK 923 INTER-LIGAND FREE ENERGY PREDICTED BY IDOCK:   -8.56 KCAL/MOL
REMARK 924 INTRA-LIGAND FREE ENERGY PREDICTED BY IDOCK:   -1.39 KCAL/MOL
REMARK 927      BINDING AFFINITY PREDICTED BY RF-SCORE:    0.00 PKD
ROOT
HETATM    1  C   UNK A   0      -9.808   8.721  66.337  1.00  0.00    -0.352 C  
HETATM    2  C   UNK A   0      -9.803  10.230  66.272  1.00  0.00    -0.276 C  
HETATM    3  C   UNK A   0      -9.260  10.835  65.000  1.00  0.00    -0.241 C  
HETATM    4  C   UNK A   0      -9.487  10.881  67.597  1.00  0.00    -0.170 C  
HETATM    5  C   UNK A   0     -10.746  10.943  65.294  1.00  0.00    -0.194 C  
ENDROOT
BRANCH   5   6
HETATM    6  C   UNK A   0     -11.286  12.325  65.525  1.00  0.00    -0.332 C  
HETATM    7  N   UNK A   1     -10.475  13.372  65.154  1.00  0.00    -0.330 N  
HETATM    8  O   UNK A   0     -12.365  12.476  66.083  1.00  0.00    -0.596 OA 
HETATM    9  H   UNK A   1      -9.586  13.118  64.722  1.00  0.00     0.000 HD 
BRANCH   7  10
HETATM   10  C   UNK A   1     -10.718  14.737  65.294  1.00  0.00    -0.390 C  
HETATM   11  C   UNK A   1     -10.243  15.421  66.366  1.00  0.00    -0.296 C  
HETATM   12  C   UNK A   1     -11.545  15.605  64.364  1.00  0.00    -0.249 C  
HETATM   13  O   UNK A   1     -12.581  14.999  63.754  1.00  0.00    -0.776 OA 
HETATM   14  O   UNK A   1     -11.403  16.819  64.301  1.00  0.00    -1.170 OA 
BRANCH  11  15
HETATM   15  C   UNK A   1      -9.475  14.864  67.525  1.00  0.00    -0.200 C  
BRANCH  15  16
HETATM   16  C   UNK A   1      -8.010  14.468  67.255  1.00  0.00    -0.216 C  
BRANCH  16  17
HETATM   17  C   UNK A   1      -7.157  15.163  68.324  1.00  0.00    -0.114 C  
BRANCH  17  18
HETATM   18  C   UNK A   1      -7.814  16.347  69.024  1.00  0.00    -0.231 C  
BRANCH  18  19
HETATM   19  S   UNK A   1      -6.697  17.777  68.777  1.00  0.00    -0.244 SA 
BRANCH  19  20
HETATM   20  C   UNK A   1      -7.922  19.043  68.306  1.00  0.00    -0.315 C  
BRANCH  20  21
HETATM   21  C   UNK A   1      -8.561  18.702  66.950  1.00  0.00    -0.281 C  
HETATM   22  N   UNK A   1      -7.838  19.331  65.798  1.00  0.00    -0.451 NA 
HETATM   23  C   UNK A   1      -9.993  19.241  66.967  1.00  0.00    -0.357 C  
HETATM   24  O   UNK A   1     -10.933  18.713  67.539  1.00  0.00    -0.392 OA 
HETATM   25  O   UNK A   1     -10.083  20.423  66.302  1.00  0.00    -0.384 OA 
HETATM   26  H1  UNK A   1      -8.262  19.106  64.898  1.00  0.00     0.000 HD 
HETATM   27  H2  UNK A   1      -6.848  19.085  65.808  1.00  0.00     0.000 HD 
ENDBRANCH  20  21
ENDBRANCH  19  20
ENDBRANCH  18  19
ENDBRANCH  17  18
ENDBRANCH  16  17
ENDBRANCH  15  16
ENDBRANCH  11  15
ENDBRANCH   7  10
ENDBRANCH   5   6
TORSDOF 9
ENDMDL
MODEL       13
REMARK 921   NORMALIZED FREE ENERGY PREDICTED BY IDOCK:   -5.88 KCAL/MOL
REMARK 922        TOTAL FREE ENERGY PREDICTED BY IDOCK:   -9.95 KCAL/MOL
REMARK 923 INTER-LIGAND FREE ENERGY PREDICTED BY IDOCK:   -8.77 KCAL/MOL
REMARK 924 INTRA-LIGAND FREE ENERGY PREDICTED BY IDOCK:   -1.17 KCAL/MOL
REMARK 927      BINDING AFFINITY PREDICTED BY RF-SCORE:    0.00 PKD
ROOT
HETATM    1  C   UNK A   0     -14.000  15.632  72.536  1.00  0.00    -0.615 C  
HETATM    2  C   UNK A   0     -12.919  14.892  71.786  1.00  0.00    -0.417 C  
HETATM    3  C   UNK A   0     -13.045  13.388  71.758  1.00  0.00    -0.479 C  
HETATM    4  C   UNK A   0     -11.553  15.519  71.939  1.00  0.00    -0.525 C  
HETATM    5  C   UNK A   0     -13.270  14.173  70.477  1.00  0.00    -0.016 C  
ENDROOT
BRANCH   5   6
HETATM    6  C   UNK A   0     -12.284  13.946  69.369  1.00  0.00    -0.292 C  
HETATM    7  N   UNK A   1     -12.383  14.775  68.276  1.00  0.00    -0.586 N  
HETATM    8  O   UNK A   0     -11.492  13.014  69.435  1.00  0.00    -0.273 OA 
HETATM    9  H   UNK A   1     -13.101  15.498  68.327  1.00  0.00     0.000 HD 
BRANCH   7  10
HETATM   10  C   UNK A   1     -11.623  14.751  67.107  1.00  0.00    -0.359 C  
HETATM   11  C   UNK A   1     -10.444  15.419  67.030  1.00  0.00    -0.295 C  
HETATM   12  C   UNK A   1     -11.997  14.069  65.805  1.00  0.00    -0.404 C  
HETATM   13  O   UNK A   1     -13.312  14.021  65.518  1.00  0.00    -0.673 OA 
HETATM   14  O   UNK A   1     -11.162  13.740  64.973  1.00  0.00    -0.313 OA 
BRANCH  11  15
HETATM   15  C   UNK A   1      -9.820  16.275  68.089  1.00  0.00    -0.229 C  
BRANCH  15  16
HETATM   16  C   UNK A   1      -8.994  15.546  69.167  1.00  0.00    -0.256 C  
BRANCH  16  17
HETATM   17  C   UNK A   1      -7.649  16.279  69.265  1.00  0.00    -0.203 C  
BRANCH  17  18
HETATM   18  C   UNK A   1      -6.973  16.597  67.937  1.00  0.00    -0.144 C  
BRANCH  18  19
HETATM   19  S   UNK A   1      -6.725  18.412  67.907  1.00  0.00    -0.219 SA 
BRANCH  19  20
HETATM   20  C   UNK A   1      -7.037  18.733  66.139  1.00  0.00    -0.259 C  
BRANCH  20  21
HETATM   21  C   UNK A   1      -7.983  19.931  65.962  1.00  0.00    -0.314 C  
HETATM   22  N   UNK A   1      -7.583  21.108  66.800  1.00  0.00    -0.659 NA 
HETATM   23  C   UNK A   1      -9.379  19.486  66.399  1.00  0.00    -0.379 C  
HETATM   24  O   UNK A   1     -10.135  18.797  65.733  1.00  0.00    -0.519 OA 
HETATM   25  O   UNK A   1      -9.661  19.913  67.658  1.00  0.00    -0.345 OA 
HETATM   26  H1  UNK A   1      -8.211  21.904  66.683  1.00  0.00     0.000 HD 
HETATM   27  H2  UNK A   1      -6.616  21.376  66.619  1.00  0.00     0.000 HD 
ENDBRANCH  20  21
ENDBRANCH  19  20
ENDBRANCH  18  19
ENDBRANCH  17  18
ENDBRANCH  16  17
ENDBRANCH  15  16
ENDBRANCH  11  15
ENDBRANCH   7  10
ENDBRANCH   5   6
TORSDOF 9
ENDMDL
MODEL       14
REMARK 921   NORMALIZED FREE ENERGY PREDICTED BY IDOCK:   -5.87 KCAL/MOL
REMARK 922        TOTAL FREE ENERGY PREDICTED BY IDOCK:   -9.92 KCAL/MOL
REMARK 923 INTER-LIGAND FREE ENERGY PREDICTED BY IDOCK:   -8.87 KCAL/MOL
REMARK 924 INTRA-LIGAND FREE ENERGY PREDICTED BY IDOCK:   -1.05 KCAL/MOL
REMARK 927      BINDING AFFINITY PREDICTED BY RF-SCORE:    0.00 PKD
ROOT
HETATM    1  C   UNK A   0      -9.304   4.230  68.195  1.00  0.00    -0.204 C  
HETATM    2  C   UNK A   0      -9.674   5.646  68.569  1.00  0.00    -0.172 C  
HETATM    3  C   UNK A   0     -11.017   6.130  68.079  1.00  0.00    -0.399 C  
HETATM    4  C   UNK A   0      -8.495   6.591  68.557  1.00  0.00    -0.124 C  
HETATM    5  C   UNK A   0     -10.815   5.887  69.565  1.00  0.00    -0.442 C  
ENDROOT
BRANCH   5   6
HETATM    6  C   UNK A   0     -10.893   7.091  70.459  1.00  0.00    -0.251 C  
HETATM    7  N   UNK A   1     -11.644   8.149  70.002  1.00  0.00    -0.456 N  
HETATM    8  O   UNK A   0     -10.250   7.123  71.500  1.00  0.00    -0.198 OA 
HETATM    9  H   UNK A   1     -12.111   8.011  69.105  1.00  0.00     0.000 HD 
BRANCH   7  10
HETATM   10  C   UNK A   1     -11.845   9.385  70.612  1.00  0.00    -0.207 C  
HETATM   11  C   UNK A   1     -11.116  10.469  70.245  1.00  0.00    -0.359 C  
HETATM   12  C   UNK A   1     -12.806   9.683  71.748  1.00  0.00    -0.421 C  
HETATM   13  O   UNK A   1     -13.016   8.681  72.624  1.00  0.00    -0.352 OA 
HETATM   14  O   UNK A   1     -13.229  10.809  71.971  1.00  0.00    -0.484 OA 
BRANCH  11  15
HETATM   15  C   UNK A   1     -10.015  10.515  69.230  1.00  0.00    -0.233 C  
BRANCH  15  16
HETATM   16  C   UNK A   1     -10.263  11.384  67.981  1.00  0.00    -0.201 C  
BRANCH  16  17
HETATM   17  C   UNK A   1     -11.627  12.060  68.176  1.00  0.00    -0.403 C  
BRANCH  17  18
HETATM   18  C   UNK A   1     -11.584  13.535  68.556  1.00  0.00    -0.333 C  
BRANCH  18  19
HETATM   19  S   UNK A   1     -11.058  14.439  67.052  1.00  0.00    -0.323 SA 
BRANCH  19  20
HETATM   20  C   UNK A   1     -12.320  13.840  65.879  1.00  0.00    -0.476 C  
BRANCH  20  21
HETATM   21  C   UNK A   1     -11.711  13.635  64.483  1.00  0.00    -0.400 C  
HETATM   22  N   UNK A   1     -12.429  14.412  63.422  1.00  0.00    -1.068 NA 
HETATM   23  C   UNK A   1     -11.823  12.147  64.145  1.00  0.00    -0.404 C  
HETATM   24  O   UNK A   1     -11.097  11.272  64.586  1.00  0.00    -0.264 OA 
HETATM   25  O   UNK A   1     -12.878  11.907  63.322  1.00  0.00    -0.702 OA 
HETATM   26  H1  UNK A   1     -12.026  14.275  62.495  1.00  0.00     0.000 HD 
HETATM   27  H2  UNK A   1     -12.474  15.402  63.659  1.00  0.00     0.000 HD 
ENDBRANCH  20  21
ENDBRANCH  19  20
ENDBRANCH  18  19
ENDBRANCH  17  18
ENDBRANCH  16  17
ENDBRANCH  15  16
ENDBRANCH  11  15
ENDBRANCH   7  10
ENDBRANCH   5   6
TORSDOF 9
ENDMDL
MODEL       15
REMARK 921   NORMALIZED FREE ENERGY PREDICTED BY IDOCK:   -5.86 KCAL/MOL
REMARK 922        TOTAL FREE ENERGY PREDICTED BY IDOCK:   -9.91 KCAL/MOL
REMARK 923 INTER-LIGAND FREE ENERGY PREDICTED BY IDOCK:   -8.65 KCAL/MOL
REMARK 924 INTRA-LIGAND FREE ENERGY PREDICTED BY IDOCK:   -1.26 KCAL/MOL
REMARK 927      BINDING AFFINITY PREDICTED BY RF-SCORE:    0.00 PKD
ROOT
HETATM    1  C   UNK A   0      -8.118   8.744  66.260  1.00  0.00    -0.107 C  
HETATM    2  C   UNK A   0      -9.215   9.215  67.185  1.00  0.00    -0.162 C  
HETATM    3  C   UNK A   0     -10.429   8.323  67.279  1.00  0.00    -0.373 C  
HETATM    4  C   UNK A   0      -9.395  10.714  67.179  1.00  0.00    -0.172 C  
HETATM    5  C   UNK A   0      -9.498   8.433  68.475  1.00  0.00    -0.149 C  
ENDROOT
BRANCH   5   6
HETATM    6  C   UNK A   0     -10.068   9.060  69.714  1.00  0.00    -0.200 C  
HETATM    7  N   UNK A   1     -11.438   9.169  69.774  1.00  0.00    -0.434 N  
HETATM    8  O   UNK A   0      -9.320   9.506  70.574  1.00  0.00    -0.252 OA 
HETATM    9  H   UNK A   1     -11.952   8.784  68.981  1.00  0.00     0.000 HD 
BRANCH   7  10
HETATM   10  C   UNK A   1     -12.210   9.741  70.783  1.00  0.00    -0.256 C  
HETATM   11  C   UNK A   1     -12.499  11.067  70.771  1.00  0.00    -0.491 C  
HETATM   12  C   UNK A   1     -12.763   9.031  72.005  1.00  0.00    -0.398 C  
HETATM   13  O   UNK A   1     -12.017   8.021  72.492  1.00  0.00    -0.358 OA 
HETATM   14  O   UNK A   1     -13.730   9.452  72.626  1.00  0.00    -0.425 OA 
BRANCH  11  15
HETATM   15  C   UNK A   1     -12.035  12.083  69.773  1.00  0.00    -0.370 C  
BRANCH  15  16
HETATM   16  C   UNK A   1     -12.075  13.557  70.221  1.00  0.00    -0.425 C  
BRANCH  16  17
HETATM   17  C   UNK A   1     -12.064  14.410  68.945  1.00  0.00    -0.288 C  
BRANCH  17  18
HETATM   18  C   UNK A   1     -10.787  15.202  68.693  1.00  0.00    -0.245 C  
BRANCH  18  19
HETATM   19  S   UNK A   1     -10.502  15.158  66.883  1.00  0.00    -0.287 SA 
BRANCH  19  20
HETATM   20  C   UNK A   1     -11.577  13.754  66.439  1.00  0.00    -0.360 C  
BRANCH  20  21
HETATM   21  C   UNK A   1     -11.195  13.191  65.061  1.00  0.00    -0.298 C  
HETATM   22  N   UNK A   1     -10.214  14.062  64.336  1.00  0.00    -0.711 NA 
HETATM   23  C   UNK A   1     -12.474  13.112  64.225  1.00  0.00    -0.288 C  
HETATM   24  O   UNK A   1     -13.330  12.250  64.334  1.00  0.00    -0.786 OA 
HETATM   25  O   UNK A   1     -12.567  14.162  63.367  1.00  0.00    -0.818 OA 
HETATM   26  H1  UNK A   1      -9.961  13.689  63.421  1.00  0.00     0.000 HD 
HETATM   27  H2  UNK A   1      -9.385  14.232  64.904  1.00  0.00     0.000 HD 
ENDBRANCH  20  21
ENDBRANCH  19  20
ENDBRANCH  18  19
ENDBRANCH  17  18
ENDBRANCH  16  17
ENDBRANCH  15  16
ENDBRANCH  11  15
ENDBRANCH   7  10
ENDBRANCH   5   6
TORSDOF 9
ENDMDL
MODEL       16
REMARK 921   NORMALIZED FREE ENERGY PREDICTED BY IDOCK:   -5.84 KCAL/MOL
REMARK 922        TOTAL FREE ENERGY PREDICTED BY IDOCK:   -9.87 KCAL/MOL
REMARK 923 INTER-LIGAND FREE ENERGY PREDICTED BY IDOCK:   -8.63 KCAL/MOL
REMARK 924 INTRA-LIGAND FREE ENERGY PREDICTED BY IDOCK:   -1.24 KCAL/MOL
REMARK 927      BINDING AFFINITY PREDICTED BY RF-SCORE:    0.00 PKD
ROOT
HETATM    1  C   UNK A   0     -11.708  11.872  63.950  1.00  0.00    -0.509 C  
HETATM    2  C   UNK A   0     -10.899  11.878  65.225  1.00  0.00    -0.347 C  
HETATM    3  C   UNK A   0     -10.217  13.180  65.569  1.00  0.00    -0.297 C  
HETATM    4  C   UNK A   0     -10.180  10.575  65.480  1.00  0.00    -0.325 C  
HETATM    5  C   UNK A   0     -11.385  12.710  66.419  1.00  0.00    -0.381 C  
ENDROOT
BRANCH   5   6
HETATM    6  C   UNK A   0     -11.079  12.364  67.847  1.00  0.00    -0.239 C  
HETATM    7  N   UNK A   1     -12.133  11.922  68.613  1.00  0.00    -0.218 N  
HETATM    8  O   UNK A   0      -9.954  12.547  68.295  1.00  0.00    -0.221 OA 
HETATM    9  H   UNK A   1     -13.029  11.836  68.133  1.00  0.00     0.000 HD 
BRANCH   7  10
HETATM   10  C   UNK A   1     -12.128  11.576  69.963  1.00  0.00    -0.331 C  
HETATM   11  C   UNK A   1     -12.421  12.495  70.917  1.00  0.00    -0.361 C  
HETATM   12  C   UNK A   1     -11.760  10.224  70.544  1.00  0.00    -0.331 C  
HETATM   13  O   UNK A   1     -10.827   9.523  69.871  1.00  0.00    -0.227 OA 
HETATM   14  O   UNK A   1     -12.142   9.859  71.648  1.00  0.00    -0.389 OA 
BRANCH  11  15
HETATM   15  C   UNK A   1     -12.733  13.946  70.709  1.00  0.00    -0.383 C  
BRANCH  15  16
HETATM   16  C   UNK A   1     -11.838  14.956  71.453  1.00  0.00    -0.404 C  
BRANCH  16  17
HETATM   17  C   UNK A   1     -11.006  15.681  70.387  1.00  0.00    -0.366 C  
BRANCH  17  18
HETATM   18  C   UNK A   1     -11.645  15.782  69.007  1.00  0.00    -0.400 C  
BRANCH  18  19
HETATM   19  S   UNK A   1     -10.305  16.256  67.851  1.00  0.00    -0.294 SA 
BRANCH  19  20
HETATM   20  C   UNK A   1     -10.524  18.067  67.858  1.00  0.00    -0.396 C  
BRANCH  20  21
HETATM   21  C   UNK A   1     -10.317  18.645  66.449  1.00  0.00    -0.432 C  
HETATM   22  N   UNK A   1     -10.528  17.625  65.372  1.00  0.00    -0.621 NA 
HETATM   23  C   UNK A   1      -8.872  19.140  66.362  1.00  0.00    -0.338 C  
HETATM   24  O   UNK A   1      -8.459  20.181  66.845  1.00  0.00    -0.309 OA 
HETATM   25  O   UNK A   1      -8.082  18.243  65.715  1.00  0.00    -0.513 OA 
HETATM   26  H1  UNK A   1     -10.390  18.008  64.437  1.00  0.00     0.000 HD 
HETATM   27  H2  UNK A   1     -11.445  17.186  65.457  1.00  0.00     0.000 HD 
ENDBRANCH  20  21
ENDBRANCH  19  20
ENDBRANCH  18  19
ENDBRANCH  17  18
ENDBRANCH  16  17
ENDBRANCH  15  16
ENDBRANCH  11  15
ENDBRANCH   7  10
ENDBRANCH   5   6
TORSDOF 9
ENDMDL
MODEL       17
REMARK 921   NORMALIZED FREE ENERGY PREDICTED BY IDOCK:   -5.84 KCAL/MOL
REMARK 922        TOTAL FREE ENERGY PREDICTED BY IDOCK:   -9.87 KCAL/MOL
REMARK 923 INTER-LIGAND FREE ENERGY PREDICTED BY IDOCK:   -8.92 KCAL/MOL
REMARK 924 INTRA-LIGAND FREE ENERGY PREDICTED BY IDOCK:   -0.95 KCAL/MOL
REMARK 927      BINDING AFFINITY PREDICTED BY RF-SCORE:    0.00 PKD
ROOT
HETATM    1  C   UNK A   0     -11.549  16.026  70.974  1.00  0.00    -0.472 C  
HETATM    2  C   UNK A   0     -11.163  15.112  69.836  1.00  0.00    -0.305 C  
HETATM    3  C   UNK A   0     -11.952  13.830  69.720  1.00  0.00    -0.406 C  
HETATM    4  C   UNK A   0      -9.677  15.096  69.565  1.00  0.00    -0.172 C  
HETATM    5  C   UNK A   0     -12.138  14.911  68.669  1.00  0.00    -0.205 C  
ENDROOT
BRANCH   5   6
HETATM    6  C   UNK A   0     -11.700  14.573  67.274  1.00  0.00    -0.406 C  
HETATM    7  N   UNK A   1     -12.143  13.375  66.763  1.00  0.00    -0.386 N  
HETATM    8  O   UNK A   0     -10.929  15.314  66.677  1.00  0.00    -0.313 OA 
HETATM    9  H   UNK A   1     -12.760  12.832  67.367  1.00  0.00     0.000 HD 
BRANCH   7  10
HETATM   10  C   UNK A   1     -11.853  12.811  65.522  1.00  0.00    -0.422 C  
HETATM   11  C   UNK A   1     -10.969  11.787  65.412  1.00  0.00    -0.352 C  
HETATM   12  C   UNK A   1     -12.398  13.262  64.179  1.00  0.00    -0.341 C  
HETATM   13  O   UNK A   1     -12.653  14.578  64.055  1.00  0.00    -0.797 OA 
HETATM   14  O   UNK A   1     -12.437  12.521  63.206  1.00  0.00    -0.626 OA 
BRANCH  11  15
HETATM   15  C   UNK A   1     -10.173  11.160  66.515  1.00  0.00    -0.275 C  
BRANCH  15  16
HETATM   16  C   UNK A   1     -10.825   9.971  67.247  1.00  0.00    -0.284 C  
BRANCH  16  17
HETATM   17  C   UNK A   1     -10.629  10.213  68.750  1.00  0.00    -0.236 C  
BRANCH  17  18
HETATM   18  C   UNK A   1      -9.264   9.826  69.307  1.00  0.00    -0.192 C  
BRANCH  18  19
HETATM   19  S   UNK A   1      -9.573   9.057  70.941  1.00  0.00    -0.280 SA 
BRANCH  19  20
HETATM   20  C   UNK A   1     -11.290   8.495  70.693  1.00  0.00    -0.241 C  
BRANCH  20  21
HETATM   21  C   UNK A   1     -12.036   8.417  72.035  1.00  0.00    -0.357 C  
HETATM   22  N   UNK A   1     -12.556   7.042  72.326  1.00  0.00    -0.528 NA 
HETATM   23  C   UNK A   1     -13.228   9.372  71.956  1.00  0.00    -0.449 C  
HETATM   24  O   UNK A   1     -13.162  10.585  72.067  1.00  0.00    -0.464 OA 
HETATM   25  O   UNK A   1     -14.380   8.701  71.691  1.00  0.00    -0.415 OA 
HETATM   26  H1  UNK A   1     -13.051   6.991  73.216  1.00  0.00     0.000 HD 
HETATM   27  H2  UNK A   1     -11.808   6.350  72.283  1.00  0.00     0.000 HD 
ENDBRANCH  20  21
ENDBRANCH  19  20
ENDBRANCH  18  19
ENDBRANCH  17  18
ENDBRANCH  16  17
ENDBRANCH  15  16
ENDBRANCH  11  15
ENDBRANCH   7  10
ENDBRANCH   5   6
TORSDOF 9
ENDMDL
MODEL       18
REMARK 921   NORMALIZED FREE ENERGY PREDICTED BY IDOCK:   -5.83 KCAL/MOL
REMARK 922        TOTAL FREE ENERGY PREDICTED BY IDOCK:   -9.86 KCAL/MOL
REMARK 923 INTER-LIGAND FREE ENERGY PREDICTED BY IDOCK:   -8.76 KCAL/MOL
REMARK 924 INTRA-LIGAND FREE ENERGY PREDICTED BY IDOCK:   -1.10 KCAL/MOL
REMARK 927      BINDING AFFINITY PREDICTED BY RF-SCORE:    0.00 PKD
ROOT
HETATM    1  C   UNK A   0     -10.282  19.994  68.837  1.00  0.00    -0.348 C  
HETATM    2  C   UNK A   0      -9.876  19.211  67.611  1.00  0.00    -0.412 C  
HETATM    3  C   UNK A   0      -8.445  18.732  67.576  1.00  0.00    -0.288 C  
HETATM    4  C   UNK A   0     -10.520  19.717  66.342  1.00  0.00    -0.618 C  
HETATM    5  C   UNK A   0      -9.562  17.715  67.745  1.00  0.00    -0.267 C  
ENDROOT
BRANCH   5   6
HETATM    6  C   UNK A   0      -9.745  16.729  66.629  1.00  0.00    -0.269 C  
HETATM    7  N   UNK A   1     -10.888  15.963  66.665  1.00  0.00    -0.266 N  
HETATM    8  O   UNK A   0      -8.869  16.588  65.785  1.00  0.00    -0.474 OA 
HETATM    9  H   UNK A   1     -11.530  16.155  67.435  1.00  0.00     0.000 HD 
BRANCH   7  10
HETATM   10  C   UNK A   1     -11.276  14.958  65.782  1.00  0.00    -0.334 C  
HETATM   11  C   UNK A   1     -10.978  13.658  66.034  1.00  0.00    -0.288 C  
HETATM   12  C   UNK A   1     -11.993  15.149  64.459  1.00  0.00    -0.319 C  
HETATM   13  O   UNK A   1     -11.712  16.285  63.792  1.00  0.00    -0.969 OA 
HETATM   14  O   UNK A   1     -12.647  14.259  63.933  1.00  0.00    -0.787 OA 
BRANCH  11  15
HETATM   15  C   UNK A   1     -10.196  13.118  67.193  1.00  0.00    -0.244 C  
BRANCH  15  16
HETATM   16  C   UNK A   1      -8.661  13.129  67.054  1.00  0.00    -0.193 C  
BRANCH  16  17
HETATM   17  C   UNK A   1      -8.171  11.725  67.436  1.00  0.00    -0.160 C  
BRANCH  17  18
HETATM   18  C   UNK A   1      -8.977  10.567  66.860  1.00  0.00    -0.140 C  
BRANCH  18  19
HETATM   19  S   UNK A   1      -9.029   9.278  68.162  1.00  0.00    -0.128 SA 
BRANCH  19  20
HETATM   20  C   UNK A   1      -9.856  10.218  69.488  1.00  0.00    -0.220 C  
BRANCH  20  21
HETATM   21  C   UNK A   1     -11.340   9.829  69.586  1.00  0.00    -0.122 C  
HETATM   22  N   UNK A   1     -12.204  10.614  68.646  1.00  0.00    -0.814 NA 
HETATM   23  C   UNK A   1     -11.800  10.122  71.015  1.00  0.00    -0.383 C  
HETATM   24  O   UNK A   1     -11.557   9.424  71.986  1.00  0.00    -0.342 OA 
HETATM   25  O   UNK A   1     -12.479  11.298  71.083  1.00  0.00    -0.379 OA 
HETATM   26  H1  UNK A   1     -13.189  10.356  68.711  1.00  0.00     0.000 HD 
HETATM   27  H2  UNK A   1     -11.867  10.535  67.686  1.00  0.00     0.000 HD 
ENDBRANCH  20  21
ENDBRANCH  19  20
ENDBRANCH  18  19
ENDBRANCH  17  18
ENDBRANCH  16  17
ENDBRANCH  15  16
ENDBRANCH  11  15
ENDBRANCH   7  10
ENDBRANCH   5   6
TORSDOF 9
ENDMDL
MODEL       19
REMARK 921   NORMALIZED FREE ENERGY PREDICTED BY IDOCK:   -5.75 KCAL/MOL
REMARK 922        TOTAL FREE ENERGY PREDICTED BY IDOCK:   -9.74 KCAL/MOL
REMARK 923 INTER-LIGAND FREE ENERGY PREDICTED BY IDOCK:   -8.73 KCAL/MOL
REMARK 924 INTRA-LIGAND FREE ENERGY PREDICTED BY IDOCK:   -1.01 KCAL/MOL
REMARK 927      BINDING AFFINITY PREDICTED BY RF-SCORE:    0.00 PKD
ROOT
HETATM    1  C   UNK A   0     -10.382   7.278  72.805  1.00  0.00    -0.282 C  
HETATM    2  C   UNK A   0     -11.292   7.920  71.784  1.00  0.00    -0.309 C  
HETATM    3  C   UNK A   0     -12.735   8.081  72.195  1.00  0.00    -0.293 C  
HETATM    4  C   UNK A   0     -10.963   7.526  70.364  1.00  0.00    -0.264 C  
HETATM    5  C   UNK A   0     -11.863   9.317  72.060  1.00  0.00    -0.370 C  
ENDROOT
BRANCH   5   6
HETATM    6  C   UNK A   0     -12.235  10.287  70.977  1.00  0.00    -0.384 C  
HETATM    7  N   UNK A   1     -11.212  11.033  70.439  1.00  0.00    -0.462 N  
HETATM    8  O   UNK A   0     -13.410  10.433  70.663  1.00  0.00    -0.288 OA 
HETATM    9  H   UNK A   1     -10.279  10.838  70.803  1.00  0.00     0.000 HD 
BRANCH   7  10
HETATM   10  C   UNK A   1     -11.292  12.020  69.459  1.00  0.00    -0.228 C  
HETATM   11  C   UNK A   1     -10.678  11.861  68.260  1.00  0.00    -0.253 C  
HETATM   12  C   UNK A   1     -11.982  13.365  69.591  1.00  0.00    -0.324 C  
HETATM   13  O   UNK A   1     -11.978  13.915  70.821  1.00  0.00    -0.326 OA 
HETATM   14  O   UNK A   1     -12.363  14.005  68.620  1.00  0.00    -0.271 OA 
BRANCH  11  15
HETATM   15  C   UNK A   1      -9.830  10.705  67.825  1.00  0.00    -0.187 C  
BRANCH  15  16
HETATM   16  C   UNK A   1     -10.084  10.158  66.407  1.00  0.00    -0.300 C  
BRANCH  16  17
HETATM   17  C   UNK A   1      -8.894  10.596  65.542  1.00  0.00    -0.202 C  
BRANCH  17  18
HETATM   18  C   UNK A   1      -9.195  10.797  64.062  1.00  0.00    -0.227 C  
BRANCH  18  19
HETATM   19  S   UNK A   1     -10.867  11.540  63.971  1.00  0.00    -0.396 SA 
BRANCH  19  20
HETATM   20  C   UNK A   1     -10.454  13.270  64.372  1.00  0.00    -0.404 C  
BRANCH  20  21
HETATM   21  C   UNK A   1     -11.730  14.093  64.609  1.00  0.00    -0.417 C  
HETATM   22  N   UNK A   1     -12.555  14.245  63.367  1.00  0.00    -1.004 NA 
HETATM   23  C   UNK A   1     -11.301  15.487  65.071  1.00  0.00    -0.299 C  
HETATM   24  O   UNK A   1     -10.919  15.765  66.195  1.00  0.00    -0.280 OA 
HETATM   25  O   UNK A   1     -11.350  16.382  64.048  1.00  0.00    -0.964 OA 
HETATM   26  H1  UNK A   1     -13.402  14.791  63.523  1.00  0.00     0.000 HD 
HETATM   27  H2  UNK A   1     -12.776  13.336  62.960  1.00  0.00     0.000 HD 
ENDBRANCH  20  21
ENDBRANCH  19  20
ENDBRANCH  18  19
ENDBRANCH  17  18
ENDBRANCH  16  17
ENDBRANCH  15  16
ENDBRANCH  11  15
ENDBRANCH   7  10
ENDBRANCH   5   6
TORSDOF 9
ENDMDL
MODEL       20
REMARK 921   NORMALIZED FREE ENERGY PREDICTED BY IDOCK:   -5.75 KCAL/MOL
REMARK 922        TOTAL FREE ENERGY PREDICTED BY IDOCK:   -9.74 KCAL/MOL
REMARK 923 INTER-LIGAND FREE ENERGY PREDICTED BY IDOCK:   -9.03 KCAL/MOL
REMARK 924 INTRA-LIGAND FREE ENERGY PREDICTED BY IDOCK:   -0.71 KCAL/MOL
REMARK 927      BINDING AFFINITY PREDICTED BY RF-SCORE:    0.00 PKD
ROOT
HETATM    1  C   UNK A   0     -10.385  19.743  68.273  1.00  0.00    -0.536 C  
HETATM    2  C   UNK A   0      -9.985  18.576  67.402  1.00  0.00    -0.351 C  
HETATM    3  C   UNK A   0      -8.670  17.916  67.744  1.00  0.00    -0.250 C  
HETATM    4  C   UNK A   0     -10.370  18.755  65.953  1.00  0.00    -0.385 C  
HETATM    5  C   UNK A   0      -9.965  17.163  68.001  1.00  0.00    -0.295 C  
ENDROOT
BRANCH   5   6
HETATM    6  C   UNK A   0     -10.189  15.919  67.193  1.00  0.00    -0.278 C  
HETATM    7  N   UNK A   1     -11.396  15.282  67.365  1.00  0.00    -0.318 N  
HETATM    8  O   UNK A   0      -9.294  15.481  66.481  1.00  0.00    -0.239 OA 
HETATM    9  H   UNK A   1     -12.051  15.731  68.007  1.00  0.00     0.000 HD 
BRANCH   7  10
HETATM   10  C   UNK A   1     -11.836  14.100  66.772  1.00  0.00    -0.425 C  
HETATM   11  C   UNK A   1     -11.646  12.903  67.382  1.00  0.00    -0.414 C  
HETATM   12  C   UNK A   1     -12.499  13.968  65.414  1.00  0.00    -0.498 C  
HETATM   13  O   UNK A   1     -12.113  14.854  64.476  1.00  0.00    -0.458 OA 
HETATM   14  O   UNK A   1     -13.205  13.012  65.119  1.00  0.00    -0.703 OA 
BRANCH  11  15
HETATM   15  C   UNK A   1     -10.942  12.653  68.680  1.00  0.00    -0.292 C  
BRANCH  15  16
HETATM   16  C   UNK A   1     -11.822  12.605  69.945  1.00  0.00    -0.364 C  
BRANCH  16  17
HETATM   17  C   UNK A   1     -11.853  11.142  70.408  1.00  0.00    -0.462 C  
BRANCH  17  18
HETATM   18  C   UNK A   1     -13.128  10.704  71.119  1.00  0.00    -0.322 C  
BRANCH  18  19
HETATM   19  S   UNK A   1     -12.634   9.398  72.305  1.00  0.00    -0.251 SA 
BRANCH  19  20
HETATM   20  C   UNK A   1     -11.620   8.355  71.205  1.00  0.00    -0.283 C  
BRANCH  20  21
HETATM   21  C   UNK A   1     -12.219   6.944  71.090  1.00  0.00    -0.379 C  
HETATM   22  N   UNK A   1     -12.235   6.217  72.400  1.00  0.00    -0.540 NA 
HETATM   23  C   UNK A   1     -11.348   6.151  70.114  1.00  0.00    -0.363 C  
HETATM   24  O   UNK A   1     -11.380   6.260  68.899  1.00  0.00    -0.373 OA 
HETATM   25  O   UNK A   1     -10.484   5.337  70.775  1.00  0.00    -0.253 OA 
HETATM   26  H1  UNK A   1     -12.632   5.281  72.324  1.00  0.00     0.000 HD 
HETATM   27  H2  UNK A   1     -12.716   6.762  73.116  1.00  0.00     0.000 HD 
ENDBRANCH  20  21
ENDBRANCH  19  20
ENDBRANCH  18  19
ENDBRANCH  17  18
ENDBRANCH  16  17
ENDBRANCH  15  16
ENDBRANCH  11  15
ENDBRANCH   7  10
ENDBRANCH   5   6
TORSDOF 9
ENDMDL
MODEL       21
REMARK 921   NORMALIZED FREE ENERGY PREDICTED BY IDOCK:   -5.74 KCAL/MOL
REMARK 922        TOTAL FREE ENERGY PREDICTED BY IDOCK:   -9.73 KCAL/MOL
REMARK 923 INTER-LIGAND FREE ENERGY PREDICTED BY IDOCK:   -8.54 KCAL/MOL
REMARK 924 INTRA-LIGAND FREE ENERGY PREDICTED BY IDOCK:   -1.18 KCAL/MOL
REMARK 927      BINDING AFFINITY PREDICTED BY RF-SCORE:    0.00 PKD
ROOT
HETATM    1  C   UNK A   0     -13.976   8.531  72.237  1.00  0.00    -0.423 C  
HETATM    2  C   UNK A   0     -12.599   8.851  71.706  1.00  0.00    -0.420 C  
HETATM    3  C   UNK A   0     -11.443   8.226  72.448  1.00  0.00    -0.463 C  
HETATM    4  C   UNK A   0     -12.474  10.267  71.194  1.00  0.00    -0.495 C  
HETATM    5  C   UNK A   0     -11.772   7.741  71.046  1.00  0.00    -0.299 C  
ENDROOT
BRANCH   5   6
HETATM    6  C   UNK A   0     -10.739   7.997  69.988  1.00  0.00    -0.244 C  
HETATM    7  N   UNK A   1     -11.159   7.902  68.681  1.00  0.00    -0.378 N  
HETATM    8  O   UNK A   0      -9.575   8.207  70.305  1.00  0.00    -0.169 OA 
HETATM    9  H   UNK A   1     -12.149   7.695  68.544  1.00  0.00     0.000 HD 
BRANCH   7  10
HETATM   10  C   UNK A   1     -10.400   8.052  67.522  1.00  0.00    -0.261 C  
HETATM   11  C   UNK A   1     -10.245   9.271  66.946  1.00  0.00    -0.327 C  
HETATM   12  C   UNK A   1      -9.722   6.943  66.740  1.00  0.00    -0.177 C  
HETATM   13  O   UNK A   1     -10.341   5.747  66.750  1.00  0.00    -0.205 OA 
HETATM   14  O   UNK A   1      -8.773   7.151  65.995  1.00  0.00    -0.147 OA 
BRANCH  11  15
HETATM   15  C   UNK A   1     -10.854  10.565  67.392  1.00  0.00    -0.349 C  
BRANCH  15  16
HETATM   16  C   UNK A   1     -10.035  11.404  68.392  1.00  0.00    -0.206 C  
BRANCH  16  17
HETATM   17  C   UNK A   1     -10.778  12.736  68.566  1.00  0.00    -0.275 C  
BRANCH  17  18
HETATM   18  C   UNK A   1     -10.059  13.967  68.028  1.00  0.00    -0.244 C  
BRANCH  18  19
HETATM   19  S   UNK A   1     -11.361  15.085  67.387  1.00  0.00    -0.307 SA 
BRANCH  19  20
HETATM   20  C   UNK A   1     -12.162  13.967  66.190  1.00  0.00    -0.464 C  
BRANCH  20  21
HETATM   21  C   UNK A   1     -11.461  14.042  64.823  1.00  0.00    -0.369 C  
HETATM   22  N   UNK A   1     -12.066  15.077  63.923  1.00  0.00    -0.942 NA 
HETATM   23  C   UNK A   1     -11.613  12.676  64.151  1.00  0.00    -0.394 C  
HETATM   24  O   UNK A   1     -10.959  11.684  64.427  1.00  0.00    -0.319 OA 
HETATM   25  O   UNK A   1     -12.614  12.688  63.232  1.00  0.00    -0.669 OA 
HETATM   26  H1  UNK A   1     -11.601  15.127  63.016  1.00  0.00     0.000 HD 
HETATM   27  H2  UNK A   1     -12.084  15.991  64.376  1.00  0.00     0.000 HD 
ENDBRANCH  20  21
ENDBRANCH  19  20
ENDBRANCH  18  19
ENDBRANCH  17  18
ENDBRANCH  16  17
ENDBRANCH  15  16
ENDBRANCH  11  15
ENDBRANCH   7  10
ENDBRANCH   5   6
TORSDOF 9
ENDMDL
MODEL       22
REMARK 921   NORMALIZED FREE ENERGY PREDICTED BY IDOCK:   -5.73 KCAL/MOL
REMARK 922        TOTAL FREE ENERGY PREDICTED BY IDOCK:   -9.71 KCAL/MOL
REMARK 923 INTER-LIGAND FREE ENERGY PREDICTED BY IDOCK:   -8.53 KCAL/MOL
REMARK 924 INTRA-LIGAND FREE ENERGY PREDICTED BY IDOCK:   -1.19 KCAL/MOL
REMARK 927      BINDING AFFINITY PREDICTED BY RF-SCORE:    0.00 PKD
ROOT
HETATM    1  C   UNK A   0      -8.672   6.722  65.646  1.00  0.00    -0.086 C  
HETATM    2  C   UNK A   0      -9.419   7.404  66.768  1.00  0.00    -0.226 C  
HETATM    3  C   UNK A   0     -10.849   6.965  66.972  1.00  0.00    -0.436 C  
HETATM    4  C   UNK A   0      -9.062   8.864  66.919  1.00  0.00    -0.163 C  
HETATM    5  C   UNK A   0      -9.805   6.596  68.013  1.00  0.00    -0.140 C  
ENDROOT
BRANCH   5   6
HETATM    6  C   UNK A   0      -9.971   7.204  69.375  1.00  0.00    -0.164 C  
HETATM    7  N   UNK A   1     -11.165   7.841  69.624  1.00  0.00    -0.449 N  
HETATM    8  O   UNK A   0      -9.044   7.179  70.174  1.00  0.00    -0.151 OA 
HETATM    9  H   UNK A   1     -11.850   7.817  68.868  1.00  0.00     0.000 HD 
BRANCH   7  10
HETATM   10  C   UNK A   1     -11.554   8.514  70.780  1.00  0.00    -0.231 C  
HETATM   11  C   UNK A   1     -11.446   9.864  70.868  1.00  0.00    -0.456 C  
HETATM   12  C   UNK A   1     -12.070   7.883  72.059  1.00  0.00    -0.320 C  
HETATM   13  O   UNK A   1     -11.575   6.668  72.362  1.00  0.00    -0.272 OA 
HETATM   14  O   UNK A   1     -12.753   8.500  72.866  1.00  0.00    -0.259 OA 
BRANCH  11  15
HETATM   15  C   UNK A   1     -10.887  10.795  69.835  1.00  0.00    -0.264 C  
BRANCH  15  16
HETATM   16  C   UNK A   1     -11.883  11.356  68.801  1.00  0.00    -0.388 C  
BRANCH  16  17
HETATM   17  C   UNK A   1     -11.053  12.086  67.737  1.00  0.00    -0.303 C  
BRANCH  17  18
HETATM   18  C   UNK A   1     -11.772  12.378  66.425  1.00  0.00    -0.391 C  
BRANCH  18  19
HETATM   19  S   UNK A   1     -10.566  12.038  65.089  1.00  0.00    -0.300 SA 
BRANCH  19  20
HETATM   20  C   UNK A   1     -10.415  13.713  64.382  1.00  0.00    -0.300 C  
BRANCH  20  21
HETATM   21  C   UNK A   1     -11.578  14.605  64.845  1.00  0.00    -0.405 C  
HETATM   22  N   UNK A   1     -12.631  14.771  63.791  1.00  0.00    -0.986 NA 
HETATM   23  C   UNK A   1     -11.002  15.985  65.166  1.00  0.00    -0.348 C  
HETATM   24  O   UNK A   1     -10.387  16.267  66.181  1.00  0.00    -0.314 OA 
HETATM   25  O   UNK A   1     -11.216  16.858  64.147  1.00  0.00    -1.176 OA 
HETATM   26  H1  UNK A   1     -13.403  15.363  64.097  1.00  0.00     0.000 HD 
HETATM   27  H2  UNK A   1     -12.971  13.866  63.466  1.00  0.00     0.000 HD 
ENDBRANCH  20  21
ENDBRANCH  19  20
ENDBRANCH  18  19
ENDBRANCH  17  18
ENDBRANCH  16  17
ENDBRANCH  15  16
ENDBRANCH  11  15
ENDBRANCH   7  10
ENDBRANCH   5   6
TORSDOF 9
ENDMDL
MODEL       23
REMARK 921   NORMALIZED FREE ENERGY PREDICTED BY IDOCK:   -5.73 KCAL/MOL
REMARK 922        TOTAL FREE ENERGY PREDICTED BY IDOCK:   -9.71 KCAL/MOL
REMARK 923 INTER-LIGAND FREE ENERGY PREDICTED BY IDOCK:   -8.93 KCAL/MOL
REMARK 924 INTRA-LIGAND FREE ENERGY PREDICTED BY IDOCK:   -0.78 KCAL/MOL
REMARK 927      BINDING AFFINITY PREDICTED BY RF-SCORE:    0.00 PKD
ROOT
HETATM    1  C   UNK A   0      -9.577   4.071  69.236  1.00  0.00    -0.247 C  
HETATM    2  C   UNK A   0      -9.824   5.552  69.400  1.00  0.00    -0.240 C  
HETATM    3  C   UNK A   0     -11.023   6.107  68.670  1.00  0.00    -0.415 C  
HETATM    4  C   UNK A   0      -8.552   6.363  69.461  1.00  0.00    -0.133 C  
HETATM    5  C   UNK A   0     -11.053   6.026  70.187  1.00  0.00    -0.432 C  
ENDROOT
BRANCH   5   6
HETATM    6  C   UNK A   0     -11.107   7.331  70.927  1.00  0.00    -0.261 C  
HETATM    7  N   UNK A   1     -11.964   8.285  70.430  1.00  0.00    -0.465 N  
HETATM    8  O   UNK A   0     -10.361   7.528  71.877  1.00  0.00    -0.190 OA 
HETATM    9  H   UNK A   1     -12.515   8.011  69.616  1.00  0.00     0.000 HD 
BRANCH   7  10
HETATM   10  C   UNK A   1     -12.173   9.580  70.901  1.00  0.00    -0.254 C  
HETATM   11  C   UNK A   1     -11.514  10.633  70.355  1.00  0.00    -0.422 C  
HETATM   12  C   UNK A   1     -13.066   9.984  72.059  1.00  0.00    -0.441 C  
HETATM   13  O   UNK A   1     -13.176   9.090  73.061  1.00  0.00    -0.306 OA 
HETATM   14  O   UNK A   1     -13.518  11.115  72.175  1.00  0.00    -0.380 OA 
BRANCH  11  15
HETATM   15  C   UNK A   1     -10.487  10.590  69.265  1.00  0.00    -0.258 C  
BRANCH  15  16
HETATM   16  C   UNK A   1     -11.012  10.392  67.830  1.00  0.00    -0.369 C  
BRANCH  16  17
HETATM   17  C   UNK A   1     -11.446  11.774  67.322  1.00  0.00    -0.373 C  
BRANCH  17  18
HETATM   18  C   UNK A   1     -11.645  11.890  65.815  1.00  0.00    -0.215 C  
BRANCH  18  19
HETATM   19  S   UNK A   1     -12.459  13.505  65.525  1.00  0.00    -0.482 SA 
BRANCH  19  20
HETATM   20  C   UNK A   1     -11.330  14.588  66.462  1.00  0.00    -0.352 C  
BRANCH  20  21
HETATM   21  C   UNK A   1     -10.184  15.084  65.566  1.00  0.00    -0.378 C  
HETATM   22  N   UNK A   1      -8.895  15.241  66.314  1.00  0.00    -0.442 NA 
HETATM   23  C   UNK A   1     -10.587  16.452  65.015  1.00  0.00    -0.193 C  
HETATM   24  O   UNK A   1     -11.374  16.635  64.102  1.00  0.00    -1.141 OA 
HETATM   25  O   UNK A   1      -9.992  17.458  65.710  1.00  0.00    -0.539 OA 
HETATM   26  H1  UNK A   1      -8.134  15.570  65.719  1.00  0.00     0.000 HD 
HETATM   27  H2  UNK A   1      -8.639  14.376  66.790  1.00  0.00     0.000 HD 
ENDBRANCH  20  21
ENDBRANCH  19  20
ENDBRANCH  18  19
ENDBRANCH  17  18
ENDBRANCH  16  17
ENDBRANCH  15  16
ENDBRANCH  11  15
ENDBRANCH   7  10
ENDBRANCH   5   6
TORSDOF 9
ENDMDL
MODEL       24
REMARK 921   NORMALIZED FREE ENERGY PREDICTED BY IDOCK:   -5.72 KCAL/MOL
REMARK 922        TOTAL FREE ENERGY PREDICTED BY IDOCK:   -9.70 KCAL/MOL
REMARK 923 INTER-LIGAND FREE ENERGY PREDICTED BY IDOCK:   -8.74 KCAL/MOL
REMARK 924 INTRA-LIGAND FREE ENERGY PREDICTED BY IDOCK:   -0.96 KCAL/MOL
REMARK 927      BINDING AFFINITY PREDICTED BY RF-SCORE:    0.00 PKD
ROOT
HETATM    1  C   UNK A   0     -10.023   4.647  71.275  1.00  0.00    -0.268 C  
HETATM    2  C   UNK A   0     -10.107   6.053  70.728  1.00  0.00    -0.248 C  
HETATM    3  C   UNK A   0     -11.335   6.371  69.911  1.00  0.00    -0.500 C  
HETATM    4  C   UNK A   0      -8.768   6.607  70.303  1.00  0.00    -0.147 C  
HETATM    5  C   UNK A   0     -11.172   7.011  71.279  1.00  0.00    -0.296 C  
ENDROOT
BRANCH   5   6
HETATM    6  C   UNK A   0     -11.007   8.502  71.308  1.00  0.00    -0.256 C  
HETATM    7  N   UNK A   1     -11.628   9.210  70.304  1.00  0.00    -0.449 N  
HETATM    8  O   UNK A   0     -10.290   9.023  72.153  1.00  0.00    -0.316 OA 
HETATM    9  H   UNK A   1     -12.175   8.659  69.642  1.00  0.00     0.000 HD 
BRANCH   7  10
HETATM   10  C   UNK A   1     -11.601  10.585  70.080  1.00  0.00    -0.326 C  
HETATM   11  C   UNK A   1     -10.736  11.127  69.186  1.00  0.00    -0.262 C  
HETATM   12  C   UNK A   1     -12.436  11.630  70.795  1.00  0.00    -0.330 C  
HETATM   13  O   UNK A   1     -12.747  11.364  72.078  1.00  0.00    -0.261 OA 
HETATM   14  O   UNK A   1     -12.668  12.729  70.309  1.00  0.00    -0.036 OA 
BRANCH  11  15
HETATM   15  C   UNK A   1      -9.702  10.404  68.377  1.00  0.00    -0.167 C  
BRANCH  15  16
HETATM   16  C   UNK A   1     -10.167   9.813  67.033  1.00  0.00    -0.292 C  
BRANCH  16  17
HETATM   17  C   UNK A   1     -10.459  10.999  66.103  1.00  0.00    -0.301 C  
BRANCH  17  18
HETATM   18  C   UNK A   1     -10.128  10.780  64.632  1.00  0.00    -0.344 C  
BRANCH  18  19
HETATM   19  S   UNK A   1     -11.152  11.972  63.690  1.00  0.00    -0.466 SA 
BRANCH  19  20
HETATM   20  C   UNK A   1     -10.533  13.533  64.400  1.00  0.00    -0.346 C  
BRANCH  20  21
HETATM   21  C   UNK A   1     -11.698  14.480  64.729  1.00  0.00    -0.422 C  
HETATM   22  N   UNK A   1     -12.651  14.640  63.583  1.00  0.00    -0.980 NA 
HETATM   23  C   UNK A   1     -11.101  15.852  65.049  1.00  0.00    -0.360 C  
HETATM   24  O   UNK A   1     -10.565  16.154  66.102  1.00  0.00    -0.313 OA 
HETATM   25  O   UNK A   1     -11.197  16.691  63.984  1.00  0.00    -1.052 OA 
HETATM   26  H1  UNK A   1     -13.424  15.269  63.801  1.00  0.00     0.000 HD 
HETATM   27  H2  UNK A   1     -12.995  13.734  63.263  1.00  0.00     0.000 HD 
ENDBRANCH  20  21
ENDBRANCH  19  20
ENDBRANCH  18  19
ENDBRANCH  17  18
ENDBRANCH  16  17
ENDBRANCH  15  16
ENDBRANCH  11  15
ENDBRANCH   7  10
ENDBRANCH   5   6
TORSDOF 9
ENDMDL
MODEL       25
REMARK 921   NORMALIZED FREE ENERGY PREDICTED BY IDOCK:   -5.72 KCAL/MOL
REMARK 922        TOTAL FREE ENERGY PREDICTED BY IDOCK:   -9.70 KCAL/MOL
REMARK 923 INTER-LIGAND FREE ENERGY PREDICTED BY IDOCK:   -8.57 KCAL/MOL
REMARK 924 INTRA-LIGAND FREE ENERGY PREDICTED BY IDOCK:   -1.13 KCAL/MOL
REMARK 927      BINDING AFFINITY PREDICTED BY RF-SCORE:    0.00 PKD
ROOT
HETATM    1  C   UNK A   0      -8.407   9.951  66.611  1.00  0.00    -0.125 C  
HETATM    2  C   UNK A   0      -9.435   9.638  67.673  1.00  0.00    -0.155 C  
HETATM    3  C   UNK A   0      -8.955   9.719  69.101  1.00  0.00    -0.161 C  
HETATM    4  C   UNK A   0     -10.388   8.538  67.271  1.00  0.00    -0.372 C  
HETATM    5  C   UNK A   0      -9.934  10.762  68.590  1.00  0.00    -0.189 C  
ENDROOT
BRANCH   5   6
HETATM    6  C   UNK A   0     -11.295  10.771  69.221  1.00  0.00    -0.286 C  
HETATM    7  N   UNK A   1     -11.342  10.611  70.587  1.00  0.00    -0.409 N  
HETATM    8  O   UNK A   0     -12.296  10.845  68.519  1.00  0.00    -0.490 OA 
HETATM    9  H   UNK A   1     -10.441  10.533  71.059  1.00  0.00     0.000 HD 
BRANCH   7  10
HETATM   10  C   UNK A   1     -12.468  10.544  71.405  1.00  0.00    -0.411 C  
HETATM   11  C   UNK A   1     -13.043  11.674  71.892  1.00  0.00    -0.490 C  
HETATM   12  C   UNK A   1     -13.149   9.281  71.898  1.00  0.00    -0.415 C  
HETATM   13  O   UNK A   1     -12.348   8.218  72.104  1.00  0.00    -0.328 OA 
HETATM   14  O   UNK A   1     -14.318   9.265  72.261  1.00  0.00    -0.319 OA 
BRANCH  11  15
HETATM   15  C   UNK A   1     -12.576  13.083  71.690  1.00  0.00    -0.222 C  
BRANCH  15  16
HETATM   16  C   UNK A   1     -12.903  13.730  70.330  1.00  0.00    -0.160 C  
BRANCH  16  17
HETATM   17  C   UNK A   1     -12.393  15.176  70.392  1.00  0.00    -0.411 C  
BRANCH  17  18
HETATM   18  C   UNK A   1     -11.910  15.761  69.071  1.00  0.00    -0.355 C  
BRANCH  18  19
HETATM   19  S   UNK A   1     -10.900  14.460  68.268  1.00  0.00    -0.249 SA 
BRANCH  19  20
HETATM   20  C   UNK A   1     -11.191  14.884  66.518  1.00  0.00    -0.335 C  
BRANCH  20  21
HETATM   21  C   UNK A   1     -12.317  14.019  65.930  1.00  0.00    -0.486 C  
HETATM   22  N   UNK A   1     -12.199  12.577  66.319  1.00  0.00    -0.584 NA 
HETATM   23  C   UNK A   1     -12.222  14.113  64.406  1.00  0.00    -0.439 C  
HETATM   24  O   UNK A   1     -12.605  15.059  63.737  1.00  0.00    -0.776 OA 
HETATM   25  O   UNK A   1     -11.604  13.021  63.883  1.00  0.00    -0.399 OA 
HETATM   26  H1  UNK A   1     -12.946  12.002  65.928  1.00  0.00     0.000 HD 
HETATM   27  H2  UNK A   1     -12.149  12.473  67.332  1.00  0.00     0.000 HD 
ENDBRANCH  20  21
ENDBRANCH  19  20
ENDBRANCH  18  19
ENDBRANCH  17  18
ENDBRANCH  16  17
ENDBRANCH  15  16
ENDBRANCH  11  15
ENDBRANCH   7  10
ENDBRANCH   5   6
TORSDOF 9
ENDMDL
MODEL       26
REMARK 921   NORMALIZED FREE ENERGY PREDICTED BY IDOCK:   -5.70 KCAL/MOL
REMARK 922        TOTAL FREE ENERGY PREDICTED BY IDOCK:   -9.67 KCAL/MOL
REMARK 923 INTER-LIGAND FREE ENERGY PREDICTED BY IDOCK:   -8.26 KCAL/MOL
REMARK 924 INTRA-LIGAND FREE ENERGY PREDICTED BY IDOCK:   -1.41 KCAL/MOL
REMARK 927      BINDING AFFINITY PREDICTED BY RF-SCORE:    0.00 PKD
ROOT
HETATM    1  C   UNK A   0     -12.839  14.511  73.005  1.00  0.00    -0.550 C  
HETATM    2  C   UNK A   0     -12.626  14.551  71.510  1.00  0.00    -0.419 C  
HETATM    3  C   UNK A   0     -13.371  15.632  70.765  1.00  0.00    -0.170 C  
HETATM    4  C   UNK A   0     -12.493  13.180  70.891  1.00  0.00    -0.407 C  
HETATM    5  C   UNK A   0     -11.860  15.728  70.892  1.00  0.00    -0.451 C  
ENDROOT
BRANCH   5   6
HETATM    6  C   UNK A   0     -11.072  15.625  69.619  1.00  0.00    -0.299 C  
HETATM    7  N   UNK A   1      -9.785  15.151  69.728  1.00  0.00    -0.454 N  
HETATM    8  O   UNK A   0     -11.555  16.019  68.566  1.00  0.00    -0.381 OA 
HETATM    9  H   UNK A   1      -9.487  14.879  70.666  1.00  0.00     0.000 HD 
BRANCH   7  10
HETATM   10  C   UNK A   1      -8.839  14.996  68.718  1.00  0.00    -0.192 C  
HETATM   11  C   UNK A   1      -8.721  13.820  68.049  1.00  0.00    -0.181 C  
HETATM   12  C   UNK A   1      -7.818  16.027  68.274  1.00  0.00    -0.144 C  
HETATM   13  O   UNK A   1      -7.359  16.856  69.231  1.00  0.00    -0.238 OA 
HETATM   14  O   UNK A   1      -7.301  16.003  67.165  1.00  0.00    -0.182 OA 
BRANCH  11  15
HETATM   15  C   UNK A   1      -9.496  12.561  68.293  1.00  0.00    -0.201 C  
BRANCH  15  16
HETATM   16  C   UNK A   1     -10.859  12.442  67.584  1.00  0.00    -0.258 C  
BRANCH  16  17
HETATM   17  C   UNK A   1     -10.946  11.016  67.025  1.00  0.00    -0.333 C  
BRANCH  17  18
HETATM   18  C   UNK A   1      -9.612  10.316  66.795  1.00  0.00    -0.172 C  
BRANCH  18  19
HETATM   19  S   UNK A   1      -8.984  10.920  65.183  1.00  0.00    -0.145 SA 
BRANCH  19  20
HETATM   20  C   UNK A   1     -10.497  10.740  64.180  1.00  0.00    -0.239 C  
BRANCH  20  21
HETATM   21  C   UNK A   1     -10.842  12.061  63.475  1.00  0.00    -0.444 C  
HETATM   22  N   UNK A   1     -10.115  13.234  64.062  1.00  0.00    -0.776 NA 
HETATM   23  C   UNK A   1     -12.344  12.296  63.645  1.00  0.00    -0.562 C  
HETATM   24  O   UNK A   1     -13.217  11.733  63.007  1.00  0.00    -0.474 OA 
HETATM   25  O   UNK A   1     -12.594  13.184  64.644  1.00  0.00    -0.587 OA 
HETATM   26  H1  UNK A   1     -10.345  14.111  63.595  1.00  0.00     0.000 HD 
HETATM   27  H2  UNK A   1      -9.108  13.075  64.069  1.00  0.00     0.000 HD 
ENDBRANCH  20  21
ENDBRANCH  19  20
ENDBRANCH  18  19
ENDBRANCH  17  18
ENDBRANCH  16  17
ENDBRANCH  15  16
ENDBRANCH  11  15
ENDBRANCH   7  10
ENDBRANCH   5   6
TORSDOF 9
ENDMDL
MODEL       27
REMARK 921   NORMALIZED FREE ENERGY PREDICTED BY IDOCK:   -5.70 KCAL/MOL
REMARK 922        TOTAL FREE ENERGY PREDICTED BY IDOCK:   -9.67 KCAL/MOL
REMARK 923 INTER-LIGAND FREE ENERGY PREDICTED BY IDOCK:   -8.14 KCAL/MOL
REMARK 924 INTRA-LIGAND FREE ENERGY PREDICTED BY IDOCK:   -1.53 KCAL/MOL
REMARK 927      BINDING AFFINITY PREDICTED BY RF-SCORE:    0.00 PKD
ROOT
HETATM    1  C   UNK A   0      -8.928   8.772  65.262  1.00  0.00    -0.184 C  
HETATM    2  C   UNK A   0      -9.107  10.267  65.142  1.00  0.00    -0.234 C  
HETATM    3  C   UNK A   0      -9.299  10.799  63.743  1.00  0.00    -0.295 C  
HETATM    4  C   UNK A   0      -8.264  11.047  66.123  1.00  0.00    -0.155 C  
HETATM    5  C   UNK A   0     -10.468  10.829  64.713  1.00  0.00    -0.335 C  
ENDROOT
BRANCH   5   6
HETATM    6  C   UNK A   0     -10.968  12.185  65.119  1.00  0.00    -0.310 C  
HETATM    7  N   UNK A   1     -10.213  13.264  64.723  1.00  0.00    -0.529 N  
HETATM    8  O   UNK A   0     -11.962  12.284  65.828  1.00  0.00    -0.521 OA 
HETATM    9  H   UNK A   1      -9.390  13.051  64.158  1.00  0.00     0.000 HD 
BRANCH   7  10
HETATM   10  C   UNK A   1     -10.431  14.613  64.999  1.00  0.00    -0.421 C  
HETATM   11  C   UNK A   1      -9.767  15.233  66.007  1.00  0.00    -0.367 C  
HETATM   12  C   UNK A   1     -11.423  15.525  64.302  1.00  0.00    -0.180 C  
HETATM   13  O   UNK A   1     -12.553  14.942  63.857  1.00  0.00    -0.831 OA 
HETATM   14  O   UNK A   1     -11.302  16.743  64.296  1.00  0.00    -1.170 OA 
BRANCH  11  15
HETATM   15  C   UNK A   1      -8.790  14.614  66.960  1.00  0.00    -0.262 C  
BRANCH  15  16
HETATM   16  C   UNK A   1      -9.248  14.481  68.426  1.00  0.00    -0.196 C  
BRANCH  16  17
HETATM   17  C   UNK A   1     -10.100  13.208  68.511  1.00  0.00    -0.203 C  
BRANCH  17  18
HETATM   18  C   UNK A   1     -11.482  13.380  69.130  1.00  0.00    -0.300 C  
BRANCH  18  19
HETATM   19  S   UNK A   1     -11.964  11.736  69.781  1.00  0.00    -0.305 SA 
BRANCH  19  20
HETATM   20  C   UNK A   1     -10.732  10.697  68.928  1.00  0.00    -0.219 C  
BRANCH  20  21
HETATM   21  C   UNK A   1     -10.456   9.414  69.727  1.00  0.00    -0.226 C  
HETATM   22  N   UNK A   1     -10.888   9.523  71.158  1.00  0.00    -0.340 NA 
HETATM   23  C   UNK A   1      -8.946   9.169  69.702  1.00  0.00    -0.155 C  
HETATM   24  O   UNK A   1      -8.328   8.709  68.756  1.00  0.00    -0.119 OA 
HETATM   25  O   UNK A   1      -8.361   9.581  70.857  1.00  0.00    -0.280 OA 
HETATM   26  H1  UNK A   1     -10.706   8.671  71.689  1.00  0.00     0.000 HD 
HETATM   27  H2  UNK A   1     -11.870   9.792  71.225  1.00  0.00     0.000 HD 
ENDBRANCH  20  21
ENDBRANCH  19  20
ENDBRANCH  18  19
ENDBRANCH  17  18
ENDBRANCH  16  17
ENDBRANCH  15  16
ENDBRANCH  11  15
ENDBRANCH   7  10
ENDBRANCH   5   6
TORSDOF 9
ENDMDL
MODEL       28
REMARK 921   NORMALIZED FREE ENERGY PREDICTED BY IDOCK:   -5.68 KCAL/MOL
REMARK 922        TOTAL FREE ENERGY PREDICTED BY IDOCK:   -9.64 KCAL/MOL
REMARK 923 INTER-LIGAND FREE ENERGY PREDICTED BY IDOCK:   -8.67 KCAL/MOL
REMARK 924 INTRA-LIGAND FREE ENERGY PREDICTED BY IDOCK:   -0.96 KCAL/MOL
REMARK 927      BINDING AFFINITY PREDICTED BY RF-SCORE:    0.00 PKD
ROOT
HETATM    1  C   UNK A   0      -8.985  18.041  68.535  1.00  0.00    -0.297 C  
HETATM    2  C   UNK A   0      -9.613  16.706  68.211  1.00  0.00    -0.233 C  
HETATM    3  C   UNK A   0     -11.122  16.664  68.227  1.00  0.00    -0.295 C  
HETATM    4  C   UNK A   0      -8.833  15.534  68.757  1.00  0.00    -0.203 C  
HETATM    5  C   UNK A   0     -10.392  16.540  66.900  1.00  0.00    -0.300 C  
ENDROOT
BRANCH   5   6
HETATM    6  C   UNK A   0     -10.529  15.231  66.179  1.00  0.00    -0.309 C  
HETATM    7  N   UNK A   1     -11.707  14.545  66.365  1.00  0.00    -0.376 N  
HETATM    8  O   UNK A   0      -9.591  14.791  65.526  1.00  0.00    -0.286 OA 
HETATM    9  H   UNK A   1     -12.402  15.004  66.954  1.00  0.00     0.000 HD 
BRANCH   7  10
HETATM   10  C   UNK A   1     -12.068  13.303  65.848  1.00  0.00    -0.441 C  
HETATM   11  C   UNK A   1     -11.782  12.160  66.521  1.00  0.00    -0.392 C  
HETATM   12  C   UNK A   1     -12.739  13.044  64.512  1.00  0.00    -0.249 C  
HETATM   13  O   UNK A   1     -12.432  13.901  63.519  1.00  0.00    -0.810 OA 
HETATM   14  O   UNK A   1     -13.378  12.025  64.286  1.00  0.00    -0.709 OA 
BRANCH  11  15
HETATM   15  C   UNK A   1     -11.042  12.036  67.818  1.00  0.00    -0.303 C  
BRANCH  15  16
HETATM   16  C   UNK A   1     -11.897  11.815  69.082  1.00  0.00    -0.389 C  
BRANCH  16  17
HETATM   17  C   UNK A   1     -11.268  10.641  69.843  1.00  0.00    -0.378 C  
BRANCH  17  18
HETATM   18  C   UNK A   1     -10.690   9.528  68.977  1.00  0.00    -0.202 C  
BRANCH  18  19
HETATM   19  S   UNK A   1     -10.740   8.004  69.994  1.00  0.00    -0.232 SA 
BRANCH  19  20
HETATM   20  C   UNK A   1     -10.786   8.750  71.658  1.00  0.00    -0.327 C  
BRANCH  20  21
HETATM   21  C   UNK A   1     -11.786   8.009  72.558  1.00  0.00    -0.361 C  
HETATM   22  N   UNK A   1     -11.757   6.525  72.352  1.00  0.00    -0.431 NA 
HETATM   23  C   UNK A   1     -13.187   8.513  72.205  1.00  0.00    -0.352 C  
HETATM   24  O   UNK A   1     -13.658   9.579  72.565  1.00  0.00    -0.433 OA 
HETATM   25  O   UNK A   1     -13.832   7.641  71.387  1.00  0.00    -0.366 OA 
HETATM   26  H1  UNK A   1     -12.421   6.033  72.949  1.00  0.00     0.000 HD 
HETATM   27  H2  UNK A   1     -10.814   6.157  72.472  1.00  0.00     0.000 HD 
ENDBRANCH  20  21
ENDBRANCH  19  20
ENDBRANCH  18  19
ENDBRANCH  17  18
ENDBRANCH  16  17
ENDBRANCH  15  16
ENDBRANCH  11  15
ENDBRANCH   7  10
ENDBRANCH   5   6
TORSDOF 9
ENDMDL
MODEL       29
REMARK 921   NORMALIZED FREE ENERGY PREDICTED BY IDOCK:   -5.68 KCAL/MOL
REMARK 922        TOTAL FREE ENERGY PREDICTED BY IDOCK:   -9.63 KCAL/MOL
REMARK 923 INTER-LIGAND FREE ENERGY PREDICTED BY IDOCK:   -8.43 KCAL/MOL
REMARK 924 INTRA-LIGAND FREE ENERGY PREDICTED BY IDOCK:   -1.20 KCAL/MOL
REMARK 927      BINDING AFFINITY PREDICTED BY RF-SCORE:    0.00 PKD
ROOT
HETATM    1  C   UNK A   0      -9.748  10.213  64.299  1.00  0.00    -0.326 C  
HETATM    2  C   UNK A   0      -9.457  10.227  65.781  1.00  0.00    -0.255 C  
HETATM    3  C   UNK A   0      -8.203  10.955  66.201  1.00  0.00    -0.168 C  
HETATM    4  C   UNK A   0      -9.835   8.940  66.473  1.00  0.00    -0.344 C  
HETATM    5  C   UNK A   0      -9.557  11.549  66.553  1.00  0.00    -0.225 C  
ENDROOT
BRANCH   5   6
HETATM    6  C   UNK A   0      -9.894  11.630  68.013  1.00  0.00    -0.190 C  
HETATM    7  N   UNK A   1     -11.205  11.907  68.328  1.00  0.00    -0.239 N  
HETATM    8  O   UNK A   0      -9.010  11.522  68.854  1.00  0.00    -0.095 OA 
HETATM    9  H   UNK A   1     -11.843  12.002  67.538  1.00  0.00     0.000 HD 
BRANCH   7  10
HETATM   10  C   UNK A   1     -11.767  12.073  69.592  1.00  0.00    -0.335 C  
HETATM   11  C   UNK A   1     -12.032  13.312  70.078  1.00  0.00    -0.399 C  
HETATM   12  C   UNK A   1     -12.096  10.972  70.583  1.00  0.00    -0.373 C  
HETATM   13  O   UNK A   1     -11.288   9.894  70.561  1.00  0.00    -0.278 OA 
HETATM   14  O   UNK A   1     -12.924  11.116  71.472  1.00  0.00    -0.429 OA 
BRANCH  11  15
HETATM   15  C   UNK A   1     -11.745  14.623  69.413  1.00  0.00    -0.355 C  
BRANCH  15  16
HETATM   16  C   UNK A   1     -10.686  15.520  70.084  1.00  0.00    -0.345 C  
BRANCH  16  17
HETATM   17  C   UNK A   1      -9.997  16.309  68.963  1.00  0.00    -0.256 C  
BRANCH  17  18
HETATM   18  C   UNK A   1     -10.910  16.808  67.850  1.00  0.00    -0.311 C  
BRANCH  18  19
HETATM   19  S   UNK A   1      -9.921  16.756  66.309  1.00  0.00    -0.327 SA 
BRANCH  19  20
HETATM   20  C   UNK A   1     -10.177  15.012  65.841  1.00  0.00    -0.315 C  
BRANCH  20  21
HETATM   21  C   UNK A   1     -10.945  14.913  64.513  1.00  0.00    -0.197 C  
HETATM   22  N   UNK A   1     -11.457  16.242  64.044  1.00  0.00    -1.521 NA 
HETATM   23  C   UNK A   1     -12.145  13.993  64.743  1.00  0.00    -0.437 C  
HETATM   24  O   UNK A   1     -12.093  12.775  64.799  1.00  0.00    -0.381 OA 
HETATM   25  O   UNK A   1     -13.286  14.708  64.931  1.00  0.00    -0.332 OA 
HETATM   26  H1  UNK A   1     -11.967  16.176  63.163  1.00  0.00     0.000 HD 
HETATM   27  H2  UNK A   1     -10.701  16.923  63.979  1.00  0.00     0.000 HD 
ENDBRANCH  20  21
ENDBRANCH  19  20
ENDBRANCH  18  19
ENDBRANCH  17  18
ENDBRANCH  16  17
ENDBRANCH  15  16
ENDBRANCH  11  15
ENDBRANCH   7  10
ENDBRANCH   5   6
TORSDOF 9
ENDMDL
MODEL       30
REMARK 921   NORMALIZED FREE ENERGY PREDICTED BY IDOCK:   -5.68 KCAL/MOL
REMARK 922        TOTAL FREE ENERGY PREDICTED BY IDOCK:   -9.63 KCAL/MOL
REMARK 923 INTER-LIGAND FREE ENERGY PREDICTED BY IDOCK:   -8.63 KCAL/MOL
REMARK 924 INTRA-LIGAND FREE ENERGY PREDICTED BY IDOCK:   -1.00 KCAL/MOL
REMARK 927      BINDING AFFINITY PREDICTED BY RF-SCORE:    0.00 PKD
ROOT
HETATM    1  C   UNK A   0      -8.439  11.216  66.586  1.00  0.00    -0.164 C  
HETATM    2  C   UNK A   0      -9.358  10.552  67.584  1.00  0.00    -0.160 C  
HETATM    3  C   UNK A   0      -8.875  10.530  69.014  1.00  0.00    -0.174 C  
HETATM    4  C   UNK A   0     -10.071   9.344  67.023  1.00  0.00    -0.304 C  
HETATM    5  C   UNK A   0     -10.059  11.408  68.646  1.00  0.00    -0.217 C  
ENDROOT
BRANCH   5   6
HETATM    6  C   UNK A   0     -11.380  11.046  69.260  1.00  0.00    -0.282 C  
HETATM    7  N   UNK A   1     -11.362  10.679  70.586  1.00  0.00    -0.409 N  
HETATM    8  O   UNK A   0     -12.390  11.019  68.569  1.00  0.00    -0.536 OA 
HETATM    9  H   UNK A   1     -10.453  10.716  71.048  1.00  0.00     0.000 HD 
BRANCH   7  10
HETATM   10  C   UNK A   1     -12.432  10.263  71.376  1.00  0.00    -0.424 C  
HETATM   11  C   UNK A   1     -13.278  11.167  71.933  1.00  0.00    -0.488 C  
HETATM   12  C   UNK A   1     -12.764   8.834  71.762  1.00  0.00    -0.359 C  
HETATM   13  O   UNK A   1     -11.717   8.000  71.905  1.00  0.00    -0.273 OA 
HETATM   14  O   UNK A   1     -13.889   8.492  72.101  1.00  0.00    -0.384 OA 
BRANCH  11  15
HETATM   15  C   UNK A   1     -13.190  12.660  71.844  1.00  0.00    -0.504 C  
BRANCH  15  16
HETATM   16  C   UNK A   1     -14.384  13.456  72.407  1.00  0.00    -0.257 C  
BRANCH  16  17
HETATM   17  C   UNK A   1     -13.986  14.938  72.371  1.00  0.00    -0.582 C  
BRANCH  17  18
HETATM   18  C   UNK A   1     -13.438  15.441  71.042  1.00  0.00    -0.444 C  
BRANCH  18  19
HETATM   19  S   UNK A   1     -11.700  15.931  71.353  1.00  0.00    -0.489 SA 
BRANCH  19  20
HETATM   20  C   UNK A   1     -10.912  15.220  69.870  1.00  0.00    -0.290 C  
BRANCH  20  21
HETATM   21  C   UNK A   1     -11.738  15.535  68.612  1.00  0.00    -0.348 C  
HETATM   22  N   UNK A   1     -12.096  14.304  67.836  1.00  0.00    -0.567 NA 
HETATM   23  C   UNK A   1     -10.887  16.435  67.715  1.00  0.00    -0.306 C  
HETATM   24  O   UNK A   1     -10.706  17.629  67.890  1.00  0.00    -0.394 OA 
HETATM   25  O   UNK A   1     -10.305  15.724  66.713  1.00  0.00    -0.280 OA 
HETATM   26  H1  UNK A   1     -12.644  14.512  67.001  1.00  0.00     0.000 HD 
HETATM   27  H2  UNK A   1     -12.574  13.624  68.427  1.00  0.00     0.000 HD 
ENDBRANCH  20  21
ENDBRANCH  19  20
ENDBRANCH  18  19
ENDBRANCH  17  18
ENDBRANCH  16  17
ENDBRANCH  15  16
ENDBRANCH  11  15
ENDBRANCH   7  10
ENDBRANCH   5   6
TORSDOF 9
ENDMDL
MODEL       31
REMARK 921   NORMALIZED FREE ENERGY PREDICTED BY IDOCK:   -5.65 KCAL/MOL
REMARK 922        TOTAL FREE ENERGY PREDICTED BY IDOCK:   -9.59 KCAL/MOL
REMARK 923 INTER-LIGAND FREE ENERGY PREDICTED BY IDOCK:   -8.55 KCAL/MOL
REMARK 924 INTRA-LIGAND FREE ENERGY PREDICTED BY IDOCK:   -1.04 KCAL/MOL
REMARK 927      BINDING AFFINITY PREDICTED BY RF-SCORE:    0.00 PKD
ROOT
HETATM    1  C   UNK A   0     -13.347  12.967  71.959  1.00  0.00    -0.579 C  
HETATM    2  C   UNK A   0     -12.934  14.186  71.168  1.00  0.00    -0.419 C  
HETATM    3  C   UNK A   0     -11.538  14.698  71.424  1.00  0.00    -0.226 C  
HETATM    4  C   UNK A   0     -14.061  15.170  70.963  1.00  0.00    -0.348 C  
HETATM    5  C   UNK A   0     -11.854  14.049  70.087  1.00  0.00    -0.377 C  
ENDROOT
BRANCH   5   6
HETATM    6  C   UNK A   0     -11.779  14.934  68.877  1.00  0.00    -0.315 C  
HETATM    7  N   UNK A   1     -11.392  14.337  67.700  1.00  0.00    -0.308 N  
HETATM    8  O   UNK A   0     -11.988  16.136  68.983  1.00  0.00    -0.291 OA 
HETATM    9  H   UNK A   1     -11.220  13.332  67.745  1.00  0.00     0.000 HD 
BRANCH   7  10
HETATM   10  C   UNK A   1     -11.207  14.933  66.455  1.00  0.00    -0.331 C  
HETATM   11  C   UNK A   1     -11.791  14.418  65.343  1.00  0.00    -0.366 C  
HETATM   12  C   UNK A   1     -10.334  16.137  66.154  1.00  0.00    -0.339 C  
HETATM   13  O   UNK A   1      -9.231  16.274  66.915  1.00  0.00    -0.203 OA 
HETATM   14  O   UNK A   1     -10.509  16.845  65.172  1.00  0.00    -0.663 OA 
BRANCH  11  15
HETATM   15  C   UNK A   1     -12.635  13.183  65.255  1.00  0.00    -0.531 C  
BRANCH  15  16
HETATM   16  C   UNK A   1     -12.371  12.252  64.057  1.00  0.00    -0.569 C  
BRANCH  16  17
HETATM   17  C   UNK A   1     -10.866  11.950  64.051  1.00  0.00    -0.438 C  
BRANCH  17  18
HETATM   18  C   UNK A   1     -10.457  10.626  64.686  1.00  0.00    -0.205 C  
BRANCH  18  19
HETATM   19  S   UNK A   1      -8.902  10.951  65.599  1.00  0.00    -0.176 SA 
BRANCH  19  20
HETATM   20  C   UNK A   1      -9.294  10.118  67.173  1.00  0.00    -0.153 C  
BRANCH  20  21
HETATM   21  C   UNK A   1      -9.687  11.145  68.248  1.00  0.00    -0.188 C  
HETATM   22  N   UNK A   1      -8.795  11.087  69.452  1.00  0.00    -0.383 NA 
HETATM   23  C   UNK A   1     -11.114  10.823  68.694  1.00  0.00    -0.259 C  
HETATM   24  O   UNK A   1     -12.123  11.100  68.067  1.00  0.00    -0.635 OA 
HETATM   25  O   UNK A   1     -11.120  10.135  69.866  1.00  0.00    -0.254 OA 
HETATM   26  H1  UNK A   1      -9.056  11.768  70.165  1.00  0.00     0.000 HD 
HETATM   27  H2  UNK A   1      -7.816  11.190  69.188  1.00  0.00     0.000 HD 
ENDBRANCH  20  21
ENDBRANCH  19  20
ENDBRANCH  18  19
ENDBRANCH  17  18
ENDBRANCH  16  17
ENDBRANCH  15  16
ENDBRANCH  11  15
ENDBRANCH   7  10
ENDBRANCH   5   6
TORSDOF 9
ENDMDL
MODEL       32
REMARK 921   NORMALIZED FREE ENERGY PREDICTED BY IDOCK:   -5.65 KCAL/MOL
REMARK 922        TOTAL FREE ENERGY PREDICTED BY IDOCK:   -9.59 KCAL/MOL
REMARK 923 INTER-LIGAND FREE ENERGY PREDICTED BY IDOCK:   -8.22 KCAL/MOL
REMARK 924 INTRA-LIGAND FREE ENERGY PREDICTED BY IDOCK:   -1.37 KCAL/MOL
REMARK 927      BINDING AFFINITY PREDICTED BY RF-SCORE:    0.00 PKD
ROOT
HETATM    1  C   UNK A   0     -14.092  15.363  72.154  1.00  0.00    -0.651 C  
HETATM    2  C   UNK A   0     -12.849  14.898  71.433  1.00  0.00    -0.416 C  
HETATM    3  C   UNK A   0     -12.704  13.405  71.263  1.00  0.00    -0.424 C  
HETATM    4  C   UNK A   0     -11.630  15.730  71.751  1.00  0.00    -0.541 C  
HETATM    5  C   UNK A   0     -12.981  14.265  70.041  1.00  0.00     0.116 C  
ENDROOT
BRANCH   5   6
HETATM    6  C   UNK A   0     -11.899  14.322  69.002  1.00  0.00    -0.335 C  
HETATM    7  N   UNK A   1     -12.083  15.214  67.971  1.00  0.00    -0.483 N  
HETATM    8  O   UNK A   0     -10.952  13.549  69.061  1.00  0.00    -0.252 OA 
HETATM    9  H   UNK A   1     -12.927  15.786  68.019  1.00  0.00     0.000 HD 
BRANCH   7  10
HETATM   10  C   UNK A   1     -11.258  15.434  66.869  1.00  0.00    -0.214 C  
HETATM   11  C   UNK A   1     -11.505  14.822  65.683  1.00  0.00    -0.327 C  
HETATM   12  C   UNK A   1     -10.005  16.288  66.838  1.00  0.00    -0.260 C  
HETATM   13  O   UNK A   1      -9.293  16.337  67.981  1.00  0.00    -0.210 OA 
HETATM   14  O   UNK A   1      -9.559  16.761  65.802  1.00  0.00    -0.506 OA 
BRANCH  11  15
HETATM   15  C   UNK A   1     -12.595  13.839  65.383  1.00  0.00    -0.534 C  
BRANCH  15  16
HETATM   16  C   UNK A   1     -12.312  12.814  64.268  1.00  0.00    -0.493 C  
BRANCH  16  17
HETATM   17  C   UNK A   1     -10.846  12.386  64.420  1.00  0.00    -0.375 C  
BRANCH  17  18
HETATM   18  C   UNK A   1     -10.507  10.995  63.898  1.00  0.00    -0.354 C  
BRANCH  18  19
HETATM   19  S   UNK A   1      -9.865  10.049  65.329  1.00  0.00    -0.285 SA 
BRANCH  19  20
HETATM   20  C   UNK A   1     -10.590  11.024  66.689  1.00  0.00    -0.262 C  
BRANCH  20  21
HETATM   21  C   UNK A   1     -11.243  10.103  67.731  1.00  0.00    -0.133 C  
HETATM   22  N   UNK A   1     -12.302  10.799  68.532  1.00  0.00    -0.735 NA 
HETATM   23  C   UNK A   1     -10.146   9.640  68.691  1.00  0.00    -0.179 C  
HETATM   24  O   UNK A   1      -9.322   8.773  68.447  1.00  0.00    -0.137 OA 
HETATM   25  O   UNK A   1     -10.166  10.357  69.846  1.00  0.00    -0.230 OA 
HETATM   26  H1  UNK A   1     -12.736  10.188  69.224  1.00  0.00     0.000 HD 
HETATM   27  H2  UNK A   1     -13.004  11.220  67.923  1.00  0.00     0.000 HD 
ENDBRANCH  20  21
ENDBRANCH  19  20
ENDBRANCH  18  19
ENDBRANCH  17  18
ENDBRANCH  16  17
ENDBRANCH  15  16
ENDBRANCH  11  15
ENDBRANCH   7  10
ENDBRANCH   5   6
TORSDOF 9
ENDMDL
MODEL       33
REMARK 921   NORMALIZED FREE ENERGY PREDICTED BY IDOCK:   -5.63 KCAL/MOL
REMARK 922        TOTAL FREE ENERGY PREDICTED BY IDOCK:   -9.56 KCAL/MOL
REMARK 923 INTER-LIGAND FREE ENERGY PREDICTED BY IDOCK:   -8.64 KCAL/MOL
REMARK 924 INTRA-LIGAND FREE ENERGY PREDICTED BY IDOCK:   -0.92 KCAL/MOL
REMARK 927      BINDING AFFINITY PREDICTED BY RF-SCORE:    0.00 PKD
ROOT
HETATM    1  C   UNK A   0     -10.433   7.564  66.910  1.00  0.00    -0.385 C  
HETATM    2  C   UNK A   0     -10.094   9.031  67.026  1.00  0.00    -0.318 C  
HETATM    3  C   UNK A   0      -8.709   9.427  66.574  1.00  0.00    -0.148 C  
HETATM    4  C   UNK A   0     -10.689   9.684  68.252  1.00  0.00    -0.262 C  
HETATM    5  C   UNK A   0      -9.909   9.864  65.751  1.00  0.00    -0.356 C  
ENDROOT
BRANCH   5   6
HETATM    6  C   UNK A   0     -10.174  11.339  65.681  1.00  0.00    -0.253 C  
HETATM    7  N   UNK A   1     -11.464  11.721  65.394  1.00  0.00    -0.234 N  
HETATM    8  O   UNK A   0      -9.251  12.134  65.807  1.00  0.00    -0.151 OA 
HETATM    9  H   UNK A   1     -12.140  10.964  65.284  1.00  0.00     0.000 HD 
BRANCH   7  10
HETATM   10  C   UNK A   1     -11.962  13.012  65.234  1.00  0.00    -0.407 C  
HETATM   11  C   UNK A   1     -12.176  13.813  66.309  1.00  0.00    -0.489 C  
HETATM   12  C   UNK A   1     -12.373  13.663  63.927  1.00  0.00    -0.316 C  
HETATM   13  O   UNK A   1     -12.878  12.840  62.988  1.00  0.00    -0.457 OA 
HETATM   14  O   UNK A   1     -12.419  14.878  63.785  1.00  0.00    -0.768 OA 
BRANCH  11  15
HETATM   15  C   UNK A   1     -11.975  13.461  67.751  1.00  0.00    -0.363 C  
BRANCH  15  16
HETATM   16  C   UNK A   1     -10.869  14.229  68.500  1.00  0.00    -0.264 C  
BRANCH  16  17
HETATM   17  C   UNK A   1     -11.569  15.288  69.362  1.00  0.00    -0.347 C  
BRANCH  17  18
HETATM   18  C   UNK A   1     -10.775  16.566  69.610  1.00  0.00    -0.323 C  
BRANCH  18  19
HETATM   19  S   UNK A   1     -10.112  17.084  67.982  1.00  0.00    -0.322 SA 
BRANCH  19  20
HETATM   20  C   UNK A   1     -10.043  18.888  68.242  1.00  0.00    -0.388 C  
BRANCH  20  21
HETATM   21  C   UNK A   1      -9.931  19.627  66.899  1.00  0.00    -0.400 C  
HETATM   22  N   UNK A   1     -10.541  18.858  65.766  1.00  0.00    -0.560 NA 
HETATM   23  C   UNK A   1      -8.443  19.817  66.600  1.00  0.00    -0.333 C  
HETATM   24  O   UNK A   1      -7.727  20.658  67.118  1.00  0.00    -0.325 OA 
HETATM   25  O   UNK A   1      -7.995  18.889  65.714  1.00  0.00    -0.473 OA 
HETATM   26  H1  UNK A   1     -10.466  19.348  64.875  1.00  0.00     0.000 HD 
HETATM   27  H2  UNK A   1     -11.510  18.613  65.970  1.00  0.00     0.000 HD 
ENDBRANCH  20  21
ENDBRANCH  19  20
ENDBRANCH  18  19
ENDBRANCH  17  18
ENDBRANCH  16  17
ENDBRANCH  15  16
ENDBRANCH  11  15
ENDBRANCH   7  10
ENDBRANCH   5   6
TORSDOF 9
ENDMDL
MODEL       34
REMARK 921   NORMALIZED FREE ENERGY PREDICTED BY IDOCK:   -5.61 KCAL/MOL
REMARK 922        TOTAL FREE ENERGY PREDICTED BY IDOCK:   -9.53 KCAL/MOL
REMARK 923 INTER-LIGAND FREE ENERGY PREDICTED BY IDOCK:   -8.23 KCAL/MOL
REMARK 924 INTRA-LIGAND FREE ENERGY PREDICTED BY IDOCK:   -1.30 KCAL/MOL
REMARK 927      BINDING AFFINITY PREDICTED BY RF-SCORE:    0.00 PKD
ROOT
HETATM    1  C   UNK A   0      -7.095  16.116  67.130  1.00  0.00    -0.253 C  
HETATM    2  C   UNK A   0      -8.436  15.432  67.250  1.00  0.00    -0.214 C  
HETATM    3  C   UNK A   0      -9.625  16.339  67.454  1.00  0.00    -0.230 C  
HETATM    4  C   UNK A   0      -8.369  14.119  67.994  1.00  0.00    -0.160 C  
HETATM    5  C   UNK A   0      -9.471  15.606  66.132  1.00  0.00    -0.376 C  
ENDROOT
BRANCH   5   6
HETATM    6  C   UNK A   0     -10.518  14.582  65.807  1.00  0.00    -0.323 C  
HETATM    7  N   UNK A   1     -10.196  13.656  64.842  1.00  0.00    -0.549 N  
HETATM    8  O   UNK A   0     -11.619  14.640  66.341  1.00  0.00    -0.361 OA 
HETATM    9  H   UNK A   1      -9.256  13.727  64.451  1.00  0.00     0.000 HD 
BRANCH   7  10
HETATM   10  C   UNK A   1     -10.994  12.633  64.333  1.00  0.00    -0.351 C  
HETATM   11  C   UNK A   1     -10.567  11.345  64.348  1.00  0.00    -0.403 C  
HETATM   12  C   UNK A   1     -12.349  12.794  63.670  1.00  0.00    -0.463 C  
HETATM   13  O   UNK A   1     -12.538  13.934  62.978  1.00  0.00    -0.694 OA 
HETATM   14  O   UNK A   1     -13.160  11.880  63.607  1.00  0.00    -0.696 OA 
BRANCH  11  15
HETATM   15  C   UNK A   1      -9.244  10.837  64.835  1.00  0.00    -0.243 C  
BRANCH  15  16
HETATM   16  C   UNK A   1      -9.184   9.353  65.246  1.00  0.00    -0.299 C  
BRANCH  16  17
HETATM   17  C   UNK A   1      -8.420   9.291  66.576  1.00  0.00    -0.131 C  
BRANCH  17  18
HETATM   18  C   UNK A   1      -9.274   9.058  67.816  1.00  0.00    -0.140 C  
BRANCH  18  19
HETATM   19  S   UNK A   1      -9.280  10.638  68.744  1.00  0.00    -0.183 SA 
BRANCH  19  20
HETATM   20  C   UNK A   1     -10.724  10.353  69.821  1.00  0.00    -0.278 C  
BRANCH  20  21
HETATM   21  C   UNK A   1     -11.956  11.102  69.288  1.00  0.00    -0.351 C  
HETATM   22  N   UNK A   1     -11.804  11.514  67.854  1.00  0.00    -0.614 NA 
HETATM   23  C   UNK A   1     -12.129  12.366  70.132  1.00  0.00    -0.290 C  
HETATM   24  O   UNK A   1     -12.601  12.398  71.256  1.00  0.00    -0.343 OA 
HETATM   25  O   UNK A   1     -11.638  13.459  69.489  1.00  0.00    -0.281 OA 
HETATM   26  H1  UNK A   1     -12.621  12.011  67.500  1.00  0.00     0.000 HD 
HETATM   27  H2  UNK A   1     -11.579  10.712  67.265  1.00  0.00     0.000 HD 
ENDBRANCH  20  21
ENDBRANCH  19  20
ENDBRANCH  18  19
ENDBRANCH  17  18
ENDBRANCH  16  17
ENDBRANCH  15  16
ENDBRANCH  11  15
ENDBRANCH   7  10
ENDBRANCH   5   6
TORSDOF 9
ENDMDL
MODEL       35
REMARK 921   NORMALIZED FREE ENERGY PREDICTED BY IDOCK:   -5.59 KCAL/MOL
REMARK 922        TOTAL FREE ENERGY PREDICTED BY IDOCK:   -9.50 KCAL/MOL
REMARK 923 INTER-LIGAND FREE ENERGY PREDICTED BY IDOCK:   -8.61 KCAL/MOL
REMARK 924 INTRA-LIGAND FREE ENERGY PREDICTED BY IDOCK:   -0.88 KCAL/MOL
REMARK 927      BINDING AFFINITY PREDICTED BY RF-SCORE:    0.00 PKD
ROOT
HETATM    1  C   UNK A   0      -8.459  16.903  68.442  1.00  0.00    -0.239 C  
HETATM    2  C   UNK A   0      -9.430  16.214  67.512  1.00  0.00    -0.223 C  
HETATM    3  C   UNK A   0      -8.954  16.010  66.094  1.00  0.00    -0.381 C  
HETATM    4  C   UNK A   0     -10.869  16.598  67.764  1.00  0.00    -0.292 C  
HETATM    5  C   UNK A   0      -9.110  14.803  67.003  1.00  0.00    -0.257 C  
ENDROOT
BRANCH   5   6
HETATM    6  C   UNK A   0     -10.163  13.804  66.619  1.00  0.00    -0.276 C  
HETATM    7  N   UNK A   1     -10.151  13.368  65.314  1.00  0.00    -0.464 N  
HETATM    8  O   UNK A   0     -11.017  13.472  67.431  1.00  0.00    -0.265 OA 
HETATM    9  H   UNK A   1      -9.404  13.739  64.726  1.00  0.00     0.000 HD 
BRANCH   7  10
HETATM   10  C   UNK A   1     -11.033  12.483  64.697  1.00  0.00    -0.310 C  
HETATM   11  C   UNK A   1     -10.691  11.185  64.501  1.00  0.00    -0.368 C  
HETATM   12  C   UNK A   1     -12.399  12.822  64.131  1.00  0.00    -0.407 C  
HETATM   13  O   UNK A   1     -12.540  14.062  63.626  1.00  0.00    -0.818 OA 
HETATM   14  O   UNK A   1     -13.270  11.977  63.971  1.00  0.00    -0.681 OA 
BRANCH  11  15
HETATM   15  C   UNK A   1      -9.386  10.533  64.843  1.00  0.00    -0.278 C  
BRANCH  15  16
HETATM   16  C   UNK A   1      -9.129  10.246  66.335  1.00  0.00    -0.174 C  
BRANCH  16  17
HETATM   17  C   UNK A   1     -10.376   9.530  66.871  1.00  0.00    -0.307 C  
BRANCH  17  18
HETATM   18  C   UNK A   1     -11.001  10.140  68.119  1.00  0.00    -0.259 C  
BRANCH  18  19
HETATM   19  S   UNK A   1     -10.002   9.551  69.538  1.00  0.00    -0.208 SA 
BRANCH  19  20
HETATM   20  C   UNK A   1     -11.236   8.490  70.361  1.00  0.00    -0.211 C  
BRANCH  20  21
HETATM   21  C   UNK A   1     -11.571   9.031  71.760  1.00  0.00    -0.374 C  
HETATM   22  N   UNK A   1     -11.845   7.938  72.749  1.00  0.00    -0.606 NA 
HETATM   23  C   UNK A   1     -12.831   9.889  71.634  1.00  0.00    -0.436 C  
HETATM   24  O   UNK A   1     -12.862  11.026  71.192  1.00  0.00    -0.377 OA 
HETATM   25  O   UNK A   1     -13.935   9.204  72.032  1.00  0.00    -0.402 OA 
HETATM   26  H1  UNK A   1     -12.067   8.297  73.677  1.00  0.00     0.000 HD 
HETATM   27  H2  UNK A   1     -11.070   7.276  72.787  1.00  0.00     0.000 HD 
ENDBRANCH  20  21
ENDBRANCH  19  20
ENDBRANCH  18  19
ENDBRANCH  17  18
ENDBRANCH  16  17
ENDBRANCH  15  16
ENDBRANCH  11  15
ENDBRANCH   7  10
ENDBRANCH   5   6
TORSDOF 9
ENDMDL
MODEL       36
REMARK 921   NORMALIZED FREE ENERGY PREDICTED BY IDOCK:   -5.57 KCAL/MOL
REMARK 922        TOTAL FREE ENERGY PREDICTED BY IDOCK:   -9.47 KCAL/MOL
REMARK 923 INTER-LIGAND FREE ENERGY PREDICTED BY IDOCK:   -8.71 KCAL/MOL
REMARK 924 INTRA-LIGAND FREE ENERGY PREDICTED BY IDOCK:   -0.76 KCAL/MOL
REMARK 927      BINDING AFFINITY PREDICTED BY RF-SCORE:    0.00 PKD
ROOT
HETATM    1  C   UNK A   0     -13.005  14.803  73.112  1.00  0.00    -0.623 C  
HETATM    2  C   UNK A   0     -12.884  14.630  71.616  1.00  0.00    -0.403 C  
HETATM    3  C   UNK A   0     -13.903  15.366  70.781  1.00  0.00    -0.103 C  
HETATM    4  C   UNK A   0     -12.457  13.239  71.211  1.00  0.00    -0.351 C  
HETATM    5  C   UNK A   0     -12.454  15.825  70.755  1.00  0.00    -0.420 C  
ENDROOT
BRANCH   5   6
HETATM    6  C   UNK A   0     -11.730  15.684  69.448  1.00  0.00    -0.383 C  
HETATM    7  N   UNK A   1     -10.816  16.666  69.142  1.00  0.00    -0.327 N  
HETATM    8  O   UNK A   0     -12.013  14.769  68.685  1.00  0.00    -0.311 OA 
HETATM    9  H   UNK A   1     -10.687  17.392  69.848  1.00  0.00     0.000 HD 
BRANCH   7  10
HETATM   10  C   UNK A   1     -10.046  16.793  67.987  1.00  0.00    -0.284 C  
HETATM   11  C   UNK A   1      -8.926  16.046  67.813  1.00  0.00    -0.188 C  
HETATM   12  C   UNK A   1     -10.288  17.762  66.846  1.00  0.00    -0.344 C  
HETATM   13  O   UNK A   1     -10.842  18.944  67.179  1.00  0.00    -0.444 OA 
HETATM   14  O   UNK A   1      -9.849  17.571  65.719  1.00  0.00    -0.537 OA 
BRANCH  11  15
HETATM   15  C   UNK A   1      -8.337  15.063  68.778  1.00  0.00    -0.174 C  
BRANCH  15  16
HETATM   16  C   UNK A   1      -7.944  13.687  68.207  1.00  0.00    -0.150 C  
BRANCH  16  17
HETATM   17  C   UNK A   1      -9.131  12.747  68.458  1.00  0.00    -0.049 C  
BRANCH  17  18
HETATM   18  C   UNK A   1      -9.144  11.467  67.630  1.00  0.00    -0.168 C  
BRANCH  18  19
HETATM   19  S   UNK A   1     -10.879  11.216  67.097  1.00  0.00    -0.282 SA 
BRANCH  19  20
HETATM   20  C   UNK A   1     -11.059  12.636  65.967  1.00  0.00    -0.287 C  
BRANCH  20  21
HETATM   21  C   UNK A   1     -11.074  12.168  64.503  1.00  0.00    -0.325 C  
HETATM   22  N   UNK A   1      -9.993  12.806  63.684  1.00  0.00    -0.715 NA 
HETATM   23  C   UNK A   1     -12.424  12.566  63.905  1.00  0.00    -0.445 C  
HETATM   24  O   UNK A   1     -13.476  11.979  64.099  1.00  0.00    -0.672 OA 
HETATM   25  O   UNK A   1     -12.319  13.699  63.162  1.00  0.00    -0.729 OA 
HETATM   26  H1  UNK A   1     -10.003  12.495  62.712  1.00  0.00     0.000 HD 
HETATM   27  H2  UNK A   1      -9.076  12.657  64.107  1.00  0.00     0.000 HD 
ENDBRANCH  20  21
ENDBRANCH  19  20
ENDBRANCH  18  19
ENDBRANCH  17  18
ENDBRANCH  16  17
ENDBRANCH  15  16
ENDBRANCH  11  15
ENDBRANCH   7  10
ENDBRANCH   5   6
TORSDOF 9
ENDMDL
MODEL       37
REMARK 921   NORMALIZED FREE ENERGY PREDICTED BY IDOCK:   -5.56 KCAL/MOL
REMARK 922        TOTAL FREE ENERGY PREDICTED BY IDOCK:   -9.45 KCAL/MOL
REMARK 923 INTER-LIGAND FREE ENERGY PREDICTED BY IDOCK:   -8.37 KCAL/MOL
REMARK 924 INTRA-LIGAND FREE ENERGY PREDICTED BY IDOCK:   -1.08 KCAL/MOL
REMARK 927      BINDING AFFINITY PREDICTED BY RF-SCORE:    0.00 PKD
ROOT
HETATM    1  C   UNK A   0      -9.519   8.757  65.813  1.00  0.00    -0.239 C  
HETATM    2  C   UNK A   0      -9.618  10.254  65.639  1.00  0.00    -0.289 C  
HETATM    3  C   UNK A   0      -9.437  10.768  64.231  1.00  0.00    -0.307 C  
HETATM    4  C   UNK A   0      -9.026  11.027  66.793  1.00  0.00    -0.163 C  
HETATM    5  C   UNK A   0     -10.811  10.844  64.876  1.00  0.00    -0.150 C  
ENDROOT
BRANCH   5   6
HETATM    6  C   UNK A   0     -11.357  12.219  65.131  1.00  0.00    -0.329 C  
HETATM    7  N   UNK A   1     -10.504  13.273  64.899  1.00  0.00    -0.353 N  
HETATM    8  O   UNK A   0     -12.483  12.355  65.591  1.00  0.00    -0.640 OA 
HETATM    9  H   UNK A   1      -9.580  13.030  64.541  1.00  0.00     0.000 HD 
BRANCH   7  10
HETATM   10  C   UNK A   1     -10.746  14.632  65.091  1.00  0.00    -0.414 C  
HETATM   11  C   UNK A   1     -10.297  15.267  66.203  1.00  0.00    -0.314 C  
HETATM   12  C   UNK A   1     -11.548  15.542  64.180  1.00  0.00    -0.078 C  
HETATM   13  O   UNK A   1     -12.571  14.966  63.519  1.00  0.00    -0.567 OA 
HETATM   14  O   UNK A   1     -11.402  16.757  64.172  1.00  0.00    -1.194 OA 
BRANCH  11  15
HETATM   15  C   UNK A   1      -9.558  14.658  67.355  1.00  0.00    -0.215 C  
BRANCH  15  16
HETATM   16  C   UNK A   1     -10.261  14.704  68.726  1.00  0.00    -0.242 C  
BRANCH  16  17
HETATM   17  C   UNK A   1     -11.626  14.026  68.549  1.00  0.00    -0.357 C  
BRANCH  17  18
HETATM   18  C   UNK A   1     -11.657  12.526  68.818  1.00  0.00    -0.322 C  
BRANCH  18  19
HETATM   19  S   UNK A   1     -12.271  12.323  70.532  1.00  0.00    -0.195 SA 
BRANCH  19  20
HETATM   20  C   UNK A   1     -12.600  10.529  70.527  1.00  0.00    -0.339 C  
BRANCH  20  21
HETATM   21  C   UNK A   1     -11.298   9.737  70.330  1.00  0.00    -0.297 C  
HETATM   22  N   UNK A   1     -11.141   9.225  68.931  1.00  0.00    -0.447 NA 
HETATM   23  C   UNK A   1     -11.340   8.537  71.277  1.00  0.00    -0.271 C  
HETATM   24  O   UNK A   1     -11.125   8.584  72.477  1.00  0.00    -0.355 OA 
HETATM   25  O   UNK A   1     -11.701   7.403  70.620  1.00  0.00    -0.290 OA 
HETATM   26  H1  UNK A   1     -10.277   8.699  68.800  1.00  0.00     0.000 HD 
HETATM   27  H2  UNK A   1     -11.215   9.983  68.252  1.00  0.00     0.000 HD 
ENDBRANCH  20  21
ENDBRANCH  19  20
ENDBRANCH  18  19
ENDBRANCH  17  18
ENDBRANCH  16  17
ENDBRANCH  15  16
ENDBRANCH  11  15
ENDBRANCH   7  10
ENDBRANCH   5   6
TORSDOF 9
ENDMDL
MODEL       38
REMARK 921   NORMALIZED FREE ENERGY PREDICTED BY IDOCK:   -5.55 KCAL/MOL
REMARK 922        TOTAL FREE ENERGY PREDICTED BY IDOCK:   -9.44 KCAL/MOL
REMARK 923 INTER-LIGAND FREE ENERGY PREDICTED BY IDOCK:   -8.43 KCAL/MOL
REMARK 924 INTRA-LIGAND FREE ENERGY PREDICTED BY IDOCK:   -1.00 KCAL/MOL
REMARK 927      BINDING AFFINITY PREDICTED BY RF-SCORE:    0.00 PKD
ROOT
HETATM    1  C   UNK A   0      -8.761  18.802  68.663  1.00  0.00    -0.360 C  
HETATM    2  C   UNK A   0      -9.319  17.446  68.300  1.00  0.00    -0.278 C  
HETATM    3  C   UNK A   0     -10.783  17.232  68.600  1.00  0.00    -0.280 C  
HETATM    4  C   UNK A   0      -8.341  16.319  68.534  1.00  0.00    -0.204 C  
HETATM    5  C   UNK A   0     -10.331  17.332  67.153  1.00  0.00    -0.321 C  
ENDROOT
BRANCH   5   6
HETATM    6  C   UNK A   0     -10.493  16.100  66.312  1.00  0.00    -0.315 C  
HETATM    7  N   UNK A   1     -11.352  15.137  66.789  1.00  0.00    -0.296 N  
HETATM    8  O   UNK A   0      -9.824  15.959  65.296  1.00  0.00    -0.408 OA 
HETATM    9  H   UNK A   1     -11.832  15.360  67.662  1.00  0.00     0.000 HD 
BRANCH   7  10
HETATM   10  C   UNK A   1     -11.648  13.896  66.228  1.00  0.00    -0.365 C  
HETATM   11  C   UNK A   1     -11.028  12.770  66.664  1.00  0.00    -0.300 C  
HETATM   12  C   UNK A   1     -12.603  13.633  65.079  1.00  0.00    -0.390 C  
HETATM   13  O   UNK A   1     -12.701  14.607  64.155  1.00  0.00    -0.738 OA 
HETATM   14  O   UNK A   1     -13.120  12.539  64.894  1.00  0.00    -0.833 OA 
BRANCH  11  15
HETATM   15  C   UNK A   1      -9.961  12.674  67.712  1.00  0.00    -0.218 C  
BRANCH  15  16
HETATM   16  C   UNK A   1     -10.098  11.528  68.732  1.00  0.00    -0.191 C  
BRANCH  16  17
HETATM   17  C   UNK A   1     -11.454  10.858  68.468  1.00  0.00    -0.380 C  
BRANCH  17  18
HETATM   18  C   UNK A   1     -12.369  10.725  69.679  1.00  0.00    -0.192 C  
BRANCH  18  19
HETATM   19  S   UNK A   1     -11.338  10.044  71.032  1.00  0.00    -0.311 SA 
BRANCH  19  20
HETATM   20  C   UNK A   1     -11.563   8.262  70.720  1.00  0.00    -0.236 C  
BRANCH  20  21
HETATM   21  C   UNK A   1     -12.234   7.579  71.922  1.00  0.00    -0.306 C  
HETATM   22  N   UNK A   1     -12.750   8.563  72.929  1.00  0.00    -0.658 NA 
HETATM   23  C   UNK A   1     -11.180   6.706  72.605  1.00  0.00    -0.249 C  
HETATM   24  O   UNK A   1     -10.805   5.617  72.202  1.00  0.00    -0.229 OA 
HETATM   25  O   UNK A   1     -10.666   7.321  73.703  1.00  0.00    -0.378 OA 
HETATM   26  H1  UNK A   1     -13.195   8.111  73.727  1.00  0.00     0.000 HD 
HETATM   27  H2  UNK A   1     -13.378   9.238  72.493  1.00  0.00     0.000 HD 
ENDBRANCH  20  21
ENDBRANCH  19  20
ENDBRANCH  18  19
ENDBRANCH  17  18
ENDBRANCH  16  17
ENDBRANCH  15  16
ENDBRANCH  11  15
ENDBRANCH   7  10
ENDBRANCH   5   6
TORSDOF 9
ENDMDL
MODEL       39
REMARK 921   NORMALIZED FREE ENERGY PREDICTED BY IDOCK:   -5.54 KCAL/MOL
REMARK 922        TOTAL FREE ENERGY PREDICTED BY IDOCK:   -9.43 KCAL/MOL
REMARK 923 INTER-LIGAND FREE ENERGY PREDICTED BY IDOCK:   -8.86 KCAL/MOL
REMARK 924 INTRA-LIGAND FREE ENERGY PREDICTED BY IDOCK:   -0.57 KCAL/MOL
REMARK 927      BINDING AFFINITY PREDICTED BY RF-SCORE:    0.00 PKD
ROOT
HETATM    1  C   UNK A   0     -13.292  15.373  73.162  1.00  0.00    -0.608 C  
HETATM    2  C   UNK A   0     -13.352  14.515  71.921  1.00  0.00    -0.450 C  
HETATM    3  C   UNK A   0     -14.088  15.106  70.743  1.00  0.00    -0.017 C  
HETATM    4  C   UNK A   0     -13.498  13.042  72.223  1.00  0.00    -0.645 C  
HETATM    5  C   UNK A   0     -12.579  14.948  70.669  1.00  0.00    -0.420 C  
ENDROOT
BRANCH   5   6
HETATM    6  C   UNK A   0     -12.055  13.984  69.645  1.00  0.00    -0.355 C  
HETATM    7  N   UNK A   1     -11.850  14.481  68.379  1.00  0.00    -0.436 N  
HETATM    8  O   UNK A   0     -11.897  12.805  69.938  1.00  0.00    -0.324 OA 
HETATM    9  H   UNK A   1     -12.043  15.475  68.253  1.00  0.00     0.000 HD 
BRANCH   7  10
HETATM   10  C   UNK A   1     -11.411  13.795  67.248  1.00  0.00    -0.341 C  
HETATM   11  C   UNK A   1     -10.092  13.539  67.058  1.00  0.00    -0.244 C  
HETATM   12  C   UNK A   1     -12.274  13.311  66.098  1.00  0.00    -0.405 C  
HETATM   13  O   UNK A   1     -13.353  14.065  65.808  1.00  0.00    -0.543 OA 
HETATM   14  O   UNK A   1     -11.929  12.400  65.357  1.00  0.00    -0.408 OA 
BRANCH  11  15
HETATM   15  C   UNK A   1      -8.955  13.957  67.938  1.00  0.00    -0.191 C  
BRANCH  15  16
HETATM   16  C   UNK A   1      -7.887  14.868  67.300  1.00  0.00    -0.235 C  
BRANCH  16  17
HETATM   17  C   UNK A   1      -8.559  16.222  67.037  1.00  0.00    -0.227 C  
BRANCH  17  18
HETATM   18  C   UNK A   1      -9.096  16.942  68.269  1.00  0.00    -0.235 C  
BRANCH  18  19
HETATM   19  S   UNK A   1     -10.527  17.936  67.702  1.00  0.00    -0.387 SA 
BRANCH  19  20
HETATM   20  C   UNK A   1     -10.006  19.582  68.290  1.00  0.00    -0.433 C  
BRANCH  20  21
HETATM   21  C   UNK A   1      -9.604  20.479  67.109  1.00  0.00    -0.429 C  
HETATM   22  N   UNK A   1     -10.348  20.142  65.851  1.00  0.00    -0.471 NA 
HETATM   23  C   UNK A   1      -8.112  20.264  66.853  1.00  0.00    -0.299 C  
HETATM   24  O   UNK A   1      -7.211  20.746  67.520  1.00  0.00    -0.331 OA 
HETATM   25  O   UNK A   1      -7.907  19.418  65.809  1.00  0.00    -0.426 OA 
HETATM   26  H1  UNK A   1     -10.081  20.737  65.067  1.00  0.00     0.000 HD 
HETATM   27  H2  UNK A   1     -11.356  20.167  66.004  1.00  0.00     0.000 HD 
ENDBRANCH  20  21
ENDBRANCH  19  20
ENDBRANCH  18  19
ENDBRANCH  17  18
ENDBRANCH  16  17
ENDBRANCH  15  16
ENDBRANCH  11  15
ENDBRANCH   7  10
ENDBRANCH   5   6
TORSDOF 9
ENDMDL
MODEL       40
REMARK 921   NORMALIZED FREE ENERGY PREDICTED BY IDOCK:   -5.51 KCAL/MOL
REMARK 922        TOTAL FREE ENERGY PREDICTED BY IDOCK:   -9.37 KCAL/MOL
REMARK 923 INTER-LIGAND FREE ENERGY PREDICTED BY IDOCK:   -8.41 KCAL/MOL
REMARK 924 INTRA-LIGAND FREE ENERGY PREDICTED BY IDOCK:   -0.96 KCAL/MOL
REMARK 927      BINDING AFFINITY PREDICTED BY RF-SCORE:    0.00 PKD
ROOT
HETATM    1  C   UNK A   0     -14.298   7.701  71.959  1.00  0.00    -0.455 C  
HETATM    2  C   UNK A   0     -12.839   7.781  71.576  1.00  0.00    -0.357 C  
HETATM    3  C   UNK A   0     -11.935   6.746  72.201  1.00  0.00    -0.309 C  
HETATM    4  C   UNK A   0     -12.343   9.198  71.413  1.00  0.00    -0.404 C  
HETATM    5  C   UNK A   0     -12.228   6.670  70.712  1.00  0.00    -0.302 C  
ENDROOT
BRANCH   5   6
HETATM    6  C   UNK A   0     -11.065   6.887  69.788  1.00  0.00    -0.271 C  
HETATM    7  N   UNK A   1     -11.366   7.160  68.473  1.00  0.00    -0.393 N  
HETATM    8  O   UNK A   0      -9.920   6.749  70.200  1.00  0.00    -0.176 OA 
HETATM    9  H   UNK A   1     -12.359   7.223  68.246  1.00  0.00     0.000 HD 
BRANCH   7  10
HETATM   10  C   UNK A   1     -10.483   7.361  67.414  1.00  0.00    -0.296 C  
HETATM   11  C   UNK A   1     -10.147   8.615  67.017  1.00  0.00    -0.342 C  
HETATM   12  C   UNK A   1      -9.845   6.284  66.557  1.00  0.00    -0.126 C  
HETATM   13  O   UNK A   1     -10.580   5.173  66.359  1.00  0.00    -0.293 OA 
HETATM   14  O   UNK A   1      -8.810   6.471  65.932  1.00  0.00    -0.154 OA 
BRANCH  11  15
HETATM   15  C   UNK A   1     -10.664   9.907  67.572  1.00  0.00    -0.333 C  
BRANCH  15  16
HETATM   16  C   UNK A   1     -10.695  11.108  66.607  1.00  0.00    -0.322 C  
BRANCH  16  17
HETATM   17  C   UNK A   1     -11.591  12.173  67.254  1.00  0.00    -0.404 C  
BRANCH  17  18
HETATM   18  C   UNK A   1     -11.843  12.005  68.747  1.00  0.00    -0.302 C  
BRANCH  18  19
HETATM   19  S   UNK A   1     -11.863  13.693  69.460  1.00  0.00    -0.348 SA 
BRANCH  19  20
HETATM   20  C   UNK A   1     -12.506  13.312  71.124  1.00  0.00    -0.308 C  
BRANCH  20  21
HETATM   21  C   UNK A   1     -13.400  14.453  71.635  1.00  0.00    -0.363 C  
HETATM   22  N   UNK A   1     -13.749  15.438  70.559  1.00  0.00    -0.770 NA 
HETATM   23  C   UNK A   1     -12.626  15.193  72.727  1.00  0.00    -0.390 C  
HETATM   24  O   UNK A   1     -12.482  14.799  73.872  1.00  0.00    -0.491 OA 
HETATM   25  O   UNK A   1     -12.066  16.334  72.247  1.00  0.00    -0.504 OA 
HETATM   26  H1  UNK A   1     -14.342  16.195  70.898  1.00  0.00     0.000 HD 
HETATM   27  H2  UNK A   1     -14.173  14.970  69.758  1.00  0.00     0.000 HD 
ENDBRANCH  20  21
ENDBRANCH  19  20
ENDBRANCH  18  19
ENDBRANCH  17  18
ENDBRANCH  16  17
ENDBRANCH  15  16
ENDBRANCH  11  15
ENDBRANCH   7  10
ENDBRANCH   5   6
TORSDOF 9
ENDMDL
MODEL       41
REMARK 921   NORMALIZED FREE ENERGY PREDICTED BY IDOCK:   -5.51 KCAL/MOL
REMARK 922        TOTAL FREE ENERGY PREDICTED BY IDOCK:   -9.37 KCAL/MOL
REMARK 923 INTER-LIGAND FREE ENERGY PREDICTED BY IDOCK:   -8.08 KCAL/MOL
REMARK 924 INTRA-LIGAND FREE ENERGY PREDICTED BY IDOCK:   -1.29 KCAL/MOL
REMARK 927      BINDING AFFINITY PREDICTED BY RF-SCORE:    0.00 PKD
ROOT
HETATM    1  C   UNK A   0     -12.979  14.641  72.969  1.00  0.00    -0.610 C  
HETATM    2  C   UNK A   0     -12.731  14.499  71.486  1.00  0.00    -0.409 C  
HETATM    3  C   UNK A   0     -13.504  15.439  70.594  1.00  0.00    -0.213 C  
HETATM    4  C   UNK A   0     -12.524  13.067  71.053  1.00  0.00    -0.385 C  
HETATM    5  C   UNK A   0     -12.002  15.620  70.735  1.00  0.00    -0.438 C  
ENDROOT
BRANCH   5   6
HETATM    6  C   UNK A   0     -11.179  15.391  69.502  1.00  0.00    -0.285 C  
HETATM    7  N   UNK A   1     -11.848  15.427  68.300  1.00  0.00    -0.485 N  
HETATM    8  O   UNK A   0      -9.990  15.116  69.600  1.00  0.00    -0.227 OA 
HETATM    9  H   UNK A   1     -12.845  15.640  68.350  1.00  0.00     0.000 HD 
BRANCH   7  10
HETATM   10  C   UNK A   1     -11.333  15.210  67.023  1.00  0.00    -0.277 C  
HETATM   11  C   UNK A   1     -11.306  13.963  66.487  1.00  0.00    -0.340 C  
HETATM   12  C   UNK A   1     -10.707  16.252  66.115  1.00  0.00    -0.197 C  
HETATM   13  O   UNK A   1     -10.048  17.253  66.729  1.00  0.00    -0.281 OA 
HETATM   14  O   UNK A   1     -10.641  16.109  64.902  1.00  0.00    -0.622 OA 
BRANCH  11  15
HETATM   15  C   UNK A   1     -11.748  12.689  67.141  1.00  0.00    -0.438 C  
BRANCH  15  16
HETATM   16  C   UNK A   1     -10.703  11.960  68.007  1.00  0.00    -0.242 C  
BRANCH  16  17
HETATM   17  C   UNK A   1     -11.261  10.559  68.291  1.00  0.00    -0.354 C  
BRANCH  17  18
HETATM   18  C   UNK A   1     -10.465   9.400  67.704  1.00  0.00    -0.268 C  
BRANCH  18  19
HETATM   19  S   UNK A   1     -10.094   8.270  69.098  1.00  0.00    -0.206 SA 
BRANCH  19  20
HETATM   20  C   UNK A   1      -9.929   9.490  70.443  1.00  0.00    -0.267 C  
BRANCH  20  21
HETATM   21  C   UNK A   1     -10.349   8.876  71.788  1.00  0.00    -0.356 C  
HETATM   22  N   UNK A   1      -9.761   7.515  72.008  1.00  0.00    -0.157 NA 
HETATM   23  C   UNK A   1     -11.872   8.743  71.779  1.00  0.00    -0.344 C  
HETATM   24  O   UNK A   1     -12.657   9.660  71.958  1.00  0.00    -0.379 OA 
HETATM   25  O   UNK A   1     -12.254   7.470  71.493  1.00  0.00    -0.303 OA 
HETATM   26  H1  UNK A   1     -10.039   7.108  72.901  1.00  0.00     0.000 HD 
HETATM   27  H2  UNK A   1      -8.745   7.536  71.916  1.00  0.00     0.000 HD 
ENDBRANCH  20  21
ENDBRANCH  19  20
ENDBRANCH  18  19
ENDBRANCH  17  18
ENDBRANCH  16  17
ENDBRANCH  15  16
ENDBRANCH  11  15
ENDBRANCH   7  10
ENDBRANCH   5   6
TORSDOF 9
ENDMDL
MODEL       42
REMARK 921   NORMALIZED FREE ENERGY PREDICTED BY IDOCK:   -5.50 KCAL/MOL
REMARK 922        TOTAL FREE ENERGY PREDICTED BY IDOCK:   -9.37 KCAL/MOL
REMARK 923 INTER-LIGAND FREE ENERGY PREDICTED BY IDOCK:   -7.54 KCAL/MOL
REMARK 924 INTRA-LIGAND FREE ENERGY PREDICTED BY IDOCK:   -1.82 KCAL/MOL
REMARK 927      BINDING AFFINITY PREDICTED BY RF-SCORE:    0.00 PKD
ROOT
HETATM    1  C   UNK A   0     -12.553  12.010  63.224  1.00  0.00    -0.512 C  
HETATM    2  C   UNK A   0     -11.852  12.876  64.243  1.00  0.00    -0.457 C  
HETATM    3  C   UNK A   0     -12.329  14.305  64.336  1.00  0.00    -0.417 C  
HETATM    4  C   UNK A   0     -10.376  12.578  64.362  1.00  0.00    -0.378 C  
HETATM    5  C   UNK A   0     -12.621  13.352  65.482  1.00  0.00    -0.520 C  
ENDROOT
BRANCH   5   6
HETATM    6  C   UNK A   0     -11.963  13.660  66.795  1.00  0.00    -0.414 C  
HETATM    7  N   UNK A   1     -11.430  14.921  66.936  1.00  0.00    -0.341 N  
HETATM    8  O   UNK A   0     -11.861  12.789  67.649  1.00  0.00    -0.356 OA 
HETATM    9  H   UNK A   1     -11.556  15.550  66.143  1.00  0.00     0.000 HD 
BRANCH   7  10
HETATM   10  C   UNK A   1     -10.739  15.444  68.027  1.00  0.00    -0.279 C  
HETATM   11  C   UNK A   1      -9.382  15.476  68.040  1.00  0.00    -0.193 C  
HETATM   12  C   UNK A   1     -11.350  15.970  69.312  1.00  0.00    -0.356 C  
HETATM   13  O   UNK A   1     -12.490  15.375  69.713  1.00  0.00    -0.291 OA 
HETATM   14  O   UNK A   1     -10.764  16.758  70.042  1.00  0.00    -0.256 OA 
BRANCH  11  15
HETATM   15  C   UNK A   1      -8.456  14.951  66.986  1.00  0.00    -0.260 C  
BRANCH  15  16
HETATM   16  C   UNK A   1      -7.549  13.772  67.389  1.00  0.00    -0.153 C  
BRANCH  16  17
HETATM   17  C   UNK A   1      -8.414  12.506  67.327  1.00  0.00    -0.185 C  
BRANCH  17  18
HETATM   18  C   UNK A   1      -7.736  11.273  66.741  1.00  0.00    -0.155 C  
BRANCH  18  19
HETATM   19  S   UNK A   1      -7.905   9.947  67.994  1.00  0.00    -0.085 SA 
BRANCH  19  20
HETATM   20  C   UNK A   1      -9.248  10.653  69.005  1.00  0.00    -0.167 C  
BRANCH  20  21
HETATM   21  C   UNK A   1     -10.464   9.713  69.027  1.00  0.00    -0.213 C  
HETATM   22  N   UNK A   1     -11.436  10.004  67.924  1.00  0.00    -0.608 NA 
HETATM   23  C   UNK A   1     -11.181   9.917  70.362  1.00  0.00    -0.313 C  
HETATM   24  O   UNK A   1     -10.814   9.459  71.432  1.00  0.00    -0.336 OA 
HETATM   25  O   UNK A   1     -12.266  10.725  70.221  1.00  0.00    -0.297 OA 
HETATM   26  H1  UNK A   1     -12.243   9.380  67.938  1.00  0.00     0.000 HD 
HETATM   27  H2  UNK A   1     -10.975   9.985  67.014  1.00  0.00     0.000 HD 
ENDBRANCH  20  21
ENDBRANCH  19  20
ENDBRANCH  18  19
ENDBRANCH  17  18
ENDBRANCH  16  17
ENDBRANCH  15  16
ENDBRANCH  11  15
ENDBRANCH   7  10
ENDBRANCH   5   6
TORSDOF 9
ENDMDL
MODEL       43
REMARK 921   NORMALIZED FREE ENERGY PREDICTED BY IDOCK:   -5.49 KCAL/MOL
REMARK 922        TOTAL FREE ENERGY PREDICTED BY IDOCK:   -9.35 KCAL/MOL
REMARK 923 INTER-LIGAND FREE ENERGY PREDICTED BY IDOCK:   -8.05 KCAL/MOL
REMARK 924 INTRA-LIGAND FREE ENERGY PREDICTED BY IDOCK:   -1.31 KCAL/MOL
REMARK 927      BINDING AFFINITY PREDICTED BY RF-SCORE:    0.00 PKD
ROOT
HETATM    1  C   UNK A   0     -12.496  12.168  63.688  1.00  0.00    -0.658 C  
HETATM    2  C   UNK A   0     -11.518  12.305  64.831  1.00  0.00    -0.382 C  
HETATM    3  C   UNK A   0     -11.267  13.710  65.321  1.00  0.00    -0.307 C  
HETATM    4  C   UNK A   0     -10.366  11.331  64.748  1.00  0.00    -0.366 C  
HETATM    5  C   UNK A   0     -12.030  12.742  66.209  1.00  0.00    -0.460 C  
ENDROOT
BRANCH   5   6
HETATM    6  C   UNK A   0     -11.369  12.352  67.499  1.00  0.00    -0.315 C  
HETATM    7  N   UNK A   1     -11.961  11.334  68.211  1.00  0.00    -0.226 N  
HETATM    8  O   UNK A   0     -10.396  12.977  67.903  1.00  0.00    -0.221 OA 
HETATM    9  H   UNK A   1     -12.784  10.909  67.782  1.00  0.00     0.000 HD 
BRANCH   7  10
HETATM   10  C   UNK A   1     -11.575  10.812  69.444  1.00  0.00    -0.308 C  
HETATM   11  C   UNK A   1     -12.077  11.315  70.600  1.00  0.00    -0.480 C  
HETATM   12  C   UNK A   1     -10.557   9.711  69.677  1.00  0.00    -0.233 C  
HETATM   13  O   UNK A   1      -9.540   9.648  68.796  1.00  0.00    -0.147 OA 
HETATM   14  O   UNK A   1     -10.547   9.032  70.695  1.00  0.00    -0.207 OA 
BRANCH  11  15
HETATM   15  C   UNK A   1     -13.025  12.466  70.747  1.00  0.00     0.032 C  
BRANCH  15  16
HETATM   16  C   UNK A   1     -13.436  12.841  72.184  1.00  0.00    -0.591 C  
BRANCH  16  17
HETATM   17  C   UNK A   1     -14.098  14.224  72.110  1.00  0.00    -0.634 C  
BRANCH  17  18
HETATM   18  C   UNK A   1     -13.565  15.153  71.027  1.00  0.00    -0.409 C  
BRANCH  18  19
HETATM   19  S   UNK A   1     -12.065  15.945  71.719  1.00  0.00    -0.515 SA 
BRANCH  19  20
HETATM   20  C   UNK A   1     -10.865  15.518  70.415  1.00  0.00    -0.335 C  
BRANCH  20  21
HETATM   21  C   UNK A   1     -11.072  16.402  69.175  1.00  0.00    -0.303 C  
HETATM   22  N   UNK A   1     -11.907  15.734  68.124  1.00  0.00    -0.344 NA 
HETATM   23  C   UNK A   1      -9.693  16.691  68.578  1.00  0.00    -0.244 C  
HETATM   24  O   UNK A   1      -8.896  17.502  69.018  1.00  0.00    -0.177 OA 
HETATM   25  O   UNK A   1      -9.440  15.885  67.513  1.00  0.00    -0.217 OA 
HETATM   26  H1  UNK A   1     -12.044  16.321  67.301  1.00  0.00     0.000 HD 
HETATM   27  H2  UNK A   1     -12.800  15.426  68.508  1.00  0.00     0.000 HD 
ENDBRANCH  20  21
ENDBRANCH  19  20
ENDBRANCH  18  19
ENDBRANCH  17  18
ENDBRANCH  16  17
ENDBRANCH  15  16
ENDBRANCH  11  15
ENDBRANCH   7  10
ENDBRANCH   5   6
TORSDOF 9
ENDMDL
MODEL       44
REMARK 921   NORMALIZED FREE ENERGY PREDICTED BY IDOCK:   -5.49 KCAL/MOL
REMARK 922        TOTAL FREE ENERGY PREDICTED BY IDOCK:   -9.34 KCAL/MOL
REMARK 923 INTER-LIGAND FREE ENERGY PREDICTED BY IDOCK:   -8.24 KCAL/MOL
REMARK 924 INTRA-LIGAND FREE ENERGY PREDICTED BY IDOCK:   -1.10 KCAL/MOL
REMARK 927      BINDING AFFINITY PREDICTED BY RF-SCORE:    0.00 PKD
ROOT
HETATM    1  C   UNK A   0      -9.728   8.235  72.486  1.00  0.00    -0.368 C  
HETATM    2  C   UNK A   0     -10.631   8.876  71.460  1.00  0.00    -0.399 C  
HETATM    3  C   UNK A   0     -11.948   8.182  71.212  1.00  0.00    -0.318 C  
HETATM    4  C   UNK A   0      -9.878   9.475  70.295  1.00  0.00    -0.313 C  
HETATM    5  C   UNK A   0     -11.943   9.528  71.916  1.00  0.00    -0.381 C  
ENDROOT
BRANCH   5   6
HETATM    6  C   UNK A   0     -12.597  10.667  71.190  1.00  0.00    -0.423 C  
HETATM    7  N   UNK A   1     -12.178  11.934  71.527  1.00  0.00    -0.011 N  
HETATM    8  O   UNK A   0     -13.504  10.448  70.397  1.00  0.00    -0.081 OA 
HETATM    9  H   UNK A   1     -11.433  11.988  72.222  1.00  0.00     0.000 HD 
BRANCH   7  10
HETATM   10  C   UNK A   1     -12.646  13.151  71.036  1.00  0.00    -0.312 C  
HETATM   11  C   UNK A   1     -12.219  13.629  69.840  1.00  0.00    -0.367 C  
HETATM   12  C   UNK A   1     -13.596  14.101  71.742  1.00  0.00    -0.399 C  
HETATM   13  O   UNK A   1     -13.515  14.130  73.086  1.00  0.00    -0.619 OA 
HETATM   14  O   UNK A   1     -14.270  14.924  71.136  1.00  0.00    -0.393 OA 
BRANCH  11  15
HETATM   15  C   UNK A   1     -11.211  13.003  68.925  1.00  0.00    -0.326 C  
BRANCH  15  16
HETATM   16  C   UNK A   1     -11.752  12.008  67.880  1.00  0.00    -0.393 C  
BRANCH  16  17
HETATM   17  C   UNK A   1     -11.420  12.590  66.499  1.00  0.00    -0.418 C  
BRANCH  17  18
HETATM   18  C   UNK A   1     -12.141  13.882  66.138  1.00  0.00    -0.448 C  
BRANCH  18  19
HETATM   19  S   UNK A   1     -11.136  14.688  64.836  1.00  0.00    -0.398 SA 
BRANCH  19  20
HETATM   20  C   UNK A   1     -10.471  16.093  65.789  1.00  0.00    -0.367 C  
BRANCH  20  21
HETATM   21  C   UNK A   1      -8.981  15.883  66.100  1.00  0.00    -0.341 C  
HETATM   22  N   UNK A   1      -8.760  14.951  67.254  1.00  0.00    -0.194 NA 
HETATM   23  C   UNK A   1      -8.389  17.245  66.466  1.00  0.00    -0.277 C  
HETATM   24  O   UNK A   1      -8.094  18.117  65.666  1.00  0.00    -0.488 OA 
HETATM   25  O   UNK A   1      -8.277  17.388  67.813  1.00  0.00    -0.209 OA 
HETATM   26  H1  UNK A   1      -7.771  14.811  67.461  1.00  0.00     0.000 HD 
HETATM   27  H2  UNK A   1      -9.231  14.060  67.101  1.00  0.00     0.000 HD 
ENDBRANCH  20  21
ENDBRANCH  19  20
ENDBRANCH  18  19
ENDBRANCH  17  18
ENDBRANCH  16  17
ENDBRANCH  15  16
ENDBRANCH  11  15
ENDBRANCH   7  10
ENDBRANCH   5   6
TORSDOF 9
ENDMDL
MODEL       45
REMARK 921   NORMALIZED FREE ENERGY PREDICTED BY IDOCK:   -5.48 KCAL/MOL
REMARK 922        TOTAL FREE ENERGY PREDICTED BY IDOCK:   -9.33 KCAL/MOL
REMARK 923 INTER-LIGAND FREE ENERGY PREDICTED BY IDOCK:   -8.26 KCAL/MOL
REMARK 924 INTRA-LIGAND FREE ENERGY PREDICTED BY IDOCK:   -1.07 KCAL/MOL
REMARK 927      BINDING AFFINITY PREDICTED BY RF-SCORE:    0.00 PKD
ROOT
HETATM    1  C   UNK A   0     -12.534  13.581  65.485  1.00  0.00    -0.538 C  
HETATM    2  C   UNK A   0     -11.801  13.521  66.804  1.00  0.00    -0.450 C  
HETATM    3  C   UNK A   0     -10.701  14.536  66.995  1.00  0.00    -0.291 C  
HETATM    4  C   UNK A   0     -11.607  12.112  67.312  1.00  0.00    -0.404 C  
HETATM    5  C   UNK A   0     -11.975  14.663  67.813  1.00  0.00    -0.302 C  
ENDROOT
BRANCH   5   6
HETATM    6  C   UNK A   0     -11.841  14.483  69.297  1.00  0.00    -0.323 C  
HETATM    7  N   UNK A   1     -12.950  14.017  69.964  1.00  0.00    -0.266 N  
HETATM    8  O   UNK A   0     -10.806  14.813  69.863  1.00  0.00    -0.232 OA 
HETATM    9  H   UNK A   1     -13.762  13.803  69.384  1.00  0.00     0.000 HD 
BRANCH   7  10
HETATM   10  C   UNK A   1     -13.102  13.801  71.332  1.00  0.00    -0.337 C  
HETATM   11  C   UNK A   1     -12.938  12.563  71.863  1.00  0.00    -0.406 C  
HETATM   12  C   UNK A   1     -13.505  14.834  72.367  1.00  0.00    -0.428 C  
HETATM   13  O   UNK A   1     -14.341  15.802  71.943  1.00  0.00    -0.412 OA 
HETATM   14  O   UNK A   1     -13.243  14.709  73.556  1.00  0.00    -0.546 OA 
BRANCH  11  15
HETATM   15  C   UNK A   1     -12.635  11.296  71.124  1.00  0.00    -0.501 C  
BRANCH  15  16
HETATM   16  C   UNK A   1     -13.019   9.979  71.826  1.00  0.00    -0.560 C  
BRANCH  16  17
HETATM   17  C   UNK A   1     -12.087   8.892  71.273  1.00  0.00    -0.360 C  
BRANCH  17  18
HETATM   18  C   UNK A   1     -10.726   8.785  71.951  1.00  0.00    -0.359 C  
BRANCH  18  19
HETATM   19  S   UNK A   1      -9.477   9.132  70.656  1.00  0.00    -0.277 SA 
BRANCH  19  20
HETATM   20  C   UNK A   1      -8.660   7.503  70.575  1.00  0.00    -0.138 C  
BRANCH  20  21
HETATM   21  C   UNK A   1      -9.054   6.761  69.289  1.00  0.00    -0.139 C  
HETATM   22  N   UNK A   1      -9.652   7.672  68.259  1.00  0.00    -0.152 NA 
HETATM   23  C   UNK A   1     -10.101   5.711  69.664  1.00  0.00    -0.222 C  
HETATM   24  O   UNK A   1      -9.860   4.643  70.201  1.00  0.00    -0.202 OA 
HETATM   25  O   UNK A   1     -11.357   6.140  69.369  1.00  0.00    -0.420 OA 
HETATM   26  H1  UNK A   1      -9.914   7.179  67.405  1.00  0.00     0.000 HD 
HETATM   27  H2  UNK A   1      -9.030   8.453  68.055  1.00  0.00     0.000 HD 
ENDBRANCH  20  21
ENDBRANCH  19  20
ENDBRANCH  18  19
ENDBRANCH  17  18
ENDBRANCH  16  17
ENDBRANCH  15  16
ENDBRANCH  11  15
ENDBRANCH   7  10
ENDBRANCH   5   6
TORSDOF 9
ENDMDL
MODEL       46
REMARK 921   NORMALIZED FREE ENERGY PREDICTED BY IDOCK:   -5.47 KCAL/MOL
REMARK 922        TOTAL FREE ENERGY PREDICTED BY IDOCK:   -9.32 KCAL/MOL
REMARK 923 INTER-LIGAND FREE ENERGY PREDICTED BY IDOCK:   -8.45 KCAL/MOL
REMARK 924 INTRA-LIGAND FREE ENERGY PREDICTED BY IDOCK:   -0.87 KCAL/MOL
REMARK 927      BINDING AFFINITY PREDICTED BY RF-SCORE:    0.00 PKD
ROOT
HETATM    1  C   UNK A   0     -10.247   4.811  66.110  1.00  0.00    -0.313 C  
HETATM    2  C   UNK A   0      -9.913   5.750  67.244  1.00  0.00    -0.178 C  
HETATM    3  C   UNK A   0     -10.279   7.199  67.033  1.00  0.00    -0.339 C  
HETATM    4  C   UNK A   0      -8.616   5.406  67.938  1.00  0.00    -0.104 C  
HETATM    5  C   UNK A   0     -11.051   6.382  68.056  1.00  0.00    -0.365 C  
ENDROOT
BRANCH   5   6
HETATM    6  C   UNK A   0     -10.910   6.799  69.491  1.00  0.00    -0.273 C  
HETATM    7  N   UNK A   1     -10.400   8.056  69.720  1.00  0.00    -0.215 N  
HETATM    8  O   UNK A   0     -11.178   6.009  70.388  1.00  0.00    -0.337 OA 
HETATM    9  H   UNK A   1     -10.190   8.611  68.890  1.00  0.00     0.000 HD 
BRANCH   7  10
HETATM   10  C   UNK A   1     -10.134   8.665  70.945  1.00  0.00    -0.211 C  
HETATM   11  C   UNK A   1     -11.010   9.549  71.487  1.00  0.00    -0.369 C  
HETATM   12  C   UNK A   1      -8.881   8.494  71.782  1.00  0.00    -0.211 C  
HETATM   13  O   UNK A   1      -7.739   8.277  71.102  1.00  0.00    -0.079 OA 
HETATM   14  O   UNK A   1      -8.862   8.715  72.986  1.00  0.00    -0.355 OA 
BRANCH  11  15
HETATM   15  C   UNK A   1     -12.298  10.027  70.888  1.00  0.00    -0.438 C  
BRANCH  15  16
HETATM   16  C   UNK A   1     -12.414  11.540  70.620  1.00  0.00    -0.405 C  
BRANCH  16  17
HETATM   17  C   UNK A   1     -11.831  11.790  69.223  1.00  0.00    -0.389 C  
BRANCH  17  18
HETATM   18  C   UNK A   1     -11.807  13.244  68.769  1.00  0.00    -0.334 C  
BRANCH  18  19
HETATM   19  S   UNK A   1     -10.575  13.342  67.416  1.00  0.00    -0.252 SA 
BRANCH  19  20
HETATM   20  C   UNK A   1     -11.462  12.404  66.128  1.00  0.00    -0.379 C  
BRANCH  20  21
HETATM   21  C   UNK A   1     -10.965  12.799  64.728  1.00  0.00    -0.305 C  
HETATM   22  N   UNK A   1     -10.256  14.120  64.721  1.00  0.00    -0.579 NA 
HETATM   23  C   UNK A   1     -12.188  12.909  63.817  1.00  0.00    -0.476 C  
HETATM   24  O   UNK A   1     -12.787  11.963  63.333  1.00  0.00    -0.715 OA 
HETATM   25  O   UNK A   1     -12.565  14.204  63.651  1.00  0.00    -0.831 OA 
HETATM   26  H1  UNK A   1      -9.925  14.382  63.792  1.00  0.00     0.000 HD 
HETATM   27  H2  UNK A   1      -9.492  14.130  65.397  1.00  0.00     0.000 HD 
ENDBRANCH  20  21
ENDBRANCH  19  20
ENDBRANCH  18  19
ENDBRANCH  17  18
ENDBRANCH  16  17
ENDBRANCH  15  16
ENDBRANCH  11  15
ENDBRANCH   7  10
ENDBRANCH   5   6
TORSDOF 9
ENDMDL
MODEL       47
REMARK 921   NORMALIZED FREE ENERGY PREDICTED BY IDOCK:   -5.47 KCAL/MOL
REMARK 922        TOTAL FREE ENERGY PREDICTED BY IDOCK:   -9.31 KCAL/MOL
REMARK 923 INTER-LIGAND FREE ENERGY PREDICTED BY IDOCK:   -8.23 KCAL/MOL
REMARK 924 INTRA-LIGAND FREE ENERGY PREDICTED BY IDOCK:   -1.08 KCAL/MOL
REMARK 927      BINDING AFFINITY PREDICTED BY RF-SCORE:    0.00 PKD
ROOT
HETATM    1  C   UNK A   0      -9.855   8.432  69.421  1.00  0.00    -0.185 C  
HETATM    2  C   UNK A   0      -9.490   9.504  68.421  1.00  0.00    -0.144 C  
HETATM    3  C   UNK A   0      -9.143   9.023  67.033  1.00  0.00    -0.155 C  
HETATM    4  C   UNK A   0      -8.704  10.642  69.030  1.00  0.00    -0.152 C  
HETATM    5  C   UNK A   0     -10.436   9.792  67.249  1.00  0.00    -0.324 C  
ENDROOT
BRANCH   5   6
HETATM    6  C   UNK A   0     -10.540  11.131  66.579  1.00  0.00    -0.262 C  
HETATM    7  N   UNK A   1     -11.620  11.911  66.924  1.00  0.00    -0.322 N  
HETATM    8  O   UNK A   0      -9.727  11.452  65.721  1.00  0.00    -0.216 OA 
HETATM    9  H   UNK A   1     -12.243  11.522  67.633  1.00  0.00     0.000 HD 
BRANCH   7  10
HETATM   10  C   UNK A   1     -11.968  13.165  66.426  1.00  0.00    -0.402 C  
HETATM   11  C   UNK A   1     -11.822  14.280  67.186  1.00  0.00    -0.454 C  
HETATM   12  C   UNK A   1     -12.580  13.456  65.069  1.00  0.00    -0.403 C  
HETATM   13  O   UNK A   1     -13.390  12.504  64.568  1.00  0.00    -0.780 OA 
HETATM   14  O   UNK A   1     -12.497  14.554  64.535  1.00  0.00    -0.600 OA 
BRANCH  11  15
HETATM   15  C   UNK A   1     -11.342  14.350  68.604  1.00  0.00    -0.298 C  
BRANCH  15  16
HETATM   16  C   UNK A   1     -11.735  15.608  69.403  1.00  0.00    -0.395 C  
BRANCH  16  17
HETATM   17  C   UNK A   1     -10.535  16.563  69.347  1.00  0.00    -0.320 C  
BRANCH  17  18
HETATM   18  C   UNK A   1      -9.184  15.908  69.083  1.00  0.00    -0.253 C  
BRANCH  18  19
HETATM   19  S   UNK A   1      -8.040  17.259  68.612  1.00  0.00    -0.242 SA 
BRANCH  19  20
HETATM   20  C   UNK A   1      -9.248  18.485  68.007  1.00  0.00    -0.297 C  
BRANCH  20  21
HETATM   21  C   UNK A   1      -8.992  18.815  66.528  1.00  0.00    -0.319 C  
HETATM   22  N   UNK A   1      -8.742  20.275  66.299  1.00  0.00    -0.563 NA 
HETATM   23  C   UNK A   1     -10.242  18.415  65.743  1.00  0.00    -0.095 C  
HETATM   24  O   UNK A   1     -10.539  17.273  65.432  1.00  0.00    -0.630 OA 
HETATM   25  O   UNK A   1     -11.021  19.496  65.473  1.00  0.00    -0.416 OA 
HETATM   26  H1  UNK A   1      -8.573  20.495  65.317  1.00  0.00     0.000 HD 
HETATM   27  H2  UNK A   1      -7.980  20.613  66.886  1.00  0.00     0.000 HD 
ENDBRANCH  20  21
ENDBRANCH  19  20
ENDBRANCH  18  19
ENDBRANCH  17  18
ENDBRANCH  16  17
ENDBRANCH  15  16
ENDBRANCH  11  15
ENDBRANCH   7  10
ENDBRANCH   5   6
TORSDOF 9
ENDMDL
MODEL       48
REMARK 921   NORMALIZED FREE ENERGY PREDICTED BY IDOCK:   -5.46 KCAL/MOL
REMARK 922        TOTAL FREE ENERGY PREDICTED BY IDOCK:   -9.31 KCAL/MOL
REMARK 923 INTER-LIGAND FREE ENERGY PREDICTED BY IDOCK:   -8.31 KCAL/MOL
REMARK 924 INTRA-LIGAND FREE ENERGY PREDICTED BY IDOCK:   -1.00 KCAL/MOL
REMARK 927      BINDING AFFINITY PREDICTED BY RF-SCORE:    0.00 PKD
ROOT
HETATM    1  C   UNK A   0     -13.308  12.185  72.115  1.00  0.00    -0.438 C  
HETATM    2  C   UNK A   0     -12.863  10.927  71.407  1.00  0.00    -0.554 C  
HETATM    3  C   UNK A   0     -12.922  10.961  69.899  1.00  0.00     0.161 C  
HETATM    4  C   UNK A   0     -13.255   9.664  72.137  1.00  0.00    -0.535 C  
HETATM    5  C   UNK A   0     -11.567  10.945  70.586  1.00  0.00    -0.341 C  
ENDROOT
BRANCH   5   6
HETATM    6  C   UNK A   0     -10.715   9.731  70.360  1.00  0.00    -0.308 C  
HETATM    7  N   UNK A   1     -10.907   9.054  69.177  1.00  0.00    -0.399 N  
HETATM    8  O   UNK A   0      -9.949   9.348  71.235  1.00  0.00    -0.287 OA 
HETATM    9  H   UNK A   1     -11.594   9.457  68.539  1.00  0.00     0.000 HD 
BRANCH   7  10
HETATM   10  C   UNK A   1     -10.280   7.888  68.743  1.00  0.00    -0.205 C  
HETATM   11  C   UNK A   1      -9.412   7.911  67.700  1.00  0.00    -0.170 C  
HETATM   12  C   UNK A   1     -10.499   6.491  69.292  1.00  0.00    -0.219 C  
HETATM   13  O   UNK A   1     -11.736   6.222  69.753  1.00  0.00    -0.403 OA 
HETATM   14  O   UNK A   1      -9.670   5.599  69.167  1.00  0.00    -0.131 OA 
BRANCH  11  15
HETATM   15  C   UNK A   1      -9.038   9.096  66.863  1.00  0.00    -0.163 C  
BRANCH  15  16
HETATM   16  C   UNK A   1     -10.026   9.492  65.748  1.00  0.00    -0.316 C  
BRANCH  16  17
HETATM   17  C   UNK A   1      -9.887  11.008  65.550  1.00  0.00    -0.292 C  
BRANCH  17  18
HETATM   18  C   UNK A   1     -11.175  11.811  65.681  1.00  0.00    -0.267 C  
BRANCH  18  19
HETATM   19  S   UNK A   1     -11.012  12.801  67.214  1.00  0.00    -0.272 SA 
BRANCH  19  20
HETATM   20  C   UNK A   1     -11.339  14.464  66.539  1.00  0.00    -0.350 C  
BRANCH  20  21
HETATM   21  C   UNK A   1     -10.750  14.603  65.126  1.00  0.00    -0.414 C  
HETATM   22  N   UNK A   1      -9.575  15.533  65.082  1.00  0.00    -0.267 NA 
HETATM   23  C   UNK A   1     -11.845  15.173  64.223  1.00  0.00    -0.251 C  
HETATM   24  O   UNK A   1     -12.778  14.534  63.766  1.00  0.00    -0.780 OA 
HETATM   25  O   UNK A   1     -11.679  16.508  64.031  1.00  0.00    -1.111 OA 
HETATM   26  H1  UNK A   1      -9.183  15.626  64.145  1.00  0.00     0.000 HD 
HETATM   27  H2  UNK A   1      -8.859  15.251  65.752  1.00  0.00     0.000 HD 
ENDBRANCH  20  21
ENDBRANCH  19  20
ENDBRANCH  18  19
ENDBRANCH  17  18
ENDBRANCH  16  17
ENDBRANCH  15  16
ENDBRANCH  11  15
ENDBRANCH   7  10
ENDBRANCH   5   6
TORSDOF 9
ENDMDL
MODEL       49
REMARK 921   NORMALIZED FREE ENERGY PREDICTED BY IDOCK:   -5.44 KCAL/MOL
REMARK 922        TOTAL FREE ENERGY PREDICTED BY IDOCK:   -9.27 KCAL/MOL
REMARK 923 INTER-LIGAND FREE ENERGY PREDICTED BY IDOCK:   -7.93 KCAL/MOL
REMARK 924 INTRA-LIGAND FREE ENERGY PREDICTED BY IDOCK:   -1.34 KCAL/MOL
REMARK 927      BINDING AFFINITY PREDICTED BY RF-SCORE:    0.00 PKD
ROOT
HETATM    1  C   UNK A   0     -14.220  15.421  72.254  1.00  0.00    -0.639 C  
HETATM    2  C   UNK A   0     -12.898  15.101  71.597  1.00  0.00    -0.439 C  
HETATM    3  C   UNK A   0     -12.457  13.659  71.669  1.00  0.00    -0.269 C  
HETATM    4  C   UNK A   0     -11.873  16.199  71.756  1.00  0.00    -0.581 C  
HETATM    5  C   UNK A   0     -12.879  14.237  70.329  1.00  0.00    -0.207 C  
ENDROOT
BRANCH   5   6
HETATM    6  C   UNK A   0     -11.814  14.338  69.276  1.00  0.00    -0.330 C  
HETATM    7  N   UNK A   1     -12.156  14.993  68.116  1.00  0.00    -0.544 N  
HETATM    8  O   UNK A   0     -10.732  13.791  69.445  1.00  0.00    -0.126 OA 
HETATM    9  H   UNK A   1     -13.098  15.383  68.084  1.00  0.00     0.000 HD 
BRANCH   7  10
HETATM   10  C   UNK A   1     -11.375  15.189  66.979  1.00  0.00    -0.277 C  
HETATM   11  C   UNK A   1     -11.462  14.343  65.921  1.00  0.00    -0.341 C  
HETATM   12  C   UNK A   1     -10.330  16.271  66.779  1.00  0.00    -0.296 C  
HETATM   13  O   UNK A   1      -9.669  16.666  67.884  1.00  0.00    -0.238 OA 
HETATM   14  O   UNK A   1      -9.974  16.641  65.669  1.00  0.00    -0.519 OA 
BRANCH  11  15
HETATM   15  C   UNK A   1     -12.313  13.114  65.814  1.00  0.00    -0.496 C  
BRANCH  15  16
HETATM   16  C   UNK A   1     -12.355  12.422  64.438  1.00  0.00    -0.532 C  
BRANCH  16  17
HETATM   17  C   UNK A   1     -10.901  12.291  63.962  1.00  0.00    -0.439 C  
BRANCH  17  18
HETATM   18  C   UNK A   1     -10.391  10.866  63.787  1.00  0.00    -0.317 C  
BRANCH  18  19
HETATM   19  S   UNK A   1      -8.913  10.713  64.859  1.00  0.00    -0.193 SA 
BRANCH  19  20
HETATM   20  C   UNK A   1      -9.724  10.679  66.493  1.00  0.00    -0.194 C  
BRANCH  20  21
HETATM   21  C   UNK A   1      -9.120  11.744  67.422  1.00  0.00    -0.175 C  
HETATM   22  N   UNK A   1      -8.333  12.778  66.676  1.00  0.00    -0.413 NA 
HETATM   23  C   UNK A   1      -8.175  11.030  68.390  1.00  0.00    -0.137 C  
HETATM   24  O   UNK A   1      -8.527  10.386  69.364  1.00  0.00    -0.161 OA 
HETATM   25  O   UNK A   1      -6.880  11.159  67.999  1.00  0.00    -0.065 OA 
HETATM   26  H1  UNK A   1      -7.932  13.486  67.292  1.00  0.00     0.000 HD 
HETATM   27  H2  UNK A   1      -8.895  13.209  65.942  1.00  0.00     0.000 HD 
ENDBRANCH  20  21
ENDBRANCH  19  20
ENDBRANCH  18  19
ENDBRANCH  17  18
ENDBRANCH  16  17
ENDBRANCH  15  16
ENDBRANCH  11  15
ENDBRANCH   7  10
ENDBRANCH   5   6
TORSDOF 9
ENDMDL
MODEL       50
REMARK 921   NORMALIZED FREE ENERGY PREDICTED BY IDOCK:   -5.44 KCAL/MOL
REMARK 922        TOTAL FREE ENERGY PREDICTED BY IDOCK:   -9.26 KCAL/MOL
REMARK 923 INTER-LIGAND FREE ENERGY PREDICTED BY IDOCK:   -8.14 KCAL/MOL
REMARK 924 INTRA-LIGAND FREE ENERGY PREDICTED BY IDOCK:   -1.12 KCAL/MOL
REMARK 927      BINDING AFFINITY PREDICTED BY RF-SCORE:    0.00 PKD
ROOT
HETATM    1  C   UNK A   0     -12.745  15.640  73.976  1.00  0.00    -0.710 C  
HETATM    2  C   UNK A   0     -12.945  15.328  72.512  1.00  0.00    -0.488 C  
HETATM    3  C   UNK A   0     -12.104  16.127  71.545  1.00  0.00    -0.438 C  
HETATM    4  C   UNK A   0     -14.379  15.012  72.161  1.00  0.00    -0.622 C  
HETATM    5  C   UNK A   0     -11.815  14.647  71.728  1.00  0.00    -0.300 C  
ENDROOT
BRANCH   5   6
HETATM    6  C   UNK A   0     -12.051  13.765  70.537  1.00  0.00    -0.345 C  
HETATM    7  N   UNK A   1     -11.711  12.439  70.675  1.00  0.00    -0.398 N  
HETATM    8  O   UNK A   0     -12.459  14.248  69.488  1.00  0.00    -0.292 OA 
HETATM    9  H   UNK A   1     -11.356  12.162  71.590  1.00  0.00     0.000 HD 
BRANCH   7  10
HETATM   10  C   UNK A   1     -11.792  11.428  69.719  1.00  0.00    -0.364 C  
HETATM   11  C   UNK A   1     -12.492  10.292  69.966  1.00  0.00    -0.112 C  
HETATM   12  C   UNK A   1     -11.107  11.412  68.366  1.00  0.00    -0.242 C  
HETATM   13  O   UNK A   1      -9.915  12.036  68.297  1.00  0.00    -0.194 OA 
HETATM   14  O   UNK A   1     -11.510  10.728  67.435  1.00  0.00    -0.467 OA 
BRANCH  11  15
HETATM   15  C   UNK A   1     -13.208   9.929  71.231  1.00  0.00    -0.465 C  
BRANCH  15  16
HETATM   16  C   UNK A   1     -12.542   8.860  72.118  1.00  0.00    -0.467 C  
BRANCH  16  17
HETATM   17  C   UNK A   1     -13.022   7.495  71.604  1.00  0.00    -0.397 C  
BRANCH  17  18
HETATM   18  C   UNK A   1     -11.991   6.374  71.650  1.00  0.00    -0.291 C  
BRANCH  18  19
HETATM   19  S   UNK A   1     -11.145   6.385  70.025  1.00  0.00    -0.410 SA 
BRANCH  19  20
HETATM   20  C   UNK A   1      -9.472   6.880  70.556  1.00  0.00    -0.169 C  
BRANCH  20  21
HETATM   21  C   UNK A   1      -9.347   8.411  70.603  1.00  0.00    -0.160 C  
HETATM   22  N   UNK A   1      -8.681   8.972  69.382  1.00  0.00    -0.138 NA 
HETATM   23  C   UNK A   1      -8.492   8.768  71.820  1.00  0.00    -0.109 C  
HETATM   24  O   UNK A   1      -8.885   8.769  72.975  1.00  0.00    -0.340 OA 
HETATM   25  O   UNK A   1      -7.210   9.037  71.459  1.00  0.00    -0.225 OA 
HETATM   26  H1  UNK A   1      -8.598   9.988  69.413  1.00  0.00     0.000 HD 
HETATM   27  H2  UNK A   1      -9.158   8.669  68.533  1.00  0.00     0.000 HD 
ENDBRANCH  20  21
ENDBRANCH  19  20
ENDBRANCH  18  19
ENDBRANCH  17  18
ENDBRANCH  16  17
ENDBRANCH  15  16
ENDBRANCH  11  15
ENDBRANCH   7  10
ENDBRANCH   5   6
TORSDOF 9
ENDMDL
MODEL       51
REMARK 921   NORMALIZED FREE ENERGY PREDICTED BY IDOCK:   -5.43 KCAL/MOL
REMARK 922        TOTAL FREE ENERGY PREDICTED BY IDOCK:   -9.26 KCAL/MOL
REMARK 923 INTER-LIGAND FREE ENERGY PREDICTED BY IDOCK:   -8.59 KCAL/MOL
REMARK 924 INTRA-LIGAND FREE ENERGY PREDICTED BY IDOCK:   -0.67 KCAL/MOL
REMARK 927      BINDING AFFINITY PREDICTED BY RF-SCORE:    0.00 PKD
ROOT
HETATM    1  C   UNK A   0      -8.300   5.729  66.938  1.00  0.00    -0.108 C  
HETATM    2  C   UNK A   0      -9.611   5.792  67.686  1.00  0.00    -0.119 C  
HETATM    3  C   UNK A   0      -9.762   4.829  68.838  1.00  0.00    -0.244 C  
HETATM    4  C   UNK A   0     -10.794   6.067  66.788  1.00  0.00    -0.356 C  
HETATM    5  C   UNK A   0      -9.629   6.314  69.128  1.00  0.00    -0.148 C  
ENDROOT
BRANCH   5   6
HETATM    6  C   UNK A   0     -10.819   6.986  69.749  1.00  0.00    -0.248 C  
HETATM    7  N   UNK A   1     -10.663   8.303  70.113  1.00  0.00    -0.238 N  
HETATM    8  O   UNK A   0     -11.837   6.343  69.973  1.00  0.00    -0.404 OA 
HETATM    9  H   UNK A   1      -9.757   8.721  69.899  1.00  0.00     0.000 HD 
BRANCH   7  10
HETATM   10  C   UNK A   1     -11.588   9.137  70.738  1.00  0.00    -0.276 C  
HETATM   11  C   UNK A   1     -11.834  10.383  70.261  1.00  0.00    -0.399 C  
HETATM   12  C   UNK A   1     -12.370   8.827  72.000  1.00  0.00    -0.377 C  
HETATM   13  O   UNK A   1     -11.751   8.043  72.904  1.00  0.00    -0.369 OA 
HETATM   14  O   UNK A   1     -13.422   9.391  72.275  1.00  0.00    -0.434 OA 
BRANCH  11  15
HETATM   15  C   UNK A   1     -11.171  11.052  69.095  1.00  0.00    -0.318 C  
BRANCH  15  16
HETATM   16  C   UNK A   1     -11.686  12.455  68.721  1.00  0.00    -0.379 C  
BRANCH  16  17
HETATM   17  C   UNK A   1     -10.459  13.375  68.655  1.00  0.00    -0.237 C  
BRANCH  17  18
HETATM   18  C   UNK A   1      -9.712  13.383  67.326  1.00  0.00    -0.232 C  
BRANCH  18  19
HETATM   19  S   UNK A   1      -9.584  15.139  66.818  1.00  0.00    -0.259 SA 
BRANCH  19  20
HETATM   20  C   UNK A   1     -10.214  15.009  65.111  1.00  0.00    -0.365 C  
BRANCH  20  21
HETATM   21  C   UNK A   1     -10.785  13.607  64.848  1.00  0.00    -0.391 C  
HETATM   22  N   UNK A   1     -10.149  12.938  63.667  1.00  0.00    -0.715 NA 
HETATM   23  C   UNK A   1     -12.279  13.763  64.561  1.00  0.00    -0.403 C  
HETATM   24  O   UNK A   1     -13.139  13.950  65.406  1.00  0.00    -0.752 OA 
HETATM   25  O   UNK A   1     -12.531  13.720  63.226  1.00  0.00    -0.819 OA 
HETATM   26  H1  UNK A   1     -10.527  12.008  63.491  1.00  0.00     0.000 HD 
HETATM   27  H2  UNK A   1      -9.134  12.908  63.765  1.00  0.00     0.000 HD 
ENDBRANCH  20  21
ENDBRANCH  19  20
ENDBRANCH  18  19
ENDBRANCH  17  18
ENDBRANCH  16  17
ENDBRANCH  15  16
ENDBRANCH  11  15
ENDBRANCH   7  10
ENDBRANCH   5   6
TORSDOF 9
ENDMDL
MODEL       52
REMARK 921   NORMALIZED FREE ENERGY PREDICTED BY IDOCK:   -5.42 KCAL/MOL
REMARK 922        TOTAL FREE ENERGY PREDICTED BY IDOCK:   -9.24 KCAL/MOL
REMARK 923 INTER-LIGAND FREE ENERGY PREDICTED BY IDOCK:   -8.53 KCAL/MOL
REMARK 924 INTRA-LIGAND FREE ENERGY PREDICTED BY IDOCK:   -0.71 KCAL/MOL
REMARK 927      BINDING AFFINITY PREDICTED BY RF-SCORE:    0.00 PKD
ROOT
HETATM    1  C   UNK A   0     -11.515   5.487  72.672  1.00  0.00    -0.331 C  
HETATM    2  C   UNK A   0     -11.649   6.641  71.708  1.00  0.00    -0.347 C  
HETATM    3  C   UNK A   0     -12.986   7.342  71.697  1.00  0.00    -0.417 C  
HETATM    4  C   UNK A   0     -10.919   6.416  70.405  1.00  0.00    -0.367 C  
HETATM    5  C   UNK A   0     -11.774   8.068  72.257  1.00  0.00    -0.428 C  
ENDROOT
BRANCH   5   6
HETATM    6  C   UNK A   0     -11.317   9.286  71.508  1.00  0.00    -0.385 C  
HETATM    7  N   UNK A   1     -12.299  10.143  71.067  1.00  0.00    -0.342 N  
HETATM    8  O   UNK A   0     -10.128   9.441  71.258  1.00  0.00    -0.302 OA 
HETATM    9  H   UNK A   1     -13.256   9.891  71.315  1.00  0.00     0.000 HD 
BRANCH   7  10
HETATM   10  C   UNK A   1     -12.148  11.311  70.323  1.00  0.00    -0.373 C  
HETATM   11  C   UNK A   1     -12.586  12.502  70.802  1.00  0.00    -0.299 C  
HETATM   12  C   UNK A   1     -11.562  11.420  68.927  1.00  0.00    -0.323 C  
HETATM   13  O   UNK A   1     -11.762  10.363  68.117  1.00  0.00    -0.363 OA 
HETATM   14  O   UNK A   1     -11.095  12.463  68.492  1.00  0.00    -0.227 OA 
BRANCH  11  15
HETATM   15  C   UNK A   1     -13.299  12.748  72.097  1.00  0.00    -0.593 C  
BRANCH  15  16
HETATM   16  C   UNK A   1     -13.326  14.203  72.604  1.00  0.00    -0.638 C  
BRANCH  16  17
HETATM   17  C   UNK A   1     -11.939  14.797  72.320  1.00  0.00    -0.323 C  
BRANCH  17  18
HETATM   18  C   UNK A   1     -11.933  16.139  71.597  1.00  0.00    -0.462 C  
BRANCH  18  19
HETATM   19  S   UNK A   1     -11.769  15.761  69.811  1.00  0.00    -0.334 SA 
BRANCH  19  20
HETATM   20  C   UNK A   1      -9.952  15.671  69.685  1.00  0.00    -0.289 C  
BRANCH  20  21
HETATM   21  C   UNK A   1      -9.423  16.726  68.700  1.00  0.00    -0.255 C  
HETATM   22  N   UNK A   1     -10.266  17.965  68.676  1.00  0.00    -0.388 NA 
HETATM   23  C   UNK A   1      -9.446  16.105  67.302  1.00  0.00    -0.226 C  
HETATM   24  O   UNK A   1      -8.628  15.305  66.878  1.00  0.00    -0.221 OA 
HETATM   25  O   UNK A   1     -10.532  16.518  66.597  1.00  0.00    -0.297 OA 
HETATM   26  H1  UNK A   1      -9.916  18.665  68.022  1.00  0.00     0.000 HD 
HETATM   27  H2  UNK A   1     -10.369  18.357  69.612  1.00  0.00     0.000 HD 
ENDBRANCH  20  21
ENDBRANCH  19  20
ENDBRANCH  18  19
ENDBRANCH  17  18
ENDBRANCH  16  17
ENDBRANCH  15  16
ENDBRANCH  11  15
ENDBRANCH   7  10
ENDBRANCH   5   6
TORSDOF 9
ENDMDL
MODEL       53
REMARK 921   NORMALIZED FREE ENERGY PREDICTED BY IDOCK:   -5.41 KCAL/MOL
REMARK 922        TOTAL FREE ENERGY PREDICTED BY IDOCK:   -9.23 KCAL/MOL
REMARK 923 INTER-LIGAND FREE ENERGY PREDICTED BY IDOCK:   -8.43 KCAL/MOL
REMARK 924 INTRA-LIGAND FREE ENERGY PREDICTED BY IDOCK:   -0.80 KCAL/MOL
REMARK 927      BINDING AFFINITY PREDICTED BY RF-SCORE:    0.00 PKD
ROOT
HETATM    1  C   UNK A   0     -14.077   7.697  72.014  1.00  0.00    -0.359 C  
HETATM    2  C   UNK A   0     -12.902   8.613  71.769  1.00  0.00    -0.397 C  
HETATM    3  C   UNK A   0     -11.598   8.200  72.407  1.00  0.00    -0.463 C  
HETATM    4  C   UNK A   0     -13.283  10.074  71.739  1.00  0.00    -0.540 C  
HETATM    5  C   UNK A   0     -11.738   8.125  70.896  1.00  0.00    -0.259 C  
ENDROOT
BRANCH   5   6
HETATM    6  C   UNK A   0     -10.864   9.045  70.095  1.00  0.00    -0.237 C  
HETATM    7  N   UNK A   1     -11.305   9.369  68.833  1.00  0.00    -0.433 N  
HETATM    8  O   UNK A   0      -9.785   9.410  70.544  1.00  0.00    -0.236 OA 
HETATM    9  H   UNK A   1     -12.208   8.980  68.561  1.00  0.00     0.000 HD 
BRANCH   7  10
HETATM   10  C   UNK A   1     -10.670  10.163  67.879  1.00  0.00    -0.269 C  
HETATM   11  C   UNK A   1     -10.883  11.503  67.837  1.00  0.00    -0.257 C  
HETATM   12  C   UNK A   1      -9.749   9.681  66.775  1.00  0.00    -0.197 C  
HETATM   13  O   UNK A   1     -10.013   8.458  66.275  1.00  0.00    -0.245 OA 
HETATM   14  O   UNK A   1      -8.929  10.414  66.238  1.00  0.00    -0.150 OA 
BRANCH  11  15
HETATM   15  C   UNK A   1     -11.805  12.299  68.709  1.00  0.00    -0.356 C  
BRANCH  15  16
HETATM   16  C   UNK A   1     -11.989  13.785  68.343  1.00  0.00    -0.395 C  
BRANCH  16  17
HETATM   17  C   UNK A   1     -12.076  14.560  69.665  1.00  0.00    -0.369 C  
BRANCH  17  18
HETATM   18  C   UNK A   1     -11.486  15.965  69.644  1.00  0.00    -0.346 C  
BRANCH  18  19
HETATM   19  S   UNK A   1     -10.860  16.237  67.944  1.00  0.00    -0.306 SA 
BRANCH  19  20
HETATM   20  C   UNK A   1     -10.388  17.994  68.071  1.00  0.00    -0.387 C  
BRANCH  20  21
HETATM   21  C   UNK A   1     -10.303  18.636  66.677  1.00  0.00    -0.415 C  
HETATM   22  N   UNK A   1     -10.474  17.637  65.572  1.00  0.00    -0.638 NA 
HETATM   23  C   UNK A   1      -8.914  19.263  66.542  1.00  0.00    -0.346 C  
HETATM   24  O   UNK A   1      -8.572  20.321  67.045  1.00  0.00    -0.328 OA 
HETATM   25  O   UNK A   1      -8.080  18.464  65.826  1.00  0.00    -0.502 OA 
HETATM   26  H1  UNK A   1     -10.418  18.063  64.647  1.00  0.00     0.000 HD 
HETATM   27  H2  UNK A   1     -11.344  17.115  65.682  1.00  0.00     0.000 HD 
ENDBRANCH  20  21
ENDBRANCH  19  20
ENDBRANCH  18  19
ENDBRANCH  17  18
ENDBRANCH  16  17
ENDBRANCH  15  16
ENDBRANCH  11  15
ENDBRANCH   7  10
ENDBRANCH   5   6
TORSDOF 9
ENDMDL
MODEL       54
REMARK 921   NORMALIZED FREE ENERGY PREDICTED BY IDOCK:   -5.41 KCAL/MOL
REMARK 922        TOTAL FREE ENERGY PREDICTED BY IDOCK:   -9.22 KCAL/MOL
REMARK 923 INTER-LIGAND FREE ENERGY PREDICTED BY IDOCK:   -7.79 KCAL/MOL
REMARK 924 INTRA-LIGAND FREE ENERGY PREDICTED BY IDOCK:   -1.42 KCAL/MOL
REMARK 927      BINDING AFFINITY PREDICTED BY RF-SCORE:    0.00 PKD
ROOT
HETATM    1  C   UNK A   0      -8.483   7.193  65.687  1.00  0.00    -0.141 C  
HETATM    2  C   UNK A   0      -9.435   8.024  66.514  1.00  0.00    -0.278 C  
HETATM    3  C   UNK A   0     -10.545   7.268  67.203  1.00  0.00    -0.416 C  
HETATM    4  C   UNK A   0      -9.724   9.377  65.907  1.00  0.00    -0.355 C  
HETATM    5  C   UNK A   0      -9.432   7.875  68.041  1.00  0.00    -0.159 C  
ENDROOT
BRANCH   5   6
HETATM    6  C   UNK A   0      -9.824   8.977  68.980  1.00  0.00    -0.175 C  
HETATM    7  N   UNK A   1     -11.154   9.326  68.999  1.00  0.00    -0.445 N  
HETATM    8  O   UNK A   0      -8.966   9.563  69.629  1.00  0.00    -0.159 OA 
HETATM    9  H   UNK A   1     -11.768   8.781  68.393  1.00  0.00     0.000 HD 
BRANCH   7  10
HETATM   10  C   UNK A   1     -11.767  10.332  69.744  1.00  0.00    -0.191 C  
HETATM   11  C   UNK A   1     -11.926  11.579  69.231  1.00  0.00    -0.397 C  
HETATM   12  C   UNK A   1     -12.267  10.218  71.171  1.00  0.00    -0.397 C  
HETATM   13  O   UNK A   1     -11.579   9.385  71.975  1.00  0.00    -0.342 OA 
HETATM   14  O   UNK A   1     -13.125  10.962  71.627  1.00  0.00    -0.430 OA 
BRANCH  11  15
HETATM   15  C   UNK A   1     -11.463  12.071  67.893  1.00  0.00    -0.396 C  
BRANCH  15  16
HETATM   16  C   UNK A   1     -10.014  12.588  67.813  1.00  0.00    -0.210 C  
BRANCH  16  17
HETATM   17  C   UNK A   1      -9.898  13.383  66.506  1.00  0.00    -0.286 C  
BRANCH  17  18
HETATM   18  C   UNK A   1     -10.932  14.486  66.312  1.00  0.00    -0.323 C  
BRANCH  18  19
HETATM   19  S   UNK A   1     -10.570  15.761  67.576  1.00  0.00    -0.313 SA 
BRANCH  19  20
HETATM   20  C   UNK A   1     -12.021  15.539  68.658  1.00  0.00    -0.210 C  
BRANCH  20  21
HETATM   21  C   UNK A   1     -11.647  15.790  70.127  1.00  0.00    -0.357 C  
HETATM   22  N   UNK A   1     -10.383  15.089  70.527  1.00  0.00    -0.498 NA 
HETATM   23  C   UNK A   1     -12.787  15.250  70.992  1.00  0.00    -0.440 C  
HETATM   24  O   UNK A   1     -13.855  15.811  71.173  1.00  0.00    -0.537 OA 
HETATM   25  O   UNK A   1     -12.482  14.027  71.502  1.00  0.00    -0.341 OA 
HETATM   26  H1  UNK A   1     -10.135  15.255  71.502  1.00  0.00     0.000 HD 
HETATM   27  H2  UNK A   1      -9.614  15.338  69.906  1.00  0.00     0.000 HD 
ENDBRANCH  20  21
ENDBRANCH  19  20
ENDBRANCH  18  19
ENDBRANCH  17  18
ENDBRANCH  16  17
ENDBRANCH  15  16
ENDBRANCH  11  15
ENDBRANCH   7  10
ENDBRANCH   5   6
TORSDOF 9
ENDMDL
MODEL       55
REMARK 921   NORMALIZED FREE ENERGY PREDICTED BY IDOCK:   -5.39 KCAL/MOL
REMARK 922        TOTAL FREE ENERGY PREDICTED BY IDOCK:   -9.20 KCAL/MOL
REMARK 923 INTER-LIGAND FREE ENERGY PREDICTED BY IDOCK:   -8.48 KCAL/MOL
REMARK 924 INTRA-LIGAND FREE ENERGY PREDICTED BY IDOCK:   -0.72 KCAL/MOL
REMARK 927      BINDING AFFINITY PREDICTED BY RF-SCORE:    0.00 PKD
ROOT
HETATM    1  C   UNK A   0      -9.808  10.802  63.119  1.00  0.00    -0.378 C  
HETATM    2  C   UNK A   0     -10.751  11.600  63.988  1.00  0.00    -0.442 C  
HETATM    3  C   UNK A   0     -10.826  11.183  65.437  1.00  0.00    -0.212 C  
HETATM    4  C   UNK A   0     -12.012  12.017  63.270  1.00  0.00    -0.477 C  
HETATM    5  C   UNK A   0     -10.177  12.510  65.082  1.00  0.00    -0.299 C  
ENDROOT
BRANCH   5   6
HETATM    6  C   UNK A   0     -10.868  13.748  65.573  1.00  0.00    -0.299 C  
HETATM    7  N   UNK A   1     -10.061  14.805  65.927  1.00  0.00    -0.303 N  
HETATM    8  O   UNK A   0     -12.085  13.758  65.709  1.00  0.00    -0.378 OA 
HETATM    9  H   UNK A   1      -9.058  14.665  65.794  1.00  0.00     0.000 HD 
BRANCH   7  10
HETATM   10  C   UNK A   1     -10.442  16.041  66.445  1.00  0.00    -0.309 C  
HETATM   11  C   UNK A   1     -10.627  16.209  67.779  1.00  0.00    -0.309 C  
HETATM   12  C   UNK A   1     -10.748  17.295  65.648  1.00  0.00    -0.120 C  
HETATM   13  O   UNK A   1     -11.285  17.105  64.428  1.00  0.00    -1.143 OA 
HETATM   14  O   UNK A   1     -10.685  18.415  66.138  1.00  0.00    -0.347 OA 
BRANCH  11  15
HETATM   15  C   UNK A   1     -10.510  15.163  68.846  1.00  0.00    -0.241 C  
BRANCH  15  16
HETATM   16  C   UNK A   1     -11.791  14.373  69.180  1.00  0.00    -0.359 C  
BRANCH  16  17
HETATM   17  C   UNK A   1     -11.439  12.885  69.055  1.00  0.00    -0.358 C  
BRANCH  17  18
HETATM   18  C   UNK A   1     -12.023  11.977  70.131  1.00  0.00    -0.321 C  
BRANCH  18  19
HETATM   19  S   UNK A   1     -11.263  10.329  69.884  1.00  0.00    -0.318 SA 
BRANCH  19  20
HETATM   20  C   UNK A   1     -11.750   9.530  71.450  1.00  0.00    -0.393 C  
BRANCH  20  21
HETATM   21  C   UNK A   1     -11.042   8.176  71.612  1.00  0.00    -0.255 C  
HETATM   22  N   UNK A   1      -9.806   8.068  70.772  1.00  0.00    -0.182 NA 
HETATM   23  C   UNK A   1     -12.020   7.088  71.166  1.00  0.00    -0.356 C  
HETATM   24  O   UNK A   1     -12.956   6.673  71.830  1.00  0.00    -0.319 OA 
HETATM   25  O   UNK A   1     -11.747   6.668  69.903  1.00  0.00    -0.361 OA 
HETATM   26  H1  UNK A   1      -9.336   7.169  70.879  1.00  0.00     0.000 HD 
HETATM   27  H2  UNK A   1      -9.167   8.840  70.959  1.00  0.00     0.000 HD 
ENDBRANCH  20  21
ENDBRANCH  19  20
ENDBRANCH  18  19
ENDBRANCH  17  18
ENDBRANCH  16  17
ENDBRANCH  15  16
ENDBRANCH  11  15
ENDBRANCH   7  10
ENDBRANCH   5   6
TORSDOF 9
ENDMDL
MODEL       56
REMARK 921   NORMALIZED FREE ENERGY PREDICTED BY IDOCK:   -5.37 KCAL/MOL
REMARK 922        TOTAL FREE ENERGY PREDICTED BY IDOCK:   -9.17 KCAL/MOL
REMARK 923 INTER-LIGAND FREE ENERGY PREDICTED BY IDOCK:   -8.51 KCAL/MOL
REMARK 924 INTRA-LIGAND FREE ENERGY PREDICTED BY IDOCK:   -0.66 KCAL/MOL
REMARK 927      BINDING AFFINITY PREDICTED BY RF-SCORE:    0.00 PKD
ROOT
HETATM    1  C   UNK A   0     -10.951   6.060  66.993  1.00  0.00    -0.364 C  
HETATM    2  C   UNK A   0     -10.555   6.868  68.207  1.00  0.00    -0.258 C  
HETATM    3  C   UNK A   0      -9.148   7.414  68.206  1.00  0.00    -0.128 C  
HETATM    4  C   UNK A   0     -11.145   6.338  69.492  1.00  0.00    -0.476 C  
HETATM    5  C   UNK A   0     -10.314   8.376  68.060  1.00  0.00    -0.270 C  
ENDROOT
BRANCH   5   6
HETATM    6  C   UNK A   0     -10.518   9.358  69.176  1.00  0.00    -0.217 C  
HETATM    7  N   UNK A   1     -11.713  10.040  69.186  1.00  0.00    -0.479 N  
HETATM    8  O   UNK A   0      -9.617   9.570  69.978  1.00  0.00    -0.206 OA 
HETATM    9  H   UNK A   1     -12.374   9.794  68.448  1.00  0.00     0.000 HD 
BRANCH   7  10
HETATM   10  C   UNK A   1     -12.133  11.024  70.079  1.00  0.00    -0.364 C  
HETATM   11  C   UNK A   1     -11.909  12.337  69.822  1.00  0.00    -0.388 C  
HETATM   12  C   UNK A   1     -12.807  10.796  71.419  1.00  0.00    -0.452 C  
HETATM   13  O   UNK A   1     -12.451   9.676  72.078  1.00  0.00    -0.370 OA 
HETATM   14  O   UNK A   1     -13.495  11.651  71.961  1.00  0.00    -0.411 OA 
BRANCH  11  15
HETATM   15  C   UNK A   1     -11.184  12.917  68.645  1.00  0.00    -0.321 C  
BRANCH  15  16
HETATM   16  C   UNK A   1     -11.835  12.708  67.264  1.00  0.00    -0.395 C  
BRANCH  16  17
HETATM   17  C   UNK A   1     -12.078  14.103  66.672  1.00  0.00    -0.480 C  
BRANCH  17  18
HETATM   18  C   UNK A   1     -11.934  14.211  65.159  1.00  0.00    -0.388 C  
BRANCH  18  19
HETATM   19  S   UNK A   1     -10.898  15.690  64.844  1.00  0.00    -0.333 SA 
BRANCH  19  20
HETATM   20  C   UNK A   1     -10.650  16.259  66.559  1.00  0.00    -0.256 C  
BRANCH  20  21
HETATM   21  C   UNK A   1      -9.701  17.467  66.599  1.00  0.00    -0.290 C  
HETATM   22  N   UNK A   1      -9.034  17.631  67.931  1.00  0.00    -0.245 NA 
HETATM   23  C   UNK A   1     -10.535  18.719  66.325  1.00  0.00    -0.435 C  
HETATM   24  O   UNK A   1     -10.929  19.070  65.225  1.00  0.00    -0.511 OA 
HETATM   25  O   UNK A   1     -10.833  19.375  67.477  1.00  0.00    -0.478 OA 
HETATM   26  H1  UNK A   1      -8.404  18.433  67.958  1.00  0.00     0.000 HD 
HETATM   27  H2  UNK A   1      -8.551  16.776  68.208  1.00  0.00     0.000 HD 
ENDBRANCH  20  21
ENDBRANCH  19  20
ENDBRANCH  18  19
ENDBRANCH  17  18
ENDBRANCH  16  17
ENDBRANCH  15  16
ENDBRANCH  11  15
ENDBRANCH   7  10
ENDBRANCH   5   6
TORSDOF 9
ENDMDL
MODEL       57
REMARK 921   NORMALIZED FREE ENERGY PREDICTED BY IDOCK:   -5.37 KCAL/MOL
REMARK 922        TOTAL FREE ENERGY PREDICTED BY IDOCK:   -9.17 KCAL/MOL
REMARK 923 INTER-LIGAND FREE ENERGY PREDICTED BY IDOCK:   -7.98 KCAL/MOL
REMARK 924 INTRA-LIGAND FREE ENERGY PREDICTED BY IDOCK:   -1.19 KCAL/MOL
REMARK 927      BINDING AFFINITY PREDICTED BY RF-SCORE:    0.00 PKD
ROOT
HETATM    1  C   UNK A   0      -8.908  19.854  66.510  1.00  0.00    -0.432 C  
HETATM    2  C   UNK A   0      -9.137  18.610  67.336  1.00  0.00    -0.290 C  
HETATM    3  C   UNK A   0     -10.015  18.777  68.552  1.00  0.00    -0.450 C  
HETATM    4  C   UNK A   0      -7.921  17.718  67.416  1.00  0.00    -0.221 C  
HETATM    5  C   UNK A   0     -10.533  17.976  67.369  1.00  0.00    -0.399 C  
ENDROOT
BRANCH   5   6
HETATM    6  C   UNK A   0     -10.772  16.513  67.602  1.00  0.00    -0.311 C  
HETATM    7  N   UNK A   1     -10.624  15.684  66.515  1.00  0.00    -0.305 N  
HETATM    8  O   UNK A   0     -11.149  16.121  68.700  1.00  0.00    -0.318 OA 
HETATM    9  H   UNK A   1     -10.332  16.134  65.647  1.00  0.00     0.000 HD 
BRANCH   7  10
HETATM   10  C   UNK A   1     -10.823  14.306  66.452  1.00  0.00    -0.307 C  
HETATM   11  C   UNK A   1      -9.837  13.444  66.807  1.00  0.00    -0.265 C  
HETATM   12  C   UNK A   1     -12.069  13.598  65.954  1.00  0.00    -0.439 C  
HETATM   13  O   UNK A   1     -12.753  14.222  64.976  1.00  0.00    -0.625 OA 
HETATM   14  O   UNK A   1     -12.346  12.452  66.280  1.00  0.00    -0.577 OA 
BRANCH  11  15
HETATM   15  C   UNK A   1      -8.448  13.793  67.251  1.00  0.00    -0.204 C  
BRANCH  15  16
HETATM   16  C   UNK A   1      -7.711  12.740  68.101  1.00  0.00    -0.137 C  
BRANCH  16  17
HETATM   17  C   UNK A   1      -8.602  11.490  68.130  1.00  0.00    -0.156 C  
BRANCH  17  18
HETATM   18  C   UNK A   1      -7.939  10.221  68.650  1.00  0.00    -0.111 C  
BRANCH  18  19
HETATM   19  S   UNK A   1      -9.292   9.027  68.973  1.00  0.00    -0.141 SA 
BRANCH  19  20
HETATM   20  C   UNK A   1     -10.208   9.945  70.256  1.00  0.00    -0.264 C  
BRANCH  20  21
HETATM   21  C   UNK A   1     -11.724   9.815  70.038  1.00  0.00    -0.074 C  
HETATM   22  N   UNK A   1     -12.252  10.815  69.055  1.00  0.00    -0.761 NA 
HETATM   23  C   UNK A   1     -12.406  10.063  71.385  1.00  0.00    -0.415 C  
HETATM   24  O   UNK A   1     -12.471   9.254  72.296  1.00  0.00    -0.360 OA 
HETATM   25  O   UNK A   1     -12.892  11.330  71.465  1.00  0.00    -0.416 OA 
HETATM   26  H1  UNK A   1     -13.258  10.730  68.911  1.00  0.00     0.000 HD 
HETATM   27  H2  UNK A   1     -11.749  10.759  68.169  1.00  0.00     0.000 HD 
ENDBRANCH  20  21
ENDBRANCH  19  20
ENDBRANCH  18  19
ENDBRANCH  17  18
ENDBRANCH  16  17
ENDBRANCH  15  16
ENDBRANCH  11  15
ENDBRANCH   7  10
ENDBRANCH   5   6
TORSDOF 9
ENDMDL
MODEL       58
REMARK 921   NORMALIZED FREE ENERGY PREDICTED BY IDOCK:   -5.35 KCAL/MOL
REMARK 922        TOTAL FREE ENERGY PREDICTED BY IDOCK:   -9.13 KCAL/MOL
REMARK 923 INTER-LIGAND FREE ENERGY PREDICTED BY IDOCK:   -8.46 KCAL/MOL
REMARK 924 INTRA-LIGAND FREE ENERGY PREDICTED BY IDOCK:   -0.67 KCAL/MOL
REMARK 927      BINDING AFFINITY PREDICTED BY RF-SCORE:    0.00 PKD
ROOT
HETATM    1  C   UNK A   0     -11.715   7.065  70.914  1.00  0.00    -0.387 C  
HETATM    2  C   UNK A   0     -12.026   8.534  71.081  1.00  0.00    -0.306 C  
HETATM    3  C   UNK A   0     -10.894   9.396  71.586  1.00  0.00    -0.348 C  
HETATM    4  C   UNK A   0     -13.431   8.792  71.572  1.00  0.00    -0.358 C  
HETATM    5  C   UNK A   0     -11.360   9.554  70.148  1.00  0.00    -0.241 C  
ENDROOT
BRANCH   5   6
HETATM    6  C   UNK A   0     -11.982  10.871  69.786  1.00  0.00    -0.351 C  
HETATM    7  N   UNK A   1     -11.842  11.891  70.699  1.00  0.00    -0.471 N  
HETATM    8  O   UNK A   0     -12.635  10.978  68.755  1.00  0.00    -0.350 OA 
HETATM    9  H   UNK A   1     -11.298  11.671  71.534  1.00  0.00     0.000 HD 
BRANCH   7  10
HETATM   10  C   UNK A   1     -12.352  13.186  70.625  1.00  0.00    -0.326 C  
HETATM   11  C   UNK A   1     -11.872  14.071  69.715  1.00  0.00    -0.385 C  
HETATM   12  C   UNK A   1     -13.410  13.789  71.528  1.00  0.00    -0.318 C  
HETATM   13  O   UNK A   1     -13.429  13.343  72.799  1.00  0.00    -0.607 OA 
HETATM   14  O   UNK A   1     -14.091  14.749  71.190  1.00  0.00    -0.379 OA 
BRANCH  11  15
HETATM   15  C   UNK A   1     -10.761  13.846  68.735  1.00  0.00    -0.278 C  
BRANCH  15  16
HETATM   16  C   UNK A   1     -11.097  14.073  67.248  1.00  0.00    -0.314 C  
BRANCH  16  17
HETATM   17  C   UNK A   1     -10.556  15.460  66.877  1.00  0.00    -0.309 C  
BRANCH  17  18
HETATM   18  C   UNK A   1      -9.312  15.907  67.635  1.00  0.00    -0.217 C  
BRANCH  18  19
HETATM   19  S   UNK A   1      -8.140  16.539  66.376  1.00  0.00    -0.307 SA 
BRANCH  19  20
HETATM   20  C   UNK A   1      -7.959  18.256  66.964  1.00  0.00    -0.225 C  
BRANCH  20  21
HETATM   21  C   UNK A   1      -8.797  19.216  66.105  1.00  0.00    -0.212 C  
HETATM   22  N   UNK A   1      -8.017  20.414  65.654  1.00  0.00    -0.499 NA 
HETATM   23  C   UNK A   1      -9.966  19.702  66.962  1.00  0.00    -0.392 C  
HETATM   24  O   UNK A   1     -10.970  19.054  67.209  1.00  0.00    -0.459 OA 
HETATM   25  O   UNK A   1      -9.726  20.941  67.466  1.00  0.00    -0.421 OA 
HETATM   26  H1  UNK A   1      -8.573  21.052  65.084  1.00  0.00     0.000 HD 
HETATM   27  H2  UNK A   1      -7.165  20.135  65.167  1.00  0.00     0.000 HD 
ENDBRANCH  20  21
ENDBRANCH  19  20
ENDBRANCH  18  19
ENDBRANCH  17  18
ENDBRANCH  16  17
ENDBRANCH  15  16
ENDBRANCH  11  15
ENDBRANCH   7  10
ENDBRANCH   5   6
TORSDOF 9
ENDMDL
MODEL       59
REMARK 921   NORMALIZED FREE ENERGY PREDICTED BY IDOCK:   -5.35 KCAL/MOL
REMARK 922        TOTAL FREE ENERGY PREDICTED BY IDOCK:   -9.13 KCAL/MOL
REMARK 923 INTER-LIGAND FREE ENERGY PREDICTED BY IDOCK:   -8.03 KCAL/MOL
REMARK 924 INTRA-LIGAND FREE ENERGY PREDICTED BY IDOCK:   -1.10 KCAL/MOL
REMARK 927      BINDING AFFINITY PREDICTED BY RF-SCORE:    0.00 PKD
ROOT
HETATM    1  C   UNK A   0     -13.244  15.660  73.359  1.00  0.00    -0.628 C  
HETATM    2  C   UNK A   0     -13.062  14.884  72.076  1.00  0.00    -0.426 C  
HETATM    3  C   UNK A   0     -13.912  15.327  70.910  1.00  0.00    -0.250 C  
HETATM    4  C   UNK A   0     -12.822  13.410  72.302  1.00  0.00    -0.288 C  
HETATM    5  C   UNK A   0     -12.413  15.571  70.868  1.00  0.00    -0.494 C  
ENDROOT
BRANCH   5   6
HETATM    6  C   UNK A   0     -11.642  14.834  69.812  1.00  0.00    -0.297 C  
HETATM    7  N   UNK A   1     -12.378  14.087  68.921  1.00  0.00    -0.508 N  
HETATM    8  O   UNK A   0     -10.418  14.859  69.817  1.00  0.00    -0.212 OA 
HETATM    9  H   UNK A   1     -13.391  14.125  69.037  1.00  0.00     0.000 HD 
BRANCH   7  10
HETATM   10  C   UNK A   1     -11.910  13.285  67.882  1.00  0.00    -0.349 C  
HETATM   11  C   UNK A   1     -11.675  11.963  68.075  1.00  0.00    -0.382 C  
HETATM   12  C   UNK A   1     -11.558  13.745  66.479  1.00  0.00    -0.365 C  
HETATM   13  O   UNK A   1     -11.071  14.995  66.370  1.00  0.00    -0.335 OA 
HETATM   14  O   UNK A   1     -11.542  12.980  65.524  1.00  0.00    -0.322 OA 
BRANCH  11  15
HETATM   15  C   UNK A   1     -11.818  11.198  69.356  1.00  0.00    -0.415 C  
BRANCH  15  16
HETATM   16  C   UNK A   1     -10.705  10.182  69.680  1.00  0.00    -0.295 C  
BRANCH  16  17
HETATM   17  C   UNK A   1     -10.984   9.654  71.094  1.00  0.00    -0.430 C  
BRANCH  17  18
HETATM   18  C   UNK A   1      -9.786   9.057  71.822  1.00  0.00    -0.260 C  
BRANCH  18  19
HETATM   19  S   UNK A   1     -10.466   7.894  73.065  1.00  0.00    -0.274 SA 
BRANCH  19  20
HETATM   20  C   UNK A   1     -11.790   7.128  72.072  1.00  0.00    -0.295 C  
BRANCH  20  21
HETATM   21  C   UNK A   1     -11.374   5.724  71.603  1.00  0.00    -0.148 C  
HETATM   22  N   UNK A   1     -10.431   5.055  72.556  1.00  0.00    -0.208 NA 
HETATM   23  C   UNK A   1     -10.665   5.879  70.257  1.00  0.00    -0.313 C  
HETATM   24  O   UNK A   1     -11.223   6.067  69.188  1.00  0.00    -0.378 OA 
HETATM   25  O   UNK A   1      -9.314   5.834  70.404  1.00  0.00    -0.153 OA 
HETATM   26  H1  UNK A   1     -10.155   4.123  72.244  1.00  0.00     0.000 HD 
HETATM   27  H2  UNK A   1     -10.821   5.025  73.498  1.00  0.00     0.000 HD 
ENDBRANCH  20  21
ENDBRANCH  19  20
ENDBRANCH  18  19
ENDBRANCH  17  18
ENDBRANCH  16  17
ENDBRANCH  15  16
ENDBRANCH  11  15
ENDBRANCH   7  10
ENDBRANCH   5   6
TORSDOF 9
ENDMDL
MODEL       60
REMARK 921   NORMALIZED FREE ENERGY PREDICTED BY IDOCK:   -5.34 KCAL/MOL
REMARK 922        TOTAL FREE ENERGY PREDICTED BY IDOCK:   -9.12 KCAL/MOL
REMARK 923 INTER-LIGAND FREE ENERGY PREDICTED BY IDOCK:   -8.05 KCAL/MOL
REMARK 924 INTRA-LIGAND FREE ENERGY PREDICTED BY IDOCK:   -1.07 KCAL/MOL
REMARK 927      BINDING AFFINITY PREDICTED BY RF-SCORE:    0.00 PKD
ROOT
HETATM    1  C   UNK A   0      -8.820  19.124  68.251  1.00  0.00    -0.377 C  
HETATM    2  C   UNK A   0      -9.223  17.696  67.968  1.00  0.00    -0.271 C  
HETATM    3  C   UNK A   0     -10.529  17.245  68.574  1.00  0.00    -0.375 C  
HETATM    4  C   UNK A   0      -8.051  16.743  67.937  1.00  0.00    -0.189 C  
HETATM    5  C   UNK A   0     -10.435  17.421  67.068  1.00  0.00    -0.284 C  
ENDROOT
BRANCH   5   6
HETATM    6  C   UNK A   0     -10.583  16.180  66.237  1.00  0.00    -0.274 C  
HETATM    7  N   UNK A   1     -11.431  15.212  66.722  1.00  0.00    -0.258 N  
HETATM    8  O   UNK A   0      -9.913  16.039  65.222  1.00  0.00    -0.458 OA 
HETATM    9  H   UNK A   1     -11.913  15.436  67.593  1.00  0.00     0.000 HD 
BRANCH   7  10
HETATM   10  C   UNK A   1     -11.714  13.964  66.170  1.00  0.00    -0.376 C  
HETATM   11  C   UNK A   1     -11.130  12.840  66.658  1.00  0.00    -0.313 C  
HETATM   12  C   UNK A   1     -12.612  13.688  64.980  1.00  0.00    -0.390 C  
HETATM   13  O   UNK A   1     -12.651  14.645  64.033  1.00  0.00    -0.819 OA 
HETATM   14  O   UNK A   1     -13.132  12.597  64.789  1.00  0.00    -0.852 OA 
BRANCH  11  15
HETATM   15  C   UNK A   1     -10.119  12.753  67.760  1.00  0.00    -0.224 C  
BRANCH  15  16
HETATM   16  C   UNK A   1     -10.058  11.422  68.536  1.00  0.00    -0.211 C  
BRANCH  16  17
HETATM   17  C   UNK A   1     -11.503  11.047  68.889  1.00  0.00    -0.364 C  
BRANCH  17  18
HETATM   18  C   UNK A   1     -11.676  10.188  70.136  1.00  0.00    -0.256 C  
BRANCH  18  19
HETATM   19  S   UNK A   1     -10.089   9.303  70.376  1.00  0.00    -0.256 SA 
BRANCH  19  20
HETATM   20  C   UNK A   1     -10.539   7.678  69.683  1.00  0.00    -0.243 C  
BRANCH  20  21
HETATM   21  C   UNK A   1      -9.617   7.313  68.508  1.00  0.00    -0.140 C  
HETATM   22  N   UNK A   1      -8.456   8.252  68.376  1.00  0.00    -0.128 NA 
HETATM   23  C   UNK A   1     -10.448   7.397  67.226  1.00  0.00    -0.315 C  
HETATM   24  O   UNK A   1     -11.248   6.554  66.854  1.00  0.00    -0.387 OA 
HETATM   25  O   UNK A   1     -10.222   8.565  66.568  1.00  0.00    -0.289 OA 
HETATM   26  H1  UNK A   1      -7.844   8.010  67.596  1.00  0.00     0.000 HD 
HETATM   27  H2  UNK A   1      -7.931   8.311  69.248  1.00  0.00     0.000 HD 
ENDBRANCH  20  21
ENDBRANCH  19  20
ENDBRANCH  18  19
ENDBRANCH  17  18
ENDBRANCH  16  17
ENDBRANCH  15  16
ENDBRANCH  11  15
ENDBRANCH   7  10
ENDBRANCH   5   6
TORSDOF 9
ENDMDL
MODEL       61
REMARK 921   NORMALIZED FREE ENERGY PREDICTED BY IDOCK:   -5.34 KCAL/MOL
REMARK 922        TOTAL FREE ENERGY PREDICTED BY IDOCK:   -9.11 KCAL/MOL
REMARK 923 INTER-LIGAND FREE ENERGY PREDICTED BY IDOCK:   -7.94 KCAL/MOL
REMARK 924 INTRA-LIGAND FREE ENERGY PREDICTED BY IDOCK:   -1.18 KCAL/MOL
REMARK 927      BINDING AFFINITY PREDICTED BY RF-SCORE:    0.00 PKD
ROOT
HETATM    1  C   UNK A   0     -14.345  15.267  71.904  1.00  0.00    -0.691 C  
HETATM    2  C   UNK A   0     -12.912  15.272  71.427  1.00  0.00    -0.503 C  
HETATM    3  C   UNK A   0     -12.309  13.920  71.135  1.00  0.00    -0.440 C  
HETATM    4  C   UNK A   0     -12.068  16.334  72.092  1.00  0.00    -0.530 C  
HETATM    5  C   UNK A   0     -12.600  14.865  69.982  1.00  0.00    -0.260 C  
ENDROOT
BRANCH   5   6
HETATM    6  C   UNK A   0     -11.414  15.376  69.217  1.00  0.00    -0.333 C  
HETATM    7  N   UNK A   1     -11.659  16.358  68.285  1.00  0.00    -0.159 N  
HETATM    8  O   UNK A   0     -10.311  14.871  69.387  1.00  0.00    -0.235 OA 
HETATM    9  H   UNK A   1     -12.625  16.678  68.216  1.00  0.00     0.000 HD 
BRANCH   7  10
HETATM   10  C   UNK A   1     -10.750  16.969  67.423  1.00  0.00    -0.240 C  
HETATM   11  C   UNK A   1     -10.469  16.427  66.210  1.00  0.00    -0.298 C  
HETATM   12  C   UNK A   1      -9.941  18.220  67.707  1.00  0.00    -0.332 C  
HETATM   13  O   UNK A   1      -9.582  18.414  68.991  1.00  0.00    -0.281 OA 
HETATM   14  O   UNK A   1      -9.482  18.921  66.816  1.00  0.00    -0.302 OA 
BRANCH  11  15
HETATM   15  C   UNK A   1     -11.008  15.148  65.646  1.00  0.00    -0.359 C  
BRANCH  15  16
HETATM   16  C   UNK A   1     -10.014  13.978  65.517  1.00  0.00    -0.302 C  
BRANCH  16  17
HETATM   17  C   UNK A   1     -10.824  12.754  65.071  1.00  0.00    -0.319 C  
BRANCH  17  18
HETATM   18  C   UNK A   1     -11.133  11.735  66.161  1.00  0.00    -0.307 C  
BRANCH  18  19
HETATM   19  S   UNK A   1      -9.574  11.488  67.092  1.00  0.00    -0.178 SA 
BRANCH  19  20
HETATM   20  C   UNK A   1     -10.214  11.605  68.795  1.00  0.00    -0.177 C  
BRANCH  20  21
HETATM   21  C   UNK A   1     -11.063  10.372  69.143  1.00  0.00    -0.246 C  
HETATM   22  N   UNK A   1     -12.513  10.705  69.327  1.00  0.00    -0.711 NA 
HETATM   23  C   UNK A   1     -10.533   9.804  70.461  1.00  0.00    -0.301 C  
HETATM   24  O   UNK A   1      -9.520   9.134  70.577  1.00  0.00    -0.202 OA 
HETATM   25  O   UNK A   1     -11.310  10.184  71.509  1.00  0.00    -0.233 OA 
HETATM   26  H1  UNK A   1     -13.077   9.887  69.558  1.00  0.00     0.000 HD 
HETATM   27  H2  UNK A   1     -12.885  11.186  68.508  1.00  0.00     0.000 HD 
ENDBRANCH  20  21
ENDBRANCH  19  20
ENDBRANCH  18  19
ENDBRANCH  17  18
ENDBRANCH  16  17
ENDBRANCH  15  16
ENDBRANCH  11  15
ENDBRANCH   7  10
ENDBRANCH   5   6
TORSDOF 9
ENDMDL
MODEL       62
REMARK 921   NORMALIZED FREE ENERGY PREDICTED BY IDOCK:   -5.34 KCAL/MOL
REMARK 922        TOTAL FREE ENERGY PREDICTED BY IDOCK:   -9.11 KCAL/MOL
REMARK 923 INTER-LIGAND FREE ENERGY PREDICTED BY IDOCK:   -7.85 KCAL/MOL
REMARK 924 INTRA-LIGAND FREE ENERGY PREDICTED BY IDOCK:   -1.26 KCAL/MOL
REMARK 927      BINDING AFFINITY PREDICTED BY RF-SCORE:    0.00 PKD
ROOT
HETATM    1  C   UNK A   0     -14.060  15.135  71.641  1.00  0.00    -0.645 C  
HETATM    2  C   UNK A   0     -12.621  15.407  71.274  1.00  0.00    -0.477 C  
HETATM    3  C   UNK A   0     -11.873  14.259  70.640  1.00  0.00    -0.349 C  
HETATM    4  C   UNK A   0     -11.912  16.296  72.268  1.00  0.00    -0.605 C  
HETATM    5  C   UNK A   0     -12.222  15.472  69.794  1.00  0.00    -0.328 C  
ENDROOT
BRANCH   5   6
HETATM    6  C   UNK A   0     -11.070  16.288  69.283  1.00  0.00    -0.325 C  
HETATM    7  N   UNK A   1     -11.381  17.341  68.454  1.00  0.00     0.023 N  
HETATM    8  O   UNK A   0      -9.921  15.961  69.552  1.00  0.00    -0.255 OA 
HETATM    9  H   UNK A   1     -12.375  17.496  68.283  1.00  0.00     0.000 HD 
BRANCH   7  10
HETATM   10  C   UNK A   1     -10.507  18.221  67.819  1.00  0.00    -0.410 C  
HETATM   11  C   UNK A   1      -9.935  17.898  66.632  1.00  0.00    -0.355 C  
HETATM   12  C   UNK A   1     -10.041  19.564  68.348  1.00  0.00    -0.445 C  
HETATM   13  O   UNK A   1      -9.931  19.668  69.686  1.00  0.00    -0.265 OA 
HETATM   14  O   UNK A   1      -9.616  20.446  67.614  1.00  0.00    -0.392 OA 
BRANCH  11  15
HETATM   15  C   UNK A   1     -10.092  16.615  65.873  1.00  0.00    -0.341 C  
BRANCH  15  16
HETATM   16  C   UNK A   1      -9.049  15.516  66.153  1.00  0.00    -0.359 C  
BRANCH  16  17
HETATM   17  C   UNK A   1      -9.765  14.170  65.979  1.00  0.00    -0.297 C  
BRANCH  17  18
HETATM   18  C   UNK A   1     -11.275  14.246  65.793  1.00  0.00    -0.317 C  
BRANCH  18  19
HETATM   19  S   UNK A   1     -12.000  13.025  66.951  1.00  0.00    -0.294 SA 
BRANCH  19  20
HETATM   20  C   UNK A   1     -10.805  11.663  66.745  1.00  0.00    -0.277 C  
BRANCH  20  21
HETATM   21  C   UNK A   1     -10.548  10.958  68.087  1.00  0.00    -0.198 C  
HETATM   22  N   UNK A   1      -9.463  11.616  68.884  1.00  0.00    -0.407 NA 
HETATM   23  C   UNK A   1     -10.113   9.524  67.779  1.00  0.00    -0.198 C  
HETATM   24  O   UNK A   1     -10.864   8.620  67.452  1.00  0.00    -0.211 OA 
HETATM   25  O   UNK A   1      -8.763   9.390  67.864  1.00  0.00    -0.120 OA 
HETATM   26  H1  UNK A   1      -9.291  11.148  69.774  1.00  0.00     0.000 HD 
HETATM   27  H2  UNK A   1      -9.659  12.607  69.023  1.00  0.00     0.000 HD 
ENDBRANCH  20  21
ENDBRANCH  19  20
ENDBRANCH  18  19
ENDBRANCH  17  18
ENDBRANCH  16  17
ENDBRANCH  15  16
ENDBRANCH  11  15
ENDBRANCH   7  10
ENDBRANCH   5   6
TORSDOF 9
ENDMDL
MODEL       63
REMARK 921   NORMALIZED FREE ENERGY PREDICTED BY IDOCK:   -5.33 KCAL/MOL
REMARK 922        TOTAL FREE ENERGY PREDICTED BY IDOCK:   -9.11 KCAL/MOL
REMARK 923 INTER-LIGAND FREE ENERGY PREDICTED BY IDOCK:   -7.98 KCAL/MOL
REMARK 924 INTRA-LIGAND FREE ENERGY PREDICTED BY IDOCK:   -1.13 KCAL/MOL
REMARK 927      BINDING AFFINITY PREDICTED BY RF-SCORE:    0.00 PKD
ROOT
HETATM    1  C   UNK A   0      -7.028  16.061  66.893  1.00  0.00    -0.139 C  
HETATM    2  C   UNK A   0      -8.292  15.255  67.073  1.00  0.00    -0.267 C  
HETATM    3  C   UNK A   0      -9.480  16.003  67.628  1.00  0.00    -0.216 C  
HETATM    4  C   UNK A   0      -8.034  13.836  67.521  1.00  0.00    -0.190 C  
HETATM    5  C   UNK A   0      -9.504  15.548  66.179  1.00  0.00    -0.376 C  
ENDROOT
BRANCH   5   6
HETATM    6  C   UNK A   0     -10.533  14.518  65.816  1.00  0.00    -0.323 C  
HETATM    7  N   UNK A   1     -10.190  13.627  64.825  1.00  0.00    -0.584 N  
HETATM    8  O   UNK A   0     -11.637  14.543  66.344  1.00  0.00    -0.357 OA 
HETATM    9  H   UNK A   1      -9.249  13.725  64.442  1.00  0.00     0.000 HD 
BRANCH   7  10
HETATM   10  C   UNK A   1     -10.969  12.609  64.279  1.00  0.00    -0.366 C  
HETATM   11  C   UNK A   1     -10.516  11.330  64.244  1.00  0.00    -0.419 C  
HETATM   12  C   UNK A   1     -12.330  12.767  63.627  1.00  0.00    -0.463 C  
HETATM   13  O   UNK A   1     -12.546  13.929  62.980  1.00  0.00    -0.694 OA 
HETATM   14  O   UNK A   1     -13.123  11.840  63.532  1.00  0.00    -0.617 OA 
BRANCH  11  15
HETATM   15  C   UNK A   1      -9.181  10.832  64.706  1.00  0.00    -0.245 C  
BRANCH  15  16
HETATM   16  C   UNK A   1      -9.038  10.542  66.213  1.00  0.00    -0.184 C  
BRANCH  16  17
HETATM   17  C   UNK A   1      -9.555   9.116  66.443  1.00  0.00    -0.309 C  
BRANCH  17  18
HETATM   18  C   UNK A   1     -10.578   8.958  67.561  1.00  0.00    -0.237 C  
BRANCH  18  19
HETATM   19  S   UNK A   1     -10.861  10.635  68.242  1.00  0.00    -0.262 SA 
BRANCH  19  20
HETATM   20  C   UNK A   1     -11.478  10.191  69.900  1.00  0.00    -0.254 C  
BRANCH  20  21
HETATM   21  C   UNK A   1     -11.088   8.748  70.256  1.00  0.00    -0.222 C  
HETATM   22  N   UNK A   1     -12.225   7.976  70.857  1.00  0.00    -0.489 NA 
HETATM   23  C   UNK A   1      -9.959   8.815  71.286  1.00  0.00    -0.263 C  
HETATM   24  O   UNK A   1      -8.792   9.062  71.031  1.00  0.00    -0.203 OA 
HETATM   25  O   UNK A   1     -10.429   8.614  72.546  1.00  0.00    -0.299 OA 
HETATM   26  H1  UNK A   1     -11.966   7.018  71.094  1.00  0.00     0.000 HD 
HETATM   27  H2  UNK A   1     -13.043   7.995  70.248  1.00  0.00     0.000 HD 
ENDBRANCH  20  21
ENDBRANCH  19  20
ENDBRANCH  18  19
ENDBRANCH  17  18
ENDBRANCH  16  17
ENDBRANCH  15  16
ENDBRANCH  11  15
ENDBRANCH   7  10
ENDBRANCH   5   6
TORSDOF 9
ENDMDL
MODEL       64
REMARK 921   NORMALIZED FREE ENERGY PREDICTED BY IDOCK:   -5.33 KCAL/MOL
REMARK 922        TOTAL FREE ENERGY PREDICTED BY IDOCK:   -9.11 KCAL/MOL
REMARK 923 INTER-LIGAND FREE ENERGY PREDICTED BY IDOCK:   -8.18 KCAL/MOL
REMARK 924 INTRA-LIGAND FREE ENERGY PREDICTED BY IDOCK:   -0.92 KCAL/MOL
REMARK 927      BINDING AFFINITY PREDICTED BY RF-SCORE:    0.00 PKD
ROOT
HETATM    1  C   UNK A   0     -11.552   5.075  73.265  1.00  0.00    -0.251 C  
HETATM    2  C   UNK A   0     -10.569   6.005  72.594  1.00  0.00    -0.251 C  
HETATM    3  C   UNK A   0      -9.182   5.452  72.373  1.00  0.00    -0.152 C  
HETATM    4  C   UNK A   0     -10.736   7.447  73.011  1.00  0.00    -0.413 C  
HETATM    5  C   UNK A   0     -10.084   5.688  71.173  1.00  0.00    -0.262 C  
ENDROOT
BRANCH   5   6
HETATM    6  C   UNK A   0      -9.642   6.739  70.197  1.00  0.00    -0.161 C  
HETATM    7  N   UNK A   1     -10.628   7.339  69.449  1.00  0.00    -0.227 N  
HETATM    8  O   UNK A   0      -8.449   6.973  70.048  1.00  0.00    -0.136 OA 
HETATM    9  H   UNK A   1     -11.583   7.039  69.647  1.00  0.00     0.000 HD 
BRANCH   7  10
HETATM   10  C   UNK A   1     -10.484   8.306  68.456  1.00  0.00    -0.162 C  
HETATM   11  C   UNK A   1     -10.671   9.621  68.733  1.00  0.00    -0.234 C  
HETATM   12  C   UNK A   1     -10.175   8.053  66.992  1.00  0.00    -0.303 C  
HETATM   13  O   UNK A   1     -10.658   6.908  66.474  1.00  0.00    -0.159 OA 
HETATM   14  O   UNK A   1      -9.678   8.907  66.270  1.00  0.00    -0.240 OA 
BRANCH  11  15
HETATM   15  C   UNK A   1     -11.080  10.219  70.045  1.00  0.00    -0.373 C  
BRANCH  15  16
HETATM   16  C   UNK A   1     -12.020  11.439  69.984  1.00  0.00    -0.442 C  
BRANCH  16  17
HETATM   17  C   UNK A   1     -11.604  12.258  68.754  1.00  0.00    -0.380 C  
BRANCH  17  18
HETATM   18  C   UNK A   1     -11.922  13.746  68.815  1.00  0.00    -0.365 C  
BRANCH  18  19
HETATM   19  S   UNK A   1     -11.369  14.458  67.220  1.00  0.00    -0.358 SA 
BRANCH  19  20
HETATM   20  C   UNK A   1     -12.170  13.291  66.071  1.00  0.00    -0.424 C  
BRANCH  20  21
HETATM   21  C   UNK A   1     -11.645  13.490  64.640  1.00  0.00    -0.368 C  
HETATM   22  N   UNK A   1     -12.460  14.478  63.861  1.00  0.00    -1.031 NA 
HETATM   23  C   UNK A   1     -11.723  12.139  63.928  1.00  0.00    -0.458 C  
HETATM   24  O   UNK A   1     -10.937  11.219  64.083  1.00  0.00    -0.372 OA 
HETATM   25  O   UNK A   1     -12.819  12.067  63.127  1.00  0.00    -0.661 OA 
HETATM   26  H1  UNK A   1     -12.112  14.611  62.911  1.00  0.00     0.000 HD 
HETATM   27  H2  UNK A   1     -12.526  15.369  64.354  1.00  0.00     0.000 HD 
ENDBRANCH  20  21
ENDBRANCH  19  20
ENDBRANCH  18  19
ENDBRANCH  17  18
ENDBRANCH  16  17
ENDBRANCH  15  16
ENDBRANCH  11  15
ENDBRANCH   7  10
ENDBRANCH   5   6
TORSDOF 9
ENDMDL
MODEL       65
REMARK 921   NORMALIZED FREE ENERGY PREDICTED BY IDOCK:   -5.33 KCAL/MOL
REMARK 922        TOTAL FREE ENERGY PREDICTED BY IDOCK:   -9.10 KCAL/MOL
REMARK 923 INTER-LIGAND FREE ENERGY PREDICTED BY IDOCK:   -8.30 KCAL/MOL
REMARK 924 INTRA-LIGAND FREE ENERGY PREDICTED BY IDOCK:   -0.81 KCAL/MOL
REMARK 927      BINDING AFFINITY PREDICTED BY RF-SCORE:    0.00 PKD
ROOT
HETATM    1  C   UNK A   0     -10.926   7.667  73.176  1.00  0.00    -0.411 C  
HETATM    2  C   UNK A   0     -10.966   8.014  71.707  1.00  0.00    -0.305 C  
HETATM    3  C   UNK A   0     -12.069   8.952  71.280  1.00  0.00    -0.360 C  
HETATM    4  C   UNK A   0     -10.588   6.858  70.812  1.00  0.00    -0.245 C  
HETATM    5  C   UNK A   0     -10.631   9.444  71.263  1.00  0.00    -0.400 C  
ENDROOT
BRANCH   5   6
HETATM    6  C   UNK A   0     -10.052   9.779  69.920  1.00  0.00    -0.251 C  
HETATM    7  N   UNK A   1     -10.935   9.840  68.866  1.00  0.00    -0.367 N  
HETATM    8  O   UNK A   0      -8.842   9.914  69.791  1.00  0.00    -0.196 OA 
HETATM    9  H   UNK A   1     -11.917   9.682  69.097  1.00  0.00     0.000 HD 
BRANCH   7  10
HETATM   10  C   UNK A   1     -10.654  10.089  67.525  1.00  0.00    -0.280 C  
HETATM   11  C   UNK A   1     -10.922  11.300  66.972  1.00  0.00    -0.352 C  
HETATM   12  C   UNK A   1     -10.098   9.097  66.522  1.00  0.00    -0.287 C  
HETATM   13  O   UNK A   1     -10.454   7.810  66.701  1.00  0.00    -0.292 OA 
HETATM   14  O   UNK A   1      -9.511   9.449  65.507  1.00  0.00    -0.245 OA 
BRANCH  11  15
HETATM   15  C   UNK A   1     -11.563  12.477  67.641  1.00  0.00    -0.416 C  
BRANCH  15  16
HETATM   16  C   UNK A   1     -12.085  13.595  66.719  1.00  0.00    -0.445 C  
BRANCH  16  17
HETATM   17  C   UNK A   1     -11.159  14.803  66.916  1.00  0.00    -0.339 C  
BRANCH  17  18
HETATM   18  C   UNK A   1      -9.835  14.748  66.164  1.00  0.00    -0.312 C  
BRANCH  18  19
HETATM   19  S   UNK A   1      -9.050  16.389  66.381  1.00  0.00    -0.332 SA 
BRANCH  19  20
HETATM   20  C   UNK A   1     -10.187  17.110  67.611  1.00  0.00    -0.329 C  
BRANCH  20  21
HETATM   21  C   UNK A   1     -10.630  18.518  67.183  1.00  0.00    -0.398 C  
HETATM   22  N   UNK A   1     -10.371  18.786  65.731  1.00  0.00    -0.582 NA 
HETATM   23  C   UNK A   1      -9.824  19.526  68.005  1.00  0.00    -0.398 C  
HETATM   24  O   UNK A   1     -10.046  19.815  69.169  1.00  0.00    -0.438 OA 
HETATM   25  O   UNK A   1      -8.785  20.029  67.287  1.00  0.00    -0.319 OA 
HETATM   26  H1  UNK A   1     -10.665  19.720  65.446  1.00  0.00     0.000 HD 
HETATM   27  H2  UNK A   1     -10.803  18.072  65.144  1.00  0.00     0.000 HD 
ENDBRANCH  20  21
ENDBRANCH  19  20
ENDBRANCH  18  19
ENDBRANCH  17  18
ENDBRANCH  16  17
ENDBRANCH  15  16
ENDBRANCH  11  15
ENDBRANCH   7  10
ENDBRANCH   5   6
TORSDOF 9
ENDMDL
MODEL       66
REMARK 921   NORMALIZED FREE ENERGY PREDICTED BY IDOCK:   -5.32 KCAL/MOL
REMARK 922        TOTAL FREE ENERGY PREDICTED BY IDOCK:   -9.08 KCAL/MOL
REMARK 923 INTER-LIGAND FREE ENERGY PREDICTED BY IDOCK:   -7.92 KCAL/MOL
REMARK 924 INTRA-LIGAND FREE ENERGY PREDICTED BY IDOCK:   -1.16 KCAL/MOL
REMARK 927      BINDING AFFINITY PREDICTED BY RF-SCORE:    0.00 PKD
ROOT
HETATM    1  C   UNK A   0     -10.583  11.071  64.007  1.00  0.00    -0.395 C  
HETATM    2  C   UNK A   0     -11.077  12.363  64.616  1.00  0.00    -0.348 C  
HETATM    3  C   UNK A   0     -12.572  12.567  64.610  1.00  0.00    -0.507 C  
HETATM    4  C   UNK A   0     -10.166  13.536  64.339  1.00  0.00    -0.194 C  
HETATM    5  C   UNK A   0     -11.864  12.321  65.932  1.00  0.00    -0.420 C  
ENDROOT
BRANCH   5   6
HETATM    6  C   UNK A   0     -11.880  13.448  66.922  1.00  0.00    -0.403 C  
HETATM    7  N   UNK A   1     -11.197  13.245  68.098  1.00  0.00    -0.256 N  
HETATM    8  O   UNK A   0     -12.538  14.456  66.692  1.00  0.00    -0.263 OA 
HETATM    9  H   UNK A   1     -10.710  12.352  68.183  1.00  0.00     0.000 HD 
BRANCH   7  10
HETATM   10  C   UNK A   1     -11.089  14.106  69.188  1.00  0.00    -0.262 C  
HETATM   11  C   UNK A   1     -10.080  15.011  69.262  1.00  0.00    -0.236 C  
HETATM   12  C   UNK A   1     -11.987  14.128  70.411  1.00  0.00    -0.330 C  
HETATM   13  O   UNK A   1     -12.497  12.942  70.792  1.00  0.00    -0.349 OA 
HETATM   14  O   UNK A   1     -12.103  15.118  71.121  1.00  0.00    -0.284 OA 
BRANCH  11  15
HETATM   15  C   UNK A   1      -8.960  15.197  68.284  1.00  0.00    -0.175 C  
BRANCH  15  16
HETATM   16  C   UNK A   1      -7.855  16.194  68.683  1.00  0.00    -0.188 C  
BRANCH  16  17
HETATM   17  C   UNK A   1      -7.587  17.074  67.454  1.00  0.00    -0.189 C  
BRANCH  17  18
HETATM   18  C   UNK A   1      -6.551  18.176  67.646  1.00  0.00    -0.187 C  
BRANCH  18  19
HETATM   19  S   UNK A   1      -7.342  19.450  68.699  1.00  0.00    -0.349 SA 
BRANCH  19  20
HETATM   20  C   UNK A   1      -8.351  20.301  67.441  1.00  0.00    -0.340 C  
BRANCH  20  21
HETATM   21  C   UNK A   1      -9.834  20.307  67.846  1.00  0.00    -0.352 C  
HETATM   22  N   UNK A   1     -10.062  19.714  69.204  1.00  0.00    -0.609 NA 
HETATM   23  C   UNK A   1     -10.596  19.464  66.822  1.00  0.00    -0.472 C  
HETATM   24  O   UNK A   1     -10.905  19.834  65.702  1.00  0.00    -0.462 OA 
HETATM   25  O   UNK A   1     -10.845  18.216  67.300  1.00  0.00    -0.353 OA 
HETATM   26  H1  UNK A   1     -11.046  19.717  69.473  1.00  0.00     0.000 HD 
HETATM   27  H2  UNK A   1      -9.488  20.178  69.907  1.00  0.00     0.000 HD 
ENDBRANCH  20  21
ENDBRANCH  19  20
ENDBRANCH  18  19
ENDBRANCH  17  18
ENDBRANCH  16  17
ENDBRANCH  15  16
ENDBRANCH  11  15
ENDBRANCH   7  10
ENDBRANCH   5   6
TORSDOF 9
ENDMDL
MODEL       67
REMARK 921   NORMALIZED FREE ENERGY PREDICTED BY IDOCK:   -5.32 KCAL/MOL
REMARK 922        TOTAL FREE ENERGY PREDICTED BY IDOCK:   -9.08 KCAL/MOL
REMARK 923 INTER-LIGAND FREE ENERGY PREDICTED BY IDOCK:   -7.81 KCAL/MOL
REMARK 924 INTRA-LIGAND FREE ENERGY PREDICTED BY IDOCK:   -1.27 KCAL/MOL
REMARK 927      BINDING AFFINITY PREDICTED BY RF-SCORE:    0.00 PKD
ROOT
HETATM    1  C   UNK A   0     -13.845   9.041  72.125  1.00  0.00    -0.526 C  
HETATM    2  C   UNK A   0     -12.490   8.676  71.566  1.00  0.00    -0.364 C  
HETATM    3  C   UNK A   0     -11.613   7.832  72.458  1.00  0.00    -0.422 C  
HETATM    4  C   UNK A   0     -11.869   9.781  70.745  1.00  0.00    -0.400 C  
HETATM    5  C   UNK A   0     -12.198   7.216  71.198  1.00  0.00    -0.405 C  
ENDROOT
BRANCH   5   6
HETATM    6  C   UNK A   0     -11.220   6.812  70.133  1.00  0.00    -0.335 C  
HETATM    7  N   UNK A   1      -9.902   7.142  70.349  1.00  0.00    -0.176 N  
HETATM    8  O   UNK A   0     -11.620   6.281  69.104  1.00  0.00    -0.324 OA 
HETATM    9  H   UNK A   1      -9.698   7.607  71.234  1.00  0.00     0.000 HD 
BRANCH   7  10
HETATM   10  C   UNK A   1      -8.813   6.920  69.509  1.00  0.00    -0.133 C  
HETATM   11  C   UNK A   1      -8.443   7.847  68.589  1.00  0.00    -0.128 C  
HETATM   12  C   UNK A   1      -7.961   5.666  69.453  1.00  0.00    -0.099 C  
HETATM   13  O   UNK A   1      -8.591   4.508  69.729  1.00  0.00    -0.069 OA 
HETATM   14  O   UNK A   1      -6.820   5.668  69.011  1.00  0.00    -0.057 OA 
BRANCH  11  15
HETATM   15  C   UNK A   1      -9.118   9.154  68.302  1.00  0.00    -0.132 C  
BRANCH  15  16
HETATM   16  C   UNK A   1     -10.219   9.139  67.225  1.00  0.00    -0.319 C  
BRANCH  16  17
HETATM   17  C   UNK A   1     -10.860  10.533  67.226  1.00  0.00    -0.338 C  
BRANCH  17  18
HETATM   18  C   UNK A   1     -10.035  11.637  67.875  1.00  0.00    -0.182 C  
BRANCH  18  19
HETATM   19  S   UNK A   1      -9.634  12.832  66.545  1.00  0.00    -0.252 SA 
BRANCH  19  20
HETATM   20  C   UNK A   1     -11.304  13.103  65.865  1.00  0.00    -0.311 C  
BRANCH  20  21
HETATM   21  C   UNK A   1     -11.248  13.280  64.340  1.00  0.00    -0.381 C  
HETATM   22  N   UNK A   1     -12.185  14.342  63.848  1.00  0.00    -0.980 NA 
HETATM   23  C   UNK A   1     -11.659  11.950  63.705  1.00  0.00    -0.464 C  
HETATM   24  O   UNK A   1     -10.942  10.967  63.613  1.00  0.00    -0.277 OA 
HETATM   25  O   UNK A   1     -12.955  11.979  63.296  1.00  0.00    -0.736 OA 
HETATM   26  H1  UNK A   1     -12.148  14.460  62.836  1.00  0.00     0.000 HD 
HETATM   27  H2  UNK A   1     -12.018  15.228  64.326  1.00  0.00     0.000 HD 
ENDBRANCH  20  21
ENDBRANCH  19  20
ENDBRANCH  18  19
ENDBRANCH  17  18
ENDBRANCH  16  17
ENDBRANCH  15  16
ENDBRANCH  11  15
ENDBRANCH   7  10
ENDBRANCH   5   6
TORSDOF 9
ENDMDL
MODEL       68
REMARK 921   NORMALIZED FREE ENERGY PREDICTED BY IDOCK:   -5.31 KCAL/MOL
REMARK 922        TOTAL FREE ENERGY PREDICTED BY IDOCK:   -9.08 KCAL/MOL
REMARK 923 INTER-LIGAND FREE ENERGY PREDICTED BY IDOCK:   -8.00 KCAL/MOL
REMARK 924 INTRA-LIGAND FREE ENERGY PREDICTED BY IDOCK:   -1.07 KCAL/MOL
REMARK 927      BINDING AFFINITY PREDICTED BY RF-SCORE:    0.00 PKD
ROOT
HETATM    1  C   UNK A   0     -13.459   9.245  72.431  1.00  0.00    -0.526 C  
HETATM    2  C   UNK A   0     -12.172   8.884  71.729  1.00  0.00    -0.429 C  
HETATM    3  C   UNK A   0     -11.157   8.132  72.555  1.00  0.00    -0.446 C  
HETATM    4  C   UNK A   0     -11.702   9.948  70.765  1.00  0.00    -0.424 C  
HETATM    5  C   UNK A   0     -11.870   7.411  71.423  1.00  0.00    -0.329 C  
ENDROOT
BRANCH   5   6
HETATM    6  C   UNK A   0     -11.019   6.964  70.271  1.00  0.00    -0.281 C  
HETATM    7  N   UNK A   1      -9.729   7.442  70.236  1.00  0.00    -0.172 N  
HETATM    8  O   UNK A   0     -11.501   6.267  69.387  1.00  0.00    -0.427 OA 
HETATM    9  H   UNK A   1      -9.452   8.037  71.018  1.00  0.00     0.000 HD 
BRANCH   7  10
HETATM   10  C   UNK A   1      -8.755   7.214  69.266  1.00  0.00    -0.136 C  
HETATM   11  C   UNK A   1      -8.535   8.116  68.276  1.00  0.00    -0.130 C  
HETATM   12  C   UNK A   1      -7.885   5.978  69.137  1.00  0.00    -0.099 C  
HETATM   13  O   UNK A   1      -8.442   4.817  69.532  1.00  0.00    -0.081 OA 
HETATM   14  O   UNK A   1      -6.813   5.989  68.547  1.00  0.00    -0.065 OA 
BRANCH  11  15
HETATM   15  C   UNK A   1      -9.276   9.396  68.040  1.00  0.00    -0.137 C  
BRANCH  15  16
HETATM   16  C   UNK A   1     -10.344   9.379  66.929  1.00  0.00    -0.308 C  
BRANCH  16  17
HETATM   17  C   UNK A   1      -9.596   9.240  65.596  1.00  0.00    -0.324 C  
BRANCH  17  18
HETATM   18  C   UNK A   1      -8.858  10.485  65.121  1.00  0.00    -0.190 C  
BRANCH  18  19
HETATM   19  S   UNK A   1      -9.409  10.787  63.400  1.00  0.00    -0.318 SA 
BRANCH  19  20
HETATM   20  C   UNK A   1     -10.512  12.213  63.679  1.00  0.00    -0.460 C  
BRANCH  20  21
HETATM   21  C   UNK A   1     -11.907  11.742  64.120  1.00  0.00    -0.256 C  
HETATM   22  N   UNK A   1     -12.939  11.915  63.046  1.00  0.00    -0.774 NA 
HETATM   23  C   UNK A   1     -12.323  12.592  65.322  1.00  0.00    -0.466 C  
HETATM   24  O   UNK A   1     -11.916  12.439  66.462  1.00  0.00    -0.564 OA 
HETATM   25  O   UNK A   1     -13.173  13.586  64.953  1.00  0.00    -0.661 OA 
HETATM   26  H1  UNK A   1     -13.865  11.603  63.338  1.00  0.00     0.000 HD 
HETATM   27  H2  UNK A   1     -12.651  11.451  62.184  1.00  0.00     0.000 HD 
ENDBRANCH  20  21
ENDBRANCH  19  20
ENDBRANCH  18  19
ENDBRANCH  17  18
ENDBRANCH  16  17
ENDBRANCH  15  16
ENDBRANCH  11  15
ENDBRANCH   7  10
ENDBRANCH   5   6
TORSDOF 9
ENDMDL
MODEL       69
REMARK 921   NORMALIZED FREE ENERGY PREDICTED BY IDOCK:   -5.31 KCAL/MOL
REMARK 922        TOTAL FREE ENERGY PREDICTED BY IDOCK:   -9.08 KCAL/MOL
REMARK 923 INTER-LIGAND FREE ENERGY PREDICTED BY IDOCK:   -7.82 KCAL/MOL
REMARK 924 INTRA-LIGAND FREE ENERGY PREDICTED BY IDOCK:   -1.26 KCAL/MOL
REMARK 927      BINDING AFFINITY PREDICTED BY RF-SCORE:    0.00 PKD
ROOT
HETATM    1  C   UNK A   0      -8.811  19.162  67.559  1.00  0.00    -0.329 C  
HETATM    2  C   UNK A   0      -9.412  17.980  66.835  1.00  0.00    -0.288 C  
HETATM    3  C   UNK A   0      -8.451  16.881  66.453  1.00  0.00    -0.325 C  
HETATM    4  C   UNK A   0     -10.515  18.368  65.879  1.00  0.00    -0.346 C  
HETATM    5  C   UNK A   0      -9.478  16.620  67.542  1.00  0.00    -0.229 C  
ENDROOT
BRANCH   5   6
HETATM    6  C   UNK A   0     -10.522  15.584  67.245  1.00  0.00    -0.279 C  
HETATM    7  N   UNK A   1     -10.300  14.783  66.149  1.00  0.00    -0.291 N  
HETATM    8  O   UNK A   0     -11.541  15.530  67.922  1.00  0.00    -0.319 OA 
HETATM    9  H   UNK A   1      -9.425  14.942  65.649  1.00  0.00     0.000 HD 
BRANCH   7  10
HETATM   10  C   UNK A   1     -11.123  13.781  65.638  1.00  0.00    -0.295 C  
HETATM   11  C   UNK A   1     -10.791  12.472  65.773  1.00  0.00    -0.310 C  
HETATM   12  C   UNK A   1     -12.404  13.982  64.850  1.00  0.00    -0.427 C  
HETATM   13  O   UNK A   1     -12.455  15.081  64.073  1.00  0.00    -0.796 OA 
HETATM   14  O   UNK A   1     -13.269  13.121  64.775  1.00  0.00    -0.670 OA 
BRANCH  11  15
HETATM   15  C   UNK A   1      -9.551  11.915  66.405  1.00  0.00    -0.239 C  
BRANCH  15  16
HETATM   16  C   UNK A   1      -9.402  10.381  66.395  1.00  0.00    -0.197 C  
BRANCH  16  17
HETATM   17  C   UNK A   1      -8.524  10.013  67.599  1.00  0.00    -0.114 C  
BRANCH  17  18
HETATM   18  C   UNK A   1      -8.724   8.608  68.154  1.00  0.00    -0.142 C  
BRANCH  18  19
HETATM   19  S   UNK A   1     -10.399   8.579  68.894  1.00  0.00    -0.191 SA 
BRANCH  19  20
HETATM   20  C   UNK A   1     -10.186   9.851  70.182  1.00  0.00    -0.273 C  
BRANCH  20  21
HETATM   21  C   UNK A   1     -11.515  10.570  70.462  1.00  0.00    -0.345 C  
HETATM   22  N   UNK A   1     -12.698   9.656  70.354  1.00  0.00    -0.492 NA 
HETATM   23  C   UNK A   1     -11.670  11.677  69.419  1.00  0.00    -0.340 C  
HETATM   24  O   UNK A   1     -11.089  12.750  69.445  1.00  0.00    -0.179 OA 
HETATM   25  O   UNK A   1     -12.505  11.296  68.416  1.00  0.00    -0.403 OA 
HETATM   26  H1  UNK A   1     -13.580  10.132  70.540  1.00  0.00     0.000 HD 
HETATM   27  H2  UNK A   1     -12.588   8.841  70.958  1.00  0.00     0.000 HD 
ENDBRANCH  20  21
ENDBRANCH  19  20
ENDBRANCH  18  19
ENDBRANCH  17  18
ENDBRANCH  16  17
ENDBRANCH  15  16
ENDBRANCH  11  15
ENDBRANCH   7  10
ENDBRANCH   5   6
TORSDOF 9
ENDMDL
MODEL       70
REMARK 921   NORMALIZED FREE ENERGY PREDICTED BY IDOCK:   -5.29 KCAL/MOL
REMARK 922        TOTAL FREE ENERGY PREDICTED BY IDOCK:   -9.03 KCAL/MOL
REMARK 923 INTER-LIGAND FREE ENERGY PREDICTED BY IDOCK:   -7.52 KCAL/MOL
REMARK 924 INTRA-LIGAND FREE ENERGY PREDICTED BY IDOCK:   -1.51 KCAL/MOL
REMARK 927      BINDING AFFINITY PREDICTED BY RF-SCORE:    0.00 PKD
ROOT
HETATM    1  C   UNK A   0     -10.595  19.514  66.254  1.00  0.00    -0.580 C  
HETATM    2  C   UNK A   0     -10.116  18.208  66.841  1.00  0.00    -0.362 C  
HETATM    3  C   UNK A   0      -8.913  18.294  67.749  1.00  0.00    -0.273 C  
HETATM    4  C   UNK A   0     -10.243  17.045  65.886  1.00  0.00    -0.311 C  
HETATM    5  C   UNK A   0     -10.270  17.960  68.347  1.00  0.00    -0.398 C  
ENDROOT
BRANCH   5   6
HETATM    6  C   UNK A   0     -10.420  16.594  68.949  1.00  0.00    -0.322 C  
HETATM    7  N   UNK A   1     -11.685  16.054  68.944  1.00  0.00    -0.368 N  
HETATM    8  O   UNK A   0      -9.458  16.046  69.473  1.00  0.00    -0.248 OA 
HETATM    9  H   UNK A   1     -12.410  16.619  68.501  1.00  0.00     0.000 HD 
BRANCH   7  10
HETATM   10  C   UNK A   1     -12.099  14.832  69.470  1.00  0.00    -0.290 C  
HETATM   11  C   UNK A   1     -12.029  13.697  68.729  1.00  0.00    -0.394 C  
HETATM   12  C   UNK A   1     -12.709  14.601  70.839  1.00  0.00    -0.348 C  
HETATM   13  O   UNK A   1     -13.456  15.607  71.332  1.00  0.00    -0.500 OA 
HETATM   14  O   UNK A   1     -12.684  13.510  71.393  1.00  0.00    -0.345 OA 
BRANCH  11  15
HETATM   15  C   UNK A   1     -11.573  13.573  67.307  1.00  0.00    -0.398 C  
BRANCH  15  16
HETATM   16  C   UNK A   1     -10.053  13.458  67.078  1.00  0.00    -0.247 C  
BRANCH  16  17
HETATM   17  C   UNK A   1      -9.500  12.571  68.202  1.00  0.00    -0.214 C  
BRANCH  17  18
HETATM   18  C   UNK A   1      -8.574  11.446  67.758  1.00  0.00    -0.129 C  
BRANCH  18  19
HETATM   19  S   UNK A   1      -9.515   9.888  67.972  1.00  0.00    -0.134 SA 
BRANCH  19  20
HETATM   20  C   UNK A   1      -9.878   9.995  69.756  1.00  0.00    -0.235 C  
BRANCH  20  21
HETATM   21  C   UNK A   1     -11.346   9.633  70.034  1.00  0.00    -0.195 C  
HETATM   22  N   UNK A   1     -12.085  10.730  70.739  1.00  0.00    -0.344 NA 
HETATM   23  C   UNK A   1     -11.354   8.396  70.934  1.00  0.00    -0.268 C  
HETATM   24  O   UNK A   1     -11.148   7.254  70.557  1.00  0.00    -0.254 OA 
HETATM   25  O   UNK A   1     -11.569   8.734  72.233  1.00  0.00    -0.365 OA 
HETATM   26  H1  UNK A   1     -13.059  10.490  70.924  1.00  0.00     0.000 HD 
HETATM   27  H2  UNK A   1     -12.016  11.608  70.225  1.00  0.00     0.000 HD 
ENDBRANCH  20  21
ENDBRANCH  19  20
ENDBRANCH  18  19
ENDBRANCH  17  18
ENDBRANCH  16  17
ENDBRANCH  15  16
ENDBRANCH  11  15
ENDBRANCH   7  10
ENDBRANCH   5   6
TORSDOF 9
ENDMDL
MODEL       71
REMARK 921   NORMALIZED FREE ENERGY PREDICTED BY IDOCK:   -5.27 KCAL/MOL
REMARK 922        TOTAL FREE ENERGY PREDICTED BY IDOCK:   -9.01 KCAL/MOL
REMARK 923 INTER-LIGAND FREE ENERGY PREDICTED BY IDOCK:   -7.97 KCAL/MOL
REMARK 924 INTRA-LIGAND FREE ENERGY PREDICTED BY IDOCK:   -1.03 KCAL/MOL
REMARK 927      BINDING AFFINITY PREDICTED BY RF-SCORE:    0.00 PKD
ROOT
HETATM    1  C   UNK A   0     -13.367  15.893  73.388  1.00  0.00    -0.609 C  
HETATM    2  C   UNK A   0     -13.212  15.011  72.172  1.00  0.00    -0.462 C  
HETATM    3  C   UNK A   0     -14.068  15.370  70.982  1.00  0.00    -0.242 C  
HETATM    4  C   UNK A   0     -12.993  13.557  72.517  1.00  0.00    -0.359 C  
HETATM    5  C   UNK A   0     -12.566  15.585  70.905  1.00  0.00    -0.512 C  
ENDROOT
BRANCH   5   6
HETATM    6  C   UNK A   0     -11.819  14.750  69.907  1.00  0.00    -0.316 C  
HETATM    7  N   UNK A   1     -12.574  13.929  69.101  1.00  0.00    -0.285 N  
HETATM    8  O   UNK A   0     -10.594  14.768  69.886  1.00  0.00    -0.176 OA 
HETATM    9  H   UNK A   1     -13.585  13.983  69.232  1.00  0.00     0.000 HD 
BRANCH   7  10
HETATM   10  C   UNK A   1     -12.131  13.033  68.131  1.00  0.00    -0.157 C  
HETATM   11  C   UNK A   1     -11.780  11.765  68.463  1.00  0.00    -0.390 C  
HETATM   12  C   UNK A   1     -11.926  13.331  66.657  1.00  0.00    -0.388 C  
HETATM   13  O   UNK A   1     -11.546  14.587  66.354  1.00  0.00    -0.357 OA 
HETATM   14  O   UNK A   1     -11.927  12.453  65.805  1.00  0.00    -0.481 OA 
BRANCH  11  15
HETATM   15  C   UNK A   1     -11.763  11.162  69.835  1.00  0.00    -0.433 C  
BRANCH  15  16
HETATM   16  C   UNK A   1     -10.642  10.147  70.128  1.00  0.00    -0.337 C  
BRANCH  16  17
HETATM   17  C   UNK A   1     -10.111   9.668  68.770  1.00  0.00    -0.193 C  
BRANCH  17  18
HETATM   18  C   UNK A   1      -9.318   8.366  68.795  1.00  0.00    -0.143 C  
BRANCH  18  19
HETATM   19  S   UNK A   1     -10.552   7.012  68.811  1.00  0.00    -0.197 SA 
BRANCH  19  20
HETATM   20  C   UNK A   1     -10.276   6.369  70.496  1.00  0.00    -0.189 C  
BRANCH  20  21
HETATM   21  C   UNK A   1     -11.598   6.313  71.279  1.00  0.00    -0.274 C  
HETATM   22  N   UNK A   1     -12.743   6.913  70.520  1.00  0.00    -0.508 NA 
HETATM   23  C   UNK A   1     -11.406   7.115  72.567  1.00  0.00    -0.279 C  
HETATM   24  O   UNK A   1     -10.809   6.721  73.555  1.00  0.00    -0.295 OA 
HETATM   25  O   UNK A   1     -11.944   8.359  72.458  1.00  0.00    -0.393 OA 
HETATM   26  H1  UNK A   1     -13.620   6.876  71.039  1.00  0.00     0.000 HD 
HETATM   27  H2  UNK A   1     -12.842   6.479  69.602  1.00  0.00     0.000 HD 
ENDBRANCH  20  21
ENDBRANCH  19  20
ENDBRANCH  18  19
ENDBRANCH  17  18
ENDBRANCH  16  17
ENDBRANCH  15  16
ENDBRANCH  11  15
ENDBRANCH   7  10
ENDBRANCH   5   6
TORSDOF 9
ENDMDL
MODEL       72
REMARK 921   NORMALIZED FREE ENERGY PREDICTED BY IDOCK:   -5.25 KCAL/MOL
REMARK 922        TOTAL FREE ENERGY PREDICTED BY IDOCK:   -8.97 KCAL/MOL
REMARK 923 INTER-LIGAND FREE ENERGY PREDICTED BY IDOCK:   -8.51 KCAL/MOL
REMARK 924 INTRA-LIGAND FREE ENERGY PREDICTED BY IDOCK:   -0.47 KCAL/MOL
REMARK 927      BINDING AFFINITY PREDICTED BY RF-SCORE:    0.00 PKD
ROOT
HETATM    1  C   UNK A   0     -12.825  14.151  73.022  1.00  0.00    -0.385 C  
HETATM    2  C   UNK A   0     -12.520  14.321  71.552  1.00  0.00    -0.435 C  
HETATM    3  C   UNK A   0     -13.074  15.565  70.902  1.00  0.00    -0.508 C  
HETATM    4  C   UNK A   0     -12.529  13.018  70.788  1.00  0.00    -0.384 C  
HETATM    5  C   UNK A   0     -11.574  15.443  71.106  1.00  0.00    -0.425 C  
ENDROOT
BRANCH   5   6
HETATM    6  C   UNK A   0     -10.732  15.370  69.866  1.00  0.00    -0.303 C  
HETATM    7  N   UNK A   1      -9.379  15.199  70.049  1.00  0.00    -0.418 N  
HETATM    8  O   UNK A   0     -11.245  15.531  68.766  1.00  0.00    -0.275 OA 
HETATM    9  H   UNK A   1      -9.068  15.104  71.016  1.00  0.00     0.000 HD 
BRANCH   7  10
HETATM   10  C   UNK A   1      -8.382  15.139  69.078  1.00  0.00    -0.209 C  
HETATM   11  C   UNK A   1      -7.674  16.246  68.739  1.00  0.00    -0.202 C  
HETATM   12  C   UNK A   1      -7.995  13.923  68.258  1.00  0.00    -0.148 C  
HETATM   13  O   UNK A   1      -8.990  13.062  67.970  1.00  0.00    -0.185 OA 
HETATM   14  O   UNK A   1      -6.896  13.809  67.732  1.00  0.00    -0.144 OA 
BRANCH  11  15
HETATM   15  C   UNK A   1      -7.857  17.634  69.274  1.00  0.00     0.133 C  
BRANCH  15  16
HETATM   16  C   UNK A   1      -8.095  18.747  68.235  1.00  0.00    -0.353 C  
BRANCH  16  17
HETATM   17  C   UNK A   1      -9.451  19.384  68.570  1.00  0.00    -0.451 C  
BRANCH  17  18
HETATM   18  C   UNK A   1     -10.532  19.228  67.507  1.00  0.00    -0.459 C  
BRANCH  18  19
HETATM   19  S   UNK A   1      -9.835  18.128  66.219  1.00  0.00    -0.274 SA 
BRANCH  19  20
HETATM   20  C   UNK A   1     -11.023  16.748  66.321  1.00  0.00     0.149 C  
BRANCH  20  21
HETATM   21  C   UNK A   1     -10.942  15.867  65.064  1.00  0.00    -0.412 C  
HETATM   22  N   UNK A   1     -11.683  16.455  63.901  1.00  0.00    -1.527 NA 
HETATM   23  C   UNK A   1     -11.578  14.519  65.404  1.00  0.00    -0.355 C  
HETATM   24  O   UNK A   1     -11.042  13.635  66.052  1.00  0.00    -0.292 OA 
HETATM   25  O   UNK A   1     -12.851  14.442  64.934  1.00  0.00    -0.645 OA 
HETATM   26  H1  UNK A   1     -11.630  15.871  63.067  1.00  0.00     0.000 HD 
HETATM   27  H2  UNK A   1     -11.364  17.404  63.705  1.00  0.00     0.000 HD 
ENDBRANCH  20  21
ENDBRANCH  19  20
ENDBRANCH  18  19
ENDBRANCH  17  18
ENDBRANCH  16  17
ENDBRANCH  15  16
ENDBRANCH  11  15
ENDBRANCH   7  10
ENDBRANCH   5   6
TORSDOF 9
ENDMDL
MODEL       73
REMARK 921   NORMALIZED FREE ENERGY PREDICTED BY IDOCK:   -5.24 KCAL/MOL
REMARK 922        TOTAL FREE ENERGY PREDICTED BY IDOCK:   -8.96 KCAL/MOL
REMARK 923 INTER-LIGAND FREE ENERGY PREDICTED BY IDOCK:   -7.70 KCAL/MOL
REMARK 924 INTRA-LIGAND FREE ENERGY PREDICTED BY IDOCK:   -1.26 KCAL/MOL
REMARK 927      BINDING AFFINITY PREDICTED BY RF-SCORE:    0.00 PKD
ROOT
HETATM    1  C   UNK A   0     -13.067  14.221  73.075  1.00  0.00    -0.526 C  
HETATM    2  C   UNK A   0     -12.749  14.321  71.602  1.00  0.00    -0.430 C  
HETATM    3  C   UNK A   0     -13.523  15.360  70.827  1.00  0.00    -0.324 C  
HETATM    4  C   UNK A   0     -12.462  12.982  70.964  1.00  0.00    -0.385 C  
HETATM    5  C   UNK A   0     -12.038  15.572  71.069  1.00  0.00    -0.438 C  
ENDROOT
BRANCH   5   6
HETATM    6  C   UNK A   0     -11.153  15.567  69.857  1.00  0.00    -0.310 C  
HETATM    7  N   UNK A   1     -11.780  15.678  68.637  1.00  0.00    -0.427 N  
HETATM    8  O   UNK A   0      -9.947  15.398  69.979  1.00  0.00    -0.271 OA 
HETATM    9  H   UNK A   1     -12.794  15.786  68.664  1.00  0.00     0.000 HD 
BRANCH   7  10
HETATM   10  C   UNK A   1     -11.200  15.660  67.370  1.00  0.00    -0.219 C  
HETATM   11  C   UNK A   1     -11.165  14.518  66.637  1.00  0.00    -0.346 C  
HETATM   12  C   UNK A   1     -10.511  16.821  66.679  1.00  0.00    -0.258 C  
HETATM   13  O   UNK A   1      -9.870  17.692  67.482  1.00  0.00    -0.282 OA 
HETATM   14  O   UNK A   1     -10.383  16.878  65.463  1.00  0.00    -0.572 OA 
BRANCH  11  15
HETATM   15  C   UNK A   1     -11.662  13.166  67.048  1.00  0.00    -0.431 C  
BRANCH  15  16
HETATM   16  C   UNK A   1     -10.644  12.239  67.741  1.00  0.00    -0.241 C  
BRANCH  16  17
HETATM   17  C   UNK A   1     -11.207  10.814  67.650  1.00  0.00    -0.370 C  
BRANCH  17  18
HETATM   18  C   UNK A   1     -10.402   9.840  66.799  1.00  0.00    -0.218 C  
BRANCH  18  19
HETATM   19  S   UNK A   1     -10.510   8.213  67.634  1.00  0.00    -0.205 SA 
BRANCH  19  20
HETATM   20  C   UNK A   1     -10.422   8.756  69.372  1.00  0.00    -0.222 C  
BRANCH  20  21
HETATM   21  C   UNK A   1      -9.355   7.958  70.138  1.00  0.00    -0.156 C  
HETATM   22  N   UNK A   1      -9.942   6.847  70.954  1.00  0.00    -0.189 NA 
HETATM   23  C   UNK A   1      -8.647   8.926  71.088  1.00  0.00    -0.208 C  
HETATM   24  O   UNK A   1      -7.797   9.736  70.756  1.00  0.00    -0.304 OA 
HETATM   25  O   UNK A   1      -9.123   8.808  72.355  1.00  0.00    -0.366 OA 
HETATM   26  H1  UNK A   1      -9.234   6.317  71.462  1.00  0.00     0.000 HD 
HETATM   27  H2  UNK A   1     -10.516   6.232  70.376  1.00  0.00     0.000 HD 
ENDBRANCH  20  21
ENDBRANCH  19  20
ENDBRANCH  18  19
ENDBRANCH  17  18
ENDBRANCH  16  17
ENDBRANCH  15  16
ENDBRANCH  11  15
ENDBRANCH   7  10
ENDBRANCH   5   6
TORSDOF 9
ENDMDL
MODEL       74
REMARK 921   NORMALIZED FREE ENERGY PREDICTED BY IDOCK:   -5.23 KCAL/MOL
REMARK 922        TOTAL FREE ENERGY PREDICTED BY IDOCK:   -8.95 KCAL/MOL
REMARK 923 INTER-LIGAND FREE ENERGY PREDICTED BY IDOCK:   -7.95 KCAL/MOL
REMARK 924 INTRA-LIGAND FREE ENERGY PREDICTED BY IDOCK:   -1.00 KCAL/MOL
REMARK 927      BINDING AFFINITY PREDICTED BY RF-SCORE:    0.00 PKD
ROOT
HETATM    1  C   UNK A   0     -14.212  15.251  72.018  1.00  0.00    -0.679 C  
HETATM    2  C   UNK A   0     -12.894  14.971  71.335  1.00  0.00    -0.432 C  
HETATM    3  C   UNK A   0     -12.447  13.530  71.327  1.00  0.00    -0.388 C  
HETATM    4  C   UNK A   0     -11.872  16.064  71.544  1.00  0.00    -0.554 C  
HETATM    5  C   UNK A   0     -12.882  14.176  70.023  1.00  0.00    -0.020 C  
ENDROOT
BRANCH   5   6
HETATM    6  C   UNK A   0     -11.826  14.337  68.969  1.00  0.00    -0.335 C  
HETATM    7  N   UNK A   1     -12.267  14.505  67.676  1.00  0.00    -0.614 N  
HETATM    8  O   UNK A   0     -10.642  14.246  69.268  1.00  0.00    -0.223 OA 
HETATM    9  H   UNK A   1     -13.279  14.537  67.550  1.00  0.00     0.000 HD 
BRANCH   7  10
HETATM   10  C   UNK A   1     -11.502  14.635  66.518  1.00  0.00    -0.351 C  
HETATM   11  C   UNK A   1     -11.194  13.551  65.762  1.00  0.00    -0.308 C  
HETATM   12  C   UNK A   1     -10.884  15.915  65.988  1.00  0.00    -0.225 C  
HETATM   13  O   UNK A   1     -10.503  16.817  66.912  1.00  0.00    -0.306 OA 
HETATM   14  O   UNK A   1     -10.578  16.056  64.811  1.00  0.00    -0.600 OA 
BRANCH  11  15
HETATM   15  C   UNK A   1     -11.554  12.123  66.042  1.00  0.00    -0.420 C  
BRANCH  15  16
HETATM   16  C   UNK A   1     -10.541  11.306  66.866  1.00  0.00    -0.300 C  
BRANCH  16  17
HETATM   17  C   UNK A   1     -11.292  10.778  68.096  1.00  0.00    -0.377 C  
BRANCH  17  18
HETATM   18  C   UNK A   1     -10.514  10.808  69.406  1.00  0.00    -0.200 C  
BRANCH  18  19
HETATM   19  S   UNK A   1     -10.806   9.191  70.216  1.00  0.00    -0.255 SA 
BRANCH  19  20
HETATM   20  C   UNK A   1     -10.304   8.077  68.863  1.00  0.00    -0.209 C  
BRANCH  20  21
HETATM   21  C   UNK A   1     -11.172   6.809  68.852  1.00  0.00    -0.127 C  
HETATM   22  N   UNK A   1     -11.230   6.139  70.192  1.00  0.00    -0.378 NA 
HETATM   23  C   UNK A   1     -10.548   5.830  67.856  1.00  0.00    -0.231 C  
HETATM   24  O   UNK A   1     -10.651   5.906  66.642  1.00  0.00    -0.263 OA 
HETATM   25  O   UNK A   1      -9.811   4.882  68.492  1.00  0.00    -0.152 OA 
HETATM   26  H1  UNK A   1     -11.806   5.298  70.185  1.00  0.00     0.000 HD 
HETATM   27  H2  UNK A   1     -11.540   6.790  70.913  1.00  0.00     0.000 HD 
ENDBRANCH  20  21
ENDBRANCH  19  20
ENDBRANCH  18  19
ENDBRANCH  17  18
ENDBRANCH  16  17
ENDBRANCH  15  16
ENDBRANCH  11  15
ENDBRANCH   7  10
ENDBRANCH   5   6
TORSDOF 9
ENDMDL
MODEL       75
REMARK 921   NORMALIZED FREE ENERGY PREDICTED BY IDOCK:   -5.22 KCAL/MOL
REMARK 922        TOTAL FREE ENERGY PREDICTED BY IDOCK:   -8.93 KCAL/MOL
REMARK 923 INTER-LIGAND FREE ENERGY PREDICTED BY IDOCK:   -7.78 KCAL/MOL
REMARK 924 INTRA-LIGAND FREE ENERGY PREDICTED BY IDOCK:   -1.16 KCAL/MOL
REMARK 927      BINDING AFFINITY PREDICTED BY RF-SCORE:    0.00 PKD
ROOT
HETATM    1  C   UNK A   0     -13.939   8.825  72.171  1.00  0.00    -0.522 C  
HETATM    2  C   UNK A   0     -12.535   9.080  71.676  1.00  0.00    -0.418 C  
HETATM    3  C   UNK A   0     -11.432   8.378  72.430  1.00  0.00    -0.451 C  
HETATM    4  C   UNK A   0     -12.322  10.496  71.196  1.00  0.00    -0.510 C  
HETATM    5  C   UNK A   0     -11.754   7.939  71.012  1.00  0.00    -0.293 C  
ENDROOT
BRANCH   5   6
HETATM    6  C   UNK A   0     -10.685   8.160  69.981  1.00  0.00    -0.243 C  
HETATM    7  N   UNK A   1     -11.088   8.159  68.666  1.00  0.00    -0.350 N  
HETATM    8  O   UNK A   0      -9.514   8.259  70.325  1.00  0.00    -0.162 OA 
HETATM    9  H   UNK A   1     -12.089   8.040  68.505  1.00  0.00     0.000 HD 
BRANCH   7  10
HETATM   10  C   UNK A   1     -10.299   8.301  67.526  1.00  0.00    -0.265 C  
HETATM   11  C   UNK A   1     -10.188   9.501  66.902  1.00  0.00    -0.317 C  
HETATM   12  C   UNK A   1      -9.538   7.198  66.815  1.00  0.00    -0.178 C  
HETATM   13  O   UNK A   1     -10.094   5.972  66.858  1.00  0.00    -0.153 OA 
HETATM   14  O   UNK A   1      -8.577   7.424  66.093  1.00  0.00    -0.133 OA 
BRANCH  11  15
HETATM   15  C   UNK A   1     -10.878  10.778  67.272  1.00  0.00    -0.344 C  
BRANCH  15  16
HETATM   16  C   UNK A   1     -11.045  11.821  66.150  1.00  0.00    -0.358 C  
BRANCH  16  17
HETATM   17  C   UNK A   1     -12.003  12.896  66.681  1.00  0.00    -0.436 C  
BRANCH  17  18
HETATM   18  C   UNK A   1     -11.583  14.338  66.424  1.00  0.00    -0.372 C  
BRANCH  18  19
HETATM   19  S   UNK A   1      -9.806  14.443  66.857  1.00  0.00    -0.269 SA 
BRANCH  19  20
HETATM   20  C   UNK A   1      -9.947  14.977  68.596  1.00  0.00    -0.220 C  
BRANCH  20  21
HETATM   21  C   UNK A   1     -11.184  15.868  68.792  1.00  0.00    -0.359 C  
HETATM   22  N   UNK A   1     -10.826  17.302  69.042  1.00  0.00    -0.310 NA 
HETATM   23  C   UNK A   1     -11.941  15.344  70.014  1.00  0.00    -0.356 C  
HETATM   24  O   UNK A   1     -12.656  14.356  70.023  1.00  0.00    -0.330 OA 
HETATM   25  O   UNK A   1     -11.675  16.093  71.116  1.00  0.00    -0.430 OA 
HETATM   26  H1  UNK A   1     -11.646  17.894  69.173  1.00  0.00     0.000 HD 
HETATM   27  H2  UNK A   1     -10.227  17.665  68.300  1.00  0.00     0.000 HD 
ENDBRANCH  20  21
ENDBRANCH  19  20
ENDBRANCH  18  19
ENDBRANCH  17  18
ENDBRANCH  16  17
ENDBRANCH  15  16
ENDBRANCH  11  15
ENDBRANCH   7  10
ENDBRANCH   5   6
TORSDOF 9
ENDMDL
MODEL       76
REMARK 921   NORMALIZED FREE ENERGY PREDICTED BY IDOCK:   -5.21 KCAL/MOL
REMARK 922        TOTAL FREE ENERGY PREDICTED BY IDOCK:   -8.92 KCAL/MOL
REMARK 923 INTER-LIGAND FREE ENERGY PREDICTED BY IDOCK:   -8.19 KCAL/MOL
REMARK 924 INTRA-LIGAND FREE ENERGY PREDICTED BY IDOCK:   -0.74 KCAL/MOL
REMARK 927      BINDING AFFINITY PREDICTED BY RF-SCORE:    0.00 PKD
ROOT
HETATM    1  C   UNK A   0     -12.484  12.438  63.950  1.00  0.00    -0.573 C  
HETATM    2  C   UNK A   0     -11.683  13.016  65.093  1.00  0.00    -0.379 C  
HETATM    3  C   UNK A   0     -11.527  14.517  65.098  1.00  0.00    -0.368 C  
HETATM    4  C   UNK A   0     -10.517  12.147  65.501  1.00  0.00    -0.300 C  
HETATM    5  C   UNK A   0     -12.395  13.860  66.157  1.00  0.00    -0.504 C  
ENDROOT
BRANCH   5   6
HETATM    6  C   UNK A   0     -11.921  13.973  67.577  1.00  0.00    -0.395 C  
HETATM    7  N   UNK A   1     -12.158  15.170  68.213  1.00  0.00    -0.543 N  
HETATM    8  O   UNK A   0     -11.296  13.053  68.089  1.00  0.00    -0.258 OA 
HETATM    9  H   UNK A   1     -12.666  15.870  67.671  1.00  0.00     0.000 HD 
BRANCH   7  10
HETATM   10  C   UNK A   1     -11.789  15.544  69.503  1.00  0.00    -0.372 C  
HETATM   11  C   UNK A   1     -10.544  16.016  69.762  1.00  0.00    -0.323 C  
HETATM   12  C   UNK A   1     -12.645  15.434  70.751  1.00  0.00    -0.442 C  
HETATM   13  O   UNK A   1     -13.515  14.407  70.785  1.00  0.00    -0.280 OA 
HETATM   14  O   UNK A   1     -12.445  16.118  71.746  1.00  0.00    -0.437 OA 
BRANCH  11  15
HETATM   15  C   UNK A   1      -9.414  16.163  68.789  1.00  0.00    -0.230 C  
BRANCH  15  16
HETATM   16  C   UNK A   1      -8.125  15.379  69.105  1.00  0.00    -0.233 C  
BRANCH  16  17
HETATM   17  C   UNK A   1      -7.027  16.417  69.371  1.00  0.00    -0.210 C  
BRANCH  17  18
HETATM   18  C   UNK A   1      -5.781  16.297  68.502  1.00  0.00    -0.109 C  
BRANCH  18  19
HETATM   19  S   UNK A   1      -5.231  18.009  68.150  1.00  0.00    -0.156 SA 
BRANCH  19  20
HETATM   20  C   UNK A   1      -6.818  18.885  68.344  1.00  0.00    -0.252 C  
BRANCH  20  21
HETATM   21  C   UNK A   1      -7.270  19.494  67.007  1.00  0.00    -0.215 C  
HETATM   22  N   UNK A   1      -8.061  20.754  67.186  1.00  0.00    -0.543 NA 
HETATM   23  C   UNK A   1      -8.161  18.465  66.309  1.00  0.00    -0.219 C  
HETATM   24  O   UNK A   1      -7.759  17.476  65.718  1.00  0.00    -0.530 OA 
HETATM   25  O   UNK A   1      -9.477  18.762  66.473  1.00  0.00    -0.318 OA 
HETATM   26  H1  UNK A   1      -8.361  21.158  66.299  1.00  0.00     0.000 HD 
HETATM   27  H2  UNK A   1      -7.544  21.435  67.742  1.00  0.00     0.000 HD 
ENDBRANCH  20  21
ENDBRANCH  19  20
ENDBRANCH  18  19
ENDBRANCH  17  18
ENDBRANCH  16  17
ENDBRANCH  15  16
ENDBRANCH  11  15
ENDBRANCH   7  10
ENDBRANCH   5   6
TORSDOF 9
ENDMDL
MODEL       77
REMARK 921   NORMALIZED FREE ENERGY PREDICTED BY IDOCK:   -5.21 KCAL/MOL
REMARK 922        TOTAL FREE ENERGY PREDICTED BY IDOCK:   -8.92 KCAL/MOL
REMARK 923 INTER-LIGAND FREE ENERGY PREDICTED BY IDOCK:   -8.02 KCAL/MOL
REMARK 924 INTRA-LIGAND FREE ENERGY PREDICTED BY IDOCK:   -0.91 KCAL/MOL
REMARK 927      BINDING AFFINITY PREDICTED BY RF-SCORE:    0.00 PKD
ROOT
HETATM    1  C   UNK A   0      -8.815   8.497  68.809  1.00  0.00    -0.139 C  
HETATM    2  C   UNK A   0      -9.185   9.772  68.088  1.00  0.00    -0.132 C  
HETATM    3  C   UNK A   0      -9.248   9.685  66.583  1.00  0.00    -0.187 C  
HETATM    4  C   UNK A   0      -8.611  11.009  68.737  1.00  0.00    -0.144 C  
HETATM    5  C   UNK A   0     -10.536   9.863  67.368  1.00  0.00    -0.338 C  
ENDROOT
BRANCH   5   6
HETATM    6  C   UNK A   0     -11.277  11.151  67.160  1.00  0.00    -0.249 C  
HETATM    7  N   UNK A   1     -10.835  11.957  66.136  1.00  0.00    -0.281 N  
HETATM    8  O   UNK A   0     -12.177  11.471  67.925  1.00  0.00    -0.586 OA 
HETATM    9  H   UNK A   1     -10.058  11.592  65.584  1.00  0.00     0.000 HD 
BRANCH   7  10
HETATM   10  C   UNK A   1     -11.317  13.209  65.759  1.00  0.00    -0.306 C  
HETATM   11  C   UNK A   1     -10.862  14.338  66.359  1.00  0.00    -0.307 C  
HETATM   12  C   UNK A   1     -12.398  13.486  64.731  1.00  0.00    -0.392 C  
HETATM   13  O   UNK A   1     -13.362  12.553  64.619  1.00  0.00    -0.804 OA 
HETATM   14  O   UNK A   1     -12.500  14.564  64.162  1.00  0.00    -0.707 OA 
BRANCH  11  15
HETATM   15  C   UNK A   1      -9.871  14.430  67.479  1.00  0.00    -0.220 C  
BRANCH  15  16
HETATM   16  C   UNK A   1      -8.384  14.505  67.080  1.00  0.00    -0.226 C  
BRANCH  16  17
HETATM   17  C   UNK A   1      -7.820  15.785  67.712  1.00  0.00    -0.155 C  
BRANCH  17  18
HETATM   18  C   UNK A   1      -7.161  16.762  66.746  1.00  0.00    -0.235 C  
BRANCH  18  19
HETATM   19  S   UNK A   1      -7.480  18.439  67.410  1.00  0.00    -0.219 SA 
BRANCH  19  20
HETATM   20  C   UNK A   1      -8.487  19.119  66.050  1.00  0.00    -0.117 C  
BRANCH  20  21
HETATM   21  C   UNK A   1      -9.794  19.721  66.590  1.00  0.00    -0.425 C  
HETATM   22  N   UNK A   1      -9.598  21.083  67.184  1.00  0.00    -0.661 NA 
HETATM   23  C   UNK A   1     -10.311  18.790  67.688  1.00  0.00    -0.420 C  
HETATM   24  O   UNK A   1     -10.884  17.730  67.496  1.00  0.00    -0.344 OA 
HETATM   25  O   UNK A   1     -10.006  19.269  68.923  1.00  0.00    -0.422 OA 
HETATM   26  H1  UNK A   1     -10.465  21.483  67.543  1.00  0.00     0.000 HD 
HETATM   27  H2  UNK A   1      -9.153  21.713  66.517  1.00  0.00     0.000 HD 
ENDBRANCH  20  21
ENDBRANCH  19  20
ENDBRANCH  18  19
ENDBRANCH  17  18
ENDBRANCH  16  17
ENDBRANCH  15  16
ENDBRANCH  11  15
ENDBRANCH   7  10
ENDBRANCH   5   6
TORSDOF 9
ENDMDL
MODEL       78
REMARK 921   NORMALIZED FREE ENERGY PREDICTED BY IDOCK:   -5.20 KCAL/MOL
REMARK 922        TOTAL FREE ENERGY PREDICTED BY IDOCK:   -8.91 KCAL/MOL
REMARK 923 INTER-LIGAND FREE ENERGY PREDICTED BY IDOCK:   -8.37 KCAL/MOL
REMARK 924 INTRA-LIGAND FREE ENERGY PREDICTED BY IDOCK:   -0.54 KCAL/MOL
REMARK 927      BINDING AFFINITY PREDICTED BY RF-SCORE:    0.00 PKD
ROOT
HETATM    1  C   UNK A   0      -8.185   7.767  64.927  1.00  0.00    -0.111 C  
HETATM    2  C   UNK A   0      -8.775   8.959  65.642  1.00  0.00    -0.213 C  
HETATM    3  C   UNK A   0      -7.829  10.105  65.907  1.00  0.00    -0.132 C  
HETATM    4  C   UNK A   0      -9.793   8.579  66.691  1.00  0.00    -0.342 C  
HETATM    5  C   UNK A   0      -8.939  10.284  64.885  1.00  0.00    -0.231 C  
ENDROOT
BRANCH   5   6
HETATM    6  C   UNK A   0      -9.995  11.298  65.213  1.00  0.00    -0.253 C  
HETATM    7  N   UNK A   1      -9.996  12.451  64.463  1.00  0.00    -0.487 N  
HETATM    8  O   UNK A   0     -10.756  11.108  66.154  1.00  0.00    -0.263 OA 
HETATM    9  H   UNK A   1      -9.294  12.503  63.723  1.00  0.00     0.000 HD 
BRANCH   7  10
HETATM   10  C   UNK A   1     -10.836  13.556  64.587  1.00  0.00    -0.405 C  
HETATM   11  C   UNK A   1     -10.446  14.650  65.289  1.00  0.00    -0.420 C  
HETATM   12  C   UNK A   1     -12.247  13.679  64.045  1.00  0.00    -0.390 C  
HETATM   13  O   UNK A   1     -12.965  12.541  63.996  1.00  0.00    -0.733 OA 
HETATM   14  O   UNK A   1     -12.776  14.763  63.832  1.00  0.00    -0.794 OA 
BRANCH  11  15
HETATM   15  C   UNK A   1      -9.161  14.832  66.038  1.00  0.00    -0.175 C  
BRANCH  15  16
HETATM   16  C   UNK A   1      -9.120  14.288  67.479  1.00  0.00    -0.193 C  
BRANCH  16  17
HETATM   17  C   UNK A   1      -7.967  15.008  68.192  1.00  0.00    -0.131 C  
BRANCH  17  18
HETATM   18  C   UNK A   1      -8.378  16.100  69.173  1.00  0.00    -0.230 C  
BRANCH  18  19
HETATM   19  S   UNK A   1     -10.167  15.864  69.488  1.00  0.00    -0.286 SA 
BRANCH  19  20
HETATM   20  C   UNK A   1     -10.843  17.142  68.377  1.00  0.00    -0.309 C  
BRANCH  20  21
HETATM   21  C   UNK A   1      -9.872  18.328  68.258  1.00  0.00    -0.350 C  
HETATM   22  N   UNK A   1     -10.236  19.463  69.167  1.00  0.00    -0.592 NA 
HETATM   23  C   UNK A   1      -9.934  18.832  66.816  1.00  0.00    -0.358 C  
HETATM   24  O   UNK A   1      -9.390  18.296  65.863  1.00  0.00    -0.506 OA 
HETATM   25  O   UNK A   1     -10.721  19.935  66.712  1.00  0.00    -0.466 OA 
HETATM   26  H1  UNK A   1      -9.592  20.250  69.088  1.00  0.00     0.000 HD 
HETATM   27  H2  UNK A   1     -10.313  19.149  70.134  1.00  0.00     0.000 HD 
ENDBRANCH  20  21
ENDBRANCH  19  20
ENDBRANCH  18  19
ENDBRANCH  17  18
ENDBRANCH  16  17
ENDBRANCH  15  16
ENDBRANCH  11  15
ENDBRANCH   7  10
ENDBRANCH   5   6
TORSDOF 9
ENDMDL
MODEL       79
REMARK 921   NORMALIZED FREE ENERGY PREDICTED BY IDOCK:   -5.18 KCAL/MOL
REMARK 922        TOTAL FREE ENERGY PREDICTED BY IDOCK:   -8.87 KCAL/MOL
REMARK 923 INTER-LIGAND FREE ENERGY PREDICTED BY IDOCK:   -7.94 KCAL/MOL
REMARK 924 INTRA-LIGAND FREE ENERGY PREDICTED BY IDOCK:   -0.93 KCAL/MOL
REMARK 927      BINDING AFFINITY PREDICTED BY RF-SCORE:    0.00 PKD
ROOT
HETATM    1  C   UNK A   0     -14.183   8.850  72.257  1.00  0.00    -0.474 C  
HETATM    2  C   UNK A   0     -12.771   9.130  71.799  1.00  0.00    -0.446 C  
HETATM    3  C   UNK A   0     -11.676   8.437  72.574  1.00  0.00    -0.429 C  
HETATM    4  C   UNK A   0     -12.567  10.553  71.336  1.00  0.00    -0.539 C  
HETATM    5  C   UNK A   0     -11.957   8.006  71.145  1.00  0.00    -0.297 C  
ENDROOT
BRANCH   5   6
HETATM    6  C   UNK A   0     -10.867   8.250  70.143  1.00  0.00    -0.237 C  
HETATM    7  N   UNK A   1     -11.256   8.394  68.831  1.00  0.00    -0.265 N  
HETATM    8  O   UNK A   0      -9.695   8.244  70.499  1.00  0.00    -0.169 OA 
HETATM    9  H   UNK A   1     -12.261   8.353  68.657  1.00  0.00     0.000 HD 
BRANCH   7  10
HETATM   10  C   UNK A   1     -10.449   8.588  67.712  1.00  0.00    -0.223 C  
HETATM   11  C   UNK A   1     -10.227   9.834  67.222  1.00  0.00    -0.289 C  
HETATM   12  C   UNK A   1      -9.782   7.505  66.885  1.00  0.00    -0.209 C  
HETATM   13  O   UNK A   1     -10.444   6.336  66.795  1.00  0.00    -0.228 OA 
HETATM   14  O   UNK A   1      -8.799   7.723  66.190  1.00  0.00    -0.151 OA 
BRANCH  11  15
HETATM   15  C   UNK A   1     -10.806  11.120  67.729  1.00  0.00    -0.288 C  
BRANCH  15  16
HETATM   16  C   UNK A   1     -11.347  12.098  66.668  1.00  0.00    -0.405 C  
BRANCH  16  17
HETATM   17  C   UNK A   1     -10.424  11.984  65.447  1.00  0.00    -0.313 C  
BRANCH  17  18
HETATM   18  C   UNK A   1     -10.648  13.021  64.353  1.00  0.00    -0.409 C  
BRANCH  18  19
HETATM   19  S   UNK A   1     -12.048  14.064  64.909  1.00  0.00    -0.440 SA 
BRANCH  19  20
HETATM   20  C   UNK A   1     -11.215  15.685  64.966  1.00  0.00    -0.329 C  
BRANCH  20  21
HETATM   21  C   UNK A   1     -10.364  15.815  66.239  1.00  0.00    -0.310 C  
HETATM   22  N   UNK A   1     -11.123  15.450  67.479  1.00  0.00    -0.320 NA 
HETATM   23  C   UNK A   1      -9.930  17.277  66.358  1.00  0.00    -0.311 C  
HETATM   24  O   UNK A   1      -9.035  17.796  65.712  1.00  0.00    -0.509 OA 
HETATM   25  O   UNK A   1     -10.708  17.951  67.246  1.00  0.00    -0.354 OA 
HETATM   26  H1  UNK A   1     -10.558  15.536  68.324  1.00  0.00     0.000 HD 
HETATM   27  H2  UNK A   1     -11.525  14.516  67.401  1.00  0.00     0.000 HD 
ENDBRANCH  20  21
ENDBRANCH  19  20
ENDBRANCH  18  19
ENDBRANCH  17  18
ENDBRANCH  16  17
ENDBRANCH  15  16
ENDBRANCH  11  15
ENDBRANCH   7  10
ENDBRANCH   5   6
TORSDOF 9
ENDMDL
MODEL       80
REMARK 921   NORMALIZED FREE ENERGY PREDICTED BY IDOCK:   -5.16 KCAL/MOL
REMARK 922        TOTAL FREE ENERGY PREDICTED BY IDOCK:   -8.85 KCAL/MOL
REMARK 923 INTER-LIGAND FREE ENERGY PREDICTED BY IDOCK:   -7.57 KCAL/MOL
REMARK 924 INTRA-LIGAND FREE ENERGY PREDICTED BY IDOCK:   -1.28 KCAL/MOL
REMARK 927      BINDING AFFINITY PREDICTED BY RF-SCORE:    0.00 PKD
ROOT
HETATM    1  C   UNK A   0     -11.005  15.241  67.458  1.00  0.00    -0.315 C  
HETATM    2  C   UNK A   0     -10.870  14.075  68.409  1.00  0.00    -0.263 C  
HETATM    3  C   UNK A   0     -11.645  14.182  69.700  1.00  0.00    -0.349 C  
HETATM    4  C   UNK A   0      -9.484  13.476  68.423  1.00  0.00    -0.185 C  
HETATM    5  C   UNK A   0     -12.081  13.166  68.658  1.00  0.00    -0.222 C  
ENDROOT
BRANCH   5   6
HETATM    6  C   UNK A   0     -11.963  11.720  69.042  1.00  0.00    -0.280 C  
HETATM    7  N   UNK A   1     -11.480  11.454  70.302  1.00  0.00    -0.503 N  
HETATM    8  O   UNK A   0     -12.223  10.846  68.224  1.00  0.00    -0.526 OA 
HETATM    9  H   UNK A   1     -11.273  12.268  70.882  1.00  0.00     0.000 HD 
BRANCH   7  10
HETATM   10  C   UNK A   1     -11.240  10.211  70.885  1.00  0.00    -0.307 C  
HETATM   11  C   UNK A   1     -10.084   9.542  70.643  1.00  0.00    -0.353 C  
HETATM   12  C   UNK A   1     -12.192   9.435  71.776  1.00  0.00    -0.390 C  
HETATM   13  O   UNK A   1     -13.504   9.593  71.519  1.00  0.00    -0.374 OA 
HETATM   14  O   UNK A   1     -11.805   8.579  72.560  1.00  0.00    -0.384 OA 
BRANCH  11  15
HETATM   15  C   UNK A   1      -8.968   9.964  69.738  1.00  0.00    -0.242 C  
BRANCH  15  16
HETATM   16  C   UNK A   1      -8.576   8.979  68.620  1.00  0.00    -0.129 C  
BRANCH  16  17
HETATM   17  C   UNK A   1      -9.836   8.172  68.278  1.00  0.00    -0.191 C  
BRANCH  17  18
HETATM   18  C   UNK A   1     -10.137   8.016  66.793  1.00  0.00    -0.287 C  
BRANCH  18  19
HETATM   19  S   UNK A   1      -8.847   8.967  65.903  1.00  0.00    -0.188 SA 
BRANCH  19  20
HETATM   20  C   UNK A   1      -9.636  10.612  65.891  1.00  0.00    -0.205 C  
BRANCH  20  21
HETATM   21  C   UNK A   1     -10.478  10.801  64.620  1.00  0.00    -0.276 C  
HETATM   22  N   UNK A   1      -9.638  10.907  63.383  1.00  0.00    -0.297 NA 
HETATM   23  C   UNK A   1     -11.264  12.104  64.776  1.00  0.00    -0.323 C  
HETATM   24  O   UNK A   1     -12.268  12.239  65.456  1.00  0.00    -0.577 OA 
HETATM   25  O   UNK A   1     -10.671  13.122  64.097  1.00  0.00    -0.402 OA 
HETATM   26  H1  UNK A   1     -10.197  11.032  62.539  1.00  0.00     0.000 HD 
HETATM   27  H2  UNK A   1      -9.015  10.104  63.293  1.00  0.00     0.000 HD 
ENDBRANCH  20  21
ENDBRANCH  19  20
ENDBRANCH  18  19
ENDBRANCH  17  18
ENDBRANCH  16  17
ENDBRANCH  15  16
ENDBRANCH  11  15
ENDBRANCH   7  10
ENDBRANCH   5   6
TORSDOF 9
ENDMDL
MODEL       81
REMARK 921   NORMALIZED FREE ENERGY PREDICTED BY IDOCK:   -5.16 KCAL/MOL
REMARK 922        TOTAL FREE ENERGY PREDICTED BY IDOCK:   -8.84 KCAL/MOL
REMARK 923 INTER-LIGAND FREE ENERGY PREDICTED BY IDOCK:   -8.06 KCAL/MOL
REMARK 924 INTRA-LIGAND FREE ENERGY PREDICTED BY IDOCK:   -0.78 KCAL/MOL
REMARK 927      BINDING AFFINITY PREDICTED BY RF-SCORE:    0.00 PKD
ROOT
HETATM    1  C   UNK A   0      -9.091   9.057  65.770  1.00  0.00    -0.272 C  
HETATM    2  C   UNK A   0     -10.030   9.144  66.949  1.00  0.00    -0.304 C  
HETATM    3  C   UNK A   0     -10.794   7.884  67.280  1.00  0.00    -0.189 C  
HETATM    4  C   UNK A   0     -10.721  10.482  67.062  1.00  0.00    -0.310 C  
HETATM    5  C   UNK A   0      -9.706   8.360  68.228  1.00  0.00    -0.170 C  
ENDROOT
BRANCH   5   6
HETATM    6  C   UNK A   0     -10.148   8.790  69.596  1.00  0.00    -0.204 C  
HETATM    7  N   UNK A   1     -11.505   8.873  69.807  1.00  0.00    -0.434 N  
HETATM    8  O   UNK A   0      -9.317   9.112  70.435  1.00  0.00    -0.194 OA 
HETATM    9  H   UNK A   1     -12.097   8.603  69.020  1.00  0.00     0.000 HD 
BRANCH   7  10
HETATM   10  C   UNK A   1     -12.171   9.280  70.961  1.00  0.00    -0.255 C  
HETATM   11  C   UNK A   1     -12.396  10.596  71.207  1.00  0.00    -0.488 C  
HETATM   12  C   UNK A   1     -12.666   8.382  72.079  1.00  0.00    -0.360 C  
HETATM   13  O   UNK A   1     -11.935   7.276  72.318  1.00  0.00    -0.278 OA 
HETATM   14  O   UNK A   1     -13.562   8.717  72.842  1.00  0.00    -0.294 OA 
BRANCH  11  15
HETATM   15  C   UNK A   1     -11.959  11.759  70.369  1.00  0.00    -0.422 C  
BRANCH  15  16
HETATM   16  C   UNK A   1     -12.414  13.155  70.837  1.00  0.00    -0.407 C  
BRANCH  16  17
HETATM   17  C   UNK A   1     -11.970  14.151  69.757  1.00  0.00    -0.396 C  
BRANCH  17  18
HETATM   18  C   UNK A   1     -11.029  15.254  70.225  1.00  0.00    -0.289 C  
BRANCH  18  19
HETATM   19  S   UNK A   1     -10.151  15.850  68.732  1.00  0.00    -0.233 SA 
BRANCH  19  20
HETATM   20  C   UNK A   1     -11.278  15.222  67.444  1.00  0.00    -0.311 C  
BRANCH  20  21
HETATM   21  C   UNK A   1     -10.531  15.033  66.113  1.00  0.00    -0.305 C  
HETATM   22  N   UNK A   1      -9.285  14.214  66.264  1.00  0.00    -0.486 NA 
HETATM   23  C   UNK A   1     -10.133  16.420  65.607  1.00  0.00    -0.286 C  
HETATM   24  O   UNK A   1     -10.889  17.211  65.066  1.00  0.00    -0.684 OA 
HETATM   25  O   UNK A   1      -8.830  16.690  65.882  1.00  0.00    -0.486 OA 
HETATM   26  H1  UNK A   1      -8.789  14.089  65.381  1.00  0.00     0.000 HD 
HETATM   27  H2  UNK A   1      -9.488  13.315  66.701  1.00  0.00     0.000 HD 
ENDBRANCH  20  21
ENDBRANCH  19  20
ENDBRANCH  18  19
ENDBRANCH  17  18
ENDBRANCH  16  17
ENDBRANCH  15  16
ENDBRANCH  11  15
ENDBRANCH   7  10
ENDBRANCH   5   6
TORSDOF 9
ENDMDL
MODEL       82
REMARK 921   NORMALIZED FREE ENERGY PREDICTED BY IDOCK:   -5.16 KCAL/MOL
REMARK 922        TOTAL FREE ENERGY PREDICTED BY IDOCK:   -8.84 KCAL/MOL
REMARK 923 INTER-LIGAND FREE ENERGY PREDICTED BY IDOCK:   -7.74 KCAL/MOL
REMARK 924 INTRA-LIGAND FREE ENERGY PREDICTED BY IDOCK:   -1.10 KCAL/MOL
REMARK 927      BINDING AFFINITY PREDICTED BY RF-SCORE:    0.00 PKD
ROOT
HETATM    1  C   UNK A   0     -10.175  19.913  68.948  1.00  0.00    -0.399 C  
HETATM    2  C   UNK A   0      -9.818  19.178  67.678  1.00  0.00    -0.412 C  
HETATM    3  C   UNK A   0      -8.385  18.719  67.560  1.00  0.00    -0.283 C  
HETATM    4  C   UNK A   0     -10.526  19.719  66.459  1.00  0.00    -0.615 C  
HETATM    5  C   UNK A   0      -9.480  17.683  67.745  1.00  0.00    -0.260 C  
ENDROOT
BRANCH   5   6
HETATM    6  C   UNK A   0      -9.704  16.733  66.605  1.00  0.00    -0.269 C  
HETATM    7  N   UNK A   1     -10.878  16.015  66.623  1.00  0.00    -0.241 N  
HETATM    8  O   UNK A   0      -8.834  16.576  65.758  1.00  0.00    -0.474 OA 
HETATM    9  H   UNK A   1     -11.512  16.215  67.397  1.00  0.00     0.000 HD 
BRANCH   7  10
HETATM   10  C   UNK A   1     -11.307  15.049  65.715  1.00  0.00    -0.279 C  
HETATM   11  C   UNK A   1     -11.121  13.728  65.966  1.00  0.00    -0.291 C  
HETATM   12  C   UNK A   1     -11.953  15.304  64.367  1.00  0.00    -0.277 C  
HETATM   13  O   UNK A   1     -11.558  16.419  63.722  1.00  0.00    -1.055 OA 
HETATM   14  O   UNK A   1     -12.653  14.471  63.806  1.00  0.00    -0.825 OA 
BRANCH  11  15
HETATM   15  C   UNK A   1     -10.431  13.121  67.149  1.00  0.00    -0.247 C  
BRANCH  15  16
HETATM   16  C   UNK A   1     -11.269  12.971  68.434  1.00  0.00    -0.304 C  
BRANCH  16  17
HETATM   17  C   UNK A   1     -11.580  11.476  68.590  1.00  0.00    -0.375 C  
BRANCH  17  18
HETATM   18  C   UNK A   1     -10.712  10.534  67.765  1.00  0.00    -0.272 C  
BRANCH  18  19
HETATM   19  S   UNK A   1      -9.578   9.711  68.945  1.00  0.00    -0.167 SA 
BRANCH  19  20
HETATM   20  C   UNK A   1      -8.092  10.740  68.708  1.00  0.00    -0.143 C  
BRANCH  20  21
HETATM   21  C   UNK A   1      -7.054  10.005  67.845  1.00  0.00    -0.085 C  
HETATM   22  N   UNK A   1      -5.669  10.091  68.412  1.00  0.00    -0.042 NA 
HETATM   23  C   UNK A   1      -7.048  10.666  66.466  1.00  0.00    -0.133 C  
HETATM   24  O   UNK A   1      -7.889  10.487  65.600  1.00  0.00    -0.154 OA 
HETATM   25  O   UNK A   1      -6.007  11.530  66.338  1.00  0.00    -0.140 OA 
HETATM   26  H1  UNK A   1      -4.980   9.604  67.839  1.00  0.00     0.000 HD 
HETATM   27  H2  UNK A   1      -5.646   9.759  69.376  1.00  0.00     0.000 HD 
ENDBRANCH  20  21
ENDBRANCH  19  20
ENDBRANCH  18  19
ENDBRANCH  17  18
ENDBRANCH  16  17
ENDBRANCH  15  16
ENDBRANCH  11  15
ENDBRANCH   7  10
ENDBRANCH   5   6
TORSDOF 9
ENDMDL
MODEL       83
REMARK 921   NORMALIZED FREE ENERGY PREDICTED BY IDOCK:   -5.15 KCAL/MOL
REMARK 922        TOTAL FREE ENERGY PREDICTED BY IDOCK:   -8.83 KCAL/MOL
REMARK 923 INTER-LIGAND FREE ENERGY PREDICTED BY IDOCK:   -7.50 KCAL/MOL
REMARK 924 INTRA-LIGAND FREE ENERGY PREDICTED BY IDOCK:   -1.33 KCAL/MOL
REMARK 927      BINDING AFFINITY PREDICTED BY RF-SCORE:    0.00 PKD
ROOT
HETATM    1  C   UNK A   0     -10.305  17.788  68.478  1.00  0.00    -0.366 C  
HETATM    2  C   UNK A   0     -10.222  16.281  68.532  1.00  0.00    -0.247 C  
HETATM    3  C   UNK A   0     -10.307  15.663  69.907  1.00  0.00    -0.322 C  
HETATM    4  C   UNK A   0      -9.266  15.702  67.516  1.00  0.00    -0.203 C  
HETATM    5  C   UNK A   0     -11.462  15.474  68.938  1.00  0.00    -0.362 C  
ENDROOT
BRANCH   5   6
HETATM    6  C   UNK A   0     -11.724  14.072  68.472  1.00  0.00    -0.352 C  
HETATM    7  N   UNK A   1     -11.173  13.060  69.224  1.00  0.00    -0.398 N  
HETATM    8  O   UNK A   0     -12.341  13.876  67.432  1.00  0.00    -0.316 OA 
HETATM    9  H   UNK A   1     -10.657  13.351  70.055  1.00  0.00     0.000 HD 
BRANCH   7  10
HETATM   10  C   UNK A   1     -11.231  11.687  68.991  1.00  0.00    -0.262 C  
HETATM   11  C   UNK A   1     -11.863  10.860  69.862  1.00  0.00    -0.427 C  
HETATM   12  C   UNK A   1     -10.590  10.942  67.835  1.00  0.00    -0.207 C  
HETATM   13  O   UNK A   1      -9.435  11.455  67.368  1.00  0.00    -0.165 OA 
HETATM   14  O   UNK A   1     -10.986   9.847  67.461  1.00  0.00    -0.282 OA 
BRANCH  11  15
HETATM   15  C   UNK A   1     -12.519  11.240  71.154  1.00  0.00    -0.479 C  
BRANCH  15  16
HETATM   16  C   UNK A   1     -13.385  10.160  71.832  1.00  0.00    -0.505 C  
BRANCH  16  17
HETATM   17  C   UNK A   1     -12.472   8.953  72.083  1.00  0.00    -0.459 C  
BRANCH  17  18
HETATM   18  C   UNK A   1     -12.966   7.625  71.523  1.00  0.00    -0.341 C  
BRANCH  18  19
HETATM   19  S   UNK A   1     -11.745   6.360  72.040  1.00  0.00    -0.323 SA 
BRANCH  19  20
HETATM   20  C   UNK A   1     -11.022   5.953  70.416  1.00  0.00    -0.306 C  
BRANCH  20  21
HETATM   21  C   UNK A   1     -10.994   7.193  69.507  1.00  0.00    -0.191 C  
HETATM   22  N   UNK A   1     -11.213   6.854  68.064  1.00  0.00    -0.545 NA 
HETATM   23  C   UNK A   1      -9.611   7.833  69.643  1.00  0.00    -0.163 C  
HETATM   24  O   UNK A   1      -9.247   8.519  70.584  1.00  0.00    -0.148 OA 
HETATM   25  O   UNK A   1      -8.808   7.498  68.599  1.00  0.00    -0.128 OA 
HETATM   26  H1  UNK A   1     -11.194   7.676  67.461  1.00  0.00     0.000 HD 
HETATM   27  H2  UNK A   1     -12.077   6.327  67.938  1.00  0.00     0.000 HD 
ENDBRANCH  20  21
ENDBRANCH  19  20
ENDBRANCH  18  19
ENDBRANCH  17  18
ENDBRANCH  16  17
ENDBRANCH  15  16
ENDBRANCH  11  15
ENDBRANCH   7  10
ENDBRANCH   5   6
TORSDOF 9
ENDMDL
MODEL       84
REMARK 921   NORMALIZED FREE ENERGY PREDICTED BY IDOCK:   -5.13 KCAL/MOL
REMARK 922        TOTAL FREE ENERGY PREDICTED BY IDOCK:   -8.80 KCAL/MOL
REMARK 923 INTER-LIGAND FREE ENERGY PREDICTED BY IDOCK:   -7.19 KCAL/MOL
REMARK 924 INTRA-LIGAND FREE ENERGY PREDICTED BY IDOCK:   -1.61 KCAL/MOL
REMARK 927      BINDING AFFINITY PREDICTED BY RF-SCORE:    0.00 PKD
ROOT
HETATM    1  C   UNK A   0     -12.175  15.284  63.894  1.00  0.00     0.134 C  
HETATM    2  C   UNK A   0     -11.972  14.007  64.675  1.00  0.00    -0.449 C  
HETATM    3  C   UNK A   0     -11.806  12.750  63.856  1.00  0.00    -0.541 C  
HETATM    4  C   UNK A   0     -12.774  13.959  65.954  1.00  0.00    -0.466 C  
HETATM    5  C   UNK A   0     -10.612  13.300  64.618  1.00  0.00    -0.421 C  
ENDROOT
BRANCH   5   6
HETATM    6  C   UNK A   0     -10.076  12.447  65.731  1.00  0.00    -0.253 C  
HETATM    7  N   UNK A   1     -10.659  11.212  65.896  1.00  0.00    -0.255 N  
HETATM    8  O   UNK A   0      -9.214  12.888  66.481  1.00  0.00    -0.235 OA 
HETATM    9  H   UNK A   1     -11.387  10.968  65.223  1.00  0.00     0.000 HD 
BRANCH   7  10
HETATM   10  C   UNK A   1     -10.379  10.252  66.867  1.00  0.00    -0.239 C  
HETATM   11  C   UNK A   1     -10.985  10.293  68.080  1.00  0.00    -0.328 C  
HETATM   12  C   UNK A   1      -9.374   9.121  66.750  1.00  0.00    -0.165 C  
HETATM   13  O   UNK A   1      -8.284   9.372  66.001  1.00  0.00    -0.109 OA 
HETATM   14  O   UNK A   1      -9.447   8.107  67.432  1.00  0.00    -0.146 OA 
BRANCH  11  15
HETATM   15  C   UNK A   1     -11.954  11.325  68.572  1.00  0.00    -0.288 C  
BRANCH  15  16
HETATM   16  C   UNK A   1     -11.695  11.899  69.978  1.00  0.00    -0.366 C  
BRANCH  16  17
HETATM   17  C   UNK A   1     -11.908  13.415  69.885  1.00  0.00    -0.385 C  
BRANCH  17  18
HETATM   18  C   UNK A   1     -10.932  14.164  68.985  1.00  0.00    -0.261 C  
BRANCH  18  19
HETATM   19  S   UNK A   1     -11.449  15.921  69.013  1.00  0.00    -0.373 SA 
BRANCH  19  20
HETATM   20  C   UNK A   1      -9.916  16.700  68.405  1.00  0.00    -0.255 C  
BRANCH  20  21
HETATM   21  C   UNK A   1      -9.850  16.644  66.870  1.00  0.00    -0.263 C  
HETATM   22  N   UNK A   1      -8.645  15.904  66.372  1.00  0.00    -0.312 NA 
HETATM   23  C   UNK A   1      -9.772  18.084  66.359  1.00  0.00    -0.321 C  
HETATM   24  O   UNK A   1     -10.716  18.853  66.287  1.00  0.00    -0.395 OA 
HETATM   25  O   UNK A   1      -8.496  18.424  66.039  1.00  0.00    -0.494 OA 
HETATM   26  H1  UNK A   1      -8.601  15.868  65.354  1.00  0.00     0.000 HD 
HETATM   27  H2  UNK A   1      -8.597  14.969  66.775  1.00  0.00     0.000 HD 
ENDBRANCH  20  21
ENDBRANCH  19  20
ENDBRANCH  18  19
ENDBRANCH  17  18
ENDBRANCH  16  17
ENDBRANCH  15  16
ENDBRANCH  11  15
ENDBRANCH   7  10
ENDBRANCH   5   6
TORSDOF 9
ENDMDL
MODEL       85
REMARK 921   NORMALIZED FREE ENERGY PREDICTED BY IDOCK:   -5.09 KCAL/MOL
REMARK 922        TOTAL FREE ENERGY PREDICTED BY IDOCK:   -8.73 KCAL/MOL
REMARK 923 INTER-LIGAND FREE ENERGY PREDICTED BY IDOCK:   -7.22 KCAL/MOL
REMARK 924 INTRA-LIGAND FREE ENERGY PREDICTED BY IDOCK:   -1.51 KCAL/MOL
REMARK 927      BINDING AFFINITY PREDICTED BY RF-SCORE:    0.00 PKD
ROOT
HETATM    1  C   UNK A   0      -6.738  17.327  66.756  1.00  0.00    -0.249 C  
HETATM    2  C   UNK A   0      -7.837  16.477  67.349  1.00  0.00    -0.181 C  
HETATM    3  C   UNK A   0      -7.479  15.718  68.604  1.00  0.00    -0.151 C  
HETATM    4  C   UNK A   0      -8.709  15.820  66.307  1.00  0.00    -0.358 C  
HETATM    5  C   UNK A   0      -8.454  16.880  68.695  1.00  0.00    -0.260 C  
ENDROOT
BRANCH   5   6
HETATM    6  C   UNK A   0      -9.862  16.545  69.092  1.00  0.00    -0.254 C  
HETATM    7  N   UNK A   1     -10.030  15.437  69.890  1.00  0.00    -0.417 N  
HETATM    8  O   UNK A   0     -10.796  17.204  68.651  1.00  0.00    -0.329 OA 
HETATM    9  H   UNK A   1      -9.176  14.955  70.170  1.00  0.00     0.000 HD 
BRANCH   7  10
HETATM   10  C   UNK A   1     -11.223  14.892  70.362  1.00  0.00    -0.211 C  
HETATM   11  C   UNK A   1     -11.902  13.970  69.634  1.00  0.00    -0.386 C  
HETATM   12  C   UNK A   1     -11.933  15.262  71.650  1.00  0.00    -0.372 C  
HETATM   13  O   UNK A   1     -11.804  16.541  72.052  1.00  0.00    -0.478 OA 
HETATM   14  O   UNK A   1     -12.724  14.509  72.203  1.00  0.00    -0.319 OA 
BRANCH  11  15
HETATM   15  C   UNK A   1     -11.544  13.449  68.276  1.00  0.00    -0.379 C  
BRANCH  15  16
HETATM   16  C   UNK A   1     -12.126  14.211  67.070  1.00  0.00    -0.449 C  
BRANCH  16  17
HETATM   17  C   UNK A   1     -12.155  13.225  65.894  1.00  0.00    -0.493 C  
BRANCH  17  18
HETATM   18  C   UNK A   1     -10.892  13.178  65.042  1.00  0.00    -0.315 C  
BRANCH  18  19
HETATM   19  S   UNK A   1     -10.435  11.410  64.895  1.00  0.00    -0.313 SA 
BRANCH  19  20
HETATM   20  C   UNK A   1      -9.507  11.204  66.451  1.00  0.00    -0.193 C  
BRANCH  20  21
HETATM   21  C   UNK A   1     -10.030   9.994  67.241  1.00  0.00    -0.197 C  
HETATM   22  N   UNK A   1     -11.511  10.050  67.465  1.00  0.00    -0.433 NA 
HETATM   23  C   UNK A   1      -9.339   9.999  68.605  1.00  0.00    -0.156 C  
HETATM   24  O   UNK A   1      -8.194   9.633  68.811  1.00  0.00    -0.101 OA 
HETATM   25  O   UNK A   1     -10.149  10.517  69.566  1.00  0.00    -0.222 OA 
HETATM   26  H1  UNK A   1     -11.859   9.247  67.989  1.00  0.00     0.000 HD 
HETATM   27  H2  UNK A   1     -12.012  10.157  66.583  1.00  0.00     0.000 HD 
ENDBRANCH  20  21
ENDBRANCH  19  20
ENDBRANCH  18  19
ENDBRANCH  17  18
ENDBRANCH  16  17
ENDBRANCH  15  16
ENDBRANCH  11  15
ENDBRANCH   7  10
ENDBRANCH   5   6
TORSDOF 9
ENDMDL
MODEL       86
REMARK 921   NORMALIZED FREE ENERGY PREDICTED BY IDOCK:   -5.07 KCAL/MOL
REMARK 922        TOTAL FREE ENERGY PREDICTED BY IDOCK:   -8.71 KCAL/MOL
REMARK 923 INTER-LIGAND FREE ENERGY PREDICTED BY IDOCK:   -7.60 KCAL/MOL
REMARK 924 INTRA-LIGAND FREE ENERGY PREDICTED BY IDOCK:   -1.11 KCAL/MOL
REMARK 927      BINDING AFFINITY PREDICTED BY RF-SCORE:    0.00 PKD
ROOT
HETATM    1  C   UNK A   0      -8.490   8.056  67.115  1.00  0.00    -0.124 C  
HETATM    2  C   UNK A   0      -8.438   9.319  66.289  1.00  0.00    -0.133 C  
HETATM    3  C   UNK A   0      -7.943   9.162  64.872  1.00  0.00    -0.123 C  
HETATM    4  C   UNK A   0      -8.031  10.535  67.087  1.00  0.00    -0.116 C  
HETATM    5  C   UNK A   0      -9.407   9.487  65.112  1.00  0.00    -0.316 C  
ENDROOT
BRANCH   5   6
HETATM    6  C   UNK A   0      -9.887  10.821  64.620  1.00  0.00    -0.307 C  
HETATM    7  N   UNK A   1     -10.932  11.392  65.310  1.00  0.00    -0.229 N  
HETATM    8  O   UNK A   0      -9.400  11.314  63.611  1.00  0.00    -0.215 OA 
HETATM    9  H   UNK A   1     -11.270  10.871  66.119  1.00  0.00     0.000 HD 
BRANCH   7  10
HETATM   10  C   UNK A   1     -11.584  12.594  65.040  1.00  0.00    -0.345 C  
HETATM   11  C   UNK A   1     -11.559  13.615  65.933  1.00  0.00    -0.346 C  
HETATM   12  C   UNK A   1     -12.420  12.908  63.813  1.00  0.00    -0.347 C  
HETATM   13  O   UNK A   1     -13.088  11.872  63.270  1.00  0.00    -0.674 OA 
HETATM   14  O   UNK A   1     -12.628  14.054  63.438  1.00  0.00    -0.845 OA 
BRANCH  11  15
HETATM   15  C   UNK A   1     -10.915  13.616  67.286  1.00  0.00    -0.299 C  
BRANCH  15  16
HETATM   16  C   UNK A   1     -11.829  13.298  68.485  1.00  0.00    -0.384 C  
BRANCH  16  17
HETATM   17  C   UNK A   1     -11.831  11.772  68.650  1.00  0.00    -0.369 C  
BRANCH  17  18
HETATM   18  C   UNK A   1     -11.673  11.263  70.077  1.00  0.00    -0.346 C  
BRANCH  18  19
HETATM   19  S   UNK A   1     -10.484   9.872  70.000  1.00  0.00    -0.298 SA 
BRANCH  19  20
HETATM   20  C   UNK A   1     -10.835   9.082  71.606  1.00  0.00    -0.366 C  
BRANCH  20  21
HETATM   21  C   UNK A   1     -10.368   7.617  71.604  1.00  0.00    -0.189 C  
HETATM   22  N   UNK A   1      -9.242   7.373  70.646  1.00  0.00    -0.157 NA 
HETATM   23  C   UNK A   1     -11.556   6.754  71.176  1.00  0.00    -0.329 C  
HETATM   24  O   UNK A   1     -12.495   6.450  71.893  1.00  0.00    -0.337 OA 
HETATM   25  O   UNK A   1     -11.464   6.405  69.866  1.00  0.00    -0.404 OA 
HETATM   26  H1  UNK A   1      -8.932   6.402  70.645  1.00  0.00     0.000 HD 
HETATM   27  H2  UNK A   1      -8.463   8.006  70.827  1.00  0.00     0.000 HD 
ENDBRANCH  20  21
ENDBRANCH  19  20
ENDBRANCH  18  19
ENDBRANCH  17  18
ENDBRANCH  16  17
ENDBRANCH  15  16
ENDBRANCH  11  15
ENDBRANCH   7  10
ENDBRANCH   5   6
TORSDOF 9
ENDMDL
MODEL       87
REMARK 921   NORMALIZED FREE ENERGY PREDICTED BY IDOCK:   -5.07 KCAL/MOL
REMARK 922        TOTAL FREE ENERGY PREDICTED BY IDOCK:   -8.70 KCAL/MOL
REMARK 923 INTER-LIGAND FREE ENERGY PREDICTED BY IDOCK:   -7.72 KCAL/MOL
REMARK 924 INTRA-LIGAND FREE ENERGY PREDICTED BY IDOCK:   -0.98 KCAL/MOL
REMARK 927      BINDING AFFINITY PREDICTED BY RF-SCORE:    0.00 PKD
ROOT
HETATM    1  C   UNK A   0     -10.356  11.135  65.109  1.00  0.00    -0.354 C  
HETATM    2  C   UNK A   0     -10.924  12.519  65.321  1.00  0.00    -0.329 C  
HETATM    3  C   UNK A   0     -12.383  12.583  65.702  1.00  0.00    -0.296 C  
HETATM    4  C   UNK A   0     -10.360  13.545  64.367  1.00  0.00    -0.306 C  
HETATM    5  C   UNK A   0     -11.332  12.956  66.734  1.00  0.00    -0.367 C  
ENDROOT
BRANCH   5   6
HETATM    6  C   UNK A   0     -11.320  14.384  67.193  1.00  0.00    -0.343 C  
HETATM    7  N   UNK A   1     -10.318  14.742  68.066  1.00  0.00    -0.235 N  
HETATM    8  O   UNK A   0     -12.213  15.147  66.847  1.00  0.00     0.082 OA 
HETATM    9  H   UNK A   1      -9.648  14.009  68.301  1.00  0.00     0.000 HD 
BRANCH   7  10
HETATM   10  C   UNK A   1     -10.105  15.981  68.668  1.00  0.00    -0.220 C  
HETATM   11  C   UNK A   1     -10.670  16.278  69.865  1.00  0.00    -0.322 C  
HETATM   12  C   UNK A   1      -9.310  17.137  68.091  1.00  0.00    -0.264 C  
HETATM   13  O   UNK A   1      -9.328  17.258  66.749  1.00  0.00    -0.242 OA 
HETATM   14  O   UNK A   1      -8.829  18.017  68.793  1.00  0.00    -0.282 OA 
BRANCH  11  15
HETATM   15  C   UNK A   1     -11.591  15.412  70.669  1.00  0.00    -0.363 C  
BRANCH  15  16
HETATM   16  C   UNK A   1     -11.678  15.713  72.178  1.00  0.00    -0.576 C  
BRANCH  16  17
HETATM   17  C   UNK A   1     -12.803  14.834  72.742  1.00  0.00    -0.527 C  
BRANCH  17  18
HETATM   18  C   UNK A   1     -13.624  14.072  71.709  1.00  0.00    -0.394 C  
BRANCH  18  19
HETATM   19  S   UNK A   1     -13.223  12.299  71.938  1.00  0.00    -0.244 SA 
BRANCH  19  20
HETATM   20  C   UNK A   1     -12.080  12.061  70.537  1.00  0.00    -0.311 C  
BRANCH  20  21
HETATM   21  C   UNK A   1     -12.095  10.599  70.065  1.00  0.00    -0.316 C  
HETATM   22  N   UNK A   1     -13.299   9.850  70.551  1.00  0.00    -0.595 NA 
HETATM   23  C   UNK A   1     -10.848   9.918  70.631  1.00  0.00    -0.330 C  
HETATM   24  O   UNK A   1      -9.719  10.045  70.187  1.00  0.00    -0.233 OA 
HETATM   25  O   UNK A   1     -11.145   9.184  71.736  1.00  0.00    -0.351 OA 
HETATM   26  H1  UNK A   1     -13.309   8.879  70.238  1.00  0.00     0.000 HD 
HETATM   27  H2  UNK A   1     -14.160  10.328  70.288  1.00  0.00     0.000 HD 
ENDBRANCH  20  21
ENDBRANCH  19  20
ENDBRANCH  18  19
ENDBRANCH  17  18
ENDBRANCH  16  17
ENDBRANCH  15  16
ENDBRANCH  11  15
ENDBRANCH   7  10
ENDBRANCH   5   6
TORSDOF 9
ENDMDL
MODEL       88
REMARK 921   NORMALIZED FREE ENERGY PREDICTED BY IDOCK:   -5.07 KCAL/MOL
REMARK 922        TOTAL FREE ENERGY PREDICTED BY IDOCK:   -8.70 KCAL/MOL
REMARK 923 INTER-LIGAND FREE ENERGY PREDICTED BY IDOCK:   -8.00 KCAL/MOL
REMARK 924 INTRA-LIGAND FREE ENERGY PREDICTED BY IDOCK:   -0.70 KCAL/MOL
REMARK 927      BINDING AFFINITY PREDICTED BY RF-SCORE:    0.00 PKD
ROOT
HETATM    1  C   UNK A   0     -12.655  15.615  74.109  1.00  0.00    -0.763 C  
HETATM    2  C   UNK A   0     -12.814  15.385  72.625  1.00  0.00    -0.500 C  
HETATM    3  C   UNK A   0     -11.879  16.162  71.731  1.00  0.00    -0.581 C  
HETATM    4  C   UNK A   0     -14.252  15.190  72.205  1.00  0.00    -0.656 C  
HETATM    5  C   UNK A   0     -11.705  14.658  71.854  1.00  0.00    -0.180 C  
ENDROOT
BRANCH   5   6
HETATM    6  C   UNK A   0     -11.953  13.851  70.613  1.00  0.00    -0.292 C  
HETATM    7  N   UNK A   1     -11.680  12.504  70.690  1.00  0.00    -0.400 N  
HETATM    8  O   UNK A   0     -12.310  14.406  69.582  1.00  0.00    -0.317 OA 
HETATM    9  H   UNK A   1     -11.361  12.164  71.597  1.00  0.00     0.000 HD 
BRANCH   7  10
HETATM   10  C   UNK A   1     -11.785  11.548  69.681  1.00  0.00    -0.351 C  
HETATM   11  C   UNK A   1     -12.440  10.379  69.897  1.00  0.00    -0.123 C  
HETATM   12  C   UNK A   1     -11.174  11.632  68.295  1.00  0.00    -0.260 C  
HETATM   13  O   UNK A   1     -10.005  12.294  68.201  1.00  0.00    -0.199 OA 
HETATM   14  O   UNK A   1     -11.608  10.990  67.348  1.00  0.00    -0.525 OA 
BRANCH  11  15
HETATM   15  C   UNK A   1     -13.076   9.923  71.174  1.00  0.00    -0.453 C  
BRANCH  15  16
HETATM   16  C   UNK A   1     -12.189   9.105  72.133  1.00  0.00    -0.408 C  
BRANCH  16  17
HETATM   17  C   UNK A   1     -12.529   7.627  71.900  1.00  0.00    -0.338 C  
BRANCH  17  18
HETATM   18  C   UNK A   1     -11.554   6.623  72.503  1.00  0.00    -0.205 C  
BRANCH  18  19
HETATM   19  S   UNK A   1     -10.049   6.676  71.458  1.00  0.00    -0.181 SA 
BRANCH  19  20
HETATM   20  C   UNK A   1     -10.825   6.810  69.813  1.00  0.00    -0.272 C  
BRANCH  20  21
HETATM   21  C   UNK A   1      -9.846   6.370  68.713  1.00  0.00    -0.139 C  
HETATM   22  N   UNK A   1      -8.440   6.816  68.981  1.00  0.00    -0.127 NA 
HETATM   23  C   UNK A   1     -10.308   7.007  67.402  1.00  0.00    -0.244 C  
HETATM   24  O   UNK A   1     -11.242   6.614  66.723  1.00  0.00    -0.333 OA 
HETATM   25  O   UNK A   1      -9.574   8.113  67.107  1.00  0.00    -0.153 OA 
HETATM   26  H1  UNK A   1      -7.790   6.524  68.251  1.00  0.00     0.000 HD 
HETATM   27  H2  UNK A   1      -8.125   6.502  69.899  1.00  0.00     0.000 HD 
ENDBRANCH  20  21
ENDBRANCH  19  20
ENDBRANCH  18  19
ENDBRANCH  17  18
ENDBRANCH  16  17
ENDBRANCH  15  16
ENDBRANCH  11  15
ENDBRANCH   7  10
ENDBRANCH   5   6
TORSDOF 9
ENDMDL
MODEL       89
REMARK 921   NORMALIZED FREE ENERGY PREDICTED BY IDOCK:   -5.06 KCAL/MOL
REMARK 922        TOTAL FREE ENERGY PREDICTED BY IDOCK:   -8.68 KCAL/MOL
REMARK 923 INTER-LIGAND FREE ENERGY PREDICTED BY IDOCK:   -7.79 KCAL/MOL
REMARK 924 INTRA-LIGAND FREE ENERGY PREDICTED BY IDOCK:   -0.89 KCAL/MOL
REMARK 927      BINDING AFFINITY PREDICTED BY RF-SCORE:    0.00 PKD
ROOT
HETATM    1  C   UNK A   0      -7.022   5.530  68.351  1.00  0.00    -0.064 C  
HETATM    2  C   UNK A   0      -8.446   6.027  68.271  1.00  0.00    -0.112 C  
HETATM    3  C   UNK A   0      -9.510   4.964  68.135  1.00  0.00    -0.178 C  
HETATM    4  C   UNK A   0      -8.583   7.317  67.499  1.00  0.00    -0.122 C  
HETATM    5  C   UNK A   0      -9.406   5.745  69.434  1.00  0.00    -0.151 C  
ENDROOT
BRANCH   5   6
HETATM    6  C   UNK A   0     -10.568   6.630  69.780  1.00  0.00    -0.228 C  
HETATM    7  N   UNK A   1     -10.292   7.735  70.551  1.00  0.00    -0.203 N  
HETATM    8  O   UNK A   0     -11.701   6.315  69.438  1.00  0.00    -0.319 OA 
HETATM    9  H   UNK A   1      -9.312   7.876  70.796  1.00  0.00     0.000 HD 
BRANCH   7  10
HETATM   10  C   UNK A   1     -11.187   8.686  71.039  1.00  0.00    -0.271 C  
HETATM   11  C   UNK A   1     -11.329   9.887  70.423  1.00  0.00    -0.376 C  
HETATM   12  C   UNK A   1     -12.042   8.561  72.286  1.00  0.00    -0.387 C  
HETATM   13  O   UNK A   1     -11.515   7.842  73.296  1.00  0.00    -0.290 OA 
HETATM   14  O   UNK A   1     -13.064   9.214  72.448  1.00  0.00    -0.420 OA 
BRANCH  11  15
HETATM   15  C   UNK A   1     -10.573  10.385  69.229  1.00  0.00    -0.259 C  
BRANCH  15  16
HETATM   16  C   UNK A   1     -11.394  10.634  67.949  1.00  0.00    -0.342 C  
BRANCH  16  17
HETATM   17  C   UNK A   1     -10.987  12.018  67.423  1.00  0.00    -0.311 C  
BRANCH  17  18
HETATM   18  C   UNK A   1     -10.597  13.038  68.485  1.00  0.00    -0.258 C  
BRANCH  18  19
HETATM   19  S   UNK A   1     -11.146  14.670  67.859  1.00  0.00    -0.304 SA 
BRANCH  19  20
HETATM   20  C   UNK A   1     -11.742  14.177  66.207  1.00  0.00    -0.390 C  
BRANCH  20  21
HETATM   21  C   UNK A   1     -10.771  14.651  65.114  1.00  0.00    -0.414 C  
HETATM   22  N   UNK A   1      -9.399  14.935  65.647  1.00  0.00    -0.476 NA 
HETATM   23  C   UNK A   1     -11.333  15.947  64.527  1.00  0.00    -0.309 C  
HETATM   24  O   UNK A   1     -12.255  16.012  63.731  1.00  0.00    -0.895 OA 
HETATM   25  O   UNK A   1     -10.707  17.036  65.047  1.00  0.00    -0.713 OA 
HETATM   26  H1  UNK A   1      -8.754  15.250  64.923  1.00  0.00     0.000 HD 
HETATM   27  H2  UNK A   1      -9.025  14.128  66.145  1.00  0.00     0.000 HD 
ENDBRANCH  20  21
ENDBRANCH  19  20
ENDBRANCH  18  19
ENDBRANCH  17  18
ENDBRANCH  16  17
ENDBRANCH  15  16
ENDBRANCH  11  15
ENDBRANCH   7  10
ENDBRANCH   5   6
TORSDOF 9
ENDMDL
MODEL       90
REMARK 921   NORMALIZED FREE ENERGY PREDICTED BY IDOCK:   -5.06 KCAL/MOL
REMARK 922        TOTAL FREE ENERGY PREDICTED BY IDOCK:   -8.68 KCAL/MOL
REMARK 923 INTER-LIGAND FREE ENERGY PREDICTED BY IDOCK:   -8.08 KCAL/MOL
REMARK 924 INTRA-LIGAND FREE ENERGY PREDICTED BY IDOCK:   -0.60 KCAL/MOL
REMARK 927      BINDING AFFINITY PREDICTED BY RF-SCORE:    0.00 PKD
ROOT
HETATM    1  C   UNK A   0     -12.731  12.542  63.495  1.00  0.00    -0.366 C  
HETATM    2  C   UNK A   0     -11.900  13.322  64.486  1.00  0.00    -0.433 C  
HETATM    3  C   UNK A   0     -12.239  14.787  64.624  1.00  0.00    -0.405 C  
HETATM    4  C   UNK A   0     -10.454  12.888  64.521  1.00  0.00    -0.400 C  
HETATM    5  C   UNK A   0     -12.557  13.843  65.771  1.00  0.00    -0.533 C  
ENDROOT
BRANCH   5   6
HETATM    6  C   UNK A   0     -11.806  14.066  67.051  1.00  0.00    -0.428 C  
HETATM    7  N   UNK A   1     -12.283  15.055  67.881  1.00  0.00    -0.469 N  
HETATM    8  O   UNK A   0     -10.783  13.433  67.280  1.00  0.00    -0.257 OA 
HETATM    9  H   UNK A   1     -13.129  15.531  67.567  1.00  0.00     0.000 HD 
BRANCH   7  10
HETATM   10  C   UNK A   1     -11.754  15.485  69.096  1.00  0.00    -0.365 C  
HETATM   11  C   UNK A   1     -10.844  16.491  69.141  1.00  0.00    -0.334 C  
HETATM   12  C   UNK A   1     -12.046  14.898  70.464  1.00  0.00    -0.320 C  
HETATM   13  O   UNK A   1     -12.301  13.576  70.499  1.00  0.00    -0.339 OA 
HETATM   14  O   UNK A   1     -11.887  15.533  71.498  1.00  0.00    -0.325 OA 
BRANCH  11  15
HETATM   15  C   UNK A   1     -10.255  17.229  67.977  1.00  0.00    -0.332 C  
BRANCH  15  16
HETATM   16  C   UNK A   1     -10.755  18.669  67.750  1.00  0.00    -0.394 C  
BRANCH  16  17
HETATM   17  C   UNK A   1      -9.510  19.545  67.553  1.00  0.00    -0.413 C  
BRANCH  17  18
HETATM   18  C   UNK A   1      -9.264  20.030  66.129  1.00  0.00    -0.303 C  
BRANCH  18  19
HETATM   19  S   UNK A   1      -7.483  19.762  65.793  1.00  0.00    -0.251 SA 
BRANCH  19  20
HETATM   20  C   UNK A   1      -7.338  18.015  66.298  1.00  0.00    -0.282 C  
BRANCH  20  21
HETATM   21  C   UNK A   1      -6.069  17.796  67.136  1.00  0.00    -0.146 C  
HETATM   22  N   UNK A   1      -5.348  16.534  66.769  1.00  0.00    -0.350 NA 
HETATM   23  C   UNK A   1      -6.495  17.694  68.601  1.00  0.00    -0.204 C  
HETATM   24  O   UNK A   1      -6.795  18.640  69.311  1.00  0.00    -0.278 OA 
HETATM   25  O   UNK A   1      -6.551  16.398  69.009  1.00  0.00    -0.157 OA 
HETATM   26  H1  UNK A   1      -4.505  16.388  67.325  1.00  0.00     0.000 HD 
HETATM   27  H2  UNK A   1      -5.137  16.509  65.771  1.00  0.00     0.000 HD 
ENDBRANCH  20  21
ENDBRANCH  19  20
ENDBRANCH  18  19
ENDBRANCH  17  18
ENDBRANCH  16  17
ENDBRANCH  15  16
ENDBRANCH  11  15
ENDBRANCH   7  10
ENDBRANCH   5   6
TORSDOF 9
ENDMDL
MODEL       91
REMARK 921   NORMALIZED FREE ENERGY PREDICTED BY IDOCK:   -5.02 KCAL/MOL
REMARK 922        TOTAL FREE ENERGY PREDICTED BY IDOCK:   -8.64 KCAL/MOL
REMARK 923 INTER-LIGAND FREE ENERGY PREDICTED BY IDOCK:   -7.63 KCAL/MOL
REMARK 924 INTRA-LIGAND FREE ENERGY PREDICTED BY IDOCK:   -1.00 KCAL/MOL
REMARK 927      BINDING AFFINITY PREDICTED BY RF-SCORE:    0.00 PKD
ROOT
HETATM    1  C   UNK A   0     -11.187   7.761  72.899  1.00  0.00    -0.434 C  
HETATM    2  C   UNK A   0     -11.148   8.126  71.434  1.00  0.00    -0.291 C  
HETATM    3  C   UNK A   0     -11.692   9.488  71.078  1.00  0.00    -0.419 C  
HETATM    4  C   UNK A   0     -11.423   6.955  70.521  1.00  0.00    -0.390 C  
HETATM    5  C   UNK A   0     -10.199   9.236  70.962  1.00  0.00    -0.384 C  
ENDROOT
BRANCH   5   6
HETATM    6  C   UNK A   0      -9.614   9.291  69.581  1.00  0.00    -0.183 C  
HETATM    7  N   UNK A   1     -10.460   9.681  68.569  1.00  0.00    -0.205 N  
HETATM    8  O   UNK A   0      -8.459   8.931  69.390  1.00  0.00    -0.119 OA 
HETATM    9  H   UNK A   1     -11.408   9.931  68.851  1.00  0.00     0.000 HD 
BRANCH   7  10
HETATM   10  C   UNK A   1     -10.182   9.778  67.207  1.00  0.00    -0.232 C  
HETATM   11  C   UNK A   1     -10.214  10.977  66.574  1.00  0.00    -0.280 C  
HETATM   12  C   UNK A   1      -9.879   8.626  66.267  1.00  0.00    -0.249 C  
HETATM   13  O   UNK A   1     -10.487   7.457  66.546  1.00  0.00    -0.186 OA 
HETATM   14  O   UNK A   1      -9.269   8.780  65.217  1.00  0.00    -0.157 OA 
BRANCH  11  15
HETATM   15  C   UNK A   1     -10.573  12.304  67.170  1.00  0.00    -0.250 C  
BRANCH  15  16
HETATM   16  C   UNK A   1     -12.016  12.795  66.943  1.00  0.00    -0.380 C  
BRANCH  16  17
HETATM   17  C   UNK A   1     -11.933  14.301  66.658  1.00  0.00    -0.454 C  
BRANCH  17  18
HETATM   18  C   UNK A   1     -10.532  14.850  66.418  1.00  0.00    -0.299 C  
BRANCH  18  19
HETATM   19  S   UNK A   1     -10.192  16.014  67.792  1.00  0.00    -0.266 SA 
BRANCH  19  20
HETATM   20  C   UNK A   1     -11.749  15.844  68.727  1.00  0.00    -0.349 C  
BRANCH  20  21
HETATM   21  C   UNK A   1     -11.469  15.738  70.235  1.00  0.00    -0.359 C  
HETATM   22  N   UNK A   1     -10.293  14.861  70.541  1.00  0.00    -0.437 NA 
HETATM   23  C   UNK A   1     -12.706  15.126  70.892  1.00  0.00    -0.401 C  
HETATM   24  O   UNK A   1     -13.741  15.726  71.131  1.00  0.00    -0.560 OA 
HETATM   25  O   UNK A   1     -12.530  13.801  71.136  1.00  0.00    -0.350 OA 
HETATM   26  H1  UNK A   1     -10.107  14.790  71.542  1.00  0.00     0.000 HD 
HETATM   27  H2  UNK A   1      -9.463  15.169  70.035  1.00  0.00     0.000 HD 
ENDBRANCH  20  21
ENDBRANCH  19  20
ENDBRANCH  18  19
ENDBRANCH  17  18
ENDBRANCH  16  17
ENDBRANCH  15  16
ENDBRANCH  11  15
ENDBRANCH   7  10
ENDBRANCH   5   6
TORSDOF 9
ENDMDL
MODEL       92
REMARK 921   NORMALIZED FREE ENERGY PREDICTED BY IDOCK:   -5.02 KCAL/MOL
REMARK 922        TOTAL FREE ENERGY PREDICTED BY IDOCK:   -8.62 KCAL/MOL
REMARK 923 INTER-LIGAND FREE ENERGY PREDICTED BY IDOCK:   -7.37 KCAL/MOL
REMARK 924 INTRA-LIGAND FREE ENERGY PREDICTED BY IDOCK:   -1.26 KCAL/MOL
REMARK 927      BINDING AFFINITY PREDICTED BY RF-SCORE:    0.00 PKD
ROOT
HETATM    1  C   UNK A   0      -9.362   4.259  67.790  1.00  0.00    -0.200 C  
HETATM    2  C   UNK A   0      -9.595   5.746  67.673  1.00  0.00    -0.119 C  
HETATM    3  C   UNK A   0     -11.035   6.182  67.545  1.00  0.00    -0.404 C  
HETATM    4  C   UNK A   0      -8.532   6.453  66.865  1.00  0.00    -0.110 C  
HETATM    5  C   UNK A   0     -10.278   6.494  68.825  1.00  0.00    -0.194 C  
ENDROOT
BRANCH   5   6
HETATM    6  C   UNK A   0     -10.039   7.944  69.127  1.00  0.00    -0.197 C  
HETATM    7  N   UNK A   1     -11.016   8.826  68.726  1.00  0.00    -0.436 N  
HETATM    8  O   UNK A   0      -8.985   8.298  69.641  1.00  0.00    -0.147 OA 
HETATM    9  H   UNK A   1     -11.837   8.412  68.284  1.00  0.00     0.000 HD 
BRANCH   7  10
HETATM   10  C   UNK A   1     -11.022  10.214  68.848  1.00  0.00    -0.223 C  
HETATM   11  C   UNK A   1     -11.564  10.813  69.939  1.00  0.00    -0.410 C  
HETATM   12  C   UNK A   1     -10.513  11.210  67.824  1.00  0.00    -0.193 C  
HETATM   13  O   UNK A   1     -10.635  10.847  66.532  1.00  0.00    -0.248 OA 
HETATM   14  O   UNK A   1     -10.179  12.348  68.126  1.00  0.00    -0.212 OA 
BRANCH  11  15
HETATM   15  C   UNK A   1     -12.241  10.143  71.095  1.00  0.00    -0.490 C  
BRANCH  15  16
HETATM   16  C   UNK A   1     -13.147  11.030  71.972  1.00  0.00    -0.449 C  
BRANCH  16  17
HETATM   17  C   UNK A   1     -12.980  12.470  71.468  1.00  0.00    -0.379 C  
BRANCH  17  18
HETATM   18  C   UNK A   1     -13.433  13.561  72.430  1.00  0.00    -0.584 C  
BRANCH  18  19
HETATM   19  S   UNK A   1     -12.888  15.151  71.700  1.00  0.00    -0.403 SA 
BRANCH  19  20
HETATM   20  C   UNK A   1     -11.809  14.522  70.371  1.00  0.00    -0.311 C  
BRANCH  20  21
HETATM   21  C   UNK A   1     -12.043  15.301  69.067  1.00  0.00    -0.213 C  
HETATM   22  N   UNK A   1     -12.175  14.402  67.875  1.00  0.00    -0.620 NA 
HETATM   23  C   UNK A   1     -10.832  16.209  68.848  1.00  0.00    -0.305 C  
HETATM   24  O   UNK A   1     -10.630  17.260  69.435  1.00  0.00    -0.300 OA 
HETATM   25  O   UNK A   1      -9.969  15.671  67.946  1.00  0.00    -0.221 OA 
HETATM   26  H1  UNK A   1     -12.330  14.918  67.009  1.00  0.00     0.000 HD 
HETATM   27  H2  UNK A   1     -12.905  13.704  68.021  1.00  0.00     0.000 HD 
ENDBRANCH  20  21
ENDBRANCH  19  20
ENDBRANCH  18  19
ENDBRANCH  17  18
ENDBRANCH  16  17
ENDBRANCH  15  16
ENDBRANCH  11  15
ENDBRANCH   7  10
ENDBRANCH   5   6
TORSDOF 9
ENDMDL
MODEL       93
REMARK 921   NORMALIZED FREE ENERGY PREDICTED BY IDOCK:   -4.96 KCAL/MOL
REMARK 922        TOTAL FREE ENERGY PREDICTED BY IDOCK:   -8.54 KCAL/MOL
REMARK 923 INTER-LIGAND FREE ENERGY PREDICTED BY IDOCK:   -7.38 KCAL/MOL
REMARK 924 INTRA-LIGAND FREE ENERGY PREDICTED BY IDOCK:   -1.16 KCAL/MOL
REMARK 927      BINDING AFFINITY PREDICTED BY RF-SCORE:    0.00 PKD
ROOT
HETATM    1  C   UNK A   0      -5.505   9.232  67.003  1.00  0.00    -0.040 C  
HETATM    2  C   UNK A   0      -6.498   9.131  68.137  1.00  0.00    -0.059 C  
HETATM    3  C   UNK A   0      -6.801  10.417  68.867  1.00  0.00    -0.061 C  
HETATM    4  C   UNK A   0      -6.378   7.844  68.918  1.00  0.00    -0.040 C  
HETATM    5  C   UNK A   0      -7.874   9.793  67.991  1.00  0.00    -0.086 C  
ENDROOT
BRANCH   5   6
HETATM    6  C   UNK A   0      -9.107   9.299  68.690  1.00  0.00    -0.132 C  
HETATM    7  N   UNK A   1      -9.385   9.857  69.917  1.00  0.00    -0.280 N  
HETATM    8  O   UNK A   0      -9.769   8.393  68.199  1.00  0.00    -0.148 OA 
HETATM    9  H   UNK A   1      -8.743  10.585  70.232  1.00  0.00     0.000 HD 
BRANCH   7  10
HETATM   10  C   UNK A   1     -10.434   9.551  70.781  1.00  0.00    -0.314 C  
HETATM   11  C   UNK A   1     -11.586  10.269  70.758  1.00  0.00    -0.446 C  
HETATM   12  C   UNK A   1     -10.433   8.479  71.854  1.00  0.00    -0.317 C  
HETATM   13  O   UNK A   1      -9.246   8.228  72.440  1.00  0.00    -0.206 OA 
HETATM   14  O   UNK A   1     -11.465   7.992  72.296  1.00  0.00    -0.308 OA 
BRANCH  11  15
HETATM   15  C   UNK A   1     -11.893  11.456  69.898  1.00  0.00    -0.435 C  
BRANCH  15  16
HETATM   16  C   UNK A   1     -12.116  11.182  68.398  1.00  0.00    -0.069 C  
BRANCH  16  17
HETATM   17  C   UNK A   1     -11.231  12.172  67.629  1.00  0.00    -0.345 C  
BRANCH  17  18
HETATM   18  C   UNK A   1     -10.748  11.700  66.263  1.00  0.00    -0.272 C  
BRANCH  18  19
HETATM   19  S   UNK A   1     -11.835  12.505  65.026  1.00  0.00    -0.407 SA 
BRANCH  19  20
HETATM   20  C   UNK A   1     -10.771  13.908  64.553  1.00  0.00    -0.366 C  
BRANCH  20  21
HETATM   21  C   UNK A   1     -11.382  15.237  65.025  1.00  0.00    -0.358 C  
HETATM   22  N   UNK A   1     -11.550  16.222  63.908  1.00  0.00    -1.573 NA 
HETATM   23  C   UNK A   1     -10.428  15.842  66.057  1.00  0.00    -0.345 C  
HETATM   24  O   UNK A   1     -10.330  15.480  67.217  1.00  0.00    -0.257 OA 
HETATM   25  O   UNK A   1      -9.655  16.813  65.503  1.00  0.00    -0.515 OA 
HETATM   26  H1  UNK A   1     -11.956  17.104  64.221  1.00  0.00     0.000 HD 
HETATM   27  H2  UNK A   1     -12.093  15.821  63.144  1.00  0.00     0.000 HD 
ENDBRANCH  20  21
ENDBRANCH  19  20
ENDBRANCH  18  19
ENDBRANCH  17  18
ENDBRANCH  16  17
ENDBRANCH  15  16
ENDBRANCH  11  15
ENDBRANCH   7  10
ENDBRANCH   5   6
TORSDOF 9
ENDMDL
MODEL       94
REMARK 921   NORMALIZED FREE ENERGY PREDICTED BY IDOCK:   -4.96 KCAL/MOL
REMARK 922        TOTAL FREE ENERGY PREDICTED BY IDOCK:   -8.53 KCAL/MOL
REMARK 923 INTER-LIGAND FREE ENERGY PREDICTED BY IDOCK:   -7.73 KCAL/MOL
REMARK 924 INTRA-LIGAND FREE ENERGY PREDICTED BY IDOCK:   -0.81 KCAL/MOL
REMARK 927      BINDING AFFINITY PREDICTED BY RF-SCORE:    0.00 PKD
ROOT
HETATM    1  C   UNK A   0     -10.528  19.827  66.747  1.00  0.00    -0.610 C  
HETATM    2  C   UNK A   0     -10.046  18.464  67.185  1.00  0.00    -0.371 C  
HETATM    3  C   UNK A   0      -8.882  18.452  68.146  1.00  0.00    -0.319 C  
HETATM    4  C   UNK A   0     -10.114  17.429  66.088  1.00  0.00    -0.309 C  
HETATM    5  C   UNK A   0     -10.254  18.026  68.641  1.00  0.00    -0.385 C  
ENDROOT
BRANCH   5   6
HETATM    6  C   UNK A   0     -10.400  16.593  69.060  1.00  0.00    -0.317 C  
HETATM    7  N   UNK A   1     -11.651  16.036  68.925  1.00  0.00    -0.374 N  
HETATM    8  O   UNK A   0      -9.452  16.000  69.559  1.00  0.00    -0.248 OA 
HETATM    9  H   UNK A   1     -12.367  16.640  68.520  1.00  0.00     0.000 HD 
BRANCH   7  10
HETATM   10  C   UNK A   1     -12.062  14.751  69.273  1.00  0.00    -0.261 C  
HETATM   11  C   UNK A   1     -11.976  13.729  68.384  1.00  0.00    -0.395 C  
HETATM   12  C   UNK A   1     -12.683  14.331  70.591  1.00  0.00    -0.343 C  
HETATM   13  O   UNK A   1     -13.442  15.255  71.210  1.00  0.00    -0.454 OA 
HETATM   14  O   UNK A   1     -12.655  13.174  70.990  1.00  0.00    -0.361 OA 
BRANCH  11  15
HETATM   15  C   UNK A   1     -11.506  13.804  66.963  1.00  0.00    -0.368 C  
BRANCH  15  16
HETATM   16  C   UNK A   1     -10.386  12.828  66.555  1.00  0.00    -0.262 C  
BRANCH  16  17
HETATM   17  C   UNK A   1     -10.806  11.438  67.050  1.00  0.00    -0.331 C  
BRANCH  17  18
HETATM   18  C   UNK A   1      -9.684  10.414  67.173  1.00  0.00    -0.172 C  
BRANCH  18  19
HETATM   19  S   UNK A   1     -10.339   8.846  66.489  1.00  0.00    -0.094 SA 
BRANCH  19  20
HETATM   20  C   UNK A   1      -9.187   7.668  67.271  1.00  0.00    -0.131 C  
BRANCH  20  21
HETATM   21  C   UNK A   1      -9.830   6.278  67.393  1.00  0.00    -0.131 C  
HETATM   22  N   UNK A   1     -11.094   6.156  66.596  1.00  0.00    -0.759 NA 
HETATM   23  C   UNK A   1     -10.173   6.056  68.868  1.00  0.00    -0.196 C  
HETATM   24  O   UNK A   1      -9.369   5.756  69.735  1.00  0.00    -0.142 OA 
HETATM   25  O   UNK A   1     -11.490   6.287  69.108  1.00  0.00    -0.394 OA 
HETATM   26  H1  UNK A   1     -11.521   5.234  66.677  1.00  0.00     0.000 HD 
HETATM   27  H2  UNK A   1     -10.936   6.402  65.619  1.00  0.00     0.000 HD 
ENDBRANCH  20  21
ENDBRANCH  19  20
ENDBRANCH  18  19
ENDBRANCH  17  18
ENDBRANCH  16  17
ENDBRANCH  15  16
ENDBRANCH  11  15
ENDBRANCH   7  10
ENDBRANCH   5   6
TORSDOF 9
ENDMDL
MODEL       95
REMARK 921   NORMALIZED FREE ENERGY PREDICTED BY IDOCK:   -4.96 KCAL/MOL
REMARK 922        TOTAL FREE ENERGY PREDICTED BY IDOCK:   -8.53 KCAL/MOL
REMARK 923 INTER-LIGAND FREE ENERGY PREDICTED BY IDOCK:   -7.28 KCAL/MOL
REMARK 924 INTRA-LIGAND FREE ENERGY PREDICTED BY IDOCK:   -1.25 KCAL/MOL
REMARK 927      BINDING AFFINITY PREDICTED BY RF-SCORE:    0.00 PKD
ROOT
HETATM    1  C   UNK A   0     -14.260  15.589  72.310  1.00  0.00    -0.617 C  
HETATM    2  C   UNK A   0     -12.966  15.115  71.691  1.00  0.00    -0.454 C  
HETATM    3  C   UNK A   0     -12.712  13.629  71.749  1.00  0.00    -0.359 C  
HETATM    4  C   UNK A   0     -11.819  16.073  71.906  1.00  0.00    -0.619 C  
HETATM    5  C   UNK A   0     -13.010  14.276  70.408  1.00  0.00    -0.179 C  
ENDROOT
BRANCH   5   6
HETATM    6  C   UNK A   0     -11.904  14.259  69.393  1.00  0.00    -0.326 C  
HETATM    7  N   UNK A   1     -12.235  14.643  68.115  1.00  0.00    -0.596 N  
HETATM    8  O   UNK A   0     -10.793  13.849  69.705  1.00  0.00    -0.029 OA 
HETATM    9  H   UNK A   1     -13.201  14.938  67.973  1.00  0.00     0.000 HD 
BRANCH   7  10
HETATM   10  C   UNK A   1     -11.414  14.678  66.989  1.00  0.00    -0.368 C  
HETATM   11  C   UNK A   1     -10.725  15.801  66.666  1.00  0.00    -0.287 C  
HETATM   12  C   UNK A   1     -11.220  13.561  65.981  1.00  0.00    -0.295 C  
HETATM   13  O   UNK A   1     -12.285  12.764  65.767  1.00  0.00    -0.475 OA 
HETATM   14  O   UNK A   1     -10.229  13.486  65.268  1.00  0.00    -0.314 OA 
BRANCH  11  15
HETATM   15  C   UNK A   1     -10.758  17.118  67.380  1.00  0.00    -0.242 C  
BRANCH  15  16
HETATM   16  C   UNK A   1      -9.445  17.925  67.400  1.00  0.00    -0.258 C  
BRANCH  16  17
HETATM   17  C   UNK A   1      -8.704  17.536  68.686  1.00  0.00    -0.258 C  
BRANCH  17  18
HETATM   18  C   UNK A   1      -7.391  16.787  68.490  1.00  0.00    -0.205 C  
BRANCH  18  19
HETATM   19  S   UNK A   1      -7.633  15.122  69.215  1.00  0.00    -0.210 SA 
BRANCH  19  20
HETATM   20  C   UNK A   1      -7.688  14.129  67.687  1.00  0.00    -0.174 C  
BRANCH  20  21
HETATM   21  C   UNK A   1      -6.922  12.809  67.868  1.00  0.00    -0.116 C  
HETATM   22  N   UNK A   1      -5.845  12.624  66.842  1.00  0.00    -0.470 NA 
HETATM   23  C   UNK A   1      -7.927  11.667  67.717  1.00  0.00    -0.131 C  
HETATM   24  O   UNK A   1      -8.723  11.317  68.573  1.00  0.00    -0.150 OA 
HETATM   25  O   UNK A   1      -7.862  11.113  66.477  1.00  0.00    -0.150 OA 
HETATM   26  H1  UNK A   1      -5.336  11.748  66.962  1.00  0.00     0.000 HD 
HETATM   27  H2  UNK A   1      -5.207  13.420  66.833  1.00  0.00     0.000 HD 
ENDBRANCH  20  21
ENDBRANCH  19  20
ENDBRANCH  18  19
ENDBRANCH  17  18
ENDBRANCH  16  17
ENDBRANCH  15  16
ENDBRANCH  11  15
ENDBRANCH   7  10
ENDBRANCH   5   6
TORSDOF 9
ENDMDL
MODEL       96
REMARK 921   NORMALIZED FREE ENERGY PREDICTED BY IDOCK:   -4.95 KCAL/MOL
REMARK 922        TOTAL FREE ENERGY PREDICTED BY IDOCK:   -8.53 KCAL/MOL
REMARK 923 INTER-LIGAND FREE ENERGY PREDICTED BY IDOCK:   -7.32 KCAL/MOL
REMARK 924 INTRA-LIGAND FREE ENERGY PREDICTED BY IDOCK:   -1.21 KCAL/MOL
REMARK 927      BINDING AFFINITY PREDICTED BY RF-SCORE:    0.00 PKD
ROOT
HETATM    1  C   UNK A   0     -11.174  15.753  64.603  1.00  0.00    -0.373 C  
HETATM    2  C   UNK A   0     -11.309  14.452  65.358  1.00  0.00    -0.339 C  
HETATM    3  C   UNK A   0     -11.877  13.291  64.577  1.00  0.00    -0.433 C  
HETATM    4  C   UNK A   0     -11.708  14.641  66.802  1.00  0.00    -0.355 C  
HETATM    5  C   UNK A   0     -10.412  13.266  64.979  1.00  0.00    -0.367 C  
ENDROOT
BRANCH   5   6
HETATM    6  C   UNK A   0     -10.000  12.198  65.949  1.00  0.00    -0.245 C  
HETATM    7  N   UNK A   1     -10.977  11.314  66.343  1.00  0.00    -0.262 N  
HETATM    8  O   UNK A   0      -8.862  12.187  66.401  1.00  0.00    -0.184 OA 
HETATM    9  H   UNK A   1     -11.894  11.442  65.916  1.00  0.00     0.000 HD 
BRANCH   7  10
HETATM   10  C   UNK A   1     -10.869  10.265  67.255  1.00  0.00    -0.250 C  
HETATM   11  C   UNK A   1     -11.151  10.454  68.569  1.00  0.00    -0.318 C  
HETATM   12  C   UNK A   1     -10.393   8.856  66.953  1.00  0.00    -0.262 C  
HETATM   13  O   UNK A   1      -9.468   8.739  65.982  1.00  0.00    -0.227 OA 
HETATM   14  O   UNK A   1     -10.686   7.901  67.659  1.00  0.00    -0.221 OA 
BRANCH  11  15
HETATM   15  C   UNK A   1     -11.553  11.736  69.231  1.00  0.00    -0.378 C  
BRANCH  15  16
HETATM   16  C   UNK A   1     -12.128  11.625  70.657  1.00  0.00    -0.432 C  
BRANCH  16  17
HETATM   17  C   UNK A   1     -12.993  10.358  70.689  1.00  0.00    -0.357 C  
BRANCH  17  18
HETATM   18  C   UNK A   1     -13.041   9.626  72.025  1.00  0.00    -0.445 C  
BRANCH  18  19
HETATM   19  S   UNK A   1     -12.621   7.878  71.671  1.00  0.00    -0.325 SA 
BRANCH  19  20
HETATM   20  C   UNK A   1     -11.286   7.633  72.889  1.00  0.00    -0.372 C  
BRANCH  20  21
HETATM   21  C   UNK A   1      -9.962   7.298  72.184  1.00  0.00    -0.165 C  
HETATM   22  N   UNK A   1      -9.157   6.275  72.927  1.00  0.00    -0.131 NA 
HETATM   23  C   UNK A   1      -9.142   8.587  72.106  1.00  0.00    -0.249 C  
HETATM   24  O   UNK A   1      -9.332   9.490  71.309  1.00  0.00    -0.229 OA 
HETATM   25  O   UNK A   1      -8.193   8.627  73.079  1.00  0.00    -0.402 OA 
HETATM   26  H1  UNK A   1      -8.278   6.052  72.460  1.00  0.00     0.000 HD 
HETATM   27  H2  UNK A   1      -9.704   5.432  73.099  1.00  0.00     0.000 HD 
ENDBRANCH  20  21
ENDBRANCH  19  20
ENDBRANCH  18  19
ENDBRANCH  17  18
ENDBRANCH  16  17
ENDBRANCH  15  16
ENDBRANCH  11  15
ENDBRANCH   7  10
ENDBRANCH   5   6
TORSDOF 9
ENDMDL
MODEL       97
REMARK 921   NORMALIZED FREE ENERGY PREDICTED BY IDOCK:   -4.95 KCAL/MOL
REMARK 922        TOTAL FREE ENERGY PREDICTED BY IDOCK:   -8.53 KCAL/MOL
REMARK 923 INTER-LIGAND FREE ENERGY PREDICTED BY IDOCK:   -7.49 KCAL/MOL
REMARK 924 INTRA-LIGAND FREE ENERGY PREDICTED BY IDOCK:   -1.04 KCAL/MOL
REMARK 927      BINDING AFFINITY PREDICTED BY RF-SCORE:    0.00 PKD
ROOT
HETATM    1  C   UNK A   0     -11.451   4.996  72.943  1.00  0.00    -0.306 C  
HETATM    2  C   UNK A   0     -11.448   6.130  71.945  1.00  0.00    -0.355 C  
HETATM    3  C   UNK A   0     -12.779   6.799  71.701  1.00  0.00    -0.360 C  
HETATM    4  C   UNK A   0     -10.510   5.898  70.784  1.00  0.00    -0.311 C  
HETATM    5  C   UNK A   0     -11.691   7.563  72.436  1.00  0.00    -0.335 C  
ENDROOT
BRANCH   5   6
HETATM    6  C   UNK A   0     -11.141   8.778  71.746  1.00  0.00    -0.347 C  
HETATM    7  N   UNK A   1     -12.003   9.458  70.917  1.00  0.00    -0.337 N  
HETATM    8  O   UNK A   0      -9.962   9.077  71.880  1.00  0.00    -0.332 OA 
HETATM    9  H   UNK A   1     -12.955   9.094  70.867  1.00  0.00     0.000 HD 
BRANCH   7  10
HETATM   10  C   UNK A   1     -11.736  10.581  70.137  1.00  0.00    -0.326 C  
HETATM   11  C   UNK A   1     -12.235  11.797  70.475  1.00  0.00    -0.438 C  
HETATM   12  C   UNK A   1     -10.949  10.611  68.840  1.00  0.00    -0.249 C  
HETATM   13  O   UNK A   1     -11.032   9.508  68.072  1.00  0.00    -0.203 OA 
HETATM   14  O   UNK A   1     -10.416  11.629  68.420  1.00  0.00    -0.197 OA 
BRANCH  11  15
HETATM   15  C   UNK A   1     -13.131  12.116  71.633  1.00  0.00    -0.413 C  
BRANCH  15  16
HETATM   16  C   UNK A   1     -13.382  13.609  71.921  1.00  0.00    -0.510 C  
BRANCH  16  17
HETATM   17  C   UNK A   1     -12.179  14.377  71.357  1.00  0.00    -0.424 C  
BRANCH  17  18
HETATM   18  C   UNK A   1     -12.516  15.556  70.452  1.00  0.00    -0.402 C  
BRANCH  18  19
HETATM   19  S   UNK A   1     -11.943  15.099  68.774  1.00  0.00    -0.195 SA 
BRANCH  19  20
HETATM   20  C   UNK A   1     -10.140  15.126  69.049  1.00  0.00    -0.244 C  
BRANCH  20  21
HETATM   21  C   UNK A   1      -9.415  15.735  67.839  1.00  0.00    -0.212 C  
HETATM   22  N   UNK A   1     -10.279  16.688  67.069  1.00  0.00    -0.285 NA 
HETATM   23  C   UNK A   1      -9.025  14.586  66.908  1.00  0.00    -0.246 C  
HETATM   24  O   UNK A   1      -8.084  13.830  67.086  1.00  0.00    -0.157 OA 
HETATM   25  O   UNK A   1      -9.895  14.475  65.870  1.00  0.00    -0.305 OA 
HETATM   26  H1  UNK A   1      -9.798  17.093  66.266  1.00  0.00     0.000 HD 
HETATM   27  H2  UNK A   1     -10.653  17.417  67.678  1.00  0.00     0.000 HD 
ENDBRANCH  20  21
ENDBRANCH  19  20
ENDBRANCH  18  19
ENDBRANCH  17  18
ENDBRANCH  16  17
ENDBRANCH  15  16
ENDBRANCH  11  15
ENDBRANCH   7  10
ENDBRANCH   5   6
TORSDOF 9
ENDMDL
MODEL       98
REMARK 921   NORMALIZED FREE ENERGY PREDICTED BY IDOCK:   -4.94 KCAL/MOL
REMARK 922        TOTAL FREE ENERGY PREDICTED BY IDOCK:   -8.51 KCAL/MOL
REMARK 923 INTER-LIGAND FREE ENERGY PREDICTED BY IDOCK:   -7.50 KCAL/MOL
REMARK 924 INTRA-LIGAND FREE ENERGY PREDICTED BY IDOCK:   -1.02 KCAL/MOL
REMARK 927      BINDING AFFINITY PREDICTED BY RF-SCORE:    0.00 PKD
ROOT
HETATM    1  C   UNK A   0     -10.885   7.782  72.975  1.00  0.00    -0.451 C  
HETATM    2  C   UNK A   0     -11.384   8.232  71.622  1.00  0.00    -0.329 C  
HETATM    3  C   UNK A   0     -12.117   9.551  71.593  1.00  0.00    -0.474 C  
HETATM    4  C   UNK A   0     -11.872   7.092  70.760  1.00  0.00    -0.401 C  
HETATM    5  C   UNK A   0     -10.742   9.454  70.953  1.00  0.00    -0.393 C  
ENDROOT
BRANCH   5   6
HETATM    6  C   UNK A   0     -10.680   9.645  69.466  1.00  0.00    -0.232 C  
HETATM    7  N   UNK A   1      -9.503   9.291  68.848  1.00  0.00    -0.152 N  
HETATM    8  O   UNK A   0     -11.620  10.160  68.874  1.00  0.00    -0.133 OA 
HETATM    9  H   UNK A   1      -8.782   8.897  69.454  1.00  0.00     0.000 HD 
BRANCH   7  10
HETATM   10  C   UNK A   1      -9.173   9.403  67.499  1.00  0.00    -0.123 C  
HETATM   11  C   UNK A   1      -8.722  10.576  66.989  1.00  0.00    -0.132 C  
HETATM   12  C   UNK A   1      -9.314   8.321  66.445  1.00  0.00    -0.213 C  
HETATM   13  O   UNK A   1     -10.334   7.458  66.615  1.00  0.00    -0.252 OA 
HETATM   14  O   UNK A   1      -8.665   8.327  65.408  1.00  0.00    -0.164 OA 
BRANCH  11  15
HETATM   15  C   UNK A   1      -8.555  11.874  67.719  1.00  0.00    -0.154 C  
BRANCH  15  16
HETATM   16  C   UNK A   1      -7.217  12.612  67.517  1.00  0.00    -0.155 C  
BRANCH  16  17
HETATM   17  C   UNK A   1      -7.505  14.109  67.689  1.00  0.00    -0.192 C  
BRANCH  17  18
HETATM   18  C   UNK A   1      -8.975  14.508  67.634  1.00  0.00    -0.193 C  
BRANCH  18  19
HETATM   19  S   UNK A   1      -9.089  15.894  66.441  1.00  0.00    -0.348 SA 
BRANCH  19  20
HETATM   20  C   UNK A   1     -10.836  15.726  65.945  1.00  0.00    -0.268 C  
BRANCH  20  21
HETATM   21  C   UNK A   1     -10.944  15.247  64.488  1.00  0.00    -0.192 C  
HETATM   22  N   UNK A   1     -12.052  15.924  63.740  1.00  0.00    -1.230 NA 
HETATM   23  C   UNK A   1     -11.234  13.745  64.517  1.00  0.00    -0.373 C  
HETATM   24  O   UNK A   1     -10.406  12.876  64.737  1.00  0.00    -0.313 OA 
HETATM   25  O   UNK A   1     -12.554  13.495  64.315  1.00  0.00    -0.629 OA 
HETATM   26  H1  UNK A   1     -12.124  15.606  62.773  1.00  0.00     0.000 HD 
HETATM   27  H2  UNK A   1     -11.959  16.938  63.786  1.00  0.00     0.000 HD 
ENDBRANCH  20  21
ENDBRANCH  19  20
ENDBRANCH  18  19
ENDBRANCH  17  18
ENDBRANCH  16  17
ENDBRANCH  15  16
ENDBRANCH  11  15
ENDBRANCH   7  10
ENDBRANCH   5   6
TORSDOF 9
ENDMDL
MODEL       99
REMARK 921   NORMALIZED FREE ENERGY PREDICTED BY IDOCK:   -4.93 KCAL/MOL
REMARK 922        TOTAL FREE ENERGY PREDICTED BY IDOCK:   -8.49 KCAL/MOL
REMARK 923 INTER-LIGAND FREE ENERGY PREDICTED BY IDOCK:   -7.57 KCAL/MOL
REMARK 924 INTRA-LIGAND FREE ENERGY PREDICTED BY IDOCK:   -0.92 KCAL/MOL
REMARK 927      BINDING AFFINITY PREDICTED BY RF-SCORE:    0.00 PKD
ROOT
HETATM    1  C   UNK A   0     -11.216  15.223  65.249  1.00  0.00    -0.338 C  
HETATM    2  C   UNK A   0     -10.716  15.018  66.659  1.00  0.00    -0.312 C  
HETATM    3  C   UNK A   0     -10.057  16.212  67.307  1.00  0.00    -0.265 C  
HETATM    4  C   UNK A   0     -10.146  13.639  66.893  1.00  0.00    -0.260 C  
HETATM    5  C   UNK A   0     -11.411  15.746  67.817  1.00  0.00    -0.240 C  
ENDROOT
BRANCH   5   6
HETATM    6  C   UNK A   0     -11.453  15.216  69.221  1.00  0.00    -0.311 C  
HETATM    7  N   UNK A   1     -12.494  14.371  69.529  1.00  0.00    -0.540 N  
HETATM    8  O   UNK A   0     -10.629  15.595  70.044  1.00  0.00    -0.294 OA 
HETATM    9  H   UNK A   1     -13.133  14.152  68.764  1.00  0.00     0.000 HD 
BRANCH   7  10
HETATM   10  C   UNK A   1     -12.785  13.779  70.756  1.00  0.00    -0.290 C  
HETATM   11  C   UNK A   1     -12.581  12.451  70.953  1.00  0.00    -0.337 C  
HETATM   12  C   UNK A   1     -13.389  14.465  71.967  1.00  0.00    -0.384 C  
HETATM   13  O   UNK A   1     -14.247  15.471  71.710  1.00  0.00    -0.494 OA 
HETATM   14  O   UNK A   1     -13.256  14.028  73.102  1.00  0.00    -0.589 OA 
BRANCH  11  15
HETATM   15  C   UNK A   1     -12.092  11.454  69.948  1.00  0.00    -0.404 C  
BRANCH  15  16
HETATM   16  C   UNK A   1     -12.370   9.970  70.257  1.00  0.00    -0.141 C  
BRANCH  16  17
HETATM   17  C   UNK A   1     -12.212   9.795  71.773  1.00  0.00    -0.449 C  
BRANCH  17  18
HETATM   18  C   UNK A   1     -13.038   8.677  72.397  1.00  0.00    -0.349 C  
BRANCH  18  19
HETATM   19  S   UNK A   1     -12.777   7.197  71.350  1.00  0.00    -0.362 SA 
BRANCH  19  20
HETATM   20  C   UNK A   1     -11.185   6.621  72.028  1.00  0.00    -0.266 C  
BRANCH  20  21
HETATM   21  C   UNK A   1     -10.015   7.113  71.162  1.00  0.00    -0.183 C  
HETATM   22  N   UNK A   1      -9.410   6.019  70.335  1.00  0.00    -0.158 NA 
HETATM   23  C   UNK A   1      -8.937   7.652  72.104  1.00  0.00    -0.133 C  
HETATM   24  O   UNK A   1      -8.974   8.735  72.663  1.00  0.00    -0.380 OA 
HETATM   25  O   UNK A   1      -7.944   6.743  72.287  1.00  0.00    -0.095 OA 
HETATM   26  H1  UNK A   1      -8.633   6.346  69.760  1.00  0.00     0.000 HD 
HETATM   27  H2  UNK A   1     -10.118   5.556  69.765  1.00  0.00     0.000 HD 
ENDBRANCH  20  21
ENDBRANCH  19  20
ENDBRANCH  18  19
ENDBRANCH  17  18
ENDBRANCH  16  17
ENDBRANCH  15  16
ENDBRANCH  11  15
ENDBRANCH   7  10
ENDBRANCH   5   6
TORSDOF 9
ENDMDL
MODEL      100
REMARK 921   NORMALIZED FREE ENERGY PREDICTED BY IDOCK:   -4.92 KCAL/MOL
REMARK 922        TOTAL FREE ENERGY PREDICTED BY IDOCK:   -8.47 KCAL/MOL
REMARK 923 INTER-LIGAND FREE ENERGY PREDICTED BY IDOCK:   -7.22 KCAL/MOL
REMARK 924 INTRA-LIGAND FREE ENERGY PREDICTED BY IDOCK:   -1.25 KCAL/MOL
REMARK 927      BINDING AFFINITY PREDICTED BY RF-SCORE:    0.00 PKD
ROOT
HETATM    1  C   UNK A   0     -12.525  13.382  65.008  1.00  0.00    -0.479 C  
HETATM    2  C   UNK A   0     -11.769  13.227  66.306  1.00  0.00    -0.412 C  
HETATM    3  C   UNK A   0     -10.534  14.082  66.458  1.00  0.00    -0.281 C  
HETATM    4  C   UNK A   0     -11.756  11.807  66.820  1.00  0.00    -0.197 C  
HETATM    5  C   UNK A   0     -11.755  14.387  67.310  1.00  0.00    -0.429 C  
ENDROOT
BRANCH   5   6
HETATM    6  C   UNK A   0     -11.603  14.196  68.791  1.00  0.00    -0.327 C  
HETATM    7  N   UNK A   1     -12.757  13.959  69.503  1.00  0.00    -0.255 N  
HETATM    8  O   UNK A   0     -10.505  14.323  69.316  1.00  0.00    -0.199 OA 
HETATM    9  H   UNK A   1     -13.616  13.901  68.955  1.00  0.00     0.000 HD 
BRANCH   7  10
HETATM   10  C   UNK A   1     -12.897  13.788  70.879  1.00  0.00    -0.271 C  
HETATM   11  C   UNK A   1     -12.718  12.570  71.450  1.00  0.00    -0.345 C  
HETATM   12  C   UNK A   1     -13.303  14.852  71.881  1.00  0.00    -0.363 C  
HETATM   13  O   UNK A   1     -14.151  15.797  71.431  1.00  0.00    -0.498 OA 
HETATM   14  O   UNK A   1     -13.032  14.768  73.071  1.00  0.00    -0.448 OA 
BRANCH  11  15
HETATM   15  C   UNK A   1     -12.408  11.281  70.751  1.00  0.00    -0.495 C  
BRANCH  15  16
HETATM   16  C   UNK A   1     -13.104  10.018  71.293  1.00  0.00    -0.493 C  
BRANCH  16  17
HETATM   17  C   UNK A   1     -11.996   9.066  71.761  1.00  0.00    -0.438 C  
BRANCH  17  18
HETATM   18  C   UNK A   1     -11.091   8.518  70.663  1.00  0.00    -0.252 C  
BRANCH  18  19
HETATM   19  S   UNK A   1      -9.385   9.023  71.101  1.00  0.00    -0.252 SA 
BRANCH  19  20
HETATM   20  C   UNK A   1      -8.548   8.668  69.520  1.00  0.00    -0.131 C  
BRANCH  20  21
HETATM   21  C   UNK A   1      -9.356   9.229  68.339  1.00  0.00    -0.138 C  
HETATM   22  N   UNK A   1      -9.502   8.242  67.221  1.00  0.00    -0.145 NA 
HETATM   23  C   UNK A   1      -8.604  10.449  67.804  1.00  0.00    -0.122 C  
HETATM   24  O   UNK A   1      -8.604  11.554  68.323  1.00  0.00    -0.149 OA 
HETATM   25  O   UNK A   1      -7.886  10.137  66.694  1.00  0.00    -0.107 OA 
HETATM   26  H1  UNK A   1     -10.038   8.614  66.437  1.00  0.00     0.000 HD 
HETATM   27  H2  UNK A   1      -9.902   7.366  67.556  1.00  0.00     0.000 HD 
ENDBRANCH  20  21
ENDBRANCH  19  20
ENDBRANCH  18  19
ENDBRANCH  17  18
ENDBRANCH  16  17
ENDBRANCH  15  16
ENDBRANCH  11  15
ENDBRANCH   7  10
ENDBRANCH   5   6
TORSDOF 9
ENDMDL
MODEL      101
REMARK 921   NORMALIZED FREE ENERGY PREDICTED BY IDOCK:   -4.91 KCAL/MOL
REMARK 922        TOTAL FREE ENERGY PREDICTED BY IDOCK:   -8.46 KCAL/MOL
REMARK 923 INTER-LIGAND FREE ENERGY PREDICTED BY IDOCK:   -8.35 KCAL/MOL
REMARK 924 INTRA-LIGAND FREE ENERGY PREDICTED BY IDOCK:   -0.12 KCAL/MOL
REMARK 927      BINDING AFFINITY PREDICTED BY RF-SCORE:    0.00 PKD
ROOT
HETATM    1  C   UNK A   0     -12.708  15.723  73.797  1.00  0.00    -0.736 C  
HETATM    2  C   UNK A   0     -12.823  15.548  72.301  1.00  0.00    -0.493 C  
HETATM    3  C   UNK A   0     -11.780  16.255  71.470  1.00  0.00    -0.467 C  
HETATM    4  C   UNK A   0     -14.253  15.503  71.817  1.00  0.00    -0.563 C  
HETATM    5  C   UNK A   0     -11.755  14.738  71.555  1.00  0.00    -0.350 C  
ENDROOT
BRANCH   5   6
HETATM    6  C   UNK A   0     -12.024  13.991  70.282  1.00  0.00    -0.339 C  
HETATM    7  N   UNK A   1     -11.499  12.722  70.189  1.00  0.00    -0.519 N  
HETATM    8  O   UNK A   0     -12.622  14.538  69.364  1.00  0.00    -0.162 OA 
HETATM    9  H   UNK A   1     -10.996  12.386  71.012  1.00  0.00     0.000 HD 
BRANCH   7  10
HETATM   10  C   UNK A   1     -11.568  11.841  69.113  1.00  0.00    -0.310 C  
HETATM   11  C   UNK A   1     -11.700  10.505  69.315  1.00  0.00    -0.281 C  
HETATM   12  C   UNK A   1     -11.454  12.203  67.644  1.00  0.00    -0.331 C  
HETATM   13  O   UNK A   1     -10.656  13.248  67.351  1.00  0.00    -0.244 OA 
HETATM   14  O   UNK A   1     -11.906  11.492  66.756  1.00  0.00    -0.511 OA 
BRANCH  11  15
HETATM   15  C   UNK A   1     -11.744   9.791  70.631  1.00  0.00    -0.377 C  
BRANCH  15  16
HETATM   16  C   UNK A   1     -10.896   8.510  70.749  1.00  0.00    -0.268 C  
BRANCH  16  17
HETATM   17  C   UNK A   1     -11.867   7.325  70.665  1.00  0.00    -0.290 C  
BRANCH  17  18
HETATM   18  C   UNK A   1     -11.370   6.120  69.876  1.00  0.00    -0.384 C  
BRANCH  18  19
HETATM   19  S   UNK A   1     -10.976   6.732  68.195  1.00  0.00    -0.159 SA 
BRANCH  19  20
HETATM   20  C   UNK A   1     -10.386   5.181  67.436  1.00  0.00    -0.149 C  
BRANCH  20  21
HETATM   21  C   UNK A   1     -10.410   5.283  65.903  1.00  0.00    -0.055 C  
HETATM   22  N   UNK A   1     -11.445   4.393  65.283  1.00  0.00    -0.978 NA 
HETATM   23  C   UNK A   1      -9.036   4.848  65.390  1.00  0.00    -0.155 C  
HETATM   24  O   UNK A   1      -8.029   5.536  65.416  1.00  0.00    -0.099 OA 
HETATM   25  O   UNK A   1      -9.061   3.564  64.943  1.00  0.00    -0.125 OA 
HETATM   26  H1  UNK A   1     -11.460   4.460  64.265  1.00  0.00     0.000 HD 
HETATM   27  H2  UNK A   1     -12.368   4.575  65.676  1.00  0.00     0.000 HD 
ENDBRANCH  20  21
ENDBRANCH  19  20
ENDBRANCH  18  19
ENDBRANCH  17  18
ENDBRANCH  16  17
ENDBRANCH  15  16
ENDBRANCH  11  15
ENDBRANCH   7  10
ENDBRANCH   5   6
TORSDOF 9
ENDMDL
MODEL      102
REMARK 921   NORMALIZED FREE ENERGY PREDICTED BY IDOCK:   -4.91 KCAL/MOL
REMARK 922        TOTAL FREE ENERGY PREDICTED BY IDOCK:   -8.46 KCAL/MOL
REMARK 923 INTER-LIGAND FREE ENERGY PREDICTED BY IDOCK:   -7.52 KCAL/MOL
REMARK 924 INTRA-LIGAND FREE ENERGY PREDICTED BY IDOCK:   -0.94 KCAL/MOL
REMARK 927      BINDING AFFINITY PREDICTED BY RF-SCORE:    0.00 PKD
ROOT
HETATM    1  C   UNK A   0     -12.620  12.089  63.502  1.00  0.00    -0.625 C  
HETATM    2  C   UNK A   0     -11.314  12.212  64.250  1.00  0.00    -0.426 C  
HETATM    3  C   UNK A   0     -10.846  13.619  64.534  1.00  0.00    -0.416 C  
HETATM    4  C   UNK A   0     -10.304  11.159  63.862  1.00  0.00    -0.441 C  
HETATM    5  C   UNK A   0     -11.319  12.750  65.687  1.00  0.00    -0.354 C  
ENDROOT
BRANCH   5   6
HETATM    6  C   UNK A   0     -10.289  12.377  66.713  1.00  0.00    -0.221 C  
HETATM    7  N   UNK A   1      -9.009  12.830  66.493  1.00  0.00    -0.399 N  
HETATM    8  O   UNK A   0     -10.591  11.645  67.647  1.00  0.00    -0.192 OA 
HETATM    9  H   UNK A   1      -8.876  13.409  65.664  1.00  0.00     0.000 HD 
BRANCH   7  10
HETATM   10  C   UNK A   1      -7.871  12.594  67.262  1.00  0.00    -0.155 C  
HETATM   11  C   UNK A   1      -7.191  13.622  67.831  1.00  0.00    -0.150 C  
HETATM   12  C   UNK A   1      -7.220  11.248  67.519  1.00  0.00    -0.100 C  
HETATM   13  O   UNK A   1      -7.317  10.344  66.525  1.00  0.00    -0.107 OA 
HETATM   14  O   UNK A   1      -6.497  11.043  68.485  1.00  0.00    -0.053 OA 
BRANCH  11  15
HETATM   15  C   UNK A   1      -7.492  15.084  67.704  1.00  0.00    -0.202 C  
BRANCH  15  16
HETATM   16  C   UNK A   1      -7.883  15.823  68.999  1.00  0.00    -0.206 C  
BRANCH  16  17
HETATM   17  C   UNK A   1      -6.848  16.938  69.203  1.00  0.00    -0.238 C  
BRANCH  17  18
HETATM   18  C   UNK A   1      -6.707  17.925  68.050  1.00  0.00    -0.196 C  
BRANCH  18  19
HETATM   19  S   UNK A   1      -7.466  19.493  68.617  1.00  0.00    -0.338 SA 
BRANCH  19  20
HETATM   20  C   UNK A   1      -8.424  19.924  67.126  1.00  0.00    -0.324 C  
BRANCH  20  21
HETATM   21  C   UNK A   1      -9.932  19.807  67.396  1.00  0.00    -0.400 C  
HETATM   22  N   UNK A   1     -10.250  19.718  68.858  1.00  0.00    -0.591 NA 
HETATM   23  C   UNK A   1     -10.423  18.525  66.721  1.00  0.00    -0.394 C  
HETATM   24  O   UNK A   1     -10.632  18.398  65.526  1.00  0.00    -0.627 OA 
HETATM   25  O   UNK A   1     -10.552  17.514  67.621  1.00  0.00    -0.364 OA 
HETATM   26  H1  UNK A   1     -11.251  19.640  69.037  1.00  0.00     0.000 HD 
HETATM   27  H2  UNK A   1      -9.846  20.503  69.369  1.00  0.00     0.000 HD 
ENDBRANCH  20  21
ENDBRANCH  19  20
ENDBRANCH  18  19
ENDBRANCH  17  18
ENDBRANCH  16  17
ENDBRANCH  15  16
ENDBRANCH  11  15
ENDBRANCH   7  10
ENDBRANCH   5   6
TORSDOF 9
ENDMDL
MODEL      103
REMARK 921   NORMALIZED FREE ENERGY PREDICTED BY IDOCK:   -4.91 KCAL/MOL
REMARK 922        TOTAL FREE ENERGY PREDICTED BY IDOCK:   -8.45 KCAL/MOL
REMARK 923 INTER-LIGAND FREE ENERGY PREDICTED BY IDOCK:   -6.88 KCAL/MOL
REMARK 924 INTRA-LIGAND FREE ENERGY PREDICTED BY IDOCK:   -1.58 KCAL/MOL
REMARK 927      BINDING AFFINITY PREDICTED BY RF-SCORE:    0.00 PKD
ROOT
HETATM    1  C   UNK A   0      -5.520  14.122  69.394  1.00  0.00    -0.083 C  
HETATM    2  C   UNK A   0      -6.676  14.739  68.643  1.00  0.00    -0.088 C  
HETATM    3  C   UNK A   0      -7.617  15.588  69.462  1.00  0.00    -0.200 C  
HETATM    4  C   UNK A   0      -7.235  13.837  67.568  1.00  0.00    -0.173 C  
HETATM    5  C   UNK A   0      -6.715  16.259  68.440  1.00  0.00    -0.136 C  
ENDROOT
BRANCH   5   6
HETATM    6  C   UNK A   0      -7.394  16.920  67.276  1.00  0.00    -0.169 C  
HETATM    7  N   UNK A   1      -8.711  17.278  67.454  1.00  0.00    -0.205 N  
HETATM    8  O   UNK A   0      -6.799  17.054  66.215  1.00  0.00    -0.238 OA 
HETATM    9  H   UNK A   1      -9.104  17.089  68.376  1.00  0.00     0.000 HD 
BRANCH   7  10
HETATM   10  C   UNK A   1      -9.573  17.864  66.529  1.00  0.00    -0.313 C  
HETATM   11  C   UNK A   1     -10.379  17.101  65.748  1.00  0.00    -0.253 C  
HETATM   12  C   UNK A   1      -9.697  19.346  66.228  1.00  0.00    -0.386 C  
HETATM   13  O   UNK A   1      -8.570  20.072  66.353  1.00  0.00    -0.329 OA 
HETATM   14  O   UNK A   1     -10.703  19.831  65.729  1.00  0.00    -0.512 OA 
BRANCH  11  15
HETATM   15  C   UNK A   1     -10.445  15.604  65.709  1.00  0.00    -0.383 C  
BRANCH  15  16
HETATM   16  C   UNK A   1     -11.586  14.986  64.879  1.00  0.00    -0.374 C  
BRANCH  16  17
HETATM   17  C   UNK A   1     -11.682  13.510  65.287  1.00  0.00    -0.341 C  
BRANCH  17  18
HETATM   18  C   UNK A   1     -10.653  13.039  66.307  1.00  0.00    -0.271 C  
BRANCH  18  19
HETATM   19  S   UNK A   1     -11.601  12.424  67.749  1.00  0.00    -0.354 SA 
BRANCH  19  20
HETATM   20  C   UNK A   1     -12.082  14.015  68.499  1.00  0.00    -0.294 C  
BRANCH  20  21
HETATM   21  C   UNK A   1     -11.319  14.250  69.813  1.00  0.00    -0.227 C  
HETATM   22  N   UNK A   1     -11.818  13.385  70.931  1.00  0.00    -0.447 NA 
HETATM   23  C   UNK A   1     -11.525  15.712  70.211  1.00  0.00    -0.349 C  
HETATM   24  O   UNK A   1     -10.946  16.663  69.711  1.00  0.00    -0.330 OA 
HETATM   25  O   UNK A   1     -12.482  15.832  71.169  1.00  0.00    -0.423 OA 
HETATM   26  H1  UNK A   1     -11.313  13.541  71.803  1.00  0.00     0.000 HD 
HETATM   27  H2  UNK A   1     -11.801  12.400  70.668  1.00  0.00     0.000 HD 
ENDBRANCH  20  21
ENDBRANCH  19  20
ENDBRANCH  18  19
ENDBRANCH  17  18
ENDBRANCH  16  17
ENDBRANCH  15  16
ENDBRANCH  11  15
ENDBRANCH   7  10
ENDBRANCH   5   6
TORSDOF 9
ENDMDL
MODEL      104
REMARK 921   NORMALIZED FREE ENERGY PREDICTED BY IDOCK:   -4.90 KCAL/MOL
REMARK 922        TOTAL FREE ENERGY PREDICTED BY IDOCK:   -8.44 KCAL/MOL
REMARK 923 INTER-LIGAND FREE ENERGY PREDICTED BY IDOCK:   -7.32 KCAL/MOL
REMARK 924 INTRA-LIGAND FREE ENERGY PREDICTED BY IDOCK:   -1.13 KCAL/MOL
REMARK 927      BINDING AFFINITY PREDICTED BY RF-SCORE:    0.00 PKD
ROOT
HETATM    1  C   UNK A   0      -8.215  16.887  67.359  1.00  0.00    -0.199 C  
HETATM    2  C   UNK A   0      -9.097  15.837  67.993  1.00  0.00    -0.187 C  
HETATM    3  C   UNK A   0      -8.679  15.363  69.364  1.00  0.00    -0.252 C  
HETATM    4  C   UNK A   0      -9.643  14.840  66.999  1.00  0.00    -0.248 C  
HETATM    5  C   UNK A   0      -9.937  16.204  69.223  1.00  0.00    -0.253 C  
ENDROOT
BRANCH   5   6
HETATM    6  C   UNK A   0     -11.235  15.533  69.568  1.00  0.00    -0.299 C  
HETATM    7  N   UNK A   1     -11.198  14.608  70.586  1.00  0.00    -0.492 N  
HETATM    8  O   UNK A   0     -12.240  15.768  68.910  1.00  0.00    -0.258 OA 
HETATM    9  H   UNK A   1     -10.294  14.480  71.041  1.00  0.00     0.000 HD 
BRANCH   7  10
HETATM   10  C   UNK A   1     -12.243  13.824  71.071  1.00  0.00    -0.319 C  
HETATM   11  C   UNK A   1     -12.399  12.541  70.658  1.00  0.00    -0.369 C  
HETATM   12  C   UNK A   1     -13.332  14.268  72.028  1.00  0.00    -0.398 C  
HETATM   13  O   UNK A   1     -13.709  15.558  71.940  1.00  0.00    -0.469 OA 
HETATM   14  O   UNK A   1     -13.964  13.477  72.716  1.00  0.00    -0.733 OA 
BRANCH  11  15
HETATM   15  C   UNK A   1     -11.568  11.809  69.647  1.00  0.00    -0.393 C  
BRANCH  15  16
HETATM   16  C   UNK A   1     -11.847  12.128  68.165  1.00  0.00    -0.362 C  
BRANCH  16  17
HETATM   17  C   UNK A   1     -11.266  10.968  67.345  1.00  0.00    -0.355 C  
BRANCH  17  18
HETATM   18  C   UNK A   1      -9.848  11.173  66.827  1.00  0.00    -0.200 C  
BRANCH  18  19
HETATM   19  S   UNK A   1      -9.178   9.502  66.485  1.00  0.00    -0.170 SA 
BRANCH  19  20
HETATM   20  C   UNK A   1     -10.384   8.495  67.411  1.00  0.00    -0.286 C  
BRANCH  20  21
HETATM   21  C   UNK A   1      -9.665   7.514  68.350  1.00  0.00    -0.156 C  
HETATM   22  N   UNK A   1      -8.483   6.857  67.703  1.00  0.00    -0.122 NA 
HETATM   23  C   UNK A   1     -10.667   6.423  68.733  1.00  0.00    -0.287 C  
HETATM   24  O   UNK A   1     -11.559   6.550  69.555  1.00  0.00    -0.357 OA 
HETATM   25  O   UNK A   1     -10.472   5.296  67.999  1.00  0.00    -0.153 OA 
HETATM   26  H1  UNK A   1      -8.006   6.206  68.326  1.00  0.00     0.000 HD 
HETATM   27  H2  UNK A   1      -7.834   7.553  67.333  1.00  0.00     0.000 HD 
ENDBRANCH  20  21
ENDBRANCH  19  20
ENDBRANCH  18  19
ENDBRANCH  17  18
ENDBRANCH  16  17
ENDBRANCH  15  16
ENDBRANCH  11  15
ENDBRANCH   7  10
ENDBRANCH   5   6
TORSDOF 9
ENDMDL
MODEL      105
REMARK 921   NORMALIZED FREE ENERGY PREDICTED BY IDOCK:   -4.89 KCAL/MOL
REMARK 922        TOTAL FREE ENERGY PREDICTED BY IDOCK:   -8.43 KCAL/MOL
REMARK 923 INTER-LIGAND FREE ENERGY PREDICTED BY IDOCK:   -7.10 KCAL/MOL
REMARK 924 INTRA-LIGAND FREE ENERGY PREDICTED BY IDOCK:   -1.33 KCAL/MOL
REMARK 927      BINDING AFFINITY PREDICTED BY RF-SCORE:    0.00 PKD
ROOT
HETATM    1  C   UNK A   0     -11.216   9.060  70.296  1.00  0.00    -0.232 C  
HETATM    2  C   UNK A   0     -10.636  10.189  69.477  1.00  0.00    -0.269 C  
HETATM    3  C   UNK A   0      -9.134  10.332  69.519  1.00  0.00    -0.187 C  
HETATM    4  C   UNK A   0     -11.500  11.428  69.478  1.00  0.00    -0.381 C  
HETATM    5  C   UNK A   0      -9.797   9.863  68.235  1.00  0.00    -0.165 C  
ENDROOT
BRANCH   5   6
HETATM    6  C   UNK A   0      -9.686  10.776  67.049  1.00  0.00    -0.176 C  
HETATM    7  N   UNK A   1     -10.340  10.382  65.905  1.00  0.00    -0.225 N  
HETATM    8  O   UNK A   0      -8.981  11.775  67.110  1.00  0.00    -0.166 OA 
HETATM    9  H   UNK A   1     -10.874   9.515  65.971  1.00  0.00     0.000 HD 
BRANCH   7  10
HETATM   10  C   UNK A   1     -10.365  11.021  64.667  1.00  0.00    -0.345 C  
HETATM   11  C   UNK A   1     -11.263  12.006  64.410  1.00  0.00    -0.406 C  
HETATM   12  C   UNK A   1      -9.489  10.699  63.470  1.00  0.00    -0.308 C  
HETATM   13  O   UNK A   1      -9.126   9.409  63.332  1.00  0.00    -0.198 OA 
HETATM   14  O   UNK A   1      -9.269  11.511  62.581  1.00  0.00    -0.340 OA 
BRANCH  11  15
HETATM   15  C   UNK A   1     -12.337  12.509  65.325  1.00  0.00    -0.469 C  
BRANCH  15  16
HETATM   16  C   UNK A   1     -12.301  14.011  65.670  1.00  0.00    -0.502 C  
BRANCH  16  17
HETATM   17  C   UNK A   1     -11.808  14.121  67.119  1.00  0.00    -0.454 C  
BRANCH  17  18
HETATM   18  C   UNK A   1     -11.258  15.483  67.526  1.00  0.00    -0.272 C  
BRANCH  18  19
HETATM   19  S   UNK A   1     -10.199  15.193  68.993  1.00  0.00    -0.249 SA 
BRANCH  19  20
HETATM   20  C   UNK A   1      -8.710  16.113  68.480  1.00  0.00    -0.200 C  
BRANCH  20  21
HETATM   21  C   UNK A   1      -8.214  15.624  67.110  1.00  0.00    -0.213 C  
HETATM   22  N   UNK A   1      -6.902  14.905  67.196  1.00  0.00    -0.340 NA 
HETATM   23  C   UNK A   1      -8.028  16.854  66.220  1.00  0.00    -0.315 C  
HETATM   24  O   UNK A   1      -8.930  17.463  65.671  1.00  0.00    -0.449 OA 
HETATM   25  O   UNK A   1      -6.721  17.222  66.156  1.00  0.00    -0.237 OA 
HETATM   26  H1  UNK A   1      -6.572  14.580  66.288  1.00  0.00     0.000 HD 
HETATM   27  H2  UNK A   1      -6.948  14.136  67.865  1.00  0.00     0.000 HD 
ENDBRANCH  20  21
ENDBRANCH  19  20
ENDBRANCH  18  19
ENDBRANCH  17  18
ENDBRANCH  16  17
ENDBRANCH  15  16
ENDBRANCH  11  15
ENDBRANCH   7  10
ENDBRANCH   5   6
TORSDOF 9
ENDMDL
MODEL      106
REMARK 921   NORMALIZED FREE ENERGY PREDICTED BY IDOCK:   -4.88 KCAL/MOL
REMARK 922        TOTAL FREE ENERGY PREDICTED BY IDOCK:   -8.42 KCAL/MOL
REMARK 923 INTER-LIGAND FREE ENERGY PREDICTED BY IDOCK:   -7.69 KCAL/MOL
REMARK 924 INTRA-LIGAND FREE ENERGY PREDICTED BY IDOCK:   -0.73 KCAL/MOL
REMARK 927      BINDING AFFINITY PREDICTED BY RF-SCORE:    0.00 PKD
ROOT
HETATM    1  C   UNK A   0     -12.273  12.792  64.058  1.00  0.00    -0.518 C  
HETATM    2  C   UNK A   0     -11.415  13.281  65.201  1.00  0.00    -0.319 C  
HETATM    3  C   UNK A   0     -11.087  14.754  65.198  1.00  0.00    -0.389 C  
HETATM    4  C   UNK A   0     -10.358  12.286  65.619  1.00  0.00    -0.287 C  
HETATM    5  C   UNK A   0     -12.029  14.208  66.257  1.00  0.00    -0.448 C  
ENDROOT
BRANCH   5   6
HETATM    6  C   UNK A   0     -11.550  14.274  67.678  1.00  0.00    -0.368 C  
HETATM    7  N   UNK A   1     -12.405  13.785  68.639  1.00  0.00    -0.392 N  
HETATM    8  O   UNK A   0     -10.480  14.807  67.940  1.00  0.00    -0.242 OA 
HETATM    9  H   UNK A   1     -13.282  13.390  68.298  1.00  0.00     0.000 HD 
BRANCH   7  10
HETATM   10  C   UNK A   1     -12.222  13.764  70.020  1.00  0.00    -0.342 C  
HETATM   11  C   UNK A   1     -12.125  12.588  70.691  1.00  0.00    -0.312 C  
HETATM   12  C   UNK A   1     -12.166  14.969  70.940  1.00  0.00    -0.329 C  
HETATM   13  O   UNK A   1     -12.917  16.027  70.576  1.00  0.00    -0.337 OA 
HETATM   14  O   UNK A   1     -11.623  14.934  72.036  1.00  0.00    -0.363 OA 
BRANCH  11  15
HETATM   15  C   UNK A   1     -12.236  11.209  70.117  1.00  0.00    -0.417 C  
BRANCH  15  16
HETATM   16  C   UNK A   1     -12.526  10.069  71.112  1.00  0.00    -0.480 C  
BRANCH  16  17
HETATM   17  C   UNK A   1     -11.169   9.485  71.526  1.00  0.00    -0.437 C  
BRANCH  17  18
HETATM   18  C   UNK A   1     -11.226   8.263  72.435  1.00  0.00    -0.381 C  
BRANCH  18  19
HETATM   19  S   UNK A   1     -12.251   7.019  71.564  1.00  0.00    -0.384 SA 
BRANCH  19  20
HETATM   20  C   UNK A   1     -11.029   6.414  70.352  1.00  0.00    -0.308 C  
BRANCH  20  21
HETATM   21  C   UNK A   1     -10.244   5.222  70.922  1.00  0.00    -0.234 C  
HETATM   22  N   UNK A   1     -10.851   4.681  72.181  1.00  0.00    -0.044 NA 
HETATM   23  C   UNK A   1      -8.831   5.711  71.244  1.00  0.00    -0.135 C  
HETATM   24  O   UNK A   1      -7.949   5.894  70.422  1.00  0.00    -0.102 OA 
HETATM   25  O   UNK A   1      -8.691   5.971  72.571  1.00  0.00    -0.123 OA 
HETATM   26  H1  UNK A   1     -10.330   3.890  72.560  1.00  0.00     0.000 HD 
HETATM   27  H2  UNK A   1     -11.832   4.440  72.041  1.00  0.00     0.000 HD 
ENDBRANCH  20  21
ENDBRANCH  19  20
ENDBRANCH  18  19
ENDBRANCH  17  18
ENDBRANCH  16  17
ENDBRANCH  15  16
ENDBRANCH  11  15
ENDBRANCH   7  10
ENDBRANCH   5   6
TORSDOF 9
ENDMDL
MODEL      107
REMARK 921   NORMALIZED FREE ENERGY PREDICTED BY IDOCK:   -4.88 KCAL/MOL
REMARK 922        TOTAL FREE ENERGY PREDICTED BY IDOCK:   -8.41 KCAL/MOL
REMARK 923 INTER-LIGAND FREE ENERGY PREDICTED BY IDOCK:   -7.38 KCAL/MOL
REMARK 924 INTRA-LIGAND FREE ENERGY PREDICTED BY IDOCK:   -1.04 KCAL/MOL
REMARK 927      BINDING AFFINITY PREDICTED BY RF-SCORE:    0.00 PKD
ROOT
HETATM    1  C   UNK A   0     -12.869  11.853  63.606  1.00  0.00    -0.429 C  
HETATM    2  C   UNK A   0     -11.814  12.409  64.533  1.00  0.00    -0.452 C  
HETATM    3  C   UNK A   0     -10.454  12.644  63.921  1.00  0.00    -0.441 C  
HETATM    4  C   UNK A   0     -11.911  11.865  65.939  1.00  0.00    -0.101 C  
HETATM    5  C   UNK A   0     -11.303  13.839  64.318  1.00  0.00    -0.344 C  
ENDROOT
BRANCH   5   6
HETATM    6  C   UNK A   0     -10.771  14.702  65.425  1.00  0.00    -0.369 C  
HETATM    7  N   UNK A   1      -9.425  14.986  65.391  1.00  0.00    -0.392 N  
HETATM    8  O   UNK A   0     -11.510  15.058  66.334  1.00  0.00    -0.321 OA 
HETATM    9  H   UNK A   1      -8.909  14.610  64.596  1.00  0.00     0.000 HD 
BRANCH   7  10
HETATM   10  C   UNK A   1      -8.680  15.724  66.309  1.00  0.00    -0.323 C  
HETATM   11  C   UNK A   1      -7.979  15.105  67.293  1.00  0.00    -0.234 C  
HETATM   12  C   UNK A   1      -8.589  17.236  66.386  1.00  0.00    -0.259 C  
HETATM   13  O   UNK A   1      -9.689  17.916  66.012  1.00  0.00    -0.505 OA 
HETATM   14  O   UNK A   1      -7.649  17.810  66.921  1.00  0.00    -0.192 OA 
BRANCH  11  15
HETATM   15  C   UNK A   1      -7.924  13.635  67.575  1.00  0.00    -0.189 C  
BRANCH  15  16
HETATM   16  C   UNK A   1      -9.161  13.016  68.255  1.00  0.00    -0.191 C  
BRANCH  16  17
HETATM   17  C   UNK A   1      -9.120  11.510  67.964  1.00  0.00    -0.174 C  
BRANCH  17  18
HETATM   18  C   UNK A   1      -8.987  10.607  69.185  1.00  0.00    -0.128 C  
BRANCH  18  19
HETATM   19  S   UNK A   1     -10.407   9.451  69.129  1.00  0.00    -0.216 SA 
BRANCH  19  20
HETATM   20  C   UNK A   1     -11.448  10.184  70.435  1.00  0.00    -0.322 C  
BRANCH  20  21
HETATM   21  C   UNK A   1     -11.447   9.298  71.691  1.00  0.00    -0.398 C  
HETATM   22  N   UNK A   1     -10.470   8.166  71.597  1.00  0.00    -0.217 NA 
HETATM   23  C   UNK A   1     -12.850   8.707  71.840  1.00  0.00    -0.369 C  
HETATM   24  O   UNK A   1     -13.821   9.308  72.270  1.00  0.00    -0.453 OA 
HETATM   25  O   UNK A   1     -12.897   7.429  71.382  1.00  0.00    -0.358 OA 
HETATM   26  H1  UNK A   1     -10.469   7.578  72.430  1.00  0.00     0.000 HD 
HETATM   27  H2  UNK A   1      -9.531   8.508  71.389  1.00  0.00     0.000 HD 
ENDBRANCH  20  21
ENDBRANCH  19  20
ENDBRANCH  18  19
ENDBRANCH  17  18
ENDBRANCH  16  17
ENDBRANCH  15  16
ENDBRANCH  11  15
ENDBRANCH   7  10
ENDBRANCH   5   6
TORSDOF 9
ENDMDL
MODEL      108
REMARK 921   NORMALIZED FREE ENERGY PREDICTED BY IDOCK:   -4.88 KCAL/MOL
REMARK 922        TOTAL FREE ENERGY PREDICTED BY IDOCK:   -8.41 KCAL/MOL
REMARK 923 INTER-LIGAND FREE ENERGY PREDICTED BY IDOCK:   -7.49 KCAL/MOL
REMARK 924 INTRA-LIGAND FREE ENERGY PREDICTED BY IDOCK:   -0.93 KCAL/MOL
REMARK 927      BINDING AFFINITY PREDICTED BY RF-SCORE:    0.00 PKD
ROOT
HETATM    1  C   UNK A   0     -12.474  15.678  74.208  1.00  0.00    -0.804 C  
HETATM    2  C   UNK A   0     -12.764  15.567  72.729  1.00  0.00    -0.532 C  
HETATM    3  C   UNK A   0     -11.882  16.388  71.820  1.00  0.00    -0.388 C  
HETATM    4  C   UNK A   0     -14.237  15.443  72.421  1.00  0.00    -0.584 C  
HETATM    5  C   UNK A   0     -11.747  14.874  71.814  1.00  0.00    -0.398 C  
ENDROOT
BRANCH   5   6
HETATM    6  C   UNK A   0     -12.123  14.172  70.542  1.00  0.00    -0.350 C  
HETATM    7  N   UNK A   1     -11.761  12.849  70.439  1.00  0.00    -0.546 N  
HETATM    8  O   UNK A   0     -12.660  14.794  69.634  1.00  0.00    -0.200 OA 
HETATM    9  H   UNK A   1     -11.293  12.449  71.253  1.00  0.00     0.000 HD 
BRANCH   7  10
HETATM   10  C   UNK A   1     -11.953  11.988  69.360  1.00  0.00    -0.275 C  
HETATM   11  C   UNK A   1     -12.442  10.736  69.548  1.00  0.00    -0.090 C  
HETATM   12  C   UNK A   1     -11.614  12.273  67.909  1.00  0.00    -0.354 C  
HETATM   13  O   UNK A   1     -10.552  13.072  67.695  1.00  0.00    -0.221 OA 
HETATM   14  O   UNK A   1     -12.149  11.679  66.982  1.00  0.00    -0.547 OA 
BRANCH  11  15
HETATM   15  C   UNK A   1     -12.789  10.089  70.854  1.00  0.00    -0.408 C  
BRANCH  15  16
HETATM   16  C   UNK A   1     -11.640   9.388  71.604  1.00  0.00    -0.466 C  
BRANCH  16  17
HETATM   17  C   UNK A   1     -11.319   8.105  70.825  1.00  0.00    -0.283 C  
BRANCH  17  18
HETATM   18  C   UNK A   1      -9.849   7.706  70.789  1.00  0.00    -0.177 C  
BRANCH  18  19
HETATM   19  S   UNK A   1      -8.954   9.106  70.017  1.00  0.00    -0.206 SA 
BRANCH  19  20
HETATM   20  C   UNK A   1      -9.371   8.806  68.267  1.00  0.00    -0.137 C  
BRANCH  20  21
HETATM   21  C   UNK A   1      -8.104   8.815  67.397  1.00  0.00    -0.105 C  
HETATM   22  N   UNK A   1      -6.879   8.406  68.160  1.00  0.00    -0.068 NA 
HETATM   23  C   UNK A   1      -7.898  10.245  66.894  1.00  0.00    -0.112 C  
HETATM   24  O   UNK A   1      -8.522  10.763  65.983  1.00  0.00    -0.160 OA 
HETATM   25  O   UNK A   1      -6.959  10.896  67.630  1.00  0.00    -0.079 OA 
HETATM   26  H1  UNK A   1      -6.038   8.412  67.583  1.00  0.00     0.000 HD 
HETATM   27  H2  UNK A   1      -7.011   7.499  68.606  1.00  0.00     0.000 HD 
ENDBRANCH  20  21
ENDBRANCH  19  20
ENDBRANCH  18  19
ENDBRANCH  17  18
ENDBRANCH  16  17
ENDBRANCH  15  16
ENDBRANCH  11  15
ENDBRANCH   7  10
ENDBRANCH   5   6
TORSDOF 9
ENDMDL
MODEL      109
REMARK 921   NORMALIZED FREE ENERGY PREDICTED BY IDOCK:   -4.88 KCAL/MOL
REMARK 922        TOTAL FREE ENERGY PREDICTED BY IDOCK:   -8.41 KCAL/MOL
REMARK 923 INTER-LIGAND FREE ENERGY PREDICTED BY IDOCK:   -7.23 KCAL/MOL
REMARK 924 INTRA-LIGAND FREE ENERGY PREDICTED BY IDOCK:   -1.18 KCAL/MOL
REMARK 927      BINDING AFFINITY PREDICTED BY RF-SCORE:    0.00 PKD
ROOT
HETATM    1  C   UNK A   0     -12.483  11.997  63.359  1.00  0.00    -0.625 C  
HETATM    2  C   UNK A   0     -11.541  12.330  64.492  1.00  0.00    -0.418 C  
HETATM    3  C   UNK A   0     -11.509  13.777  64.921  1.00  0.00    -0.351 C  
HETATM    4  C   UNK A   0     -10.254  11.542  64.446  1.00  0.00    -0.350 C  
HETATM    5  C   UNK A   0     -12.118  12.743  65.852  1.00  0.00    -0.485 C  
ENDROOT
BRANCH   5   6
HETATM    6  C   UNK A   0     -11.408  12.513  67.155  1.00  0.00    -0.324 C  
HETATM    7  N   UNK A   1     -12.013  11.654  68.043  1.00  0.00    -0.218 N  
HETATM    8  O   UNK A   0     -10.383  13.131  67.411  1.00  0.00    -0.236 OA 
HETATM    9  H   UNK A   1     -12.880  11.220  67.724  1.00  0.00     0.000 HD 
BRANCH   7  10
HETATM   10  C   UNK A   1     -11.589  11.302  69.323  1.00  0.00    -0.322 C  
HETATM   11  C   UNK A   1     -11.972  12.026  70.405  1.00  0.00    -0.379 C  
HETATM   12  C   UNK A   1     -10.647  10.168  69.679  1.00  0.00    -0.257 C  
HETATM   13  O   UNK A   1      -9.700   9.876  68.768  1.00  0.00    -0.152 OA 
HETATM   14  O   UNK A   1     -10.623   9.661  70.793  1.00  0.00    -0.291 OA 
BRANCH  11  15
HETATM   15  C   UNK A   1     -12.815  13.265  70.412  1.00  0.00     0.015 C  
BRANCH  15  16
HETATM   16  C   UNK A   1     -12.137  14.557  70.907  1.00  0.00    -0.404 C  
BRANCH  16  17
HETATM   17  C   UNK A   1     -11.858  15.416  69.666  1.00  0.00    -0.368 C  
BRANCH  17  18
HETATM   18  C   UNK A   1     -10.644  16.333  69.759  1.00  0.00    -0.316 C  
BRANCH  18  19
HETATM   19  S   UNK A   1     -10.541  17.215  68.157  1.00  0.00    -0.372 SA 
BRANCH  19  20
HETATM   20  C   UNK A   1      -9.196  16.265  67.372  1.00  0.00    -0.211 C  
BRANCH  20  21
HETATM   21  C   UNK A   1      -7.922  16.317  68.231  1.00  0.00    -0.166 C  
HETATM   22  N   UNK A   1      -7.428  17.715  68.445  1.00  0.00    -0.243 NA 
HETATM   23  C   UNK A   1      -6.835  15.534  67.492  1.00  0.00    -0.195 C  
HETATM   24  O   UNK A   1      -6.754  14.318  67.451  1.00  0.00    -0.259 OA 
HETATM   25  O   UNK A   1      -5.989  16.369  66.834  1.00  0.00    -0.304 OA 
HETATM   26  H1  UNK A   1      -6.583  17.750  69.015  1.00  0.00     0.000 HD 
HETATM   27  H2  UNK A   1      -8.160  18.306  68.840  1.00  0.00     0.000 HD 
ENDBRANCH  20  21
ENDBRANCH  19  20
ENDBRANCH  18  19
ENDBRANCH  17  18
ENDBRANCH  16  17
ENDBRANCH  15  16
ENDBRANCH  11  15
ENDBRANCH   7  10
ENDBRANCH   5   6
TORSDOF 9
ENDMDL
MODEL      110
REMARK 921   NORMALIZED FREE ENERGY PREDICTED BY IDOCK:   -4.86 KCAL/MOL
REMARK 922        TOTAL FREE ENERGY PREDICTED BY IDOCK:   -8.38 KCAL/MOL
REMARK 923 INTER-LIGAND FREE ENERGY PREDICTED BY IDOCK:   -7.61 KCAL/MOL
REMARK 924 INTRA-LIGAND FREE ENERGY PREDICTED BY IDOCK:   -0.77 KCAL/MOL
REMARK 927      BINDING AFFINITY PREDICTED BY RF-SCORE:    0.00 PKD
ROOT
HETATM    1  C   UNK A   0     -10.095  19.933  69.026  1.00  0.00    -0.395 C  
HETATM    2  C   UNK A   0      -9.735  19.296  67.704  1.00  0.00    -0.412 C  
HETATM    3  C   UNK A   0      -8.260  19.130  67.430  1.00  0.00    -0.302 C  
HETATM    4  C   UNK A   0     -10.658  19.700  66.579  1.00  0.00    -0.591 C  
HETATM    5  C   UNK A   0      -9.107  17.896  67.691  1.00  0.00    -0.250 C  
ENDROOT
BRANCH   5   6
HETATM    6  C   UNK A   0      -9.259  16.933  66.551  1.00  0.00    -0.269 C  
HETATM    7  N   UNK A   1     -10.342  16.086  66.599  1.00  0.00    -0.293 N  
HETATM    8  O   UNK A   0      -8.404  16.881  65.675  1.00  0.00    -0.379 OA 
HETATM    9  H   UNK A   1     -10.969  16.209  67.395  1.00  0.00     0.000 HD 
BRANCH   7  10
HETATM   10  C   UNK A   1     -10.688  15.082  65.697  1.00  0.00    -0.354 C  
HETATM   11  C   UNK A   1     -10.088  13.866  65.746  1.00  0.00    -0.336 C  
HETATM   12  C   UNK A   1     -11.681  15.201  64.556  1.00  0.00    -0.328 C  
HETATM   13  O   UNK A   1     -11.776  16.413  63.977  1.00  0.00    -1.044 OA 
HETATM   14  O   UNK A   1     -12.233  14.226  64.064  1.00  0.00    -0.555 OA 
BRANCH  11  15
HETATM   15  C   UNK A   1      -8.996  13.434  66.677  1.00  0.00    -0.135 C  
BRANCH  15  16
HETATM   16  C   UNK A   1      -9.437  12.876  68.044  1.00  0.00    -0.213 C  
BRANCH  16  17
HETATM   17  C   UNK A   1      -8.702  11.543  68.237  1.00  0.00    -0.162 C  
BRANCH  17  18
HETATM   18  C   UNK A   1      -9.584  10.300  68.256  1.00  0.00    -0.142 C  
BRANCH  18  19
HETATM   19  S   UNK A   1      -8.869   9.141  67.031  1.00  0.00    -0.123 SA 
BRANCH  19  20
HETATM   20  C   UNK A   1      -8.667  10.277  65.618  1.00  0.00    -0.162 C  
BRANCH  20  21
HETATM   21  C   UNK A   1      -8.874   9.533  64.289  1.00  0.00    -0.213 C  
HETATM   22  N   UNK A   1      -7.602   8.951  63.751  1.00  0.00    -0.116 NA 
HETATM   23  C   UNK A   1      -9.404  10.545  63.271  1.00  0.00    -0.314 C  
HETATM   24  O   UNK A   1     -10.554  10.949  63.219  1.00  0.00    -0.253 OA 
HETATM   25  O   UNK A   1      -8.412  10.985  62.453  1.00  0.00    -0.265 OA 
HETATM   26  H1  UNK A   1      -7.739   8.457  62.869  1.00  0.00     0.000 HD 
HETATM   27  H2  UNK A   1      -7.154   8.348  64.442  1.00  0.00     0.000 HD 
ENDBRANCH  20  21
ENDBRANCH  19  20
ENDBRANCH  18  19
ENDBRANCH  17  18
ENDBRANCH  16  17
ENDBRANCH  15  16
ENDBRANCH  11  15
ENDBRANCH   7  10
ENDBRANCH   5   6
TORSDOF 9
ENDMDL
MODEL      111
REMARK 921   NORMALIZED FREE ENERGY PREDICTED BY IDOCK:   -4.85 KCAL/MOL
REMARK 922        TOTAL FREE ENERGY PREDICTED BY IDOCK:   -8.36 KCAL/MOL
REMARK 923 INTER-LIGAND FREE ENERGY PREDICTED BY IDOCK:   -7.30 KCAL/MOL
REMARK 924 INTRA-LIGAND FREE ENERGY PREDICTED BY IDOCK:   -1.06 KCAL/MOL
REMARK 927      BINDING AFFINITY PREDICTED BY RF-SCORE:    0.00 PKD
ROOT
HETATM    1  C   UNK A   0      -8.387   7.800  65.405  1.00  0.00    -0.141 C  
HETATM    2  C   UNK A   0      -8.633   8.109  66.863  1.00  0.00    -0.126 C  
HETATM    3  C   UNK A   0      -9.409   9.373  67.148  1.00  0.00    -0.172 C  
HETATM    4  C   UNK A   0      -7.474   7.733  67.754  1.00  0.00    -0.104 C  
HETATM    5  C   UNK A   0     -10.061   8.027  67.418  1.00  0.00    -0.294 C  
ENDROOT
BRANCH   5   6
HETATM    6  C   UNK A   0     -10.374   7.708  68.850  1.00  0.00    -0.212 C  
HETATM    7  N   UNK A   1     -10.141   8.706  69.769  1.00  0.00    -0.194 N  
HETATM    8  O   UNK A   0     -10.748   6.584  69.160  1.00  0.00    -0.224 OA 
HETATM    9  H   UNK A   1      -9.803   9.591  69.390  1.00  0.00     0.000 HD 
BRANCH   7  10
HETATM   10  C   UNK A   1     -10.308   8.656  71.151  1.00  0.00    -0.230 C  
HETATM   11  C   UNK A   1     -11.366   9.264  71.746  1.00  0.00    -0.437 C  
HETATM   12  C   UNK A   1      -9.367   8.009  72.149  1.00  0.00    -0.190 C  
HETATM   13  O   UNK A   1      -8.058   8.031  71.830  1.00  0.00    -0.100 OA 
HETATM   14  O   UNK A   1      -9.735   7.648  73.259  1.00  0.00    -0.238 OA 
BRANCH  11  15
HETATM   15  C   UNK A   1     -12.434  10.075  71.078  1.00  0.00    -0.460 C  
BRANCH  15  16
HETATM   16  C   UNK A   1     -12.086  11.541  70.754  1.00  0.00    -0.410 C  
BRANCH  16  17
HETATM   17  C   UNK A   1     -12.065  11.664  69.224  1.00  0.00    -0.323 C  
BRANCH  17  18
HETATM   18  C   UNK A   1     -10.978  12.564  68.651  1.00  0.00    -0.255 C  
BRANCH  18  19
HETATM   19  S   UNK A   1     -11.808  14.116  68.140  1.00  0.00    -0.336 SA 
BRANCH  19  20
HETATM   20  C   UNK A   1     -11.333  14.150  66.380  1.00  0.00    -0.338 C  
BRANCH  20  21
HETATM   21  C   UNK A   1     -12.573  14.025  65.480  1.00  0.00    -0.516 C  
HETATM   22  N   UNK A   1     -12.943  12.599  65.204  1.00  0.00    -0.713 NA 
HETATM   23  C   UNK A   1     -12.246  14.700  64.147  1.00  0.00    -0.315 C  
HETATM   24  O   UNK A   1     -12.235  15.905  63.957  1.00  0.00    -0.719 OA 
HETATM   25  O   UNK A   1     -11.914  13.784  63.199  1.00  0.00    -0.255 OA 
HETATM   26  H1  UNK A   1     -13.765  12.515  64.607  1.00  0.00     0.000 HD 
HETATM   27  H2  UNK A   1     -13.066  12.078  66.072  1.00  0.00     0.000 HD 
ENDBRANCH  20  21
ENDBRANCH  19  20
ENDBRANCH  18  19
ENDBRANCH  17  18
ENDBRANCH  16  17
ENDBRANCH  15  16
ENDBRANCH  11  15
ENDBRANCH   7  10
ENDBRANCH   5   6
TORSDOF 9
ENDMDL
MODEL      112
REMARK 921   NORMALIZED FREE ENERGY PREDICTED BY IDOCK:   -4.84 KCAL/MOL
REMARK 922        TOTAL FREE ENERGY PREDICTED BY IDOCK:   -8.35 KCAL/MOL
REMARK 923 INTER-LIGAND FREE ENERGY PREDICTED BY IDOCK:   -7.54 KCAL/MOL
REMARK 924 INTRA-LIGAND FREE ENERGY PREDICTED BY IDOCK:   -0.81 KCAL/MOL
REMARK 927      BINDING AFFINITY PREDICTED BY RF-SCORE:    0.00 PKD
ROOT
HETATM    1  C   UNK A   0      -8.265  19.415  66.042  1.00  0.00    -0.245 C  
HETATM    2  C   UNK A   0      -8.965  19.030  67.325  1.00  0.00    -0.308 C  
HETATM    3  C   UNK A   0     -10.424  19.404  67.420  1.00  0.00    -0.581 C  
HETATM    4  C   UNK A   0      -8.084  19.162  68.545  1.00  0.00    -0.394 C  
HETATM    5  C   UNK A   0     -10.042  17.939  67.295  1.00  0.00    -0.344 C  
ENDROOT
BRANCH   5   6
HETATM    6  C   UNK A   0     -10.362  17.060  68.469  1.00  0.00    -0.359 C  
HETATM    7  N   UNK A   1     -10.514  15.718  68.210  1.00  0.00    -0.252 N  
HETATM    8  O   UNK A   0     -10.543  17.556  69.574  1.00  0.00    -0.163 OA 
HETATM    9  H   UNK A   1     -10.365  15.430  67.242  1.00  0.00     0.000 HD 
BRANCH   7  10
HETATM   10  C   UNK A   1     -10.848  14.703  69.105  1.00  0.00    -0.259 C  
HETATM   11  C   UNK A   1     -10.213  13.504  69.065  1.00  0.00     0.025 C  
HETATM   12  C   UNK A   1     -11.940  14.753  70.156  1.00  0.00    -0.312 C  
HETATM   13  O   UNK A   1     -13.025  15.490  69.849  1.00  0.00    -0.082 OA 
HETATM   14  O   UNK A   1     -11.933  14.032  71.145  1.00  0.00    -0.317 OA 
BRANCH  11  15
HETATM   15  C   UNK A   1      -9.155  13.074  68.095  1.00  0.00    -0.204 C  
BRANCH  15  16
HETATM   16  C   UNK A   1      -9.138  11.582  67.710  1.00  0.00    -0.165 C  
BRANCH  16  17
HETATM   17  C   UNK A   1      -8.075  11.418  66.615  1.00  0.00    -0.155 C  
BRANCH  17  18
HETATM   18  C   UNK A   1      -8.515  10.639  65.381  1.00  0.00    -0.160 C  
BRANCH  18  19
HETATM   19  S   UNK A   1     -10.345  10.571  65.440  1.00  0.00    -0.167 SA 
BRANCH  19  20
HETATM   20  C   UNK A   1     -10.737  11.978  64.348  1.00  0.00    -0.323 C  
BRANCH  20  21
HETATM   21  C   UNK A   1     -12.214  12.380  64.489  1.00  0.00    -0.431 C  
HETATM   22  N   UNK A   1     -12.983  12.202  63.215  1.00  0.00    -0.745 NA 
HETATM   23  C   UNK A   1     -12.255  13.861  64.868  1.00  0.00    -0.422 C  
HETATM   24  O   UNK A   1     -12.032  14.305  65.982  1.00  0.00    -0.385 OA 
HETATM   25  O   UNK A   1     -12.522  14.640  63.786  1.00  0.00    -0.799 OA 
HETATM   26  H1  UNK A   1     -13.963  12.469  63.308  1.00  0.00     0.000 HD 
HETATM   27  H2  UNK A   1     -12.896  11.248  62.864  1.00  0.00     0.000 HD 
ENDBRANCH  20  21
ENDBRANCH  19  20
ENDBRANCH  18  19
ENDBRANCH  17  18
ENDBRANCH  16  17
ENDBRANCH  15  16
ENDBRANCH  11  15
ENDBRANCH   7  10
ENDBRANCH   5   6
TORSDOF 9
ENDMDL
MODEL      113
REMARK 921   NORMALIZED FREE ENERGY PREDICTED BY IDOCK:   -4.83 KCAL/MOL
REMARK 922        TOTAL FREE ENERGY PREDICTED BY IDOCK:   -8.34 KCAL/MOL
REMARK 923 INTER-LIGAND FREE ENERGY PREDICTED BY IDOCK:   -6.78 KCAL/MOL
REMARK 924 INTRA-LIGAND FREE ENERGY PREDICTED BY IDOCK:   -1.55 KCAL/MOL
REMARK 927      BINDING AFFINITY PREDICTED BY RF-SCORE:    0.00 PKD
ROOT
HETATM    1  C   UNK A   0     -12.285  12.686  63.333  1.00  0.00    -0.610 C  
HETATM    2  C   UNK A   0     -11.597  12.984  64.644  1.00  0.00    -0.389 C  
HETATM    3  C   UNK A   0     -11.778  14.383  65.182  1.00  0.00    -0.372 C  
HETATM    4  C   UNK A   0     -10.254  12.306  64.778  1.00  0.00    -0.308 C  
HETATM    5  C   UNK A   0     -12.444  13.222  65.901  1.00  0.00    -0.433 C  
ENDROOT
BRANCH   5   6
HETATM    6  C   UNK A   0     -11.961  12.927  67.291  1.00  0.00    -0.309 C  
HETATM    7  N   UNK A   1     -11.725  11.606  67.594  1.00  0.00    -0.270 N  
HETATM    8  O   UNK A   0     -11.863  13.832  68.110  1.00  0.00    -0.343 OA 
HETATM    9  H   UNK A   1     -11.869  10.941  66.834  1.00  0.00     0.000 HD 
BRANCH   7  10
HETATM   10  C   UNK A   1     -11.314  11.065  68.811  1.00  0.00    -0.283 C  
HETATM   11  C   UNK A   1     -10.032  10.658  68.993  1.00  0.00    -0.226 C  
HETATM   12  C   UNK A   1     -12.190  10.806  70.022  1.00  0.00    -0.334 C  
HETATM   13  O   UNK A   1     -13.472  10.484  69.768  1.00  0.00     0.203 OA 
HETATM   14  O   UNK A   1     -11.732  10.714  71.154  1.00  0.00    -0.305 OA 
BRANCH  11  15
HETATM   15  C   UNK A   1      -8.927  10.674  67.982  1.00  0.00    -0.140 C  
BRANCH  15  16
HETATM   16  C   UNK A   1      -7.661  11.470  68.356  1.00  0.00    -0.129 C  
BRANCH  16  17
HETATM   17  C   UNK A   1      -7.983  12.952  68.121  1.00  0.00    -0.153 C  
BRANCH  17  18
HETATM   18  C   UNK A   1      -6.944  13.942  68.634  1.00  0.00    -0.108 C  
BRANCH  18  19
HETATM   19  S   UNK A   1      -6.968  15.361  67.476  1.00  0.00    -0.192 SA 
BRANCH  19  20
HETATM   20  C   UNK A   1      -8.760  15.460  67.152  1.00  0.00    -0.220 C  
BRANCH  20  21
HETATM   21  C   UNK A   1      -9.318  16.823  67.590  1.00  0.00    -0.228 C  
HETATM   22  N   UNK A   1     -10.741  16.741  68.054  1.00  0.00    -0.352 NA 
HETATM   23  C   UNK A   1      -9.265  17.755  66.378  1.00  0.00    -0.240 C  
HETATM   24  O   UNK A   1      -8.258  18.305  65.961  1.00  0.00    -0.479 OA 
HETATM   25  O   UNK A   1     -10.481  17.857  65.780  1.00  0.00    -0.564 OA 
HETATM   26  H1  UNK A   1     -11.111  17.646  68.345  1.00  0.00     0.000 HD 
HETATM   27  H2  UNK A   1     -10.845  16.047  68.795  1.00  0.00     0.000 HD 
ENDBRANCH  20  21
ENDBRANCH  19  20
ENDBRANCH  18  19
ENDBRANCH  17  18
ENDBRANCH  16  17
ENDBRANCH  15  16
ENDBRANCH  11  15
ENDBRANCH   7  10
ENDBRANCH   5   6
TORSDOF 9
ENDMDL
MODEL      114
REMARK 921   NORMALIZED FREE ENERGY PREDICTED BY IDOCK:   -4.81 KCAL/MOL
REMARK 922        TOTAL FREE ENERGY PREDICTED BY IDOCK:   -8.30 KCAL/MOL
REMARK 923 INTER-LIGAND FREE ENERGY PREDICTED BY IDOCK:   -7.13 KCAL/MOL
REMARK 924 INTRA-LIGAND FREE ENERGY PREDICTED BY IDOCK:   -1.17 KCAL/MOL
REMARK 927      BINDING AFFINITY PREDICTED BY RF-SCORE:    0.00 PKD
ROOT
HETATM    1  C   UNK A   0      -9.835   3.878  70.755  1.00  0.00    -0.211 C  
HETATM    2  C   UNK A   0      -9.520   5.323  71.058  1.00  0.00    -0.211 C  
HETATM    3  C   UNK A   0      -8.114   5.773  70.743  1.00  0.00    -0.118 C  
HETATM    4  C   UNK A   0     -10.199   5.830  72.308  1.00  0.00    -0.233 C  
HETATM    5  C   UNK A   0      -9.264   6.295  69.899  1.00  0.00    -0.155 C  
ENDROOT
BRANCH   5   6
HETATM    6  C   UNK A   0      -9.539   7.768  69.979  1.00  0.00    -0.161 C  
HETATM    7  N   UNK A   1     -10.694   8.213  69.378  1.00  0.00    -0.353 N  
HETATM    8  O   UNK A   0      -8.721   8.518  70.498  1.00  0.00    -0.136 OA 
HETATM    9  H   UNK A   1     -11.282   7.494  68.954  1.00  0.00     0.000 HD 
BRANCH   7  10
HETATM   10  C   UNK A   1     -11.160   9.522  69.275  1.00  0.00    -0.082 C  
HETATM   11  C   UNK A   1     -10.964  10.243  68.142  1.00  0.00    -0.328 C  
HETATM   12  C   UNK A   1     -11.861  10.316  70.361  1.00  0.00    -0.309 C  
HETATM   13  O   UNK A   1     -11.492  10.041  71.627  1.00  0.00    -0.282 OA 
HETATM   14  O   UNK A   1     -12.582  11.272  70.112  1.00  0.00    -0.224 OA 
BRANCH  11  15
HETATM   15  C   UNK A   1     -10.226   9.809  66.912  1.00  0.00    -0.310 C  
BRANCH  15  16
HETATM   16  C   UNK A   1      -8.749  10.235  66.808  1.00  0.00    -0.132 C  
BRANCH  16  17
HETATM   17  C   UNK A   1      -8.520  10.697  65.362  1.00  0.00    -0.162 C  
BRANCH  17  18
HETATM   18  C   UNK A   1      -9.412  10.043  64.313  1.00  0.00    -0.273 C  
BRANCH  18  19
HETATM   19  S   UNK A   1      -9.798  11.344  63.082  1.00  0.00    -0.371 SA 
BRANCH  19  20
HETATM   20  C   UNK A   1     -10.492  12.616  64.190  1.00  0.00    -0.413 C  
BRANCH  20  21
HETATM   21  C   UNK A   1     -11.897  12.214  64.666  1.00  0.00    -0.328 C  
HETATM   22  N   UNK A   1     -12.882  12.122  63.539  1.00  0.00    -0.796 NA 
HETATM   23  C   UNK A   1     -12.382  13.293  65.636  1.00  0.00    -0.465 C  
HETATM   24  O   UNK A   1     -12.025  13.401  66.797  1.00  0.00    -0.383 OA 
HETATM   25  O   UNK A   1     -13.232  14.160  65.025  1.00  0.00    -0.691 OA 
HETATM   26  H1  UNK A   1     -13.815  11.856  63.854  1.00  0.00     0.000 HD 
HETATM   27  H2  UNK A   1     -12.547  11.490  62.811  1.00  0.00     0.000 HD 
ENDBRANCH  20  21
ENDBRANCH  19  20
ENDBRANCH  18  19
ENDBRANCH  17  18
ENDBRANCH  16  17
ENDBRANCH  15  16
ENDBRANCH  11  15
ENDBRANCH   7  10
ENDBRANCH   5   6
TORSDOF 9
ENDMDL
MODEL      115
REMARK 921   NORMALIZED FREE ENERGY PREDICTED BY IDOCK:   -4.80 KCAL/MOL
REMARK 922        TOTAL FREE ENERGY PREDICTED BY IDOCK:   -8.29 KCAL/MOL
REMARK 923 INTER-LIGAND FREE ENERGY PREDICTED BY IDOCK:   -7.35 KCAL/MOL
REMARK 924 INTRA-LIGAND FREE ENERGY PREDICTED BY IDOCK:   -0.94 KCAL/MOL
REMARK 927      BINDING AFFINITY PREDICTED BY RF-SCORE:    0.00 PKD
ROOT
HETATM    1  C   UNK A   0      -9.084  20.103  67.161  1.00  0.00    -0.489 C  
HETATM    2  C   UNK A   0      -9.266  18.605  67.089  1.00  0.00    -0.294 C  
HETATM    3  C   UNK A   0     -10.238  18.009  68.078  1.00  0.00    -0.390 C  
HETATM    4  C   UNK A   0      -7.988  17.866  66.767  1.00  0.00    -0.259 C  
HETATM    5  C   UNK A   0     -10.603  18.033  66.604  1.00  0.00    -0.268 C  
ENDROOT
BRANCH   5   6
HETATM    6  C   UNK A   0     -10.735  16.701  65.924  1.00  0.00    -0.175 C  
HETATM    7  N   UNK A   1     -10.916  15.608  66.739  1.00  0.00    -0.279 N  
HETATM    8  O   UNK A   0     -10.611  16.619  64.708  1.00  0.00    -0.685 OA 
HETATM    9  H   UNK A   1     -10.976  15.803  67.739  1.00  0.00     0.000 HD 
BRANCH   7  10
HETATM   10  C   UNK A   1     -11.025  14.269  66.369  1.00  0.00    -0.311 C  
HETATM   11  C   UNK A   1      -9.993  13.409  66.558  1.00  0.00    -0.286 C  
HETATM   12  C   UNK A   1     -12.214  13.619  65.687  1.00  0.00    -0.454 C  
HETATM   13  O   UNK A   1     -12.919  14.403  64.849  1.00  0.00    -0.641 OA 
HETATM   14  O   UNK A   1     -12.425  12.415  65.745  1.00  0.00    -0.615 OA 
BRANCH  11  15
HETATM   15  C   UNK A   1      -8.639  13.730  67.112  1.00  0.00    -0.210 C  
BRANCH  15  16
HETATM   16  C   UNK A   1      -7.932  12.610  67.899  1.00  0.00    -0.156 C  
BRANCH  16  17
HETATM   17  C   UNK A   1      -8.475  11.279  67.361  1.00  0.00    -0.137 C  
BRANCH  17  18
HETATM   18  C   UNK A   1      -8.901  10.267  68.417  1.00  0.00    -0.129 C  
BRANCH  18  19
HETATM   19  S   UNK A   1     -10.529  10.828  69.043  1.00  0.00    -0.225 SA 
BRANCH  19  20
HETATM   20  C   UNK A   1     -10.734   9.673  70.439  1.00  0.00    -0.298 C  
BRANCH  20  21
HETATM   21  C   UNK A   1      -9.772   8.482  70.305  1.00  0.00    -0.171 C  
HETATM   22  N   UNK A   1     -10.490   7.171  70.200  1.00  0.00    -0.211 NA 
HETATM   23  C   UNK A   1      -8.899   8.450  71.561  1.00  0.00    -0.185 C  
HETATM   24  O   UNK A   1      -7.951   9.187  71.773  1.00  0.00    -0.340 OA 
HETATM   25  O   UNK A   1      -9.347   7.522  72.448  1.00  0.00    -0.139 OA 
HETATM   26  H1  UNK A   1      -9.852   6.380  70.111  1.00  0.00     0.000 HD 
HETATM   27  H2  UNK A   1     -11.166   7.183  69.436  1.00  0.00     0.000 HD 
ENDBRANCH  20  21
ENDBRANCH  19  20
ENDBRANCH  18  19
ENDBRANCH  17  18
ENDBRANCH  16  17
ENDBRANCH  15  16
ENDBRANCH  11  15
ENDBRANCH   7  10
ENDBRANCH   5   6
TORSDOF 9
ENDMDL
MODEL      116
REMARK 921   NORMALIZED FREE ENERGY PREDICTED BY IDOCK:   -4.79 KCAL/MOL
REMARK 922        TOTAL FREE ENERGY PREDICTED BY IDOCK:   -8.28 KCAL/MOL
REMARK 923 INTER-LIGAND FREE ENERGY PREDICTED BY IDOCK:   -7.20 KCAL/MOL
REMARK 924 INTRA-LIGAND FREE ENERGY PREDICTED BY IDOCK:   -1.08 KCAL/MOL
REMARK 927      BINDING AFFINITY PREDICTED BY RF-SCORE:    0.00 PKD
ROOT
HETATM    1  C   UNK A   0     -10.601  19.750  66.090  1.00  0.00    -0.569 C  
HETATM    2  C   UNK A   0     -10.098  18.411  66.575  1.00  0.00    -0.406 C  
HETATM    3  C   UNK A   0      -8.844  18.442  67.414  1.00  0.00    -0.262 C  
HETATM    4  C   UNK A   0     -10.289  17.303  65.566  1.00  0.00    -0.108 C  
HETATM    5  C   UNK A   0     -10.165  18.081  68.071  1.00  0.00    -0.390 C  
ENDROOT
BRANCH   5   6
HETATM    6  C   UNK A   0     -10.289  16.683  68.604  1.00  0.00    -0.304 C  
HETATM    7  N   UNK A   1     -11.530  16.097  68.513  1.00  0.00    -0.369 N  
HETATM    8  O   UNK A   0      -9.333  16.149  69.152  1.00  0.00    -0.230 OA 
HETATM    9  H   UNK A   1     -12.255  16.655  68.059  1.00  0.00     0.000 HD 
BRANCH   7  10
HETATM   10  C   UNK A   1     -11.920  14.837  68.963  1.00  0.00    -0.273 C  
HETATM   11  C   UNK A   1     -12.015  13.791  68.104  1.00  0.00    -0.394 C  
HETATM   12  C   UNK A   1     -12.331  14.474  70.377  1.00  0.00    -0.338 C  
HETATM   13  O   UNK A   1     -12.947  15.442  71.083  1.00  0.00    -0.414 OA 
HETATM   14  O   UNK A   1     -12.276  13.328  70.802  1.00  0.00    -0.358 OA 
BRANCH  11  15
HETATM   15  C   UNK A   1     -11.782  13.813  66.624  1.00  0.00    -0.421 C  
BRANCH  15  16
HETATM   16  C   UNK A   1     -11.811  12.452  65.901  1.00  0.00    -0.467 C  
BRANCH  16  17
HETATM   17  C   UNK A   1     -10.799  12.538  64.751  1.00  0.00    -0.332 C  
BRANCH  17  18
HETATM   18  C   UNK A   1     -10.554  11.241  63.990  1.00  0.00    -0.386 C  
BRANCH  18  19
HETATM   19  S   UNK A   1      -9.047  10.494  64.716  1.00  0.00    -0.226 SA 
BRANCH  19  20
HETATM   20  C   UNK A   1      -9.819   9.311  65.870  1.00  0.00    -0.265 C  
BRANCH  20  21
HETATM   21  C   UNK A   1      -9.677   9.797  67.321  1.00  0.00    -0.169 C  
HETATM   22  N   UNK A   1      -8.870  11.055  67.431  1.00  0.00    -0.137 NA 
HETATM   23  C   UNK A   1      -8.958   8.698  68.107  1.00  0.00    -0.141 C  
HETATM   24  O   UNK A   1      -9.478   7.669  68.507  1.00  0.00    -0.146 OA 
HETATM   25  O   UNK A   1      -7.640   8.987  68.264  1.00  0.00    -0.089 OA 
HETATM   26  H1  UNK A   1      -8.775  11.377  68.394  1.00  0.00     0.000 HD 
HETATM   27  H2  UNK A   1      -9.253  11.789  66.835  1.00  0.00     0.000 HD 
ENDBRANCH  20  21
ENDBRANCH  19  20
ENDBRANCH  18  19
ENDBRANCH  17  18
ENDBRANCH  16  17
ENDBRANCH  15  16
ENDBRANCH  11  15
ENDBRANCH   7  10
ENDBRANCH   5   6
TORSDOF 9
ENDMDL
MODEL      117
REMARK 921   NORMALIZED FREE ENERGY PREDICTED BY IDOCK:   -4.78 KCAL/MOL
REMARK 922        TOTAL FREE ENERGY PREDICTED BY IDOCK:   -8.27 KCAL/MOL
REMARK 923 INTER-LIGAND FREE ENERGY PREDICTED BY IDOCK:   -7.31 KCAL/MOL
REMARK 924 INTRA-LIGAND FREE ENERGY PREDICTED BY IDOCK:   -0.95 KCAL/MOL
REMARK 927      BINDING AFFINITY PREDICTED BY RF-SCORE:    0.00 PKD
ROOT
HETATM    1  C   UNK A   0     -13.423  13.682  72.211  1.00  0.00    -0.652 C  
HETATM    2  C   UNK A   0     -12.885  14.375  70.982  1.00  0.00    -0.423 C  
HETATM    3  C   UNK A   0     -11.427  14.766  71.029  1.00  0.00    -0.263 C  
HETATM    4  C   UNK A   0     -13.884  15.310  70.342  1.00  0.00     0.411 C  
HETATM    5  C   UNK A   0     -11.865  13.649  70.096  1.00  0.00    -0.351 C  
ENDROOT
BRANCH   5   6
HETATM    6  C   UNK A   0     -11.716  13.907  68.625  1.00  0.00    -0.361 C  
HETATM    7  N   UNK A   1     -11.800  12.812  67.796  1.00  0.00    -0.351 N  
HETATM    8  O   UNK A   0     -11.462  15.036  68.223  1.00  0.00    -0.305 OA 
HETATM    9  H   UNK A   1     -11.988  11.920  68.253  1.00  0.00     0.000 HD 
BRANCH   7  10
HETATM   10  C   UNK A   1     -11.659  12.772  66.410  1.00  0.00    -0.378 C  
HETATM   11  C   UNK A   1     -10.524  12.293  65.841  1.00  0.00    -0.288 C  
HETATM   12  C   UNK A   1     -12.660  13.277  65.389  1.00  0.00    -0.468 C  
HETATM   13  O   UNK A   1     -13.400  14.339  65.760  1.00  0.00    -0.422 OA 
HETATM   14  O   UNK A   1     -12.679  12.872  64.234  1.00  0.00    -0.652 OA 
BRANCH  11  15
HETATM   15  C   UNK A   1      -9.295  11.805  66.546  1.00  0.00    -0.217 C  
BRANCH  15  16
HETATM   16  C   UNK A   1      -8.842  10.367  66.226  1.00  0.00    -0.166 C  
BRANCH  16  17
HETATM   17  C   UNK A   1     -10.107   9.500  66.192  1.00  0.00    -0.326 C  
BRANCH  17  18
HETATM   18  C   UNK A   1     -10.099   8.286  67.114  1.00  0.00    -0.264 C  
BRANCH  18  19
HETATM   19  S   UNK A   1      -9.118   8.763  68.586  1.00  0.00    -0.141 SA 
BRANCH  19  20
HETATM   20  C   UNK A   1     -10.377   9.718  69.496  1.00  0.00    -0.230 C  
BRANCH  20  21
HETATM   21  C   UNK A   1     -10.522   9.195  70.933  1.00  0.00    -0.278 C  
HETATM   22  N   UNK A   1     -10.053   7.779  71.081  1.00  0.00    -0.187 NA 
HETATM   23  C   UNK A   1     -12.007   9.246  71.296  1.00  0.00    -0.340 C  
HETATM   24  O   UNK A   1     -12.617  10.256  71.606  1.00  0.00    -0.391 OA 
HETATM   25  O   UNK A   1     -12.585   8.022  71.179  1.00  0.00    -0.268 OA 
HETATM   26  H1  UNK A   1     -10.149   7.431  72.035  1.00  0.00     0.000 HD 
HETATM   27  H2  UNK A   1      -9.094   7.674  70.748  1.00  0.00     0.000 HD 
ENDBRANCH  20  21
ENDBRANCH  19  20
ENDBRANCH  18  19
ENDBRANCH  17  18
ENDBRANCH  16  17
ENDBRANCH  15  16
ENDBRANCH  11  15
ENDBRANCH   7  10
ENDBRANCH   5   6
TORSDOF 9
ENDMDL
MODEL      118
REMARK 921   NORMALIZED FREE ENERGY PREDICTED BY IDOCK:   -4.76 KCAL/MOL
REMARK 922        TOTAL FREE ENERGY PREDICTED BY IDOCK:   -8.24 KCAL/MOL
REMARK 923 INTER-LIGAND FREE ENERGY PREDICTED BY IDOCK:   -7.01 KCAL/MOL
REMARK 924 INTRA-LIGAND FREE ENERGY PREDICTED BY IDOCK:   -1.23 KCAL/MOL
REMARK 927      BINDING AFFINITY PREDICTED BY RF-SCORE:    0.00 PKD
ROOT
HETATM    1  C   UNK A   0     -12.285  14.499  64.088  1.00  0.00    -0.372 C  
HETATM    2  C   UNK A   0     -11.512  13.925  65.252  1.00  0.00    -0.319 C  
HETATM    3  C   UNK A   0     -12.274  13.789  66.548  1.00  0.00    -0.475 C  
HETATM    4  C   UNK A   0     -10.069  14.368  65.283  1.00  0.00    -0.387 C  
HETATM    5  C   UNK A   0     -11.880  12.535  65.785  1.00  0.00    -0.494 C  
ENDROOT
BRANCH   5   6
HETATM    6  C   UNK A   0     -10.898  11.621  66.459  1.00  0.00    -0.284 C  
HETATM    7  N   UNK A   1     -10.553  11.934  67.753  1.00  0.00    -0.198 N  
HETATM    8  O   UNK A   0     -10.395  10.696  65.835  1.00  0.00    -0.255 OA 
HETATM    9  H   UNK A   1     -11.021  12.747  68.156  1.00  0.00     0.000 HD 
BRANCH   7  10
HETATM   10  C   UNK A   1      -9.644  11.280  68.581  1.00  0.00    -0.190 C  
HETATM   11  C   UNK A   1     -10.068  10.582  69.666  1.00  0.00    -0.177 C  
HETATM   12  C   UNK A   1      -8.133  11.292  68.446  1.00  0.00    -0.143 C  
HETATM   13  O   UNK A   1      -7.592  12.418  67.943  1.00  0.00    -0.107 OA 
HETATM   14  O   UNK A   1      -7.425  10.416  68.925  1.00  0.00    -0.084 OA 
BRANCH  11  15
HETATM   15  C   UNK A   1     -11.477  10.442  70.155  1.00  0.00    -0.396 C  
BRANCH  15  16
HETATM   16  C   UNK A   1     -11.718   9.414  71.277  1.00  0.00    -0.432 C  
BRANCH  16  17
HETATM   17  C   UNK A   1     -10.343   8.862  71.676  1.00  0.00    -0.416 C  
BRANCH  17  18
HETATM   18  C   UNK A   1     -10.192   7.348  71.598  1.00  0.00    -0.188 C  
BRANCH  18  19
HETATM   19  S   UNK A   1     -11.704   6.722  70.773  1.00  0.00    -0.392 SA 
BRANCH  19  20
HETATM   20  C   UNK A   1     -10.945   5.871  69.349  1.00  0.00    -0.350 C  
BRANCH  20  21
HETATM   21  C   UNK A   1     -10.643   6.868  68.219  1.00  0.00    -0.215 C  
HETATM   22  N   UNK A   1     -11.401   6.559  66.963  1.00  0.00    -0.780 NA 
HETATM   23  C   UNK A   1      -9.148   6.776  67.909  1.00  0.00    -0.114 C  
HETATM   24  O   UNK A   1      -8.262   7.278  68.582  1.00  0.00    -0.123 OA 
HETATM   25  O   UNK A   1      -8.919   6.014  66.807  1.00  0.00    -0.117 OA 
HETATM   26  H1  UNK A   1     -11.201   7.220  66.212  1.00  0.00     0.000 HD 
HETATM   27  H2  UNK A   1     -12.403   6.503  67.144  1.00  0.00     0.000 HD 
ENDBRANCH  20  21
ENDBRANCH  19  20
ENDBRANCH  18  19
ENDBRANCH  17  18
ENDBRANCH  16  17
ENDBRANCH  15  16
ENDBRANCH  11  15
ENDBRANCH   7  10
ENDBRANCH   5   6
TORSDOF 9
ENDMDL
MODEL      119
REMARK 921   NORMALIZED FREE ENERGY PREDICTED BY IDOCK:   -4.76 KCAL/MOL
REMARK 922        TOTAL FREE ENERGY PREDICTED BY IDOCK:   -8.24 KCAL/MOL
REMARK 923 INTER-LIGAND FREE ENERGY PREDICTED BY IDOCK:   -7.41 KCAL/MOL
REMARK 924 INTRA-LIGAND FREE ENERGY PREDICTED BY IDOCK:   -0.82 KCAL/MOL
REMARK 927      BINDING AFFINITY PREDICTED BY RF-SCORE:    0.00 PKD
ROOT
HETATM    1  C   UNK A   0     -10.560  19.442  66.305  1.00  0.00    -0.569 C  
HETATM    2  C   UNK A   0     -10.096  18.148  66.931  1.00  0.00    -0.362 C  
HETATM    3  C   UNK A   0      -8.933  18.256  67.887  1.00  0.00    -0.285 C  
HETATM    4  C   UNK A   0     -10.175  16.970  65.990  1.00  0.00    -0.337 C  
HETATM    5  C   UNK A   0     -10.311  17.921  68.433  1.00  0.00    -0.380 C  
ENDROOT
BRANCH   5   6
HETATM    6  C   UNK A   0     -10.476  16.562  69.049  1.00  0.00    -0.303 C  
HETATM    7  N   UNK A   1     -11.748  16.039  69.053  1.00  0.00    -0.356 N  
HETATM    8  O   UNK A   0      -9.520  16.008  69.577  1.00  0.00    -0.248 OA 
HETATM    9  H   UNK A   1     -12.467  16.609  68.606  1.00  0.00     0.000 HD 
BRANCH   7  10
HETATM   10  C   UNK A   1     -12.176  14.827  69.591  1.00  0.00    -0.270 C  
HETATM   11  C   UNK A   1     -12.027  13.668  68.901  1.00  0.00    -0.392 C  
HETATM   12  C   UNK A   1     -12.883  14.632  70.919  1.00  0.00    -0.365 C  
HETATM   13  O   UNK A   1     -13.686  15.638  71.317  1.00  0.00    -0.568 OA 
HETATM   14  O   UNK A   1     -12.878  13.562  71.514  1.00  0.00    -0.353 OA 
BRANCH  11  15
HETATM   15  C   UNK A   1     -11.462  13.503  67.523  1.00  0.00    -0.361 C  
BRANCH  15  16
HETATM   16  C   UNK A   1     -10.766  12.163  67.219  1.00  0.00    -0.264 C  
BRANCH  16  17
HETATM   17  C   UNK A   1     -11.556  11.074  67.958  1.00  0.00    -0.326 C  
BRANCH  17  18
HETATM   18  C   UNK A   1     -10.765   9.829  68.338  1.00  0.00    -0.221 C  
BRANCH  18  19
HETATM   19  S   UNK A   1     -10.527   9.902  70.153  1.00  0.00    -0.290 SA 
BRANCH  19  20
HETATM   20  C   UNK A   1      -8.739   9.556  70.241  1.00  0.00    -0.235 C  
BRANCH  20  21
HETATM   21  C   UNK A   1      -8.451   8.437  71.253  1.00  0.00    -0.149 C  
HETATM   22  N   UNK A   1      -9.222   8.601  72.528  1.00  0.00    -0.342 NA 
HETATM   23  C   UNK A   1      -6.959   8.489  71.587  1.00  0.00    -0.088 C  
HETATM   24  O   UNK A   1      -6.066   8.065  70.871  1.00  0.00    -0.033 OA 
HETATM   25  O   UNK A   1      -6.741   9.119  72.771  1.00  0.00    -0.316 OA 
HETATM   26  H1  UNK A   1      -9.031   7.858  73.201  1.00  0.00     0.000 HD 
HETATM   27  H2  UNK A   1     -10.222   8.680  72.344  1.00  0.00     0.000 HD 
ENDBRANCH  20  21
ENDBRANCH  19  20
ENDBRANCH  18  19
ENDBRANCH  17  18
ENDBRANCH  16  17
ENDBRANCH  15  16
ENDBRANCH  11  15
ENDBRANCH   7  10
ENDBRANCH   5   6
TORSDOF 9
ENDMDL
MODEL      120
REMARK 921   NORMALIZED FREE ENERGY PREDICTED BY IDOCK:   -4.76 KCAL/MOL
REMARK 922        TOTAL FREE ENERGY PREDICTED BY IDOCK:   -8.23 KCAL/MOL
REMARK 923 INTER-LIGAND FREE ENERGY PREDICTED BY IDOCK:   -7.04 KCAL/MOL
REMARK 924 INTRA-LIGAND FREE ENERGY PREDICTED BY IDOCK:   -1.19 KCAL/MOL
REMARK 927      BINDING AFFINITY PREDICTED BY RF-SCORE:    0.00 PKD
ROOT
HETATM    1  C   UNK A   0      -9.440  15.594  69.504  1.00  0.00    -0.275 C  
HETATM    2  C   UNK A   0      -9.822  14.536  68.496  1.00  0.00    -0.231 C  
HETATM    3  C   UNK A   0     -11.263  14.088  68.522  1.00  0.00    -0.291 C  
HETATM    4  C   UNK A   0      -8.732  13.517  68.262  1.00  0.00    -0.172 C  
HETATM    5  C   UNK A   0     -10.763  14.903  67.341  1.00  0.00    -0.292 C  
ENDROOT
BRANCH   5   6
HETATM    6  C   UNK A   0     -10.745  14.213  66.009  1.00  0.00    -0.299 C  
HETATM    7  N   UNK A   1     -11.470  13.048  65.909  1.00  0.00    -0.323 N  
HETATM    8  O   UNK A   0     -10.052  14.652  65.100  1.00  0.00    -0.377 OA 
HETATM    9  H   UNK A   1     -11.986  12.770  66.745  1.00  0.00     0.000 HD 
BRANCH   7  10
HETATM   10  C   UNK A   1     -11.588  12.202  64.808  1.00  0.00    -0.321 C  
HETATM   11  C   UNK A   1     -10.858  11.060  64.728  1.00  0.00    -0.234 C  
HETATM   12  C   UNK A   1     -12.448  12.435  63.581  1.00  0.00    -0.508 C  
HETATM   13  O   UNK A   1     -12.618  13.719  63.212  1.00  0.00    -0.830 OA 
HETATM   14  O   UNK A   1     -12.820  11.521  62.857  1.00  0.00    -0.195 OA 
BRANCH  11  15
HETATM   15  C   UNK A   1      -9.838  10.569  65.710  1.00  0.00    -0.295 C  
BRANCH  15  16
HETATM   16  C   UNK A   1      -9.824   9.054  65.989  1.00  0.00    -0.312 C  
BRANCH  16  17
HETATM   17  C   UNK A   1     -10.244   8.869  67.454  1.00  0.00    -0.313 C  
BRANCH  17  18
HETATM   18  C   UNK A   1     -10.834  10.100  68.131  1.00  0.00    -0.262 C  
BRANCH  18  19
HETATM   19  S   UNK A   1     -10.211  10.090  69.854  1.00  0.00    -0.249 SA 
BRANCH  19  20
HETATM   20  C   UNK A   1      -9.500   8.411  69.911  1.00  0.00    -0.166 C  
BRANCH  20  21
HETATM   21  C   UNK A   1      -9.909   7.691  71.205  1.00  0.00    -0.171 C  
HETATM   22  N   UNK A   1      -8.904   6.667  71.637  1.00  0.00    -0.134 NA 
HETATM   23  C   UNK A   1     -11.235   6.976  70.937  1.00  0.00    -0.282 C  
HETATM   24  O   UNK A   1     -12.327   7.518  70.898  1.00  0.00    -0.266 OA 
HETATM   25  O   UNK A   1     -11.040   5.653  70.693  1.00  0.00    -0.247 OA 
HETATM   26  H1  UNK A   1      -9.175   6.189  72.496  1.00  0.00     0.000 HD 
HETATM   27  H2  UNK A   1      -7.975   7.080  71.725  1.00  0.00     0.000 HD 
ENDBRANCH  20  21
ENDBRANCH  19  20
ENDBRANCH  18  19
ENDBRANCH  17  18
ENDBRANCH  16  17
ENDBRANCH  15  16
ENDBRANCH  11  15
ENDBRANCH   7  10
ENDBRANCH   5   6
TORSDOF 9
ENDMDL
MODEL      121
REMARK 921   NORMALIZED FREE ENERGY PREDICTED BY IDOCK:   -4.75 KCAL/MOL
REMARK 922        TOTAL FREE ENERGY PREDICTED BY IDOCK:   -8.22 KCAL/MOL
REMARK 923 INTER-LIGAND FREE ENERGY PREDICTED BY IDOCK:   -7.84 KCAL/MOL
REMARK 924 INTRA-LIGAND FREE ENERGY PREDICTED BY IDOCK:   -0.38 KCAL/MOL
REMARK 927      BINDING AFFINITY PREDICTED BY RF-SCORE:    0.00 PKD
ROOT
HETATM    1  C   UNK A   0      -9.045   8.455  68.387  1.00  0.00    -0.135 C  
HETATM    2  C   UNK A   0      -8.933   9.422  67.232  1.00  0.00    -0.143 C  
HETATM    3  C   UNK A   0      -8.978   8.811  65.853  1.00  0.00    -0.240 C  
HETATM    4  C   UNK A   0      -7.990  10.569  67.506  1.00  0.00    -0.107 C  
HETATM    5  C   UNK A   0     -10.150   9.653  66.326  1.00  0.00    -0.322 C  
ENDROOT
BRANCH   5   6
HETATM    6  C   UNK A   0     -10.397  10.935  65.586  1.00  0.00    -0.242 C  
HETATM    7  N   UNK A   1     -11.505  11.659  65.961  1.00  0.00    -0.219 N  
HETATM    8  O   UNK A   0      -9.671  11.254  64.653  1.00  0.00    -0.236 OA 
HETATM    9  H   UNK A   1     -12.048  11.276  66.735  1.00  0.00     0.000 HD 
BRANCH   7  10
HETATM   10  C   UNK A   1     -11.978  12.851  65.414  1.00  0.00    -0.426 C  
HETATM   11  C   UNK A   1     -12.046  13.981  66.162  1.00  0.00    -0.471 C  
HETATM   12  C   UNK A   1     -12.511  13.046  64.007  1.00  0.00    -0.292 C  
HETATM   13  O   UNK A   1     -13.143  11.989  63.461  1.00  0.00    -0.764 OA 
HETATM   14  O   UNK A   1     -12.534  14.141  63.461  1.00  0.00    -0.817 OA 
BRANCH  11  15
HETATM   15  C   UNK A   1     -11.696  14.126  67.612  1.00  0.00    -0.421 C  
BRANCH  15  16
HETATM   16  C   UNK A   1     -10.206  14.335  67.945  1.00  0.00    -0.237 C  
BRANCH  16  17
HETATM   17  C   UNK A   1      -9.482  14.570  66.612  1.00  0.00    -0.301 C  
BRANCH  17  18
HETATM   18  C   UNK A   1      -8.579  15.797  66.560  1.00  0.00    -0.308 C  
BRANCH  18  19
HETATM   19  S   UNK A   1      -9.653  17.208  66.099  1.00  0.00    -0.174 SA 
BRANCH  19  20
HETATM   20  C   UNK A   1      -8.480  18.580  66.359  1.00  0.00    -0.258 C  
BRANCH  20  21
HETATM   21  C   UNK A   1      -8.749  19.279  67.701  1.00  0.00    -0.296 C  
HETATM   22  N   UNK A   1      -7.927  18.713  68.819  1.00  0.00    -0.314 NA 
HETATM   23  C   UNK A   1     -10.226  19.073  68.041  1.00  0.00    -0.399 C  
HETATM   24  O   UNK A   1     -11.152  19.688  67.540  1.00  0.00    -0.358 OA 
HETATM   25  O   UNK A   1     -10.388  18.070  68.945  1.00  0.00    -0.363 OA 
HETATM   26  H1  UNK A   1      -8.105  19.176  69.710  1.00  0.00     0.000 HD 
HETATM   27  H2  UNK A   1      -6.933  18.730  68.590  1.00  0.00     0.000 HD 
ENDBRANCH  20  21
ENDBRANCH  19  20
ENDBRANCH  18  19
ENDBRANCH  17  18
ENDBRANCH  16  17
ENDBRANCH  15  16
ENDBRANCH  11  15
ENDBRANCH   7  10
ENDBRANCH   5   6
TORSDOF 9
ENDMDL
MODEL      122
REMARK 921   NORMALIZED FREE ENERGY PREDICTED BY IDOCK:   -4.73 KCAL/MOL
REMARK 922        TOTAL FREE ENERGY PREDICTED BY IDOCK:   -8.19 KCAL/MOL
REMARK 923 INTER-LIGAND FREE ENERGY PREDICTED BY IDOCK:   -7.63 KCAL/MOL
REMARK 924 INTRA-LIGAND FREE ENERGY PREDICTED BY IDOCK:   -0.57 KCAL/MOL
REMARK 927      BINDING AFFINITY PREDICTED BY RF-SCORE:    0.00 PKD
ROOT
HETATM    1  C   UNK A   0     -13.074   9.148  71.505  1.00  0.00    -0.409 C  
HETATM    2  C   UNK A   0     -12.272  10.242  70.840  1.00  0.00    -0.465 C  
HETATM    3  C   UNK A   0     -10.821   9.926  70.570  1.00  0.00    -0.391 C  
HETATM    4  C   UNK A   0     -12.656  11.626  71.305  1.00  0.00    -0.425 C  
HETATM    5  C   UNK A   0     -11.783  10.045  69.400  1.00  0.00    -0.012 C  
ENDROOT
BRANCH   5   6
HETATM    6  C   UNK A   0     -11.542  11.179  68.446  1.00  0.00    -0.306 C  
HETATM    7  N   UNK A   1     -11.025  10.849  67.215  1.00  0.00    -0.291 N  
HETATM    8  O   UNK A   0     -11.739  12.333  68.805  1.00  0.00    -0.302 OA 
HETATM    9  H   UNK A   1     -10.879   9.854  67.044  1.00  0.00     0.000 HD 
BRANCH   7  10
HETATM   10  C   UNK A   1     -10.677  11.706  66.172  1.00  0.00    -0.278 C  
HETATM   11  C   UNK A   1      -9.413  12.189  66.063  1.00  0.00    -0.215 C  
HETATM   12  C   UNK A   1     -11.606  12.245  65.101  1.00  0.00    -0.351 C  
HETATM   13  O   UNK A   1     -12.885  12.444  65.472  1.00  0.00    -0.402 OA 
HETATM   14  O   UNK A   1     -11.197  12.647  64.020  1.00  0.00    -0.350 OA 
BRANCH  11  15
HETATM   15  C   UNK A   1      -8.268  11.945  66.998  1.00  0.00    -0.170 C  
BRANCH  15  16
HETATM   16  C   UNK A   1      -8.247  12.780  68.293  1.00  0.00    -0.159 C  
BRANCH  16  17
HETATM   17  C   UNK A   1      -7.885  14.216  67.890  1.00  0.00    -0.157 C  
BRANCH  17  18
HETATM   18  C   UNK A   1      -9.064  15.146  67.636  1.00  0.00    -0.180 C  
BRANCH  18  19
HETATM   19  S   UNK A   1      -8.843  16.577  68.760  1.00  0.00    -0.251 SA 
BRANCH  19  20
HETATM   20  C   UNK A   1     -10.571  16.814  69.294  1.00  0.00    -0.336 C  
BRANCH  20  21
HETATM   21  C   UNK A   1     -11.260  15.460  69.524  1.00  0.00    -0.285 C  
HETATM   22  N   UNK A   1     -12.289  15.152  68.479  1.00  0.00    -0.544 NA 
HETATM   23  C   UNK A   1     -11.962  15.524  70.882  1.00  0.00    -0.375 C  
HETATM   24  O   UNK A   1     -11.406  15.421  71.963  1.00  0.00    -0.432 OA 
HETATM   25  O   UNK A   1     -13.292  15.766  70.738  1.00  0.00    -0.539 OA 
HETATM   26  H1  UNK A   1     -12.747  14.253  68.632  1.00  0.00     0.000 HD 
HETATM   27  H2  UNK A   1     -11.888  15.204  67.543  1.00  0.00     0.000 HD 
ENDBRANCH  20  21
ENDBRANCH  19  20
ENDBRANCH  18  19
ENDBRANCH  17  18
ENDBRANCH  16  17
ENDBRANCH  15  16
ENDBRANCH  11  15
ENDBRANCH   7  10
ENDBRANCH   5   6
TORSDOF 9
ENDMDL
MODEL      123
REMARK 921   NORMALIZED FREE ENERGY PREDICTED BY IDOCK:   -4.72 KCAL/MOL
REMARK 922        TOTAL FREE ENERGY PREDICTED BY IDOCK:   -8.18 KCAL/MOL
REMARK 923 INTER-LIGAND FREE ENERGY PREDICTED BY IDOCK:   -6.96 KCAL/MOL
REMARK 924 INTRA-LIGAND FREE ENERGY PREDICTED BY IDOCK:   -1.22 KCAL/MOL
REMARK 927      BINDING AFFINITY PREDICTED BY RF-SCORE:    0.00 PKD
ROOT
HETATM    1  C   UNK A   0     -10.589  19.669  66.614  1.00  0.00    -0.599 C  
HETATM    2  C   UNK A   0     -10.123  18.303  67.059  1.00  0.00    -0.370 C  
HETATM    3  C   UNK A   0      -8.880  18.275  67.916  1.00  0.00    -0.278 C  
HETATM    4  C   UNK A   0     -10.326  17.235  66.011  1.00  0.00    -0.312 C  
HETATM    5  C   UNK A   0     -10.218  17.923  68.543  1.00  0.00    -0.393 C  
ENDROOT
BRANCH   5   6
HETATM    6  C   UNK A   0     -10.383  16.512  69.026  1.00  0.00    -0.296 C  
HETATM    7  N   UNK A   1     -11.660  16.002  69.016  1.00  0.00    -0.369 N  
HETATM    8  O   UNK A   0      -9.418  15.899  69.467  1.00  0.00    -0.260 OA 
HETATM    9  H   UNK A   1     -12.385  16.620  68.650  1.00  0.00     0.000 HD 
BRANCH   7  10
HETATM   10  C   UNK A   1     -12.087  14.747  69.445  1.00  0.00    -0.270 C  
HETATM   11  C   UNK A   1     -12.083  13.685  68.601  1.00  0.00    -0.325 C  
HETATM   12  C   UNK A   1     -12.644  14.405  70.815  1.00  0.00    -0.357 C  
HETATM   13  O   UNK A   1     -13.338  15.379  71.432  1.00  0.00    -0.457 OA 
HETATM   14  O   UNK A   1     -12.626  13.266  71.264  1.00  0.00    -0.358 OA 
BRANCH  11  15
HETATM   15  C   UNK A   1     -11.693  13.683  67.154  1.00  0.00    -0.418 C  
BRANCH  15  16
HETATM   16  C   UNK A   1     -11.894  12.361  66.387  1.00  0.00    -0.421 C  
BRANCH  16  17
HETATM   17  C   UNK A   1     -10.557  11.610  66.438  1.00  0.00    -0.299 C  
BRANCH  17  18
HETATM   18  C   UNK A   1     -10.599  10.233  67.088  1.00  0.00    -0.260 C  
BRANCH  18  19
HETATM   19  S   UNK A   1      -9.543  10.334  68.582  1.00  0.00    -0.176 SA 
BRANCH  19  20
HETATM   20  C   UNK A   1      -8.601  11.845  68.186  1.00  0.00    -0.165 C  
BRANCH  20  21
HETATM   21  C   UNK A   1      -7.089  11.576  68.253  1.00  0.00    -0.080 C  
HETATM   22  N   UNK A   1      -6.772  10.184  68.711  1.00  0.00    -0.052 NA 
HETATM   23  C   UNK A   1      -6.489  12.559  69.259  1.00  0.00    -0.104 C  
HETATM   24  O   UNK A   1      -6.265  13.737  69.038  1.00  0.00    -0.085 OA 
HETATM   25  O   UNK A   1      -6.280  11.964  70.464  1.00  0.00    -0.250 OA 
HETATM   26  H1  UNK A   1      -5.769  10.005  68.755  1.00  0.00     0.000 HD 
HETATM   27  H2  UNK A   1      -7.242   9.490  68.129  1.00  0.00     0.000 HD 
ENDBRANCH  20  21
ENDBRANCH  19  20
ENDBRANCH  18  19
ENDBRANCH  17  18
ENDBRANCH  16  17
ENDBRANCH  15  16
ENDBRANCH  11  15
ENDBRANCH   7  10
ENDBRANCH   5   6
TORSDOF 9
ENDMDL
MODEL      124
REMARK 921   NORMALIZED FREE ENERGY PREDICTED BY IDOCK:   -4.72 KCAL/MOL
REMARK 922        TOTAL FREE ENERGY PREDICTED BY IDOCK:   -8.17 KCAL/MOL
REMARK 923 INTER-LIGAND FREE ENERGY PREDICTED BY IDOCK:   -6.85 KCAL/MOL
REMARK 924 INTRA-LIGAND FREE ENERGY PREDICTED BY IDOCK:   -1.32 KCAL/MOL
REMARK 927      BINDING AFFINITY PREDICTED BY RF-SCORE:    0.00 PKD
ROOT
HETATM    1  C   UNK A   0     -12.785  11.981  63.458  1.00  0.00    -0.567 C  
HETATM    2  C   UNK A   0     -11.584  12.063  64.370  1.00  0.00    -0.411 C  
HETATM    3  C   UNK A   0     -11.258  13.434  64.912  1.00  0.00    -0.347 C  
HETATM    4  C   UNK A   0     -10.460  11.142  63.959  1.00  0.00    -0.447 C  
HETATM    5  C   UNK A   0     -11.791  12.373  65.859  1.00  0.00    -0.467 C  
ENDROOT
BRANCH   5   6
HETATM    6  C   UNK A   0     -10.858  11.907  66.938  1.00  0.00    -0.263 C  
HETATM    7  N   UNK A   1     -11.067  10.638  67.427  1.00  0.00    -0.302 N  
HETATM    8  O   UNK A   0     -10.012  12.669  67.388  1.00  0.00    -0.202 OA 
HETATM    9  H   UNK A   1     -11.822  10.109  66.988  1.00  0.00     0.000 HD 
BRANCH   7  10
HETATM   10  C   UNK A   1     -10.375   9.986  68.445  1.00  0.00    -0.191 C  
HETATM   11  C   UNK A   1      -9.333   9.164  68.163  1.00  0.00    -0.147 C  
HETATM   12  C   UNK A   1     -10.693  10.041  69.928  1.00  0.00    -0.286 C  
HETATM   13  O   UNK A   1     -11.993  10.179  70.250  1.00  0.00    -0.265 OA 
HETATM   14  O   UNK A   1      -9.857   9.795  70.787  1.00  0.00    -0.218 OA 
BRANCH  11  15
HETATM   15  C   UNK A   1      -8.811   8.801  66.806  1.00  0.00    -0.147 C  
BRANCH  15  16
HETATM   16  C   UNK A   1      -9.047   7.350  66.342  1.00  0.00    -0.196 C  
BRANCH  16  17
HETATM   17  C   UNK A   1     -10.107   6.752  67.276  1.00  0.00    -0.237 C  
BRANCH  17  18
HETATM   18  C   UNK A   1     -10.041   5.242  67.466  1.00  0.00    -0.179 C  
BRANCH  18  19
HETATM   19  S   UNK A   1      -9.065   4.955  68.989  1.00  0.00    -0.118 SA 
BRANCH  19  20
HETATM   20  C   UNK A   1      -9.690   6.328  70.014  1.00  0.00    -0.168 C  
BRANCH  20  21
HETATM   21  C   UNK A   1     -11.069   5.986  70.599  1.00  0.00    -0.301 C  
HETATM   22  N   UNK A   1     -12.132   6.952  70.171  1.00  0.00    -0.641 NA 
HETATM   23  C   UNK A   1     -10.953   6.048  72.123  1.00  0.00    -0.267 C  
HETATM   24  O   UNK A   1     -10.447   5.186  72.822  1.00  0.00    -0.194 OA 
HETATM   25  O   UNK A   1     -11.441   7.220  72.607  1.00  0.00    -0.294 OA 
HETATM   26  H1  UNK A   1     -13.047   6.726  70.559  1.00  0.00     0.000 HD 
HETATM   27  H2  UNK A   1     -12.173   7.025  69.154  1.00  0.00     0.000 HD 
ENDBRANCH  20  21
ENDBRANCH  19  20
ENDBRANCH  18  19
ENDBRANCH  17  18
ENDBRANCH  16  17
ENDBRANCH  15  16
ENDBRANCH  11  15
ENDBRANCH   7  10
ENDBRANCH   5   6
TORSDOF 9
ENDMDL
MODEL      125
REMARK 921   NORMALIZED FREE ENERGY PREDICTED BY IDOCK:   -4.72 KCAL/MOL
REMARK 922        TOTAL FREE ENERGY PREDICTED BY IDOCK:   -8.17 KCAL/MOL
REMARK 923 INTER-LIGAND FREE ENERGY PREDICTED BY IDOCK:   -6.64 KCAL/MOL
REMARK 924 INTRA-LIGAND FREE ENERGY PREDICTED BY IDOCK:   -1.53 KCAL/MOL
REMARK 927      BINDING AFFINITY PREDICTED BY RF-SCORE:    0.00 PKD
ROOT
HETATM    1  C   UNK A   0     -10.543  16.614  65.686  1.00  0.00    -0.282 C  
HETATM    2  C   UNK A   0     -10.834  15.255  66.277  1.00  0.00    -0.312 C  
HETATM    3  C   UNK A   0     -11.741  14.362  65.466  1.00  0.00    -0.352 C  
HETATM    4  C   UNK A   0     -10.965  15.277  67.781  1.00  0.00    -0.312 C  
HETATM    5  C   UNK A   0     -10.270  14.002  65.593  1.00  0.00    -0.351 C  
ENDROOT
BRANCH   5   6
HETATM    6  C   UNK A   0      -9.951  12.733  66.327  1.00  0.00    -0.264 C  
HETATM    7  N   UNK A   1     -10.985  11.839  66.490  1.00  0.00    -0.283 N  
HETATM    8  O   UNK A   0      -8.837  12.565  66.806  1.00  0.00    -0.208 OA 
HETATM    9  H   UNK A   1     -11.875  12.104  66.068  1.00  0.00     0.000 HD 
BRANCH   7  10
HETATM   10  C   UNK A   1     -10.966  10.617  67.160  1.00  0.00    -0.247 C  
HETATM   11  C   UNK A   1     -11.344  10.532  68.461  1.00  0.00    -0.320 C  
HETATM   12  C   UNK A   1     -10.495   9.290  66.598  1.00  0.00    -0.167 C  
HETATM   13  O   UNK A   1      -9.501   9.349  65.691  1.00  0.00    -0.231 OA 
HETATM   14  O   UNK A   1     -10.858   8.216  67.060  1.00  0.00    -0.265 OA 
BRANCH  11  15
HETATM   15  C   UNK A   1     -11.770  11.657  69.354  1.00  0.00    -0.405 C  
BRANCH  15  16
HETATM   16  C   UNK A   1     -12.407  11.265  70.701  1.00  0.00    -0.477 C  
BRANCH  16  17
HETATM   17  C   UNK A   1     -12.233   9.747  70.849  1.00  0.00    -0.390 C  
BRANCH  17  18
HETATM   18  C   UNK A   1     -12.655   9.163  72.192  1.00  0.00    -0.381 C  
BRANCH  18  19
HETATM   19  S   UNK A   1     -11.899   7.498  72.291  1.00  0.00    -0.265 SA 
BRANCH  19  20
HETATM   20  C   UNK A   1     -11.331   7.318  70.568  1.00  0.00    -0.280 C  
BRANCH  20  21
HETATM   21  C   UNK A   1      -9.855   6.892  70.523  1.00  0.00    -0.179 C  
HETATM   22  N   UNK A   1      -9.014   7.819  69.699  1.00  0.00    -0.143 NA 
HETATM   23  C   UNK A   1      -9.795   5.502  69.888  1.00  0.00    -0.194 C  
HETATM   24  O   UNK A   1     -10.073   4.459  70.458  1.00  0.00    -0.213 OA 
HETATM   25  O   UNK A   1      -9.438   5.572  68.579  1.00  0.00    -0.115 OA 
HETATM   26  H1  UNK A   1      -8.034   7.537  69.668  1.00  0.00     0.000 HD 
HETATM   27  H2  UNK A   1      -9.108   8.783  70.020  1.00  0.00     0.000 HD 
ENDBRANCH  20  21
ENDBRANCH  19  20
ENDBRANCH  18  19
ENDBRANCH  17  18
ENDBRANCH  16  17
ENDBRANCH  15  16
ENDBRANCH  11  15
ENDBRANCH   7  10
ENDBRANCH   5   6
TORSDOF 9
ENDMDL
MODEL      126
REMARK 921   NORMALIZED FREE ENERGY PREDICTED BY IDOCK:   -4.71 KCAL/MOL
REMARK 922        TOTAL FREE ENERGY PREDICTED BY IDOCK:   -8.16 KCAL/MOL
REMARK 923 INTER-LIGAND FREE ENERGY PREDICTED BY IDOCK:   -6.93 KCAL/MOL
REMARK 924 INTRA-LIGAND FREE ENERGY PREDICTED BY IDOCK:   -1.23 KCAL/MOL
REMARK 927      BINDING AFFINITY PREDICTED BY RF-SCORE:    0.00 PKD
ROOT
HETATM    1  C   UNK A   0     -10.011  20.667  66.479  1.00  0.00    -0.169 C  
HETATM    2  C   UNK A   0      -9.910  19.298  67.110  1.00  0.00    -0.425 C  
HETATM    3  C   UNK A   0     -10.280  18.133  66.224  1.00  0.00    -0.401 C  
HETATM    4  C   UNK A   0     -10.314  19.282  68.565  1.00  0.00    -0.385 C  
HETATM    5  C   UNK A   0      -8.827  18.325  66.624  1.00  0.00    -0.294 C  
ENDROOT
BRANCH   5   6
HETATM    6  C   UNK A   0      -8.224  17.260  67.492  1.00  0.00    -0.195 C  
HETATM    7  N   UNK A   1      -8.780  16.005  67.403  1.00  0.00    -0.177 N  
HETATM    8  O   UNK A   0      -7.330  17.544  68.280  1.00  0.00    -0.206 OA 
HETATM    9  H   UNK A   1      -9.538  15.899  66.728  1.00  0.00     0.000 HD 
BRANCH   7  10
HETATM   10  C   UNK A   1      -8.437  14.860  68.121  1.00  0.00    -0.146 C  
HETATM   11  C   UNK A   1      -9.198  14.438  69.161  1.00  0.00     0.076 C  
HETATM   12  C   UNK A   1      -7.208  13.997  67.904  1.00  0.00    -0.159 C  
HETATM   13  O   UNK A   1      -6.104  14.636  67.473  1.00  0.00    -0.323 OA 
HETATM   14  O   UNK A   1      -7.155  12.829  68.266  1.00  0.00    -0.086 OA 
BRANCH  11  15
HETATM   15  C   UNK A   1     -10.423  15.101  69.713  1.00  0.00    -0.248 C  
BRANCH  15  16
HETATM   16  C   UNK A   1     -11.780  14.573  69.209  1.00  0.00    -0.350 C  
BRANCH  16  17
HETATM   17  C   UNK A   1     -11.720  13.042  69.298  1.00  0.00    -0.375 C  
BRANCH  17  18
HETATM   18  C   UNK A   1     -12.012  12.295  68.002  1.00  0.00    -0.187 C  
BRANCH  18  19
HETATM   19  S   UNK A   1     -10.393  11.731  67.356  1.00  0.00    -0.208 SA 
BRANCH  19  20
HETATM   20  C   UNK A   1     -10.862  11.367  65.632  1.00  0.00    -0.218 C  
BRANCH  20  21
HETATM   21  C   UNK A   1     -10.865  12.650  64.786  1.00  0.00    -0.302 C  
HETATM   22  N   UNK A   1     -10.513  13.867  65.587  1.00  0.00    -0.300 NA 
HETATM   23  C   UNK A   1     -12.279  12.835  64.232  1.00  0.00    -0.425 C  
HETATM   24  O   UNK A   1     -12.747  12.218  63.290  1.00  0.00    -0.699 OA 
HETATM   25  O   UNK A   1     -12.978  13.746  64.960  1.00  0.00    -0.732 OA 
HETATM   26  H1  UNK A   1     -10.515  14.719  65.026  1.00  0.00     0.000 HD 
HETATM   27  H2  UNK A   1      -9.620  13.746  66.065  1.00  0.00     0.000 HD 
ENDBRANCH  20  21
ENDBRANCH  19  20
ENDBRANCH  18  19
ENDBRANCH  17  18
ENDBRANCH  16  17
ENDBRANCH  15  16
ENDBRANCH  11  15
ENDBRANCH   7  10
ENDBRANCH   5   6
TORSDOF 9
ENDMDL
MODEL      127
REMARK 921   NORMALIZED FREE ENERGY PREDICTED BY IDOCK:   -4.70 KCAL/MOL
REMARK 922        TOTAL FREE ENERGY PREDICTED BY IDOCK:   -8.14 KCAL/MOL
REMARK 923 INTER-LIGAND FREE ENERGY PREDICTED BY IDOCK:   -7.47 KCAL/MOL
REMARK 924 INTRA-LIGAND FREE ENERGY PREDICTED BY IDOCK:   -0.67 KCAL/MOL
REMARK 927      BINDING AFFINITY PREDICTED BY RF-SCORE:    0.00 PKD
ROOT
HETATM    1  C   UNK A   0      -7.966   7.264  66.961  1.00  0.00    -0.109 C  
HETATM    2  C   UNK A   0      -9.391   7.142  67.446  1.00  0.00    -0.144 C  
HETATM    3  C   UNK A   0      -9.814   5.772  67.916  1.00  0.00    -0.147 C  
HETATM    4  C   UNK A   0     -10.362   7.988  66.657  1.00  0.00    -0.273 C  
HETATM    5  C   UNK A   0      -9.659   6.888  68.935  1.00  0.00    -0.139 C  
ENDROOT
BRANCH   5   6
HETATM    6  C   UNK A   0     -10.908   7.333  69.639  1.00  0.00    -0.222 C  
HETATM    7  N   UNK A   1     -10.951   8.646  70.046  1.00  0.00    -0.325 N  
HETATM    8  O   UNK A   0     -11.793   6.524  69.885  1.00  0.00    -0.381 OA 
HETATM    9  H   UNK A   1     -10.138   9.215  69.805  1.00  0.00     0.000 HD 
BRANCH   7  10
HETATM   10  C   UNK A   1     -11.965   9.296  70.746  1.00  0.00    -0.210 C  
HETATM   11  C   UNK A   1     -12.484  10.466  70.294  1.00  0.00    -0.296 C  
HETATM   12  C   UNK A   1     -12.570   8.858  72.067  1.00  0.00    -0.394 C  
HETATM   13  O   UNK A   1     -11.741   8.219  72.915  1.00  0.00    -0.348 OA 
HETATM   14  O   UNK A   1     -13.684   9.213  72.428  1.00  0.00    -0.464 OA 
BRANCH  11  15
HETATM   15  C   UNK A   1     -12.057  11.234  69.081  1.00  0.00    -0.348 C  
BRANCH  15  16
HETATM   16  C   UNK A   1     -11.210  12.497  69.327  1.00  0.00    -0.256 C  
BRANCH  16  17
HETATM   17  C   UNK A   1     -11.989  13.677  68.732  1.00  0.00    -0.394 C  
BRANCH  17  18
HETATM   18  C   UNK A   1     -12.008  13.755  67.210  1.00  0.00    -0.401 C  
BRANCH  18  19
HETATM   19  S   UNK A   1     -10.526  14.716  66.724  1.00  0.00    -0.282 SA 
BRANCH  19  20
HETATM   20  C   UNK A   1     -10.727  16.160  67.819  1.00  0.00    -0.325 C  
BRANCH  20  21
HETATM   21  C   UNK A   1      -9.712  17.258  67.463  1.00  0.00    -0.264 C  
HETATM   22  N   UNK A   1      -9.183  17.968  68.672  1.00  0.00    -0.289 NA 
HETATM   23  C   UNK A   1     -10.430  18.282  66.583  1.00  0.00    -0.360 C  
HETATM   24  O   UNK A   1     -10.680  18.135  65.398  1.00  0.00    -0.620 OA 
HETATM   25  O   UNK A   1     -10.808  19.372  67.303  1.00  0.00    -0.484 OA 
HETATM   26  H1  UNK A   1      -8.510  18.697  68.436  1.00  0.00     0.000 HD 
HETATM   27  H2  UNK A   1      -8.788  17.308  69.342  1.00  0.00     0.000 HD 
ENDBRANCH  20  21
ENDBRANCH  19  20
ENDBRANCH  18  19
ENDBRANCH  17  18
ENDBRANCH  16  17
ENDBRANCH  15  16
ENDBRANCH  11  15
ENDBRANCH   7  10
ENDBRANCH   5   6
TORSDOF 9
ENDMDL
MODEL      128
REMARK 921   NORMALIZED FREE ENERGY PREDICTED BY IDOCK:   -4.70 KCAL/MOL
REMARK 922        TOTAL FREE ENERGY PREDICTED BY IDOCK:   -8.14 KCAL/MOL
REMARK 923 INTER-LIGAND FREE ENERGY PREDICTED BY IDOCK:   -6.85 KCAL/MOL
REMARK 924 INTRA-LIGAND FREE ENERGY PREDICTED BY IDOCK:   -1.29 KCAL/MOL
REMARK 927      BINDING AFFINITY PREDICTED BY RF-SCORE:    0.00 PKD
ROOT
HETATM    1  C   UNK A   0     -10.456  19.131  66.179  1.00  0.00    -0.558 C  
HETATM    2  C   UNK A   0     -10.027  17.834  66.824  1.00  0.00    -0.333 C  
HETATM    3  C   UNK A   0      -8.851  17.923  67.766  1.00  0.00    -0.251 C  
HETATM    4  C   UNK A   0     -10.153  16.642  65.905  1.00  0.00    -0.341 C  
HETATM    5  C   UNK A   0     -10.233  17.641  68.332  1.00  0.00    -0.381 C  
ENDROOT
BRANCH   5   6
HETATM    6  C   UNK A   0     -10.435  16.300  68.974  1.00  0.00    -0.276 C  
HETATM    7  N   UNK A   1     -11.736  15.883  69.135  1.00  0.00    -0.380 N  
HETATM    8  O   UNK A   0      -9.471  15.667  69.387  1.00  0.00    -0.251 OA 
HETATM    9  H   UNK A   1     -12.454  16.512  68.773  1.00  0.00     0.000 HD 
BRANCH   7  10
HETATM   10  C   UNK A   1     -12.195  14.710  69.730  1.00  0.00    -0.302 C  
HETATM   11  C   UNK A   1     -12.241  13.548  69.031  1.00  0.00    -0.224 C  
HETATM   12  C   UNK A   1     -12.734  14.568  71.141  1.00  0.00    -0.338 C  
HETATM   13  O   UNK A   1     -13.384  15.638  71.638  1.00  0.00    -0.485 OA 
HETATM   14  O   UNK A   1     -12.744  13.498  71.734  1.00  0.00    -0.312 OA 
BRANCH  11  15
HETATM   15  C   UNK A   1     -11.881  13.344  67.591  1.00  0.00    -0.394 C  
BRANCH  15  16
HETATM   16  C   UNK A   1     -10.435  12.901  67.298  1.00  0.00    -0.236 C  
BRANCH  16  17
HETATM   17  C   UNK A   1      -9.936  12.159  68.546  1.00  0.00    -0.180 C  
BRANCH  17  18
HETATM   18  C   UNK A   1      -8.646  11.368  68.370  1.00  0.00    -0.156 C  
BRANCH  18  19
HETATM   19  S   UNK A   1      -9.088   9.604  68.600  1.00  0.00    -0.134 SA 
BRANCH  19  20
HETATM   20  C   UNK A   1     -10.323   9.424  67.270  1.00  0.00    -0.260 C  
BRANCH  20  21
HETATM   21  C   UNK A   1      -9.657   8.937  65.973  1.00  0.00    -0.250 C  
HETATM   22  N   UNK A   1      -8.255   8.454  66.191  1.00  0.00    -0.108 NA 
HETATM   23  C   UNK A   1      -9.610  10.122  65.006  1.00  0.00    -0.299 C  
HETATM   24  O   UNK A   1     -10.557  10.536  64.360  1.00  0.00    -0.235 OA 
HETATM   25  O   UNK A   1      -8.378  10.697  64.993  1.00  0.00    -0.169 OA 
HETATM   26  H1  UNK A   1      -7.813   8.131  65.330  1.00  0.00     0.000 HD 
HETATM   27  H2  UNK A   1      -8.224   7.733  66.912  1.00  0.00     0.000 HD 
ENDBRANCH  20  21
ENDBRANCH  19  20
ENDBRANCH  18  19
ENDBRANCH  17  18
ENDBRANCH  16  17
ENDBRANCH  15  16
ENDBRANCH  11  15
ENDBRANCH   7  10
ENDBRANCH   5   6
TORSDOF 9
ENDMDL
MODEL      129
REMARK 921   NORMALIZED FREE ENERGY PREDICTED BY IDOCK:   -4.70 KCAL/MOL
REMARK 922        TOTAL FREE ENERGY PREDICTED BY IDOCK:   -8.14 KCAL/MOL
REMARK 923 INTER-LIGAND FREE ENERGY PREDICTED BY IDOCK:   -6.94 KCAL/MOL
REMARK 924 INTRA-LIGAND FREE ENERGY PREDICTED BY IDOCK:   -1.20 KCAL/MOL
REMARK 927      BINDING AFFINITY PREDICTED BY RF-SCORE:    0.00 PKD
ROOT
HETATM    1  C   UNK A   0     -13.792  13.222  72.480  1.00  0.00    -0.554 C  
HETATM    2  C   UNK A   0     -13.262  14.378  71.666  1.00  0.00    -0.425 C  
HETATM    3  C   UNK A   0     -11.985  15.008  72.167  1.00  0.00    -0.456 C  
HETATM    4  C   UNK A   0     -14.353  15.258  71.103  1.00  0.00    -0.384 C  
HETATM    5  C   UNK A   0     -11.958  14.206  70.877  1.00  0.00    -0.371 C  
ENDROOT
BRANCH   5   6
HETATM    6  C   UNK A   0     -11.645  14.966  69.621  1.00  0.00    -0.303 C  
HETATM    7  N   UNK A   1     -10.935  14.292  68.654  1.00  0.00    -0.243 N  
HETATM    8  O   UNK A   0     -11.958  16.146  69.524  1.00  0.00    -0.242 OA 
HETATM    9  H   UNK A   1     -10.709  13.319  68.863  1.00  0.00     0.000 HD 
BRANCH   7  10
HETATM   10  C   UNK A   1     -10.487  14.774  67.426  1.00  0.00    -0.256 C  
HETATM   11  C   UNK A   1      -9.350  15.510  67.341  1.00  0.00    -0.211 C  
HETATM   12  C   UNK A   1     -11.183  14.613  66.088  1.00  0.00    -0.341 C  
HETATM   13  O   UNK A   1     -12.529  14.576  66.120  1.00  0.00    -0.315 OA 
HETATM   14  O   UNK A   1     -10.584  14.692  65.023  1.00  0.00    -0.390 OA 
BRANCH  11  15
HETATM   15  C   UNK A   1      -8.467  15.943  68.472  1.00  0.00    -0.184 C  
BRANCH  15  16
HETATM   16  C   UNK A   1      -7.282  15.019  68.814  1.00  0.00    -0.125 C  
BRANCH  16  17
HETATM   17  C   UNK A   1      -7.035  14.138  67.582  1.00  0.00    -0.200 C  
BRANCH  17  18
HETATM   18  C   UNK A   1      -6.137  12.928  67.807  1.00  0.00    -0.143 C  
BRANCH  18  19
HETATM   19  S   UNK A   1      -6.960  11.515  66.980  1.00  0.00    -0.141 SA 
BRANCH  19  20
HETATM   20  C   UNK A   1      -8.621  11.655  67.719  1.00  0.00    -0.144 C  
BRANCH  20  21
HETATM   21  C   UNK A   1      -9.643  10.832  66.919  1.00  0.00    -0.171 C  
HETATM   22  N   UNK A   1     -10.154  11.563  65.714  1.00  0.00    -0.227 NA 
HETATM   23  C   UNK A   1     -10.828  10.544  67.842  1.00  0.00    -0.282 C  
HETATM   24  O   UNK A   1     -10.842   9.698  68.721  1.00  0.00    -0.219 OA 
HETATM   25  O   UNK A   1     -11.862  11.392  67.595  1.00  0.00    -0.609 OA 
HETATM   26  H1  UNK A   1     -10.833  11.017  65.183  1.00  0.00     0.000 HD 
HETATM   27  H2  UNK A   1      -9.385  11.871  65.119  1.00  0.00     0.000 HD 
ENDBRANCH  20  21
ENDBRANCH  19  20
ENDBRANCH  18  19
ENDBRANCH  17  18
ENDBRANCH  16  17
ENDBRANCH  15  16
ENDBRANCH  11  15
ENDBRANCH   7  10
ENDBRANCH   5   6
TORSDOF 9
ENDMDL
MODEL      130
REMARK 921   NORMALIZED FREE ENERGY PREDICTED BY IDOCK:   -4.68 KCAL/MOL
REMARK 922        TOTAL FREE ENERGY PREDICTED BY IDOCK:   -8.11 KCAL/MOL
REMARK 923 INTER-LIGAND FREE ENERGY PREDICTED BY IDOCK:   -6.53 KCAL/MOL
REMARK 924 INTRA-LIGAND FREE ENERGY PREDICTED BY IDOCK:   -1.58 KCAL/MOL
REMARK 927      BINDING AFFINITY PREDICTED BY RF-SCORE:    0.00 PKD
ROOT
HETATM    1  C   UNK A   0     -12.528  14.288  64.255  1.00  0.00    -0.304 C  
HETATM    2  C   UNK A   0     -11.538  13.727  65.248  1.00  0.00    -0.330 C  
HETATM    3  C   UNK A   0     -11.834  14.000  66.702  1.00  0.00    -0.443 C  
HETATM    4  C   UNK A   0     -10.110  13.781  64.759  1.00  0.00    -0.259 C  
HETATM    5  C   UNK A   0     -11.969  12.582  66.173  1.00  0.00    -0.432 C  
ENDROOT
BRANCH   5   6
HETATM    6  C   UNK A   0     -11.016  11.565  66.730  1.00  0.00    -0.294 C  
HETATM    7  N   UNK A   1     -10.454  11.852  67.952  1.00  0.00    -0.199 N  
HETATM    8  O   UNK A   0     -10.720  10.577  66.070  1.00  0.00    -0.139 OA 
HETATM    9  H   UNK A   1     -10.760  12.720  68.392  1.00  0.00     0.000 HD 
BRANCH   7  10
HETATM   10  C   UNK A   1      -9.519  11.103  68.664  1.00  0.00    -0.193 C  
HETATM   11  C   UNK A   1      -8.188  11.295  68.480  1.00  0.00    -0.150 C  
HETATM   12  C   UNK A   1      -9.819   9.988  69.648  1.00  0.00    -0.235 C  
HETATM   13  O   UNK A   1     -10.921   9.255  69.395  1.00  0.00    -0.212 OA 
HETATM   14  O   UNK A   1      -9.026   9.648  70.516  1.00  0.00    -0.236 OA 
BRANCH  11  15
HETATM   15  C   UNK A   1      -7.537  12.240  67.517  1.00  0.00    -0.155 C  
BRANCH  15  16
HETATM   16  C   UNK A   1      -7.014  13.567  68.101  1.00  0.00    -0.118 C  
BRANCH  16  17
HETATM   17  C   UNK A   1      -8.061  14.640  67.771  1.00  0.00    -0.160 C  
BRANCH  17  18
HETATM   18  C   UNK A   1      -7.516  15.930  67.171  1.00  0.00    -0.227 C  
BRANCH  18  19
HETATM   19  S   UNK A   1      -7.026  16.990  68.583  1.00  0.00    -0.213 SA 
BRANCH  19  20
HETATM   20  C   UNK A   1      -8.000  18.482  68.197  1.00  0.00    -0.289 C  
BRANCH  20  21
HETATM   21  C   UNK A   1      -8.882  18.251  66.960  1.00  0.00    -0.266 C  
HETATM   22  N   UNK A   1      -8.742  19.341  65.941  1.00  0.00    -0.421 NA 
HETATM   23  C   UNK A   1     -10.337  18.218  67.429  1.00  0.00    -0.392 C  
HETATM   24  O   UNK A   1     -10.873  17.273  67.983  1.00  0.00    -0.381 OA 
HETATM   25  O   UNK A   1     -10.956  19.406  67.198  1.00  0.00    -0.483 OA 
HETATM   26  H1  UNK A   1      -9.328  19.188  65.120  1.00  0.00     0.000 HD 
HETATM   27  H2  UNK A   1      -7.766  19.473  65.676  1.00  0.00     0.000 HD 
ENDBRANCH  20  21
ENDBRANCH  19  20
ENDBRANCH  18  19
ENDBRANCH  17  18
ENDBRANCH  16  17
ENDBRANCH  15  16
ENDBRANCH  11  15
ENDBRANCH   7  10
ENDBRANCH   5   6
TORSDOF 9
ENDMDL
MODEL      131
REMARK 921   NORMALIZED FREE ENERGY PREDICTED BY IDOCK:   -4.67 KCAL/MOL
REMARK 922        TOTAL FREE ENERGY PREDICTED BY IDOCK:   -8.10 KCAL/MOL
REMARK 923 INTER-LIGAND FREE ENERGY PREDICTED BY IDOCK:   -7.40 KCAL/MOL
REMARK 924 INTRA-LIGAND FREE ENERGY PREDICTED BY IDOCK:   -0.70 KCAL/MOL
REMARK 927      BINDING AFFINITY PREDICTED BY RF-SCORE:    0.00 PKD
ROOT
HETATM    1  C   UNK A   0      -9.651  20.460  66.843  1.00  0.00    -0.546 C  
HETATM    2  C   UNK A   0      -9.451  19.008  67.207  1.00  0.00    -0.353 C  
HETATM    3  C   UNK A   0     -10.046  18.567  68.522  1.00  0.00    -0.414 C  
HETATM    4  C   UNK A   0      -8.104  18.469  66.784  1.00  0.00    -0.267 C  
HETATM    5  C   UNK A   0     -10.660  18.064  67.227  1.00  0.00    -0.358 C  
ENDROOT
BRANCH   5   6
HETATM    6  C   UNK A   0     -10.563  16.590  66.966  1.00  0.00    -0.255 C  
HETATM    7  N   UNK A   1     -10.294  15.789  68.052  1.00  0.00    -0.246 N  
HETATM    8  O   UNK A   0     -10.652  16.162  65.822  1.00  0.00    -0.340 OA 
HETATM    9  H   UNK A   1     -10.215  16.266  68.950  1.00  0.00     0.000 HD 
BRANCH   7  10
HETATM   10  C   UNK A   1     -10.116  14.407  68.077  1.00  0.00    -0.232 C  
HETATM   11  C   UNK A   1     -10.950  13.611  68.794  1.00  0.00    -0.292 C  
HETATM   12  C   UNK A   1      -9.003  13.630  67.400  1.00  0.00    -0.218 C  
HETATM   13  O   UNK A   1      -7.816  14.260  67.301  1.00  0.00    -0.189 OA 
HETATM   14  O   UNK A   1      -9.108  12.444  67.119  1.00  0.00    -0.185 OA 
BRANCH  11  15
HETATM   15  C   UNK A   1     -12.092  14.047  69.659  1.00  0.00    -0.408 C  
BRANCH  15  16
HETATM   16  C   UNK A   1     -12.476  13.109  70.820  1.00  0.00    -0.389 C  
BRANCH  16  17
HETATM   17  C   UNK A   1     -12.009  11.701  70.425  1.00  0.00    -0.448 C  
BRANCH  17  18
HETATM   18  C   UNK A   1     -12.740  10.550  71.105  1.00  0.00    -0.418 C  
BRANCH  18  19
HETATM   19  S   UNK A   1     -11.466   9.294  71.503  1.00  0.00    -0.403 SA 
BRANCH  19  20
HETATM   20  C   UNK A   1     -10.929   8.860  69.815  1.00  0.00    -0.156 C  
BRANCH  20  21
HETATM   21  C   UNK A   1     -11.024   7.343  69.588  1.00  0.00    -0.172 C  
HETATM   22  N   UNK A   1     -12.281   6.754  70.154  1.00  0.00    -0.605 NA 
HETATM   23  C   UNK A   1      -9.833   6.694  70.294  1.00  0.00    -0.174 C  
HETATM   24  O   UNK A   1      -8.689   6.681  69.868  1.00  0.00    -0.138 OA 
HETATM   25  O   UNK A   1     -10.196   6.170  71.494  1.00  0.00    -0.196 OA 
HETATM   26  H1  UNK A   1     -12.345   5.747  70.003  1.00  0.00     0.000 HD 
HETATM   27  H2  UNK A   1     -13.106   7.232  69.791  1.00  0.00     0.000 HD 
ENDBRANCH  20  21
ENDBRANCH  19  20
ENDBRANCH  18  19
ENDBRANCH  17  18
ENDBRANCH  16  17
ENDBRANCH  15  16
ENDBRANCH  11  15
ENDBRANCH   7  10
ENDBRANCH   5   6
TORSDOF 9
ENDMDL
MODEL      132
REMARK 921   NORMALIZED FREE ENERGY PREDICTED BY IDOCK:   -4.67 KCAL/MOL
REMARK 922        TOTAL FREE ENERGY PREDICTED BY IDOCK:   -8.10 KCAL/MOL
REMARK 923 INTER-LIGAND FREE ENERGY PREDICTED BY IDOCK:   -7.26 KCAL/MOL
REMARK 924 INTRA-LIGAND FREE ENERGY PREDICTED BY IDOCK:   -0.84 KCAL/MOL
REMARK 927      BINDING AFFINITY PREDICTED BY RF-SCORE:    0.00 PKD
ROOT
HETATM    1  C   UNK A   0      -9.907   3.265  72.116  1.00  0.00    -0.237 C  
HETATM    2  C   UNK A   0     -10.182   4.610  72.746  1.00  0.00    -0.232 C  
HETATM    3  C   UNK A   0      -9.060   5.195  73.570  1.00  0.00    -0.124 C  
HETATM    4  C   UNK A   0     -11.608   4.766  73.217  1.00  0.00    -0.286 C  
HETATM    5  C   UNK A   0      -9.420   5.844  72.244  1.00  0.00    -0.158 C  
ENDROOT
BRANCH   5   6
HETATM    6  C   UNK A   0      -9.972   7.239  72.308  1.00  0.00    -0.169 C  
HETATM    7  N   UNK A   1     -10.626   7.694  71.187  1.00  0.00    -0.220 N  
HETATM    8  O   UNK A   0      -9.770   7.933  73.296  1.00  0.00    -0.282 OA 
HETATM    9  H   UNK A   1     -10.707   7.030  70.416  1.00  0.00     0.000 HD 
BRANCH   7  10
HETATM   10  C   UNK A   1     -11.191   8.950  70.973  1.00  0.00    -0.281 C  
HETATM   11  C   UNK A   1     -10.483   9.936  70.365  1.00  0.00    -0.347 C  
HETATM   12  C   UNK A   1     -12.571   9.403  71.410  1.00  0.00    -0.348 C  
HETATM   13  O   UNK A   1     -13.040   8.859  72.550  1.00  0.00    -0.422 OA 
HETATM   14  O   UNK A   1     -13.157  10.333  70.872  1.00  0.00    -0.386 OA 
BRANCH  11  15
HETATM   15  C   UNK A   1      -9.063   9.870  69.894  1.00  0.00    -0.241 C  
BRANCH  15  16
HETATM   16  C   UNK A   1      -8.843   9.508  68.412  1.00  0.00    -0.124 C  
BRANCH  16  17
HETATM   17  C   UNK A   1      -8.629  10.829  67.660  1.00  0.00    -0.123 C  
BRANCH  17  18
HETATM   18  C   UNK A   1      -8.756  10.752  66.144  1.00  0.00    -0.180 C  
BRANCH  18  19
HETATM   19  S   UNK A   1     -10.515  11.088  65.756  1.00  0.00    -0.197 SA 
BRANCH  19  20
HETATM   20  C   UNK A   1     -10.309  12.075  64.236  1.00  0.00    -0.322 C  
BRANCH  20  21
HETATM   21  C   UNK A   1     -10.620  13.556  64.503  1.00  0.00    -0.424 C  
HETATM   22  N   UNK A   1     -10.369  13.948  65.928  1.00  0.00    -0.302 NA 
HETATM   23  C   UNK A   1     -12.102  13.779  64.199  1.00  0.00    -0.433 C  
HETATM   24  O   UNK A   1     -12.579  13.885  63.082  1.00  0.00    -0.775 OA 
HETATM   25  O   UNK A   1     -12.842  13.794  65.339  1.00  0.00    -0.650 OA 
HETATM   26  H1  UNK A   1     -10.576  14.932  66.106  1.00  0.00     0.000 HD 
HETATM   27  H2  UNK A   1      -9.417  13.717  66.210  1.00  0.00     0.000 HD 
ENDBRANCH  20  21
ENDBRANCH  19  20
ENDBRANCH  18  19
ENDBRANCH  17  18
ENDBRANCH  16  17
ENDBRANCH  15  16
ENDBRANCH  11  15
ENDBRANCH   7  10
ENDBRANCH   5   6
TORSDOF 9
ENDMDL
MODEL      133
REMARK 921   NORMALIZED FREE ENERGY PREDICTED BY IDOCK:   -4.66 KCAL/MOL
REMARK 922        TOTAL FREE ENERGY PREDICTED BY IDOCK:   -8.08 KCAL/MOL
REMARK 923 INTER-LIGAND FREE ENERGY PREDICTED BY IDOCK:   -6.95 KCAL/MOL
REMARK 924 INTRA-LIGAND FREE ENERGY PREDICTED BY IDOCK:   -1.13 KCAL/MOL
REMARK 927      BINDING AFFINITY PREDICTED BY RF-SCORE:    0.00 PKD
ROOT
HETATM    1  C   UNK A   0     -11.411  15.752  64.673  1.00  0.00    -0.343 C  
HETATM    2  C   UNK A   0     -11.588  14.279  64.954  1.00  0.00    -0.384 C  
HETATM    3  C   UNK A   0     -12.035  13.432  63.787  1.00  0.00    -0.517 C  
HETATM    4  C   UNK A   0     -12.145  13.999  66.330  1.00  0.00    -0.482 C  
HETATM    5  C   UNK A   0     -10.621  13.271  64.319  1.00  0.00    -0.402 C  
ENDROOT
BRANCH   5   6
HETATM    6  C   UNK A   0     -10.285  11.945  64.938  1.00  0.00    -0.271 C  
HETATM    7  N   UNK A   1      -9.242  11.931  65.835  1.00  0.00    -0.370 N  
HETATM    8  O   UNK A   0     -10.881  10.936  64.585  1.00  0.00    -0.263 OA 
HETATM    9  H   UNK A   1      -8.806  12.834  66.027  1.00  0.00     0.000 HD 
BRANCH   7  10
HETATM   10  C   UNK A   1      -8.707  10.838  66.513  1.00  0.00    -0.151 C  
HETATM   11  C   UNK A   1      -9.100  10.545  67.779  1.00  0.00    -0.140 C  
HETATM   12  C   UNK A   1      -7.631   9.899  66.001  1.00  0.00    -0.106 C  
HETATM   13  O   UNK A   1      -6.713  10.442  65.179  1.00  0.00    -0.126 OA 
HETATM   14  O   UNK A   1      -7.487   8.766  66.440  1.00  0.00    -0.086 OA 
BRANCH  11  15
HETATM   15  C   UNK A   1     -10.067  11.315  68.625  1.00  0.00    -0.216 C  
BRANCH  15  16
HETATM   16  C   UNK A   1     -11.434  10.651  68.887  1.00  0.00    -0.334 C  
BRANCH  16  17
HETATM   17  C   UNK A   1     -11.746  10.849  70.376  1.00  0.00    -0.444 C  
BRANCH  17  18
HETATM   18  C   UNK A   1     -12.630   9.784  71.012  1.00  0.00    -0.314 C  
BRANCH  18  19
HETATM   19  S   UNK A   1     -11.509   8.668  71.938  1.00  0.00    -0.372 SA 
BRANCH  19  20
HETATM   20  C   UNK A   1     -11.788   7.121  71.013  1.00  0.00    -0.333 C  
BRANCH  20  21
HETATM   21  C   UNK A   1     -10.832   7.024  69.814  1.00  0.00    -0.248 C  
HETATM   22  N   UNK A   1     -11.501   6.483  68.586  1.00  0.00    -0.562 NA 
HETATM   23  C   UNK A   1      -9.700   6.070  70.201  1.00  0.00    -0.167 C  
HETATM   24  O   UNK A   1      -8.759   6.357  70.923  1.00  0.00    -0.134 OA 
HETATM   25  O   UNK A   1      -9.900   4.832  69.679  1.00  0.00    -0.187 OA 
HETATM   26  H1  UNK A   1     -10.866   6.419  67.790  1.00  0.00     0.000 HD 
HETATM   27  H2  UNK A   1     -12.330   7.028  68.351  1.00  0.00     0.000 HD 
ENDBRANCH  20  21
ENDBRANCH  19  20
ENDBRANCH  18  19
ENDBRANCH  17  18
ENDBRANCH  16  17
ENDBRANCH  15  16
ENDBRANCH  11  15
ENDBRANCH   7  10
ENDBRANCH   5   6
TORSDOF 9
ENDMDL
MODEL      134
REMARK 921   NORMALIZED FREE ENERGY PREDICTED BY IDOCK:   -4.65 KCAL/MOL
REMARK 922        TOTAL FREE ENERGY PREDICTED BY IDOCK:   -8.06 KCAL/MOL
REMARK 923 INTER-LIGAND FREE ENERGY PREDICTED BY IDOCK:   -7.73 KCAL/MOL
REMARK 924 INTRA-LIGAND FREE ENERGY PREDICTED BY IDOCK:   -0.33 KCAL/MOL
REMARK 927      BINDING AFFINITY PREDICTED BY RF-SCORE:    0.00 PKD
ROOT
HETATM    1  C   UNK A   0     -13.505  10.136  71.527  1.00  0.00    -0.351 C  
HETATM    2  C   UNK A   0     -12.555  11.042  70.781  1.00  0.00    -0.463 C  
HETATM    3  C   UNK A   0     -11.191  10.469  70.484  1.00  0.00    -0.348 C  
HETATM    4  C   UNK A   0     -12.680  12.493  71.182  1.00  0.00    -0.340 C  
HETATM    5  C   UNK A   0     -12.163  10.696  69.339  1.00  0.00    -0.173 C  
ENDROOT
BRANCH   5   6
HETATM    6  C   UNK A   0     -11.771  11.725  68.319  1.00  0.00    -0.310 C  
HETATM    7  N   UNK A   1     -11.324  11.251  67.107  1.00  0.00    -0.277 N  
HETATM    8  O   UNK A   0     -11.790  12.914  68.610  1.00  0.00    -0.305 OA 
HETATM    9  H   UNK A   1     -11.328  10.237  66.995  1.00  0.00     0.000 HD 
BRANCH   7  10
HETATM   10  C   UNK A   1     -10.866  11.985  66.015  1.00  0.00    -0.289 C  
HETATM   11  C   UNK A   1      -9.589  12.443  65.970  1.00  0.00    -0.214 C  
HETATM   12  C   UNK A   1     -11.684  12.411  64.810  1.00  0.00    -0.368 C  
HETATM   13  O   UNK A   1     -12.988  12.661  65.037  1.00  0.00    -0.812 OA 
HETATM   14  O   UNK A   1     -11.171  12.688  63.734  1.00  0.00    -0.403 OA 
BRANCH  11  15
HETATM   15  C   UNK A   1      -8.539  12.294  67.028  1.00  0.00    -0.191 C  
BRANCH  15  16
HETATM   16  C   UNK A   1      -8.341  13.492  67.977  1.00  0.00    -0.168 C  
BRANCH  16  17
HETATM   17  C   UNK A   1      -8.412  14.759  67.113  1.00  0.00    -0.247 C  
BRANCH  17  18
HETATM   18  C   UNK A   1      -9.678  15.593  67.269  1.00  0.00    -0.219 C  
BRANCH  18  19
HETATM   19  S   UNK A   1     -10.284  15.932  65.574  1.00  0.00    -0.329 SA 
BRANCH  19  20
HETATM   20  C   UNK A   1     -10.632  17.716  65.725  1.00  0.00    -0.177 C  
BRANCH  20  21
HETATM   21  C   UNK A   1      -9.814  18.334  66.871  1.00  0.00    -0.331 C  
HETATM   22  N   UNK A   1     -10.676  18.812  68.000  1.00  0.00    -0.313 NA 
HETATM   23  C   UNK A   1      -9.059  19.537  66.302  1.00  0.00    -0.360 C  
HETATM   24  O   UNK A   1      -8.049  19.472  65.622  1.00  0.00    -0.409 OA 
HETATM   25  O   UNK A   1      -9.688  20.702  66.608  1.00  0.00    -0.336 OA 
HETATM   26  H1  UNK A   1     -10.133  19.223  68.760  1.00  0.00     0.000 HD 
HETATM   27  H2  UNK A   1     -11.279  18.065  68.343  1.00  0.00     0.000 HD 
ENDBRANCH  20  21
ENDBRANCH  19  20
ENDBRANCH  18  19
ENDBRANCH  17  18
ENDBRANCH  16  17
ENDBRANCH  15  16
ENDBRANCH  11  15
ENDBRANCH   7  10
ENDBRANCH   5   6
TORSDOF 9
ENDMDL
MODEL      135
REMARK 921   NORMALIZED FREE ENERGY PREDICTED BY IDOCK:   -4.65 KCAL/MOL
REMARK 922        TOTAL FREE ENERGY PREDICTED BY IDOCK:   -8.06 KCAL/MOL
REMARK 923 INTER-LIGAND FREE ENERGY PREDICTED BY IDOCK:   -7.13 KCAL/MOL
REMARK 924 INTRA-LIGAND FREE ENERGY PREDICTED BY IDOCK:   -0.93 KCAL/MOL
REMARK 927      BINDING AFFINITY PREDICTED BY RF-SCORE:    0.00 PKD
ROOT
HETATM    1  C   UNK A   0     -12.445  14.664  64.330  1.00  0.00    -0.267 C  
HETATM    2  C   UNK A   0     -11.473  13.711  64.985  1.00  0.00    -0.338 C  
HETATM    3  C   UNK A   0     -12.076  12.691  65.920  1.00  0.00    -0.459 C  
HETATM    4  C   UNK A   0     -10.156  14.358  65.342  1.00  0.00    -0.388 C  
HETATM    5  C   UNK A   0     -11.497  12.228  64.595  1.00  0.00    -0.392 C  
ENDROOT
BRANCH   5   6
HETATM    6  C   UNK A   0     -10.292  11.335  64.665  1.00  0.00    -0.315 C  
HETATM    7  N   UNK A   1      -9.979  10.819  65.901  1.00  0.00    -0.239 N  
HETATM    8  O   UNK A   0      -9.604  11.155  63.668  1.00  0.00    -0.240 OA 
HETATM    9  H   UNK A   1     -10.615  11.063  66.661  1.00  0.00     0.000 HD 
BRANCH   7  10
HETATM   10  C   UNK A   1      -8.902  10.004  66.243  1.00  0.00    -0.143 C  
HETATM   11  C   UNK A   1      -9.100   8.725  66.651  1.00  0.00    -0.196 C  
HETATM   12  C   UNK A   1      -7.440  10.408  66.270  1.00  0.00    -0.127 C  
HETATM   13  O   UNK A   1      -7.186  11.691  66.592  1.00  0.00    -0.114 OA 
HETATM   14  O   UNK A   1      -6.532   9.592  66.185  1.00  0.00    -0.067 OA 
BRANCH  11  15
HETATM   15  C   UNK A   1     -10.414   8.029  66.837  1.00  0.00    -0.387 C  
BRANCH  15  16
HETATM   16  C   UNK A   1     -10.366   6.497  66.996  1.00  0.00    -0.319 C  
BRANCH  16  17
HETATM   17  C   UNK A   1     -11.113   6.162  68.294  1.00  0.00    -0.336 C  
BRANCH  17  18
HETATM   18  C   UNK A   1     -10.243   6.023  69.538  1.00  0.00    -0.208 C  
BRANCH  18  19
HETATM   19  S   UNK A   1     -11.276   6.561  70.952  1.00  0.00    -0.330 SA 
BRANCH  19  20
HETATM   20  C   UNK A   1     -10.919   8.350  70.927  1.00  0.00    -0.243 C  
BRANCH  20  21
HETATM   21  C   UNK A   1     -11.767   9.088  71.975  1.00  0.00    -0.347 C  
HETATM   22  N   UNK A   1     -12.493   8.151  72.892  1.00  0.00    -0.653 NA 
HETATM   23  C   UNK A   1     -12.806   9.922  71.223  1.00  0.00    -0.390 C  
HETATM   24  O   UNK A   1     -12.581  10.983  70.664  1.00  0.00    -0.337 OA 
HETATM   25  O   UNK A   1     -14.016   9.305  71.209  1.00  0.00    -0.291 OA 
HETATM   26  H1  UNK A   1     -13.056   8.641  73.588  1.00  0.00     0.000 HD 
HETATM   27  H2  UNK A   1     -11.847   7.499  73.337  1.00  0.00     0.000 HD 
ENDBRANCH  20  21
ENDBRANCH  19  20
ENDBRANCH  18  19
ENDBRANCH  17  18
ENDBRANCH  16  17
ENDBRANCH  15  16
ENDBRANCH  11  15
ENDBRANCH   7  10
ENDBRANCH   5   6
TORSDOF 9
ENDMDL
MODEL      136
REMARK 921   NORMALIZED FREE ENERGY PREDICTED BY IDOCK:   -4.64 KCAL/MOL
REMARK 922        TOTAL FREE ENERGY PREDICTED BY IDOCK:   -8.05 KCAL/MOL
REMARK 923 INTER-LIGAND FREE ENERGY PREDICTED BY IDOCK:   -7.32 KCAL/MOL
REMARK 924 INTRA-LIGAND FREE ENERGY PREDICTED BY IDOCK:   -0.73 KCAL/MOL
REMARK 927      BINDING AFFINITY PREDICTED BY RF-SCORE:    0.00 PKD
ROOT
HETATM    1  C   UNK A   0     -10.313   7.183  73.733  1.00  0.00    -0.390 C  
HETATM    2  C   UNK A   0     -10.527   7.564  72.287  1.00  0.00    -0.275 C  
HETATM    3  C   UNK A   0     -11.816   8.286  71.977  1.00  0.00    -0.408 C  
HETATM    4  C   UNK A   0     -10.002   6.533  71.316  1.00  0.00    -0.200 C  
HETATM    5  C   UNK A   0     -10.504   9.046  71.889  1.00  0.00    -0.373 C  
ENDROOT
BRANCH   5   6
HETATM    6  C   UNK A   0     -10.099   9.530  70.527  1.00  0.00    -0.285 C  
HETATM    7  N   UNK A   1     -11.088   9.578  69.572  1.00  0.00    -0.387 N  
HETATM    8  O   UNK A   0      -8.926   9.792  70.294  1.00  0.00    -0.232 OA 
HETATM    9  H   UNK A   1     -12.022   9.310  69.882  1.00  0.00     0.000 HD 
BRANCH   7  10
HETATM   10  C   UNK A   1     -10.971   9.949  68.234  1.00  0.00    -0.196 C  
HETATM   11  C   UNK A   1     -11.309  11.198  67.826  1.00  0.00    -0.364 C  
HETATM   12  C   UNK A   1     -10.533   9.056  67.088  1.00  0.00    -0.263 C  
HETATM   13  O   UNK A   1     -10.859   7.754  67.193  1.00  0.00    -0.313 OA 
HETATM   14  O   UNK A   1     -10.073   9.505  66.046  1.00  0.00    -0.295 OA 
BRANCH  11  15
HETATM   15  C   UNK A   1     -11.871  12.302  68.668  1.00  0.00    -0.354 C  
BRANCH  15  16
HETATM   16  C   UNK A   1     -11.024  13.585  68.777  1.00  0.00    -0.291 C  
BRANCH  16  17
HETATM   17  C   UNK A   1     -11.361  14.445  67.552  1.00  0.00    -0.345 C  
BRANCH  17  18
HETATM   18  C   UNK A   1     -10.365  14.372  66.401  1.00  0.00    -0.287 C  
BRANCH  18  19
HETATM   19  S   UNK A   1     -10.104  16.094  65.834  1.00  0.00    -0.361 SA 
BRANCH  19  20
HETATM   20  C   UNK A   1      -9.671  16.875  67.424  1.00  0.00    -0.247 C  
BRANCH  20  21
HETATM   21  C   UNK A   1      -8.216  17.371  67.408  1.00  0.00    -0.201 C  
HETATM   22  N   UNK A   1      -7.583  17.341  68.767  1.00  0.00    -0.256 NA 
HETATM   23  C   UNK A   1      -8.227  18.820  66.918  1.00  0.00    -0.265 C  
HETATM   24  O   UNK A   1      -8.353  19.164  65.755  1.00  0.00    -0.431 OA 
HETATM   25  O   UNK A   1      -8.130  19.692  67.956  1.00  0.00    -0.297 OA 
HETATM   26  H1  UNK A   1      -6.617  17.669  68.757  1.00  0.00     0.000 HD 
HETATM   27  H2  UNK A   1      -7.649  16.411  69.181  1.00  0.00     0.000 HD 
ENDBRANCH  20  21
ENDBRANCH  19  20
ENDBRANCH  18  19
ENDBRANCH  17  18
ENDBRANCH  16  17
ENDBRANCH  15  16
ENDBRANCH  11  15
ENDBRANCH   7  10
ENDBRANCH   5   6
TORSDOF 9
ENDMDL
MODEL      137
REMARK 921   NORMALIZED FREE ENERGY PREDICTED BY IDOCK:   -4.63 KCAL/MOL
REMARK 922        TOTAL FREE ENERGY PREDICTED BY IDOCK:   -8.03 KCAL/MOL
REMARK 923 INTER-LIGAND FREE ENERGY PREDICTED BY IDOCK:   -6.06 KCAL/MOL
REMARK 924 INTRA-LIGAND FREE ENERGY PREDICTED BY IDOCK:   -1.97 KCAL/MOL
REMARK 927      BINDING AFFINITY PREDICTED BY RF-SCORE:    0.00 PKD
ROOT
HETATM    1  C   UNK A   0     -10.568   9.699  70.896  1.00  0.00    -0.386 C  
HETATM    2  C   UNK A   0     -10.923  10.224  69.525  1.00  0.00    -0.300 C  
HETATM    3  C   UNK A   0     -12.237  10.959  69.419  1.00  0.00    -0.293 C  
HETATM    4  C   UNK A   0     -10.496   9.303  68.407  1.00  0.00    -0.246 C  
HETATM    5  C   UNK A   0     -10.941  11.738  69.281  1.00  0.00    -0.231 C  
ENDROOT
BRANCH   5   6
HETATM    6  C   UNK A   0     -10.672  12.364  67.944  1.00  0.00    -0.220 C  
HETATM    7  N   UNK A   1     -11.616  12.154  66.965  1.00  0.00    -0.349 N  
HETATM    8  O   UNK A   0      -9.622  12.963  67.746  1.00  0.00    -0.198 OA 
HETATM    9  H   UNK A   1     -12.437  11.615  67.244  1.00  0.00     0.000 HD 
BRANCH   7  10
HETATM   10  C   UNK A   1     -11.591  12.586  65.640  1.00  0.00    -0.389 C  
HETATM   11  C   UNK A   1     -11.022  11.825  64.672  1.00  0.00    -0.368 C  
HETATM   12  C   UNK A   1     -12.107  13.913  65.116  1.00  0.00    -0.403 C  
HETATM   13  O   UNK A   1     -12.014  14.959  65.959  1.00  0.00    -0.213 OA 
HETATM   14  O   UNK A   1     -12.422  14.077  63.945  1.00  0.00    -0.696 OA 
BRANCH  11  15
HETATM   15  C   UNK A   1     -10.330  10.507  64.848  1.00  0.00    -0.307 C  
BRANCH  15  16
HETATM   16  C   UNK A   1      -8.806  10.553  65.071  1.00  0.00    -0.207 C  
BRANCH  16  17
HETATM   17  C   UNK A   1      -8.345   9.105  65.282  1.00  0.00    -0.152 C  
BRANCH  17  18
HETATM   18  C   UNK A   1      -6.910   8.934  65.767  1.00  0.00    -0.072 C  
BRANCH  18  19
HETATM   19  S   UNK A   1      -6.300  10.613  66.174  1.00  0.00    -0.134 SA 
BRANCH  19  20
HETATM   20  C   UNK A   1      -5.900  10.373  67.937  1.00  0.00    -0.044 C  
BRANCH  20  21
HETATM   21  C   UNK A   1      -7.147  10.586  68.811  1.00  0.00    -0.073 C  
HETATM   22  N   UNK A   1      -7.276  12.000  69.293  1.00  0.00    -0.320 NA 
HETATM   23  C   UNK A   1      -7.016   9.675  70.032  1.00  0.00    -0.093 C  
HETATM   24  O   UNK A   1      -7.226   8.473  70.034  1.00  0.00    -0.049 OA 
HETATM   25  O   UNK A   1      -6.582  10.366  71.118  1.00  0.00    -0.314 OA 
HETATM   26  H1  UNK A   1      -8.103  12.142  69.873  1.00  0.00     0.000 HD 
HETATM   27  H2  UNK A   1      -7.259  12.656  68.513  1.00  0.00     0.000 HD 
ENDBRANCH  20  21
ENDBRANCH  19  20
ENDBRANCH  18  19
ENDBRANCH  17  18
ENDBRANCH  16  17
ENDBRANCH  15  16
ENDBRANCH  11  15
ENDBRANCH   7  10
ENDBRANCH   5   6
TORSDOF 9
ENDMDL
MODEL      138
REMARK 921   NORMALIZED FREE ENERGY PREDICTED BY IDOCK:   -4.63 KCAL/MOL
REMARK 922        TOTAL FREE ENERGY PREDICTED BY IDOCK:   -8.03 KCAL/MOL
REMARK 923 INTER-LIGAND FREE ENERGY PREDICTED BY IDOCK:   -6.72 KCAL/MOL
REMARK 924 INTRA-LIGAND FREE ENERGY PREDICTED BY IDOCK:   -1.31 KCAL/MOL
REMARK 927      BINDING AFFINITY PREDICTED BY RF-SCORE:    0.00 PKD
ROOT
HETATM    1  C   UNK A   0     -12.299  12.241  63.499  1.00  0.00    -0.670 C  
HETATM    2  C   UNK A   0     -11.293  12.094  64.616  1.00  0.00    -0.382 C  
HETATM    3  C   UNK A   0     -10.734  13.380  65.175  1.00  0.00    -0.339 C  
HETATM    4  C   UNK A   0     -10.382  10.902  64.441  1.00  0.00    -0.430 C  
HETATM    5  C   UNK A   0     -11.671  12.546  66.032  1.00  0.00    -0.472 C  
ENDROOT
BRANCH   5   6
HETATM    6  C   UNK A   0     -11.086  11.944  67.276  1.00  0.00    -0.288 C  
HETATM    7  N   UNK A   1     -11.618  10.745  67.689  1.00  0.00    -0.248 N  
HETATM    8  O   UNK A   0     -10.229  12.551  67.906  1.00  0.00    -0.207 OA 
HETATM    9  H   UNK A   1     -12.347  10.351  67.094  1.00  0.00     0.000 HD 
BRANCH   7  10
HETATM   10  C   UNK A   1     -11.286  10.002  68.820  1.00  0.00    -0.122 C  
HETATM   11  C   UNK A   1     -10.766   8.754  68.704  1.00  0.00    -0.109 C  
HETATM   12  C   UNK A   1     -11.493  10.418  70.264  1.00  0.00    -0.325 C  
HETATM   13  O   UNK A   1     -12.563  11.200  70.507  1.00  0.00    -0.306 OA 
HETATM   14  O   UNK A   1     -10.847   9.937  71.185  1.00  0.00    -0.309 OA 
BRANCH  11  15
HETATM   15  C   UNK A   1     -10.520   7.991  67.438  1.00  0.00    -0.357 C  
BRANCH  15  16
HETATM   16  C   UNK A   1     -10.949   6.511  67.430  1.00  0.00    -0.458 C  
BRANCH  16  17
HETATM   17  C   UNK A   1     -10.926   6.034  68.888  1.00  0.00    -0.395 C  
BRANCH  17  18
HETATM   18  C   UNK A   1      -9.950   4.906  69.198  1.00  0.00    -0.182 C  
BRANCH  18  19
HETATM   19  S   UNK A   1      -9.658   4.957  71.006  1.00  0.00    -0.186 SA 
BRANCH  19  20
HETATM   20  C   UNK A   1      -9.868   6.745  71.298  1.00  0.00    -0.176 C  
BRANCH  20  21
HETATM   21  C   UNK A   1      -8.566   7.366  71.828  1.00  0.00    -0.115 C  
HETATM   22  N   UNK A   1      -8.807   8.604  72.639  1.00  0.00    -0.396 NA 
HETATM   23  C   UNK A   1      -7.710   7.746  70.619  1.00  0.00    -0.091 C  
HETATM   24  O   UNK A   1      -7.058   6.962  69.949  1.00  0.00    -0.066 OA 
HETATM   25  O   UNK A   1      -7.804   9.074  70.346  1.00  0.00    -0.086 OA 
HETATM   26  H1  UNK A   1      -7.943   9.016  72.991  1.00  0.00     0.000 HD 
HETATM   27  H2  UNK A   1      -9.463   8.422  73.399  1.00  0.00     0.000 HD 
ENDBRANCH  20  21
ENDBRANCH  19  20
ENDBRANCH  18  19
ENDBRANCH  17  18
ENDBRANCH  16  17
ENDBRANCH  15  16
ENDBRANCH  11  15
ENDBRANCH   7  10
ENDBRANCH   5   6
TORSDOF 9
ENDMDL
MODEL      139
REMARK 921   NORMALIZED FREE ENERGY PREDICTED BY IDOCK:   -4.62 KCAL/MOL
REMARK 922        TOTAL FREE ENERGY PREDICTED BY IDOCK:   -8.02 KCAL/MOL
REMARK 923 INTER-LIGAND FREE ENERGY PREDICTED BY IDOCK:   -7.45 KCAL/MOL
REMARK 924 INTRA-LIGAND FREE ENERGY PREDICTED BY IDOCK:   -0.57 KCAL/MOL
REMARK 927      BINDING AFFINITY PREDICTED BY RF-SCORE:    0.00 PKD
ROOT
HETATM    1  C   UNK A   0      -9.514   4.045  66.964  1.00  0.00    -0.223 C  
HETATM    2  C   UNK A   0      -9.484   4.671  68.339  1.00  0.00    -0.201 C  
HETATM    3  C   UNK A   0      -8.716   5.965  68.459  1.00  0.00    -0.112 C  
HETATM    4  C   UNK A   0      -9.404   3.655  69.453  1.00  0.00    -0.246 C  
HETATM    5  C   UNK A   0     -10.231   5.989  68.580  1.00  0.00    -0.233 C  
ENDROOT
BRANCH   5   6
HETATM    6  C   UNK A   0     -10.791   6.390  69.914  1.00  0.00    -0.310 C  
HETATM    7  N   UNK A   1      -9.891   6.857  70.844  1.00  0.00    -0.185 N  
HETATM    8  O   UNK A   0     -11.981   6.228  70.152  1.00  0.00    -0.267 OA 
HETATM    9  H   UNK A   1      -8.921   6.921  70.535  1.00  0.00     0.000 HD 
BRANCH   7  10
HETATM   10  C   UNK A   1     -10.142   7.253  72.157  1.00  0.00    -0.181 C  
HETATM   11  C   UNK A   1     -10.746   8.439  72.422  1.00  0.00    -0.405 C  
HETATM   12  C   UNK A   1      -9.751   6.500  73.414  1.00  0.00    -0.169 C  
HETATM   13  O   UNK A   1      -8.617   5.778  73.345  1.00  0.00    -0.118 OA 
HETATM   14  O   UNK A   1     -10.321   6.671  74.484  1.00  0.00    -0.328 OA 
BRANCH  11  15
HETATM   15  C   UNK A   1     -11.175   9.476  71.429  1.00  0.00    -0.452 C  
BRANCH  15  16
HETATM   16  C   UNK A   1     -12.538  10.150  71.681  1.00  0.00    -0.533 C  
BRANCH  16  17
HETATM   17  C   UNK A   1     -12.604  11.376  70.761  1.00  0.00    -0.409 C  
BRANCH  17  18
HETATM   18  C   UNK A   1     -12.207  11.133  69.310  1.00  0.00    -0.226 C  
BRANCH  18  19
HETATM   19  S   UNK A   1     -11.824  12.778  68.598  1.00  0.00    -0.259 SA 
BRANCH  19  20
HETATM   20  C   UNK A   1     -11.247  12.267  66.945  1.00  0.00    -0.312 C  
BRANCH  20  21
HETATM   21  C   UNK A   1     -11.798  13.208  65.862  1.00  0.00    -0.406 C  
HETATM   22  N   UNK A   1     -12.731  12.514  64.917  1.00  0.00    -0.754 NA 
HETATM   23  C   UNK A   1     -10.608  13.735  65.059  1.00  0.00    -0.389 C  
HETATM   24  O   UNK A   1      -9.847  14.614  65.429  1.00  0.00    -0.337 OA 
HETATM   25  O   UNK A   1     -10.467  13.060  63.887  1.00  0.00    -0.392 OA 
HETATM   26  H1  UNK A   1     -13.097  13.138  64.198  1.00  0.00     0.000 HD 
HETATM   27  H2  UNK A   1     -13.488  12.053  65.422  1.00  0.00     0.000 HD 
ENDBRANCH  20  21
ENDBRANCH  19  20
ENDBRANCH  18  19
ENDBRANCH  17  18
ENDBRANCH  16  17
ENDBRANCH  15  16
ENDBRANCH  11  15
ENDBRANCH   7  10
ENDBRANCH   5   6
TORSDOF 9
ENDMDL
MODEL      140
REMARK 921   NORMALIZED FREE ENERGY PREDICTED BY IDOCK:   -4.61 KCAL/MOL
REMARK 922        TOTAL FREE ENERGY PREDICTED BY IDOCK:   -8.00 KCAL/MOL
REMARK 923 INTER-LIGAND FREE ENERGY PREDICTED BY IDOCK:   -6.68 KCAL/MOL
REMARK 924 INTRA-LIGAND FREE ENERGY PREDICTED BY IDOCK:   -1.32 KCAL/MOL
REMARK 927      BINDING AFFINITY PREDICTED BY RF-SCORE:    0.00 PKD
ROOT
HETATM    1  C   UNK A   0      -7.706  17.458  67.108  1.00  0.00    -0.229 C  
HETATM    2  C   UNK A   0      -8.599  16.342  67.599  1.00  0.00    -0.181 C  
HETATM    3  C   UNK A   0      -8.193  15.696  68.901  1.00  0.00    -0.204 C  
HETATM    4  C   UNK A   0      -9.146  15.484  66.483  1.00  0.00    -0.336 C  
HETATM    5  C   UNK A   0      -9.444  16.557  68.861  1.00  0.00    -0.260 C  
ENDROOT
BRANCH   5   6
HETATM    6  C   UNK A   0     -10.748  15.857  69.112  1.00  0.00    -0.259 C  
HETATM    7  N   UNK A   1     -10.694  14.700  69.853  1.00  0.00    -0.454 N  
HETATM    8  O   UNK A   0     -11.779  16.284  68.606  1.00  0.00    -0.314 OA 
HETATM    9  H   UNK A   1      -9.771  14.432  70.196  1.00  0.00     0.000 HD 
BRANCH   7  10
HETATM   10  C   UNK A   1     -11.743  13.847  70.191  1.00  0.00    -0.244 C  
HETATM   11  C   UNK A   1     -12.019  12.752  69.439  1.00  0.00    -0.321 C  
HETATM   12  C   UNK A   1     -12.713  14.028  71.343  1.00  0.00    -0.364 C  
HETATM   13  O   UNK A   1     -13.009  15.299  71.675  1.00  0.00    -0.345 OA 
HETATM   14  O   UNK A   1     -13.335  13.093  71.830  1.00  0.00    -0.409 OA 
BRANCH  11  15
HETATM   15  C   UNK A   1     -11.330  12.323  68.180  1.00  0.00    -0.349 C  
BRANCH  15  16
HETATM   16  C   UNK A   1     -11.802  12.991  66.874  1.00  0.00    -0.442 C  
BRANCH  16  17
HETATM   17  C   UNK A   1     -11.467  12.021  65.733  1.00  0.00    -0.377 C  
BRANCH  17  18
HETATM   18  C   UNK A   1     -10.482  12.542  64.693  1.00  0.00    -0.319 C  
BRANCH  18  19
HETATM   19  S   UNK A   1      -9.542  11.086  64.098  1.00  0.00    -0.280 SA 
BRANCH  19  20
HETATM   20  C   UNK A   1      -9.964   9.894  65.411  1.00  0.00    -0.279 C  
BRANCH  20  21
HETATM   21  C   UNK A   1      -8.691   9.312  66.047  1.00  0.00    -0.153 C  
HETATM   22  N   UNK A   1      -7.439   9.845  65.419  1.00  0.00    -0.125 NA 
HETATM   23  C   UNK A   1      -8.722   7.797  65.840  1.00  0.00    -0.149 C  
HETATM   24  O   UNK A   1      -9.398   7.015  66.489  1.00  0.00    -0.160 OA 
HETATM   25  O   UNK A   1      -7.934   7.426  64.796  1.00  0.00    -0.124 OA 
HETATM   26  H1  UNK A   1      -6.594   9.459  65.840  1.00  0.00     0.000 HD 
HETATM   27  H2  UNK A   1      -7.425  10.865  65.437  1.00  0.00     0.000 HD 
ENDBRANCH  20  21
ENDBRANCH  19  20
ENDBRANCH  18  19
ENDBRANCH  17  18
ENDBRANCH  16  17
ENDBRANCH  15  16
ENDBRANCH  11  15
ENDBRANCH   7  10
ENDBRANCH   5   6
TORSDOF 9
ENDMDL
MODEL      141
REMARK 921   NORMALIZED FREE ENERGY PREDICTED BY IDOCK:   -4.61 KCAL/MOL
REMARK 922        TOTAL FREE ENERGY PREDICTED BY IDOCK:   -8.00 KCAL/MOL
REMARK 923 INTER-LIGAND FREE ENERGY PREDICTED BY IDOCK:   -6.96 KCAL/MOL
REMARK 924 INTRA-LIGAND FREE ENERGY PREDICTED BY IDOCK:   -1.04 KCAL/MOL
REMARK 927      BINDING AFFINITY PREDICTED BY RF-SCORE:    0.00 PKD
ROOT
HETATM    1  C   UNK A   0     -13.018  15.055  73.288  1.00  0.00    -0.642 C  
HETATM    2  C   UNK A   0     -12.877  14.554  71.870  1.00  0.00    -0.410 C  
HETATM    3  C   UNK A   0     -13.759  15.221  70.843  1.00  0.00    -0.363 C  
HETATM    4  C   UNK A   0     -12.635  13.066  71.787  1.00  0.00    -0.153 C  
HETATM    5  C   UNK A   0     -12.261  15.473  70.807  1.00  0.00    -0.450 C  
ENDROOT
BRANCH   5   6
HETATM    6  C   UNK A   0     -11.524  14.965  69.602  1.00  0.00    -0.294 C  
HETATM    7  N   UNK A   1     -12.288  14.414  68.600  1.00  0.00    -0.584 N  
HETATM    8  O   UNK A   0     -10.300  14.990  69.577  1.00  0.00    -0.240 OA 
HETATM    9  H   UNK A   1     -13.298  14.428  68.749  1.00  0.00     0.000 HD 
BRANCH   7  10
HETATM   10  C   UNK A   1     -11.855  13.841  67.406  1.00  0.00    -0.396 C  
HETATM   11  C   UNK A   1     -11.700  12.497  67.296  1.00  0.00    -0.431 C  
HETATM   12  C   UNK A   1     -11.456  14.582  66.144  1.00  0.00    -0.357 C  
HETATM   13  O   UNK A   1     -10.894  15.793  66.320  1.00  0.00    -0.306 OA 
HETATM   14  O   UNK A   1     -11.471  14.053  65.040  1.00  0.00    -0.320 OA 
BRANCH  11  15
HETATM   15  C   UNK A   1     -11.907  11.473  68.370  1.00  0.00    -0.353 C  
BRANCH  15  16
HETATM   16  C   UNK A   1     -10.636  10.875  69.006  1.00  0.00    -0.248 C  
BRANCH  16  17
HETATM   17  C   UNK A   1     -11.074   9.623  69.778  1.00  0.00    -0.247 C  
BRANCH  17  18
HETATM   18  C   UNK A   1     -10.237   8.373  69.534  1.00  0.00    -0.207 C  
BRANCH  18  19
HETATM   19  S   UNK A   1     -10.768   7.144  70.785  1.00  0.00    -0.236 SA 
BRANCH  19  20
HETATM   20  C   UNK A   1      -9.163   6.355  71.138  1.00  0.00    -0.156 C  
BRANCH  20  21
HETATM   21  C   UNK A   1      -8.158   7.384  71.680  1.00  0.00    -0.099 C  
HETATM   22  N   UNK A   1      -6.781   7.193  71.121  1.00  0.00    -0.051 NA 
HETATM   23  C   UNK A   1      -8.088   7.206  73.197  1.00  0.00    -0.101 C  
HETATM   24  O   UNK A   1      -8.923   7.611  73.989  1.00  0.00    -0.245 OA 
HETATM   25  O   UNK A   1      -6.992   6.487  73.558  1.00  0.00    -0.077 OA 
HETATM   26  H1  UNK A   1      -6.113   7.876  71.480  1.00  0.00     0.000 HD 
HETATM   27  H2  UNK A   1      -6.795   7.196  70.101  1.00  0.00     0.000 HD 
ENDBRANCH  20  21
ENDBRANCH  19  20
ENDBRANCH  18  19
ENDBRANCH  17  18
ENDBRANCH  16  17
ENDBRANCH  15  16
ENDBRANCH  11  15
ENDBRANCH   7  10
ENDBRANCH   5   6
TORSDOF 9
ENDMDL
MODEL      142
REMARK 921   NORMALIZED FREE ENERGY PREDICTED BY IDOCK:   -4.60 KCAL/MOL
REMARK 922        TOTAL FREE ENERGY PREDICTED BY IDOCK:   -7.99 KCAL/MOL
REMARK 923 INTER-LIGAND FREE ENERGY PREDICTED BY IDOCK:   -7.56 KCAL/MOL
REMARK 924 INTRA-LIGAND FREE ENERGY PREDICTED BY IDOCK:   -0.42 KCAL/MOL
REMARK 927      BINDING AFFINITY PREDICTED BY RF-SCORE:    0.00 PKD
ROOT
HETATM    1  C   UNK A   0     -12.490  15.667  74.216  1.00  0.00    -0.804 C  
HETATM    2  C   UNK A   0     -12.695  15.576  72.722  1.00  0.00    -0.532 C  
HETATM    3  C   UNK A   0     -11.730  16.368  71.874  1.00  0.00    -0.419 C  
HETATM    4  C   UNK A   0     -14.150  15.508  72.324  1.00  0.00    -0.637 C  
HETATM    5  C   UNK A   0     -11.650  14.851  71.864  1.00  0.00    -0.335 C  
ENDROOT
BRANCH   5   6
HETATM    6  C   UNK A   0     -11.974  14.170  70.566  1.00  0.00    -0.323 C  
HETATM    7  N   UNK A   1     -11.673  12.831  70.482  1.00  0.00    -0.501 N  
HETATM    8  O   UNK A   0     -12.415  14.820  69.627  1.00  0.00    -0.247 OA 
HETATM    9  H   UNK A   1     -11.283  12.406  71.324  1.00  0.00     0.000 HD 
BRANCH   7  10
HETATM   10  C   UNK A   1     -11.835  11.982  69.389  1.00  0.00    -0.324 C  
HETATM   11  C   UNK A   1     -12.380  10.748  69.541  1.00  0.00    -0.208 C  
HETATM   12  C   UNK A   1     -11.404  12.260  67.961  1.00  0.00    -0.293 C  
HETATM   13  O   UNK A   1     -10.302  13.020  67.813  1.00  0.00    -0.219 OA 
HETATM   14  O   UNK A   1     -11.906  11.690  67.001  1.00  0.00    -0.591 OA 
BRANCH  11  15
HETATM   15  C   UNK A   1     -12.825  10.109  70.821  1.00  0.00    -0.388 C  
BRANCH  15  16
HETATM   16  C   UNK A   1     -11.715   9.631  71.776  1.00  0.00    -0.356 C  
BRANCH  16  17
HETATM   17  C   UNK A   1     -12.012   8.162  72.104  1.00  0.00    -0.413 C  
BRANCH  17  18
HETATM   18  C   UNK A   1     -10.933   7.431  72.894  1.00  0.00    -0.361 C  
BRANCH  18  19
HETATM   19  S   UNK A   1      -9.359   7.711  71.999  1.00  0.00    -0.148 SA 
BRANCH  19  20
HETATM   20  C   UNK A   1      -8.955   5.991  71.547  1.00  0.00    -0.143 C  
BRANCH  20  21
HETATM   21  C   UNK A   1      -7.454   5.845  71.254  1.00  0.00    -0.089 C  
HETATM   22  N   UNK A   1      -6.735   7.160  71.263  1.00  0.00    -0.051 NA 
HETATM   23  C   UNK A   1      -7.313   5.232  69.860  1.00  0.00    -0.064 C  
HETATM   24  O   UNK A   1      -7.476   4.052  69.594  1.00  0.00    -0.052 OA 
HETATM   25  O   UNK A   1      -7.031   6.182  68.930  1.00  0.00    -0.067 OA 
HETATM   26  H1  UNK A   1      -5.738   7.063  71.068  1.00  0.00     0.000 HD 
HETATM   27  H2  UNK A   1      -6.890   7.657  72.140  1.00  0.00     0.000 HD 
ENDBRANCH  20  21
ENDBRANCH  19  20
ENDBRANCH  18  19
ENDBRANCH  17  18
ENDBRANCH  16  17
ENDBRANCH  15  16
ENDBRANCH  11  15
ENDBRANCH   7  10
ENDBRANCH   5   6
TORSDOF 9
ENDMDL
MODEL      143
REMARK 921   NORMALIZED FREE ENERGY PREDICTED BY IDOCK:   -4.59 KCAL/MOL
REMARK 922        TOTAL FREE ENERGY PREDICTED BY IDOCK:   -7.97 KCAL/MOL
REMARK 923 INTER-LIGAND FREE ENERGY PREDICTED BY IDOCK:   -7.43 KCAL/MOL
REMARK 924 INTRA-LIGAND FREE ENERGY PREDICTED BY IDOCK:   -0.54 KCAL/MOL
REMARK 927      BINDING AFFINITY PREDICTED BY RF-SCORE:    0.00 PKD
ROOT
HETATM    1  C   UNK A   0      -8.600  16.581  68.487  1.00  0.00    -0.223 C  
HETATM    2  C   UNK A   0      -9.544  15.927  67.507  1.00  0.00    -0.221 C  
HETATM    3  C   UNK A   0      -9.123  15.964  66.058  1.00  0.00    -0.363 C  
HETATM    4  C   UNK A   0     -10.999  16.124  67.861  1.00  0.00    -0.318 C  
HETATM    5  C   UNK A   0      -9.115  14.637  66.797  1.00  0.00    -0.287 C  
ENDROOT
BRANCH   5   6
HETATM    6  C   UNK A   0     -10.084  13.596  66.316  1.00  0.00    -0.299 C  
HETATM    7  N   UNK A   1     -10.107  13.354  64.962  1.00  0.00    -0.530 N  
HETATM    8  O   UNK A   0     -10.852  13.062  67.106  1.00  0.00    -0.255 OA 
HETATM    9  H   UNK A   1      -9.437  13.883  64.402  1.00  0.00     0.000 HD 
BRANCH   7  10
HETATM   10  C   UNK A   1     -10.931  12.477  64.260  1.00  0.00    -0.360 C  
HETATM   11  C   UNK A   1     -10.530  11.207  63.996  1.00  0.00    -0.447 C  
HETATM   12  C   UNK A   1     -12.290  12.798  63.667  1.00  0.00    -0.463 C  
HETATM   13  O   UNK A   1     -12.464  14.061  63.235  1.00  0.00    -0.795 OA 
HETATM   14  O   UNK A   1     -13.120  11.932  63.425  1.00  0.00    -0.710 OA 
BRANCH  11  15
HETATM   15  C   UNK A   1      -9.212  10.585  64.344  1.00  0.00    -0.281 C  
BRANCH  15  16
HETATM   16  C   UNK A   1      -8.985  10.235  65.828  1.00  0.00    -0.185 C  
BRANCH  16  17
HETATM   17  C   UNK A   1      -9.784   8.955  66.110  1.00  0.00    -0.338 C  
BRANCH  17  18
HETATM   18  C   UNK A   1      -9.123   7.960  67.055  1.00  0.00    -0.137 C  
BRANCH  18  19
HETATM   19  S   UNK A   1     -10.482   7.106  67.938  1.00  0.00    -0.214 SA 
BRANCH  19  20
HETATM   20  C   UNK A   1     -10.405   5.480  67.116  1.00  0.00    -0.248 C  
BRANCH  20  21
HETATM   21  C   UNK A   1      -9.053   4.800  67.382  1.00  0.00    -0.117 C  
HETATM   22  N   UNK A   1      -8.350   4.404  66.119  1.00  0.00    -0.112 NA 
HETATM   23  C   UNK A   1      -9.325   3.533  68.194  1.00  0.00    -0.180 C  
HETATM   24  O   UNK A   1      -9.568   3.507  69.390  1.00  0.00    -0.181 OA 
HETATM   25  O   UNK A   1      -9.314   2.428  67.403  1.00  0.00    -0.158 OA 
HETATM   26  H1  UNK A   1      -7.452   3.952  66.294  1.00  0.00     0.000 HD 
HETATM   27  H2  UNK A   1      -8.242   5.203  65.493  1.00  0.00     0.000 HD 
ENDBRANCH  20  21
ENDBRANCH  19  20
ENDBRANCH  18  19
ENDBRANCH  17  18
ENDBRANCH  16  17
ENDBRANCH  15  16
ENDBRANCH  11  15
ENDBRANCH   7  10
ENDBRANCH   5   6
TORSDOF 9
ENDMDL
MODEL      144
REMARK 921   NORMALIZED FREE ENERGY PREDICTED BY IDOCK:   -4.58 KCAL/MOL
REMARK 922        TOTAL FREE ENERGY PREDICTED BY IDOCK:   -7.96 KCAL/MOL
REMARK 923 INTER-LIGAND FREE ENERGY PREDICTED BY IDOCK:   -6.71 KCAL/MOL
REMARK 924 INTRA-LIGAND FREE ENERGY PREDICTED BY IDOCK:   -1.25 KCAL/MOL
REMARK 927      BINDING AFFINITY PREDICTED BY RF-SCORE:    0.00 PKD
ROOT
HETATM    1  C   UNK A   0      -9.104   8.121  66.056  1.00  0.00    -0.218 C  
HETATM    2  C   UNK A   0      -8.968   8.201  67.558  1.00  0.00    -0.143 C  
HETATM    3  C   UNK A   0      -9.017   9.588  68.152  1.00  0.00    -0.123 C  
HETATM    4  C   UNK A   0      -8.005   7.185  68.123  1.00  0.00    -0.119 C  
HETATM    5  C   UNK A   0     -10.176   8.636  68.399  1.00  0.00    -0.232 C  
ENDROOT
BRANCH   5   6
HETATM    6  C   UNK A   0     -10.395   8.200  69.818  1.00  0.00    -0.216 C  
HETATM    7  N   UNK A   1     -11.327   7.208  70.020  1.00  0.00    -0.440 N  
HETATM    8  O   UNK A   0      -9.811   8.769  70.731  1.00  0.00    -0.179 OA 
HETATM    9  H   UNK A   1     -11.768   6.831  69.180  1.00  0.00     0.000 HD 
BRANCH   7  10
HETATM   10  C   UNK A   1     -11.744   6.655  71.229  1.00  0.00    -0.334 C  
HETATM   11  C   UNK A   1     -12.895   7.063  71.820  1.00  0.00    -0.365 C  
HETATM   12  C   UNK A   1     -10.997   5.622  72.051  1.00  0.00    -0.243 C  
HETATM   13  O   UNK A   1      -9.653   5.677  71.992  1.00  0.00    -0.150 OA 
HETATM   14  O   UNK A   1     -11.560   4.896  72.860  1.00  0.00    -0.239 OA 
BRANCH  11  15
HETATM   15  C   UNK A   1     -13.827   8.133  71.340  1.00  0.00    -0.317 C  
BRANCH  15  16
HETATM   16  C   UNK A   1     -13.904   9.415  72.192  1.00  0.00    -0.433 C  
BRANCH  16  17
HETATM   17  C   UNK A   1     -12.766  10.331  71.719  1.00  0.00    -0.535 C  
BRANCH  17  18
HETATM   18  C   UNK A   1     -12.810  10.731  70.250  1.00  0.00    -0.160 C  
BRANCH  18  19
HETATM   19  S   UNK A   1     -11.985  12.363  70.135  1.00  0.00    -0.219 SA 
BRANCH  19  20
HETATM   20  C   UNK A   1     -11.633  12.401  68.346  1.00  0.00    -0.324 C  
BRANCH  20  21
HETATM   21  C   UNK A   1     -10.674  13.553  68.005  1.00  0.00    -0.251 C  
HETATM   22  N   UNK A   1     -10.070  14.179  69.226  1.00  0.00    -0.435 NA 
HETATM   23  C   UNK A   1     -11.480  14.623  67.268  1.00  0.00    -0.372 C  
HETATM   24  O   UNK A   1     -11.817  14.563  66.097  1.00  0.00    -0.374 OA 
HETATM   25  O   UNK A   1     -11.826  15.640  68.101  1.00  0.00    -0.286 OA 
HETATM   26  H1  UNK A   1      -9.433  14.944  69.000  1.00  0.00     0.000 HD 
HETATM   27  H2  UNK A   1      -9.610  13.479  69.808  1.00  0.00     0.000 HD 
ENDBRANCH  20  21
ENDBRANCH  19  20
ENDBRANCH  18  19
ENDBRANCH  17  18
ENDBRANCH  16  17
ENDBRANCH  15  16
ENDBRANCH  11  15
ENDBRANCH   7  10
ENDBRANCH   5   6
TORSDOF 9
ENDMDL
MODEL      145
REMARK 921   NORMALIZED FREE ENERGY PREDICTED BY IDOCK:   -4.57 KCAL/MOL
REMARK 922        TOTAL FREE ENERGY PREDICTED BY IDOCK:   -7.95 KCAL/MOL
REMARK 923 INTER-LIGAND FREE ENERGY PREDICTED BY IDOCK:   -6.84 KCAL/MOL
REMARK 924 INTRA-LIGAND FREE ENERGY PREDICTED BY IDOCK:   -1.11 KCAL/MOL
REMARK 927      BINDING AFFINITY PREDICTED BY RF-SCORE:    0.00 PKD
ROOT
HETATM    1  C   UNK A   0     -13.332  12.038  72.053  1.00  0.00    -0.447 C  
HETATM    2  C   UNK A   0     -12.821  10.809  71.339  1.00  0.00    -0.557 C  
HETATM    3  C   UNK A   0     -12.618  10.946  69.849  1.00  0.00    -0.211 C  
HETATM    4  C   UNK A   0     -13.381   9.522  71.896  1.00  0.00    -0.518 C  
HETATM    5  C   UNK A   0     -11.403  10.815  70.752  1.00  0.00    -0.082 C  
ENDROOT
BRANCH   5   6
HETATM    6  C   UNK A   0     -10.573   9.577  70.584  1.00  0.00    -0.308 C  
HETATM    7  N   UNK A   1     -10.781   8.846  69.437  1.00  0.00    -0.322 N  
HETATM    8  O   UNK A   0      -9.810   9.225  71.475  1.00  0.00    -0.288 OA 
HETATM    9  H   UNK A   1     -11.464   9.228  68.782  1.00  0.00     0.000 HD 
BRANCH   7  10
HETATM   10  C   UNK A   1     -10.176   7.649  69.060  1.00  0.00    -0.206 C  
HETATM   11  C   UNK A   1      -9.296   7.609  68.028  1.00  0.00    -0.144 C  
HETATM   12  C   UNK A   1     -10.433   6.281  69.664  1.00  0.00    -0.238 C  
HETATM   13  O   UNK A   1     -11.681   6.060  70.120  1.00  0.00    -0.217 OA 
HETATM   14  O   UNK A   1      -9.623   5.367  69.585  1.00  0.00    -0.141 OA 
BRANCH  11  15
HETATM   15  C   UNK A   1      -8.886   8.750  67.146  1.00  0.00    -0.137 C  
BRANCH  15  16
HETATM   16  C   UNK A   1      -9.858   9.128  66.012  1.00  0.00    -0.342 C  
BRANCH  16  17
HETATM   17  C   UNK A   1      -9.719  10.641  65.795  1.00  0.00    -0.272 C  
BRANCH  17  18
HETATM   18  C   UNK A   1     -10.877  11.312  65.066  1.00  0.00    -0.216 C  
BRANCH  18  19
HETATM   19  S   UNK A   1     -10.208  12.859  64.349  1.00  0.00    -0.254 SA 
BRANCH  19  20
HETATM   20  C   UNK A   1     -10.219  13.914  65.836  1.00  0.00    -0.315 C  
BRANCH  20  21
HETATM   21  C   UNK A   1     -11.485  13.665  66.671  1.00  0.00    -0.343 C  
HETATM   22  N   UNK A   1     -12.703  14.303  66.073  1.00  0.00    -0.453 NA 
HETATM   23  C   UNK A   1     -11.255  14.277  68.053  1.00  0.00    -0.280 C  
HETATM   24  O   UNK A   1     -10.579  13.775  68.937  1.00  0.00    -0.248 OA 
HETATM   25  O   UNK A   1     -11.860  15.489  68.163  1.00  0.00    -0.301 OA 
HETATM   26  H1  UNK A   1     -13.544  14.137  66.627  1.00  0.00     0.000 HD 
HETATM   27  H2  UNK A   1     -12.836  14.005  65.107  1.00  0.00     0.000 HD 
ENDBRANCH  20  21
ENDBRANCH  19  20
ENDBRANCH  18  19
ENDBRANCH  17  18
ENDBRANCH  16  17
ENDBRANCH  15  16
ENDBRANCH  11  15
ENDBRANCH   7  10
ENDBRANCH   5   6
TORSDOF 9
ENDMDL
MODEL      146
REMARK 921   NORMALIZED FREE ENERGY PREDICTED BY IDOCK:   -4.57 KCAL/MOL
REMARK 922        TOTAL FREE ENERGY PREDICTED BY IDOCK:   -7.94 KCAL/MOL
REMARK 923 INTER-LIGAND FREE ENERGY PREDICTED BY IDOCK:   -6.98 KCAL/MOL
REMARK 924 INTRA-LIGAND FREE ENERGY PREDICTED BY IDOCK:   -0.96 KCAL/MOL
REMARK 927      BINDING AFFINITY PREDICTED BY RF-SCORE:    0.00 PKD
ROOT
HETATM    1  C   UNK A   0     -12.320  12.358  64.353  1.00  0.00    -0.532 C  
HETATM    2  C   UNK A   0     -11.448  12.674  65.545  1.00  0.00    -0.375 C  
HETATM    3  C   UNK A   0     -10.555  13.883  65.408  1.00  0.00    -0.344 C  
HETATM    4  C   UNK A   0     -10.927  11.441  66.244  1.00  0.00    -0.303 C  
HETATM    5  C   UNK A   0     -11.731  13.938  66.368  1.00  0.00    -0.403 C  
ENDROOT
BRANCH   5   6
HETATM    6  C   UNK A   0     -11.401  14.065  67.827  1.00  0.00    -0.303 C  
HETATM    7  N   UNK A   1     -12.375  13.671  68.715  1.00  0.00    -0.316 N  
HETATM    8  O   UNK A   0     -10.339  14.566  68.173  1.00  0.00    -0.226 OA 
HETATM    9  H   UNK A   1     -13.229  13.295  68.303  1.00  0.00     0.000 HD 
BRANCH   7  10
HETATM   10  C   UNK A   1     -12.339  13.723  70.107  1.00  0.00    -0.323 C  
HETATM   11  C   UNK A   1     -12.386  12.586  70.847  1.00  0.00    -0.349 C  
HETATM   12  C   UNK A   1     -12.303  14.976  70.961  1.00  0.00    -0.332 C  
HETATM   13  O   UNK A   1     -12.944  16.051  70.463  1.00  0.00    -0.337 OA 
HETATM   14  O   UNK A   1     -11.881  14.975  72.110  1.00  0.00    -0.369 OA 
BRANCH  11  15
HETATM   15  C   UNK A   1     -12.524  11.183  70.339  1.00  0.00    -0.382 C  
BRANCH  15  16
HETATM   16  C   UNK A   1     -12.666  10.075  71.401  1.00  0.00    -0.518 C  
BRANCH  16  17
HETATM   17  C   UNK A   1     -11.346   9.293  71.406  1.00  0.00    -0.434 C  
BRANCH  17  18
HETATM   18  C   UNK A   1     -10.904   8.737  70.057  1.00  0.00    -0.223 C  
BRANCH  18  19
HETATM   19  S   UNK A   1      -9.487   7.626  70.396  1.00  0.00    -0.163 SA 
BRANCH  19  20
HETATM   20  C   UNK A   1      -8.141   8.617  69.666  1.00  0.00    -0.112 C  
BRANCH  20  21
HETATM   21  C   UNK A   1      -7.589   9.622  70.689  1.00  0.00    -0.078 C  
HETATM   22  N   UNK A   1      -7.116  10.893  70.051  1.00  0.00    -0.395 NA 
HETATM   23  C   UNK A   1      -6.396   8.964  71.385  1.00  0.00    -0.073 C  
HETATM   24  O   UNK A   1      -6.476   8.120  72.262  1.00  0.00    -0.057 OA 
HETATM   25  O   UNK A   1      -5.219   9.401  70.864  1.00  0.00    -0.028 OA 
HETATM   26  H1  UNK A   1      -6.749  11.560  70.730  1.00  0.00     0.000 HD 
HETATM   27  H2  UNK A   1      -7.851  11.315  69.484  1.00  0.00     0.000 HD 
ENDBRANCH  20  21
ENDBRANCH  19  20
ENDBRANCH  18  19
ENDBRANCH  17  18
ENDBRANCH  16  17
ENDBRANCH  15  16
ENDBRANCH  11  15
ENDBRANCH   7  10
ENDBRANCH   5   6
TORSDOF 9
ENDMDL
MODEL      147
REMARK 921   NORMALIZED FREE ENERGY PREDICTED BY IDOCK:   -4.56 KCAL/MOL
REMARK 922        TOTAL FREE ENERGY PREDICTED BY IDOCK:   -7.93 KCAL/MOL
REMARK 923 INTER-LIGAND FREE ENERGY PREDICTED BY IDOCK:   -6.66 KCAL/MOL
REMARK 924 INTRA-LIGAND FREE ENERGY PREDICTED BY IDOCK:   -1.27 KCAL/MOL
REMARK 927      BINDING AFFINITY PREDICTED BY RF-SCORE:    0.00 PKD
ROOT
HETATM    1  C   UNK A   0      -5.412  13.382  67.605  1.00  0.00    -0.033 C  
HETATM    2  C   UNK A   0      -6.546  14.347  67.856  1.00  0.00    -0.179 C  
HETATM    3  C   UNK A   0      -6.302  15.392  68.917  1.00  0.00    -0.106 C  
HETATM    4  C   UNK A   0      -7.908  13.705  67.746  1.00  0.00    -0.172 C  
HETATM    5  C   UNK A   0      -6.379  15.820  67.461  1.00  0.00    -0.192 C  
ENDROOT
BRANCH   5   6
HETATM    6  C   UNK A   0      -7.528  16.710  67.083  1.00  0.00    -0.183 C  
HETATM    7  N   UNK A   1      -8.279  17.218  68.118  1.00  0.00    -0.223 N  
HETATM    8  O   UNK A   0      -7.798  16.894  65.903  1.00  0.00    -0.391 OA 
HETATM    9  H   UNK A   1      -7.970  16.971  69.058  1.00  0.00     0.000 HD 
BRANCH   7  10
HETATM   10  C   UNK A   1      -9.410  18.029  68.040  1.00  0.00    -0.272 C  
HETATM   11  C   UNK A   1     -10.653  17.487  68.009  1.00  0.00    -0.384 C  
HETATM   12  C   UNK A   1      -9.427  19.541  67.925  1.00  0.00    -0.336 C  
HETATM   13  O   UNK A   1      -8.398  20.097  67.257  1.00  0.00    -0.319 OA 
HETATM   14  O   UNK A   1     -10.395  20.213  68.255  1.00  0.00    -0.401 OA 
BRANCH  11  15
HETATM   15  C   UNK A   1     -11.004  16.030  68.005  1.00  0.00    -0.341 C  
BRANCH  15  16
HETATM   16  C   UNK A   1     -11.069  15.340  66.628  1.00  0.00    -0.276 C  
BRANCH  16  17
HETATM   17  C   UNK A   1     -12.034  14.156  66.770  1.00  0.00    -0.475 C  
BRANCH  17  18
HETATM   18  C   UNK A   1     -12.059  13.486  68.139  1.00  0.00    -0.255 C  
BRANCH  18  19
HETATM   19  S   UNK A   1     -11.497  11.762  67.880  1.00  0.00    -0.316 SA 
BRANCH  19  20
HETATM   20  C   UNK A   1     -12.258  10.971  69.336  1.00  0.00    -0.259 C  
BRANCH  20  21
HETATM   21  C   UNK A   1     -11.215  10.752  70.443  1.00  0.00    -0.186 C  
HETATM   22  N   UNK A   1      -9.903  10.261  69.909  1.00  0.00    -0.409 NA 
HETATM   23  C   UNK A   1     -11.769   9.691  71.396  1.00  0.00    -0.404 C  
HETATM   24  O   UNK A   1     -12.622   9.890  72.245  1.00  0.00    -0.294 OA 
HETATM   25  O   UNK A   1     -11.226   8.471  71.144  1.00  0.00    -0.249 OA 
HETATM   26  H1  UNK A   1      -9.210  10.115  70.643  1.00  0.00     0.000 HD 
HETATM   27  H2  UNK A   1      -9.545  10.886  69.187  1.00  0.00     0.000 HD 
ENDBRANCH  20  21
ENDBRANCH  19  20
ENDBRANCH  18  19
ENDBRANCH  17  18
ENDBRANCH  16  17
ENDBRANCH  15  16
ENDBRANCH  11  15
ENDBRANCH   7  10
ENDBRANCH   5   6
TORSDOF 9
ENDMDL
MODEL      148
REMARK 921   NORMALIZED FREE ENERGY PREDICTED BY IDOCK:   -4.56 KCAL/MOL
REMARK 922        TOTAL FREE ENERGY PREDICTED BY IDOCK:   -7.92 KCAL/MOL
REMARK 923 INTER-LIGAND FREE ENERGY PREDICTED BY IDOCK:   -6.71 KCAL/MOL
REMARK 924 INTRA-LIGAND FREE ENERGY PREDICTED BY IDOCK:   -1.21 KCAL/MOL
REMARK 927      BINDING AFFINITY PREDICTED BY RF-SCORE:    0.00 PKD
ROOT
HETATM    1  C   UNK A   0     -10.738   7.254  69.454  1.00  0.00    -0.236 C  
HETATM    2  C   UNK A   0      -9.956   8.028  68.418  1.00  0.00    -0.204 C  
HETATM    3  C   UNK A   0      -9.642   7.290  67.139  1.00  0.00    -0.203 C  
HETATM    4  C   UNK A   0      -8.917   8.944  69.020  1.00  0.00    -0.137 C  
HETATM    5  C   UNK A   0     -10.642   8.434  67.108  1.00  0.00    -0.326 C  
ENDROOT
BRANCH   5   6
HETATM    6  C   UNK A   0     -10.252   9.644  66.311  1.00  0.00    -0.216 C  
HETATM    7  N   UNK A   1     -10.723  10.856  66.760  1.00  0.00    -0.264 N  
HETATM    8  O   UNK A   0      -9.607   9.515  65.278  1.00  0.00    -0.283 OA 
HETATM    9  H   UNK A   1     -11.274  10.830  67.619  1.00  0.00     0.000 HD 
BRANCH   7  10
HETATM   10  C   UNK A   1     -10.542  12.113  66.188  1.00  0.00    -0.255 C  
HETATM   11  C   UNK A   1      -9.510  12.908  66.568  1.00  0.00    -0.251 C  
HETATM   12  C   UNK A   1     -11.443  12.773  65.162  1.00  0.00    -0.321 C  
HETATM   13  O   UNK A   1     -12.754  12.473  65.243  1.00  0.00    -0.654 OA 
HETATM   14  O   UNK A   1     -11.049  13.661  64.418  1.00  0.00    -0.375 OA 
BRANCH  11  15
HETATM   15  C   UNK A   1      -8.487  12.617  67.624  1.00  0.00    -0.173 C  
BRANCH  15  16
HETATM   16  C   UNK A   1      -7.269  13.560  67.682  1.00  0.00    -0.175 C  
BRANCH  16  17
HETATM   17  C   UNK A   1      -7.805  14.988  67.518  1.00  0.00    -0.203 C  
BRANCH  17  18
HETATM   18  C   UNK A   1      -7.391  15.976  68.602  1.00  0.00    -0.159 C  
BRANCH  18  19
HETATM   19  S   UNK A   1      -7.918  17.632  68.019  1.00  0.00    -0.249 SA 
BRANCH  19  20
HETATM   20  C   UNK A   1      -9.318  17.148  66.955  1.00  0.00    -0.249 C  
BRANCH  20  21
HETATM   21  C   UNK A   1     -10.656  17.522  67.613  1.00  0.00    -0.355 C  
HETATM   22  N   UNK A   1     -10.534  18.693  68.540  1.00  0.00    -0.386 NA 
HETATM   23  C   UNK A   1     -11.122  16.314  68.428  1.00  0.00    -0.362 C  
HETATM   24  O   UNK A   1     -11.637  15.311  67.962  1.00  0.00    -0.339 OA 
HETATM   25  O   UNK A   1     -10.843  16.474  69.749  1.00  0.00    -0.331 OA 
HETATM   26  H1  UNK A   1     -11.421  18.942  68.977  1.00  0.00     0.000 HD 
HETATM   27  H2  UNK A   1     -10.123  19.496  68.063  1.00  0.00     0.000 HD 
ENDBRANCH  20  21
ENDBRANCH  19  20
ENDBRANCH  18  19
ENDBRANCH  17  18
ENDBRANCH  16  17
ENDBRANCH  15  16
ENDBRANCH  11  15
ENDBRANCH   7  10
ENDBRANCH   5   6
TORSDOF 9
ENDMDL
MODEL      149
REMARK 921   NORMALIZED FREE ENERGY PREDICTED BY IDOCK:   -4.55 KCAL/MOL
REMARK 922        TOTAL FREE ENERGY PREDICTED BY IDOCK:   -7.91 KCAL/MOL
REMARK 923 INTER-LIGAND FREE ENERGY PREDICTED BY IDOCK:   -7.85 KCAL/MOL
REMARK 924 INTRA-LIGAND FREE ENERGY PREDICTED BY IDOCK:   -0.06 KCAL/MOL
REMARK 927      BINDING AFFINITY PREDICTED BY RF-SCORE:    0.00 PKD
ROOT
HETATM    1  C   UNK A   0     -11.398   8.559  71.919  1.00  0.00    -0.399 C  
HETATM    2  C   UNK A   0     -12.030   9.757  71.250  1.00  0.00    -0.471 C  
HETATM    3  C   UNK A   0     -13.530   9.712  71.094  1.00  0.00    -0.292 C  
HETATM    4  C   UNK A   0     -11.185  10.331  70.138  1.00  0.00    -0.387 C  
HETATM    5  C   UNK A   0     -12.918  10.697  72.076  1.00  0.00    -0.466 C  
ENDROOT
BRANCH   5   6
HETATM    6  C   UNK A   0     -13.096  12.154  71.763  1.00  0.00    -0.352 C  
HETATM    7  N   UNK A   1     -12.174  12.717  70.911  1.00  0.00    -0.447 N  
HETATM    8  O   UNK A   0     -13.983  12.795  72.312  1.00  0.00    -0.405 OA 
HETATM    9  H   UNK A   1     -11.465  12.085  70.538  1.00  0.00     0.000 HD 
BRANCH   7  10
HETATM   10  C   UNK A   1     -12.090  14.044  70.493  1.00  0.00    -0.353 C  
HETATM   11  C   UNK A   1     -12.065  14.358  69.173  1.00  0.00    -0.316 C  
HETATM   12  C   UNK A   1     -11.961  15.262  71.388  1.00  0.00    -0.368 C  
HETATM   13  O   UNK A   1     -11.287  15.083  72.540  1.00  0.00    -0.322 OA 
HETATM   14  O   UNK A   1     -12.285  16.384  71.019  1.00  0.00    -0.074 OA 
BRANCH  11  15
HETATM   15  C   UNK A   1     -12.074  13.404  68.018  1.00  0.00    -0.283 C  
BRANCH  15  16
HETATM   16  C   UNK A   1     -12.499  13.978  66.653  1.00  0.00    -0.296 C  
BRANCH  16  17
HETATM   17  C   UNK A   1     -12.221  12.890  65.607  1.00  0.00    -0.519 C  
BRANCH  17  18
HETATM   18  C   UNK A   1     -11.237  13.269  64.507  1.00  0.00    -0.362 C  
BRANCH  18  19
HETATM   19  S   UNK A   1     -10.685  11.697  63.745  1.00  0.00    -0.456 SA 
BRANCH  19  20
HETATM   20  C   UNK A   1     -10.026  10.856  65.224  1.00  0.00    -0.273 C  
BRANCH  20  21
HETATM   21  C   UNK A   1      -9.389   9.510  64.845  1.00  0.00    -0.198 C  
HETATM   22  N   UNK A   1      -9.655   8.441  65.862  1.00  0.00    -0.456 NA 
HETATM   23  C   UNK A   1      -7.876   9.723  64.761  1.00  0.00    -0.134 C  
HETATM   24  O   UNK A   1      -7.295  10.256  63.830  1.00  0.00    -0.134 OA 
HETATM   25  O   UNK A   1      -7.254   9.288  65.888  1.00  0.00    -0.088 OA 
HETATM   26  H1  UNK A   1      -9.231   7.548  65.611  1.00  0.00     0.000 HD 
HETATM   27  H2  UNK A   1     -10.655   8.337  66.032  1.00  0.00     0.000 HD 
ENDBRANCH  20  21
ENDBRANCH  19  20
ENDBRANCH  18  19
ENDBRANCH  17  18
ENDBRANCH  16  17
ENDBRANCH  15  16
ENDBRANCH  11  15
ENDBRANCH   7  10
ENDBRANCH   5   6
TORSDOF 9
ENDMDL
MODEL      150
REMARK 921   NORMALIZED FREE ENERGY PREDICTED BY IDOCK:   -4.54 KCAL/MOL
REMARK 922        TOTAL FREE ENERGY PREDICTED BY IDOCK:   -7.89 KCAL/MOL
REMARK 923 INTER-LIGAND FREE ENERGY PREDICTED BY IDOCK:   -7.30 KCAL/MOL
REMARK 924 INTRA-LIGAND FREE ENERGY PREDICTED BY IDOCK:   -0.59 KCAL/MOL
REMARK 927      BINDING AFFINITY PREDICTED BY RF-SCORE:    0.00 PKD
ROOT
HETATM    1  C   UNK A   0     -14.138   7.853  71.903  1.00  0.00    -0.471 C  
HETATM    2  C   UNK A   0     -12.693   7.851  71.464  1.00  0.00    -0.342 C  
HETATM    3  C   UNK A   0     -11.789   6.869  72.169  1.00  0.00    -0.318 C  
HETATM    4  C   UNK A   0     -12.173   9.227  71.125  1.00  0.00    -0.373 C  
HETATM    5  C   UNK A   0     -12.139   6.635  70.710  1.00  0.00    -0.364 C  
ENDROOT
BRANCH   5   6
HETATM    6  C   UNK A   0     -11.008   6.717  69.727  1.00  0.00    -0.313 C  
HETATM    7  N   UNK A   1     -11.346   6.963  68.417  1.00  0.00    -0.526 N  
HETATM    8  O   UNK A   0      -9.860   6.498  70.094  1.00  0.00    -0.166 OA 
HETATM    9  H   UNK A   1     -12.340   7.101  68.231  1.00  0.00     0.000 HD 
BRANCH   7  10
HETATM   10  C   UNK A   1     -10.500   7.047  67.312  1.00  0.00    -0.293 C  
HETATM   11  C   UNK A   1     -10.189   8.250  66.765  1.00  0.00    -0.375 C  
HETATM   12  C   UNK A   1      -9.883   5.883  66.561  1.00  0.00    -0.152 C  
HETATM   13  O   UNK A   1     -10.614   4.754  66.514  1.00  0.00    -0.259 OA 
HETATM   14  O   UNK A   1      -8.870   6.003  65.884  1.00  0.00    -0.152 OA 
BRANCH  11  15
HETATM   15  C   UNK A   1     -10.698   9.594  67.188  1.00  0.00    -0.258 C  
BRANCH  15  16
HETATM   16  C   UNK A   1      -9.636  10.662  67.515  1.00  0.00    -0.180 C  
BRANCH  16  17
HETATM   17  C   UNK A   1     -10.363  11.805  68.236  1.00  0.00    -0.217 C  
BRANCH  17  18
HETATM   18  C   UNK A   1     -11.720  12.190  67.658  1.00  0.00    -0.316 C  
BRANCH  18  19
HETATM   19  S   UNK A   1     -11.784  14.022  67.670  1.00  0.00    -0.395 SA 
BRANCH  19  20
HETATM   20  C   UNK A   1     -10.019  14.390  67.397  1.00  0.00    -0.242 C  
BRANCH  20  21
HETATM   21  C   UNK A   1      -9.530  15.467  68.378  1.00  0.00    -0.200 C  
HETATM   22  N   UNK A   1      -9.214  14.909  69.733  1.00  0.00    -0.442 NA 
HETATM   23  C   UNK A   1     -10.652  16.494  68.534  1.00  0.00    -0.318 C  
HETATM   24  O   UNK A   1     -10.923  17.363  67.722  1.00  0.00    -0.317 OA 
HETATM   25  O   UNK A   1     -11.355  16.286  69.678  1.00  0.00    -0.317 OA 
HETATM   26  H1  UNK A   1      -8.889  15.623  70.385  1.00  0.00     0.000 HD 
HETATM   27  H2  UNK A   1      -8.545  14.142  69.668  1.00  0.00     0.000 HD 
ENDBRANCH  20  21
ENDBRANCH  19  20
ENDBRANCH  18  19
ENDBRANCH  17  18
ENDBRANCH  16  17
ENDBRANCH  15  16
ENDBRANCH  11  15
ENDBRANCH   7  10
ENDBRANCH   5   6
TORSDOF 9
ENDMDL
MODEL      151
REMARK 921   NORMALIZED FREE ENERGY PREDICTED BY IDOCK:   -4.53 KCAL/MOL
REMARK 922        TOTAL FREE ENERGY PREDICTED BY IDOCK:   -7.88 KCAL/MOL
REMARK 923 INTER-LIGAND FREE ENERGY PREDICTED BY IDOCK:   -6.68 KCAL/MOL
REMARK 924 INTRA-LIGAND FREE ENERGY PREDICTED BY IDOCK:   -1.20 KCAL/MOL
REMARK 927      BINDING AFFINITY PREDICTED BY RF-SCORE:    0.00 PKD
ROOT
HETATM    1  C   UNK A   0      -9.365  19.472  66.287  1.00  0.00    -0.431 C  
HETATM    2  C   UNK A   0      -9.546  18.056  66.781  1.00  0.00    -0.303 C  
HETATM    3  C   UNK A   0      -9.907  17.032  65.733  1.00  0.00    -0.129 C  
HETATM    4  C   UNK A   0     -10.188  17.981  68.146  1.00  0.00    -0.392 C  
HETATM    5  C   UNK A   0      -8.529  16.983  66.372  1.00  0.00    -0.318 C  
ENDROOT
BRANCH   5   6
HETATM    6  C   UNK A   0      -8.220  15.775  67.209  1.00  0.00    -0.184 C  
HETATM    7  N   UNK A   1      -8.698  14.570  66.750  1.00  0.00    -0.380 N  
HETATM    8  O   UNK A   0      -7.633  15.903  68.276  1.00  0.00    -0.130 OA 
HETATM    9  H   UNK A   1      -9.197  14.596  65.860  1.00  0.00     0.000 HD 
BRANCH   7  10
HETATM   10  C   UNK A   1      -8.586  13.317  67.351  1.00  0.00    -0.204 C  
HETATM   11  C   UNK A   1      -9.575  12.836  68.146  1.00  0.00    -0.223 C  
HETATM   12  C   UNK A   1      -7.395  12.381  67.264  1.00  0.00    -0.127 C  
HETATM   13  O   UNK A   1      -6.187  12.967  67.159  1.00  0.00    -0.286 OA 
HETATM   14  O   UNK A   1      -7.493  11.177  67.458  1.00  0.00    -0.096 OA 
BRANCH  11  15
HETATM   15  C   UNK A   1     -10.844  13.533  68.530  1.00  0.00    -0.283 C  
BRANCH  15  16
HETATM   16  C   UNK A   1     -11.837  13.836  67.391  1.00  0.00    -0.431 C  
BRANCH  16  17
HETATM   17  C   UNK A   1     -11.855  12.601  66.479  1.00  0.00    -0.463 C  
BRANCH  17  18
HETATM   18  C   UNK A   1     -12.528  12.792  65.125  1.00  0.00    -0.501 C  
BRANCH  18  19
HETATM   19  S   UNK A   1     -11.524  11.854  63.913  1.00  0.00    -0.429 SA 
BRANCH  19  20
HETATM   20  C   UNK A   1     -10.298  11.114  65.042  1.00  0.00    -0.301 C  
BRANCH  20  21
HETATM   21  C   UNK A   1      -9.626   9.894  64.392  1.00  0.00    -0.189 C  
HETATM   22  N   UNK A   1      -9.225   8.854  65.394  1.00  0.00    -0.393 NA 
HETATM   23  C   UNK A   1      -8.363  10.386  63.682  1.00  0.00    -0.153 C  
HETATM   24  O   UNK A   1      -8.344  10.964  62.608  1.00  0.00    -0.196 OA 
HETATM   25  O   UNK A   1      -7.253  10.143  64.428  1.00  0.00    -0.138 OA 
HETATM   26  H1  UNK A   1      -8.780   8.045  64.963  1.00  0.00     0.000 HD 
HETATM   27  H2  UNK A   1     -10.020   8.572  65.968  1.00  0.00     0.000 HD 
ENDBRANCH  20  21
ENDBRANCH  19  20
ENDBRANCH  18  19
ENDBRANCH  17  18
ENDBRANCH  16  17
ENDBRANCH  15  16
ENDBRANCH  11  15
ENDBRANCH   7  10
ENDBRANCH   5   6
TORSDOF 9
ENDMDL
MODEL      152
REMARK 921   NORMALIZED FREE ENERGY PREDICTED BY IDOCK:   -4.53 KCAL/MOL
REMARK 922        TOTAL FREE ENERGY PREDICTED BY IDOCK:   -7.88 KCAL/MOL
REMARK 923 INTER-LIGAND FREE ENERGY PREDICTED BY IDOCK:   -7.49 KCAL/MOL
REMARK 924 INTRA-LIGAND FREE ENERGY PREDICTED BY IDOCK:   -0.39 KCAL/MOL
REMARK 927      BINDING AFFINITY PREDICTED BY RF-SCORE:    0.00 PKD
ROOT
HETATM    1  C   UNK A   0     -11.227   8.431  72.357  1.00  0.00    -0.438 C  
HETATM    2  C   UNK A   0     -11.885   9.497  71.513  1.00  0.00    -0.478 C  
HETATM    3  C   UNK A   0     -13.384   9.390  71.364  1.00  0.00    -0.417 C  
HETATM    4  C   UNK A   0     -11.049   9.918  70.328  1.00  0.00    -0.368 C  
HETATM    5  C   UNK A   0     -12.802  10.528  72.185  1.00  0.00    -0.283 C  
ENDROOT
BRANCH   5   6
HETATM    6  C   UNK A   0     -13.015  11.915  71.655  1.00  0.00    -0.342 C  
HETATM    7  N   UNK A   1     -12.123  12.355  70.705  1.00  0.00    -0.490 N  
HETATM    8  O   UNK A   0     -13.903  12.619  72.119  1.00  0.00    -0.384 OA 
HETATM    9  H   UNK A   1     -11.409  11.685  70.418  1.00  0.00     0.000 HD 
BRANCH   7  10
HETATM   10  C   UNK A   1     -12.073  13.602  70.085  1.00  0.00    -0.361 C  
HETATM   11  C   UNK A   1     -11.996  13.705  68.734  1.00  0.00    -0.394 C  
HETATM   12  C   UNK A   1     -12.041  14.951  70.779  1.00  0.00    -0.317 C  
HETATM   13  O   UNK A   1     -11.418  14.989  71.973  1.00  0.00    -0.389 OA 
HETATM   14  O   UNK A   1     -12.393  15.983  70.223  1.00  0.00    -0.275 OA 
BRANCH  11  15
HETATM   15  C   UNK A   1     -11.907  12.582  67.746  1.00  0.00    -0.375 C  
BRANCH  15  16
HETATM   16  C   UNK A   1     -10.718  12.617  66.768  1.00  0.00    -0.261 C  
BRANCH  16  17
HETATM   17  C   UNK A   1      -9.605  11.764  67.391  1.00  0.00    -0.173 C  
BRANCH  17  18
HETATM   18  C   UNK A   1      -8.202  12.015  66.852  1.00  0.00    -0.146 C  
BRANCH  18  19
HETATM   19  S   UNK A   1      -7.343  13.038  68.107  1.00  0.00    -0.133 SA 
BRANCH  19  20
HETATM   20  C   UNK A   1      -7.725  14.699  67.459  1.00  0.00    -0.195 C  
BRANCH  20  21
HETATM   21  C   UNK A   1      -7.987  15.685  68.609  1.00  0.00    -0.152 C  
HETATM   22  N   UNK A   1      -8.840  15.093  69.690  1.00  0.00    -0.444 NA 
HETATM   23  C   UNK A   1      -8.725  16.891  68.024  1.00  0.00    -0.215 C  
HETATM   24  O   UNK A   1      -8.202  17.786  67.382  1.00  0.00    -0.210 OA 
HETATM   25  O   UNK A   1     -10.060  16.816  68.267  1.00  0.00    -0.251 OA 
HETATM   26  H1  UNK A   1      -9.015  15.747  70.454  1.00  0.00     0.000 HD 
HETATM   27  H2  UNK A   1      -8.439  14.222  70.038  1.00  0.00     0.000 HD 
ENDBRANCH  20  21
ENDBRANCH  19  20
ENDBRANCH  18  19
ENDBRANCH  17  18
ENDBRANCH  16  17
ENDBRANCH  15  16
ENDBRANCH  11  15
ENDBRANCH   7  10
ENDBRANCH   5   6
TORSDOF 9
ENDMDL
MODEL      153
REMARK 921   NORMALIZED FREE ENERGY PREDICTED BY IDOCK:   -4.52 KCAL/MOL
REMARK 922        TOTAL FREE ENERGY PREDICTED BY IDOCK:   -7.86 KCAL/MOL
REMARK 923 INTER-LIGAND FREE ENERGY PREDICTED BY IDOCK:   -6.72 KCAL/MOL
REMARK 924 INTRA-LIGAND FREE ENERGY PREDICTED BY IDOCK:   -1.14 KCAL/MOL
REMARK 927      BINDING AFFINITY PREDICTED BY RF-SCORE:    0.00 PKD
ROOT
HETATM    1  C   UNK A   0      -9.867  11.802  63.570  1.00  0.00    -0.386 C  
HETATM    2  C   UNK A   0     -10.803  12.681  64.365  1.00  0.00    -0.386 C  
HETATM    3  C   UNK A   0     -12.269  12.328  64.286  1.00  0.00    -0.514 C  
HETATM    4  C   UNK A   0     -10.390  14.134  64.375  1.00  0.00     0.100 C  
HETATM    5  C   UNK A   0     -11.522  12.099  65.589  1.00  0.00    -0.408 C  
ENDROOT
BRANCH   5   6
HETATM    6  C   UNK A   0     -11.955  12.927  66.764  1.00  0.00    -0.350 C  
HETATM    7  N   UNK A   1     -11.207  12.806  67.912  1.00  0.00    -0.257 N  
HETATM    8  O   UNK A   0     -12.970  13.608  66.693  1.00  0.00     0.108 OA 
HETATM    9  H   UNK A   1     -10.399  12.185  67.855  1.00  0.00     0.000 HD 
BRANCH   7  10
HETATM   10  C   UNK A   1     -11.415  13.426  69.142  1.00  0.00    -0.300 C  
HETATM   11  C   UNK A   1     -11.955  12.742  70.183  1.00  0.00    -0.371 C  
HETATM   12  C   UNK A   1     -11.145  14.881  69.474  1.00  0.00    -0.281 C  
HETATM   13  O   UNK A   1     -11.310  15.759  68.466  1.00  0.00    -0.337 OA 
HETATM   14  O   UNK A   1     -10.965  15.270  70.620  1.00  0.00    -0.307 OA 
BRANCH  11  15
HETATM   15  C   UNK A   1     -12.432  11.321  70.180  1.00  0.00    -0.297 C  
BRANCH  15  16
HETATM   16  C   UNK A   1     -12.868  10.738  71.538  1.00  0.00    -0.567 C  
BRANCH  16  17
HETATM   17  C   UNK A   1     -12.572   9.233  71.491  1.00  0.00    -0.430 C  
BRANCH  17  18
HETATM   18  C   UNK A   1     -11.098   8.854  71.408  1.00  0.00    -0.306 C  
BRANCH  18  19
HETATM   19  S   UNK A   1     -10.964   7.590  70.088  1.00  0.00    -0.230 SA 
BRANCH  19  20
HETATM   20  C   UNK A   1      -9.331   8.032  69.408  1.00  0.00    -0.155 C  
BRANCH  20  21
HETATM   21  C   UNK A   1      -9.474   8.656  68.011  1.00  0.00    -0.140 C  
HETATM   22  N   UNK A   1     -10.816   9.290  67.799  1.00  0.00    -0.480 NA 
HETATM   23  C   UNK A   1      -9.307   7.535  66.985  1.00  0.00    -0.150 C  
HETATM   24  O   UNK A   1      -8.241   7.044  66.652  1.00  0.00    -0.107 OA 
HETATM   25  O   UNK A   1     -10.511   7.109  66.520  1.00  0.00    -0.167 OA 
HETATM   26  H1  UNK A   1     -10.911   9.704  66.871  1.00  0.00     0.000 HD 
HETATM   27  H2  UNK A   1     -11.018   9.974  68.528  1.00  0.00     0.000 HD 
ENDBRANCH  20  21
ENDBRANCH  19  20
ENDBRANCH  18  19
ENDBRANCH  17  18
ENDBRANCH  16  17
ENDBRANCH  15  16
ENDBRANCH  11  15
ENDBRANCH   7  10
ENDBRANCH   5   6
TORSDOF 9
ENDMDL
MODEL      154
REMARK 921   NORMALIZED FREE ENERGY PREDICTED BY IDOCK:   -4.52 KCAL/MOL
REMARK 922        TOTAL FREE ENERGY PREDICTED BY IDOCK:   -7.86 KCAL/MOL
REMARK 923 INTER-LIGAND FREE ENERGY PREDICTED BY IDOCK:   -6.49 KCAL/MOL
REMARK 924 INTRA-LIGAND FREE ENERGY PREDICTED BY IDOCK:   -1.37 KCAL/MOL
REMARK 927      BINDING AFFINITY PREDICTED BY RF-SCORE:    0.00 PKD
ROOT
HETATM    1  C   UNK A   0     -14.256   8.653  72.339  1.00  0.00    -0.443 C  
HETATM    2  C   UNK A   0     -12.978   9.344  71.926  1.00  0.00    -0.502 C  
HETATM    3  C   UNK A   0     -11.707   8.806  72.538  1.00  0.00    -0.241 C  
HETATM    4  C   UNK A   0     -13.140  10.834  71.743  1.00  0.00    -0.573 C  
HETATM    5  C   UNK A   0     -11.963   8.590  71.056  1.00  0.00    -0.260 C  
ENDROOT
BRANCH   5   6
HETATM    6  C   UNK A   0     -11.020   9.270  70.107  1.00  0.00    -0.246 C  
HETATM    7  N   UNK A   1     -11.491   9.506  68.836  1.00  0.00    -0.384 N  
HETATM    8  O   UNK A   0      -9.874   9.522  70.457  1.00  0.00    -0.248 OA 
HETATM    9  H   UNK A   1     -12.455   9.226  68.657  1.00  0.00     0.000 HD 
BRANCH   7  10
HETATM   10  C   UNK A   1     -10.813  10.081  67.763  1.00  0.00    -0.282 C  
HETATM   11  C   UNK A   1     -10.051   9.322  66.934  1.00  0.00    -0.324 C  
HETATM   12  C   UNK A   1     -10.773  11.556  67.409  1.00  0.00    -0.232 C  
HETATM   13  O   UNK A   1     -10.840  12.415  68.443  1.00  0.00    -0.219 OA 
HETATM   14  O   UNK A   1     -10.515  11.952  66.280  1.00  0.00    -0.226 OA 
BRANCH  11  15
HETATM   15  C   UNK A   1      -9.785   7.852  67.046  1.00  0.00    -0.269 C  
BRANCH  15  16
HETATM   16  C   UNK A   1     -11.012   6.922  66.969  1.00  0.00    -0.404 C  
BRANCH  16  17
HETATM   17  C   UNK A   1     -11.028   6.101  68.266  1.00  0.00    -0.397 C  
BRANCH  17  18
HETATM   18  C   UNK A   1      -9.722   6.082  69.051  1.00  0.00    -0.133 C  
BRANCH  18  19
HETATM   19  S   UNK A   1      -9.428   4.336  69.523  1.00  0.00    -0.200 SA 
BRANCH  19  20
HETATM   20  C   UNK A   1      -8.621   4.589  71.138  1.00  0.00    -0.106 C  
BRANCH  20  21
HETATM   21  C   UNK A   1      -9.116   5.887  71.796  1.00  0.00    -0.142 C  
HETATM   22  N   UNK A   1      -7.992   6.759  72.267  1.00  0.00    -0.095 NA 
HETATM   23  C   UNK A   1      -9.958   5.495  73.012  1.00  0.00    -0.176 C  
HETATM   24  O   UNK A   1     -11.107   5.085  72.965  1.00  0.00    -0.266 OA 
HETATM   25  O   UNK A   1      -9.246   5.612  74.163  1.00  0.00    -0.124 OA 
HETATM   26  H1  UNK A   1      -8.321   7.620  72.704  1.00  0.00     0.000 HD 
HETATM   27  H2  UNK A   1      -7.341   6.959  71.508  1.00  0.00     0.000 HD 
ENDBRANCH  20  21
ENDBRANCH  19  20
ENDBRANCH  18  19
ENDBRANCH  17  18
ENDBRANCH  16  17
ENDBRANCH  15  16
ENDBRANCH  11  15
ENDBRANCH   7  10
ENDBRANCH   5   6
TORSDOF 9
ENDMDL
MODEL      155
REMARK 921   NORMALIZED FREE ENERGY PREDICTED BY IDOCK:   -4.52 KCAL/MOL
REMARK 922        TOTAL FREE ENERGY PREDICTED BY IDOCK:   -7.86 KCAL/MOL
REMARK 923 INTER-LIGAND FREE ENERGY PREDICTED BY IDOCK:   -7.04 KCAL/MOL
REMARK 924 INTRA-LIGAND FREE ENERGY PREDICTED BY IDOCK:   -0.82 KCAL/MOL
REMARK 927      BINDING AFFINITY PREDICTED BY RF-SCORE:    0.00 PKD
ROOT
HETATM    1  C   UNK A   0     -10.294  18.197  66.936  1.00  0.00    -0.386 C  
HETATM    2  C   UNK A   0     -10.151  16.703  67.105  1.00  0.00    -0.276 C  
HETATM    3  C   UNK A   0     -10.056  16.206  68.527  1.00  0.00    -0.241 C  
HETATM    4  C   UNK A   0      -9.297  16.063  66.036  1.00  0.00    -0.380 C  
HETATM    5  C   UNK A   0     -11.306  15.903  67.720  1.00  0.00    -0.199 C  
ENDROOT
BRANCH   5   6
HETATM    6  C   UNK A   0     -11.570  14.459  67.407  1.00  0.00    -0.375 C  
HETATM    7  N   UNK A   1     -10.856  13.531  68.131  1.00  0.00    -0.247 N  
HETATM    8  O   UNK A   0     -12.333  14.158  66.498  1.00  0.00    -0.460 OA 
HETATM    9  H   UNK A   1     -10.230  13.907  68.844  1.00  0.00     0.000 HD 
BRANCH   7  10
HETATM   10  C   UNK A   1     -10.883  12.143  68.012  1.00  0.00    -0.222 C  
HETATM   11  C   UNK A   1     -11.492  11.376  68.951  1.00  0.00    -0.363 C  
HETATM   12  C   UNK A   1     -10.228  11.321  66.918  1.00  0.00    -0.219 C  
HETATM   13  O   UNK A   1      -9.087  11.820  66.404  1.00  0.00    -0.208 OA 
HETATM   14  O   UNK A   1     -10.600  10.190  66.636  1.00  0.00    -0.212 OA 
BRANCH  11  15
HETATM   15  C   UNK A   1     -12.153  11.846  70.211  1.00  0.00    -0.409 C  
BRANCH  15  16
HETATM   16  C   UNK A   1     -12.476  10.767  71.263  1.00  0.00    -0.504 C  
BRANCH  16  17
HETATM   17  C   UNK A   1     -11.471   9.627  71.053  1.00  0.00    -0.444 C  
BRANCH  17  18
HETATM   18  C   UNK A   1     -11.425   8.577  72.157  1.00  0.00    -0.376 C  
BRANCH  18  19
HETATM   19  S   UNK A   1      -9.654   8.312  72.544  1.00  0.00    -0.293 SA 
BRANCH  19  20
HETATM   20  C   UNK A   1      -9.809   6.999  73.799  1.00  0.00    -0.303 C  
BRANCH  20  21
HETATM   21  C   UNK A   1      -9.422   5.634  73.209  1.00  0.00    -0.142 C  
HETATM   22  N   UNK A   1      -8.415   5.749  72.105  1.00  0.00    -0.122 NA 
HETATM   23  C   UNK A   1     -10.691   5.003  72.634  1.00  0.00    -0.222 C  
HETATM   24  O   UNK A   1     -11.566   4.465  73.292  1.00  0.00    -0.261 OA 
HETATM   25  O   UNK A   1     -10.753   5.162  71.285  1.00  0.00    -0.179 OA 
HETATM   26  H1  UNK A   1      -8.158   4.843  71.712  1.00  0.00     0.000 HD 
HETATM   27  H2  UNK A   1      -7.589   6.262  72.414  1.00  0.00     0.000 HD 
ENDBRANCH  20  21
ENDBRANCH  19  20
ENDBRANCH  18  19
ENDBRANCH  17  18
ENDBRANCH  16  17
ENDBRANCH  15  16
ENDBRANCH  11  15
ENDBRANCH   7  10
ENDBRANCH   5   6
TORSDOF 9
ENDMDL
MODEL      156
REMARK 921   NORMALIZED FREE ENERGY PREDICTED BY IDOCK:   -4.52 KCAL/MOL
REMARK 922        TOTAL FREE ENERGY PREDICTED BY IDOCK:   -7.86 KCAL/MOL
REMARK 923 INTER-LIGAND FREE ENERGY PREDICTED BY IDOCK:   -6.94 KCAL/MOL
REMARK 924 INTRA-LIGAND FREE ENERGY PREDICTED BY IDOCK:   -0.92 KCAL/MOL
REMARK 927      BINDING AFFINITY PREDICTED BY RF-SCORE:    0.00 PKD
ROOT
HETATM    1  C   UNK A   0      -8.989  18.298  68.592  1.00  0.00    -0.303 C  
HETATM    2  C   UNK A   0      -9.593  16.948  68.283  1.00  0.00    -0.258 C  
HETATM    3  C   UNK A   0     -11.099  16.867  68.348  1.00  0.00    -0.216 C  
HETATM    4  C   UNK A   0      -8.765  15.795  68.798  1.00  0.00    -0.203 C  
HETATM    5  C   UNK A   0     -10.410  16.767  66.998  1.00  0.00    -0.300 C  
ENDROOT
BRANCH   5   6
HETATM    6  C   UNK A   0     -10.536  15.457  66.276  1.00  0.00    -0.308 C  
HETATM    7  N   UNK A   1     -11.705  14.757  66.469  1.00  0.00    -0.319 N  
HETATM    8  O   UNK A   0      -9.599  15.028  65.615  1.00  0.00    -0.333 OA 
HETATM    9  H   UNK A   1     -12.401  15.207  67.065  1.00  0.00     0.000 HD 
BRANCH   7  10
HETATM   10  C   UNK A   1     -12.055  13.511  65.953  1.00  0.00    -0.435 C  
HETATM   11  C   UNK A   1     -11.755  12.371  66.625  1.00  0.00    -0.438 C  
HETATM   12  C   UNK A   1     -12.729  13.246  64.620  1.00  0.00    -0.218 C  
HETATM   13  O   UNK A   1     -12.435  14.106  63.626  1.00  0.00    -0.819 OA 
HETATM   14  O   UNK A   1     -13.358  12.220  64.396  1.00  0.00    -0.786 OA 
BRANCH  11  15
HETATM   15  C   UNK A   1     -11.008  12.255  67.919  1.00  0.00    -0.265 C  
BRANCH  15  16
HETATM   16  C   UNK A   1     -11.848  12.332  69.209  1.00  0.00    -0.363 C  
BRANCH  16  17
HETATM   17  C   UNK A   1     -11.577  11.041  69.993  1.00  0.00    -0.427 C  
BRANCH  17  18
HETATM   18  C   UNK A   1     -10.873   9.934  69.218  1.00  0.00    -0.227 C  
BRANCH  18  19
HETATM   19  S   UNK A   1      -9.294   9.617  70.091  1.00  0.00    -0.225 SA 
BRANCH  19  20
HETATM   20  C   UNK A   1      -8.836   8.026  69.325  1.00  0.00    -0.141 C  
BRANCH  20  21
HETATM   21  C   UNK A   1      -7.354   7.707  69.577  1.00  0.00    -0.086 C  
HETATM   22  N   UNK A   1      -6.502   7.937  68.366  1.00  0.00    -0.052 NA 
HETATM   23  C   UNK A   1      -7.258   6.229  69.956  1.00  0.00    -0.077 C  
HETATM   24  O   UNK A   1      -7.539   5.766  71.049  1.00  0.00    -0.091 OA 
HETATM   25  O   UNK A   1      -6.865   5.473  68.896  1.00  0.00    -0.051 OA 
HETATM   26  H1  UNK A   1      -5.518   7.725  68.533  1.00  0.00     0.000 HD 
HETATM   27  H2  UNK A   1      -6.617   8.886  68.011  1.00  0.00     0.000 HD 
ENDBRANCH  20  21
ENDBRANCH  19  20
ENDBRANCH  18  19
ENDBRANCH  17  18
ENDBRANCH  16  17
ENDBRANCH  15  16
ENDBRANCH  11  15
ENDBRANCH   7  10
ENDBRANCH   5   6
TORSDOF 9
ENDMDL
MODEL      157
REMARK 921   NORMALIZED FREE ENERGY PREDICTED BY IDOCK:   -4.51 KCAL/MOL
REMARK 922        TOTAL FREE ENERGY PREDICTED BY IDOCK:   -7.86 KCAL/MOL
REMARK 923 INTER-LIGAND FREE ENERGY PREDICTED BY IDOCK:   -6.52 KCAL/MOL
REMARK 924 INTRA-LIGAND FREE ENERGY PREDICTED BY IDOCK:   -1.33 KCAL/MOL
REMARK 927      BINDING AFFINITY PREDICTED BY RF-SCORE:    0.00 PKD
ROOT
HETATM    1  C   UNK A   0     -11.381  15.111  66.080  1.00  0.00    -0.221 C  
HETATM    2  C   UNK A   0     -10.848  13.978  66.924  1.00  0.00    -0.290 C  
HETATM    3  C   UNK A   0     -10.676  14.273  68.394  1.00  0.00    -0.257 C  
HETATM    4  C   UNK A   0      -9.814  13.139  66.210  1.00  0.00    -0.284 C  
HETATM    5  C   UNK A   0     -11.768  13.312  67.956  1.00  0.00    -0.394 C  
ENDROOT
BRANCH   5   6
HETATM    6  C   UNK A   0     -11.621  11.884  68.395  1.00  0.00    -0.317 C  
HETATM    7  N   UNK A   1     -11.028  11.674  69.618  1.00  0.00    -0.466 N  
HETATM    8  O   UNK A   0     -11.957  10.975  67.646  1.00  0.00    -0.583 OA 
HETATM    9  H   UNK A   1     -10.766  12.512  70.137  1.00  0.00     0.000 HD 
BRANCH   7  10
HETATM   10  C   UNK A   1     -10.740  10.458  70.235  1.00  0.00    -0.187 C  
HETATM   11  C   UNK A   1      -9.586   9.796  69.963  1.00  0.00    -0.282 C  
HETATM   12  C   UNK A   1     -11.636   9.703  71.198  1.00  0.00    -0.381 C  
HETATM   13  O   UNK A   1     -12.962   9.832  70.998  1.00  0.00    -0.334 OA 
HETATM   14  O   UNK A   1     -11.199   8.883  71.994  1.00  0.00    -0.353 OA 
BRANCH  11  15
HETATM   15  C   UNK A   1      -8.521  10.200  68.990  1.00  0.00    -0.151 C  
BRANCH  15  16
HETATM   16  C   UNK A   1      -7.382  11.080  69.541  1.00  0.00    -0.064 C  
BRANCH  16  17
HETATM   17  C   UNK A   1      -7.177  12.222  68.536  1.00  0.00    -0.103 C  
BRANCH  17  18
HETATM   18  C   UNK A   1      -7.038  13.614  69.139  1.00  0.00    -0.036 C  
BRANCH  18  19
HETATM   19  S   UNK A   1      -6.880  14.774  67.729  1.00  0.00    -0.185 SA 
BRANCH  19  20
HETATM   20  C   UNK A   1      -7.343  16.329  68.561  1.00  0.00    -0.169 C  
BRANCH  20  21
HETATM   21  C   UNK A   1      -6.896  17.543  67.731  1.00  0.00    -0.174 C  
HETATM   22  N   UNK A   1      -6.587  18.739  68.580  1.00  0.00    -0.245 NA 
HETATM   23  C   UNK A   1      -8.046  17.909  66.791  1.00  0.00    -0.238 C  
HETATM   24  O   UNK A   1      -8.327  17.315  65.763  1.00  0.00    -0.535 OA 
HETATM   25  O   UNK A   1      -8.761  18.960  67.274  1.00  0.00    -0.273 OA 
HETATM   26  H1  UNK A   1      -6.290  19.545  68.030  1.00  0.00     0.000 HD 
HETATM   27  H2  UNK A   1      -5.897  18.511  69.297  1.00  0.00     0.000 HD 
ENDBRANCH  20  21
ENDBRANCH  19  20
ENDBRANCH  18  19
ENDBRANCH  17  18
ENDBRANCH  16  17
ENDBRANCH  15  16
ENDBRANCH  11  15
ENDBRANCH   7  10
ENDBRANCH   5   6
TORSDOF 9
ENDMDL
MODEL      158
REMARK 921   NORMALIZED FREE ENERGY PREDICTED BY IDOCK:   -4.50 KCAL/MOL
REMARK 922        TOTAL FREE ENERGY PREDICTED BY IDOCK:   -7.84 KCAL/MOL
REMARK 923 INTER-LIGAND FREE ENERGY PREDICTED BY IDOCK:   -7.03 KCAL/MOL
REMARK 924 INTRA-LIGAND FREE ENERGY PREDICTED BY IDOCK:   -0.81 KCAL/MOL
REMARK 927      BINDING AFFINITY PREDICTED BY RF-SCORE:    0.00 PKD
ROOT
HETATM    1  C   UNK A   0      -6.969  10.562  67.763  1.00  0.00    -0.078 C  
HETATM    2  C   UNK A   0      -8.271   9.823  67.959  1.00  0.00    -0.109 C  
HETATM    3  C   UNK A   0      -8.157   8.402  68.456  1.00  0.00    -0.123 C  
HETATM    4  C   UNK A   0      -9.310  10.163  66.917  1.00  0.00    -0.185 C  
HETATM    5  C   UNK A   0      -8.726   9.465  69.380  1.00  0.00    -0.157 C  
ENDROOT
BRANCH   5   6
HETATM    6  C   UNK A   0     -10.167   9.311  69.773  1.00  0.00    -0.211 C  
HETATM    7  N   UNK A   1     -10.675  10.257  70.633  1.00  0.00    -0.406 N  
HETATM    8  O   UNK A   0     -10.807   8.341  69.387  1.00  0.00    -0.193 OA 
HETATM    9  H   UNK A   1     -10.034  11.003  70.905  1.00  0.00     0.000 HD 
BRANCH   7  10
HETATM   10  C   UNK A   1     -11.956  10.322  71.178  1.00  0.00    -0.376 C  
HETATM   11  C   UNK A   1     -12.694  11.457  71.086  1.00  0.00    -0.479 C  
HETATM   12  C   UNK A   1     -12.658   9.228  71.959  1.00  0.00    -0.390 C  
HETATM   13  O   UNK A   1     -11.868   8.427  72.699  1.00  0.00    -0.393 OA 
HETATM   14  O   UNK A   1     -13.877   9.176  72.063  1.00  0.00    -0.413 OA 
BRANCH  11  15
HETATM   15  C   UNK A   1     -12.276  12.759  70.472  1.00  0.00    -0.389 C  
BRANCH  15  16
HETATM   16  C   UNK A   1     -12.032  12.757  68.950  1.00  0.00    -0.286 C  
BRANCH  16  17
HETATM   17  C   UNK A   1     -10.831  13.676  68.692  1.00  0.00    -0.283 C  
BRANCH  17  18
HETATM   18  C   UNK A   1     -11.144  14.985  67.978  1.00  0.00    -0.300 C  
BRANCH  18  19
HETATM   19  S   UNK A   1      -9.848  15.200  66.701  1.00  0.00    -0.265 SA 
BRANCH  19  20
HETATM   20  C   UNK A   1     -10.369  16.803  66.005  1.00  0.00    -0.335 C  
BRANCH  20  21
HETATM   21  C   UNK A   1      -9.499  17.944  66.557  1.00  0.00    -0.299 C  
HETATM   22  N   UNK A   1      -8.280  17.444  67.272  1.00  0.00    -0.202 NA 
HETATM   23  C   UNK A   1     -10.350  18.732  67.554  1.00  0.00    -0.416 C  
HETATM   24  O   UNK A   1     -11.212  19.540  67.253  1.00  0.00    -0.353 OA 
HETATM   25  O   UNK A   1     -10.061  18.379  68.834  1.00  0.00    -0.388 OA 
HETATM   26  H1  UNK A   1      -7.703  18.201  67.639  1.00  0.00     0.000 HD 
HETATM   27  H2  UNK A   1      -7.734  16.822  66.676  1.00  0.00     0.000 HD 
ENDBRANCH  20  21
ENDBRANCH  19  20
ENDBRANCH  18  19
ENDBRANCH  17  18
ENDBRANCH  16  17
ENDBRANCH  15  16
ENDBRANCH  11  15
ENDBRANCH   7  10
ENDBRANCH   5   6
TORSDOF 9
ENDMDL
MODEL      159
REMARK 921   NORMALIZED FREE ENERGY PREDICTED BY IDOCK:   -4.50 KCAL/MOL
REMARK 922        TOTAL FREE ENERGY PREDICTED BY IDOCK:   -7.84 KCAL/MOL
REMARK 923 INTER-LIGAND FREE ENERGY PREDICTED BY IDOCK:   -6.92 KCAL/MOL
REMARK 924 INTRA-LIGAND FREE ENERGY PREDICTED BY IDOCK:   -0.92 KCAL/MOL
REMARK 927      BINDING AFFINITY PREDICTED BY RF-SCORE:    0.00 PKD
ROOT
HETATM    1  C   UNK A   0     -11.022   7.993  72.830  1.00  0.00    -0.449 C  
HETATM    2  C   UNK A   0     -11.414   8.408  71.431  1.00  0.00    -0.328 C  
HETATM    3  C   UNK A   0     -12.405   9.541  71.331  1.00  0.00    -0.451 C  
HETATM    4  C   UNK A   0     -11.517   7.244  70.474  1.00  0.00    -0.310 C  
HETATM    5  C   UNK A   0     -10.967   9.776  70.900  1.00  0.00    -0.411 C  
ENDROOT
BRANCH   5   6
HETATM    6  C   UNK A   0     -10.741  10.064  69.444  1.00  0.00    -0.233 C  
HETATM    7  N   UNK A   1      -9.486   9.794  68.951  1.00  0.00    -0.155 N  
HETATM    8  O   UNK A   0     -11.629  10.580  68.777  1.00  0.00    -0.252 OA 
HETATM    9  H   UNK A   1      -8.823   9.390  69.613  1.00  0.00     0.000 HD 
BRANCH   7  10
HETATM   10  C   UNK A   1      -9.007  10.005  67.659  1.00  0.00    -0.131 C  
HETATM   11  C   UNK A   1      -8.423  11.181  67.317  1.00  0.00    -0.137 C  
HETATM   12  C   UNK A   1      -9.111   9.041  66.492  1.00  0.00    -0.163 C  
HETATM   13  O   UNK A   1     -10.201   8.250  66.472  1.00  0.00    -0.288 OA 
HETATM   14  O   UNK A   1      -8.355   9.092  65.531  1.00  0.00    -0.120 OA 
BRANCH  11  15
HETATM   15  C   UNK A   1      -8.245  12.388  68.187  1.00  0.00    -0.173 C  
BRANCH  15  16
HETATM   16  C   UNK A   1      -8.720  13.734  67.606  1.00  0.00    -0.185 C  
BRANCH  16  17
HETATM   17  C   UNK A   1     -10.227  13.598  67.347  1.00  0.00    -0.241 C  
BRANCH  17  18
HETATM   18  C   UNK A   1     -10.894  14.803  66.694  1.00  0.00    -0.319 C  
BRANCH  18  19
HETATM   19  S   UNK A   1      -9.565  16.028  66.393  1.00  0.00    -0.309 SA 
BRANCH  19  20
HETATM   20  C   UNK A   1     -10.149  17.380  67.468  1.00  0.00    -0.322 C  
BRANCH  20  21
HETATM   21  C   UNK A   1     -10.547  18.607  66.632  1.00  0.00    -0.359 C  
HETATM   22  N   UNK A   1     -10.784  18.269  65.191  1.00  0.00    -0.517 NA 
HETATM   23  C   UNK A   1      -9.394  19.609  66.704  1.00  0.00    -0.376 C  
HETATM   24  O   UNK A   1      -9.158  20.338  67.653  1.00  0.00    -0.342 OA 
HETATM   25  O   UNK A   1      -8.621  19.551  65.588  1.00  0.00    -0.346 OA 
HETATM   26  H1  UNK A   1     -11.048  19.082  64.636  1.00  0.00     0.000 HD 
HETATM   27  H2  UNK A   1     -11.474  17.522  65.098  1.00  0.00     0.000 HD 
ENDBRANCH  20  21
ENDBRANCH  19  20
ENDBRANCH  18  19
ENDBRANCH  17  18
ENDBRANCH  16  17
ENDBRANCH  15  16
ENDBRANCH  11  15
ENDBRANCH   7  10
ENDBRANCH   5   6
TORSDOF 9
ENDMDL
MODEL      160
REMARK 921   NORMALIZED FREE ENERGY PREDICTED BY IDOCK:   -4.49 KCAL/MOL
REMARK 922        TOTAL FREE ENERGY PREDICTED BY IDOCK:   -7.82 KCAL/MOL
REMARK 923 INTER-LIGAND FREE ENERGY PREDICTED BY IDOCK:   -6.46 KCAL/MOL
REMARK 924 INTRA-LIGAND FREE ENERGY PREDICTED BY IDOCK:   -1.37 KCAL/MOL
REMARK 927      BINDING AFFINITY PREDICTED BY RF-SCORE:    0.00 PKD
ROOT
HETATM    1  C   UNK A   0      -8.784   8.645  65.268  1.00  0.00    -0.200 C  
HETATM    2  C   UNK A   0      -8.594   9.434  66.542  1.00  0.00    -0.142 C  
HETATM    3  C   UNK A   0      -9.128  10.846  66.530  1.00  0.00    -0.183 C  
HETATM    4  C   UNK A   0      -7.283   9.142  67.232  1.00  0.00    -0.083 C  
HETATM    5  C   UNK A   0      -9.820   9.800  67.388  1.00  0.00    -0.219 C  
ENDROOT
BRANCH   5   6
HETATM    6  C   UNK A   0      -9.767  10.009  68.873  1.00  0.00    -0.181 C  
HETATM    7  N   UNK A   1     -10.522   9.154  69.643  1.00  0.00    -0.217 N  
HETATM    8  O   UNK A   0      -9.132  10.947  69.338  1.00  0.00    -0.050 OA 
HETATM    9  H   UNK A   1     -11.030   8.428  69.136  1.00  0.00     0.000 HD 
BRANCH   7  10
HETATM   10  C   UNK A   1     -10.679   9.156  71.027  1.00  0.00    -0.293 C  
HETATM   11  C   UNK A   1     -11.705   9.826  71.610  1.00  0.00    -0.390 C  
HETATM   12  C   UNK A   1      -9.755   8.504  72.039  1.00  0.00    -0.307 C  
HETATM   13  O   UNK A   1      -8.450   8.462  71.708  1.00  0.00    -0.136 OA 
HETATM   14  O   UNK A   1     -10.127   8.195  73.163  1.00  0.00    -0.290 OA 
BRANCH  11  15
HETATM   15  C   UNK A   1     -12.746  10.658  70.924  1.00  0.00    -0.498 C  
BRANCH  15  16
HETATM   16  C   UNK A   1     -12.315  12.068  70.475  1.00  0.00    -0.369 C  
BRANCH  16  17
HETATM   17  C   UNK A   1     -12.915  13.057  71.484  1.00  0.00    -0.398 C  
BRANCH  17  18
HETATM   18  C   UNK A   1     -13.116  14.479  70.973  1.00  0.00    -0.366 C  
BRANCH  18  19
HETATM   19  S   UNK A   1     -11.447  15.124  70.576  1.00  0.00    -0.323 SA 
BRANCH  19  20
HETATM   20  C   UNK A   1     -11.636  15.374  68.780  1.00  0.00    -0.368 C  
BRANCH  20  21
HETATM   21  C   UNK A   1     -10.773  14.371  67.998  1.00  0.00    -0.241 C  
HETATM   22  N   UNK A   1      -9.575  13.915  68.774  1.00  0.00    -0.390 NA 
HETATM   23  C   UNK A   1     -10.282  15.074  66.731  1.00  0.00    -0.260 C  
HETATM   24  O   UNK A   1     -10.955  15.268  65.732  1.00  0.00    -0.338 OA 
HETATM   25  O   UNK A   1      -9.002  15.510  66.874  1.00  0.00    -0.212 OA 
HETATM   26  H1  UNK A   1      -9.002  13.249  68.256  1.00  0.00     0.000 HD 
HETATM   27  H2  UNK A   1      -9.849  13.534  69.680  1.00  0.00     0.000 HD 
ENDBRANCH  20  21
ENDBRANCH  19  20
ENDBRANCH  18  19
ENDBRANCH  17  18
ENDBRANCH  16  17
ENDBRANCH  15  16
ENDBRANCH  11  15
ENDBRANCH   7  10
ENDBRANCH   5   6
TORSDOF 9
ENDMDL
MODEL      161
REMARK 921   NORMALIZED FREE ENERGY PREDICTED BY IDOCK:   -4.49 KCAL/MOL
REMARK 922        TOTAL FREE ENERGY PREDICTED BY IDOCK:   -7.81 KCAL/MOL
REMARK 923 INTER-LIGAND FREE ENERGY PREDICTED BY IDOCK:   -7.26 KCAL/MOL
REMARK 924 INTRA-LIGAND FREE ENERGY PREDICTED BY IDOCK:   -0.56 KCAL/MOL
REMARK 927      BINDING AFFINITY PREDICTED BY RF-SCORE:    0.00 PKD
ROOT
HETATM    1  C   UNK A   0     -10.354   4.941  71.852  1.00  0.00    -0.259 C  
HETATM    2  C   UNK A   0     -10.260   5.987  70.767  1.00  0.00    -0.258 C  
HETATM    3  C   UNK A   0     -11.496   6.173  69.919  1.00  0.00    -0.371 C  
HETATM    4  C   UNK A   0      -8.899   6.048  70.116  1.00  0.00    -0.143 C  
HETATM    5  C   UNK A   0     -11.090   7.272  70.887  1.00  0.00    -0.284 C  
ENDROOT
BRANCH   5   6
HETATM    6  C   UNK A   0     -10.679   8.581  70.281  1.00  0.00    -0.230 C  
HETATM    7  N   UNK A   1     -11.125   8.836  69.004  1.00  0.00    -0.429 N  
HETATM    8  O   UNK A   0      -9.926   9.329  70.891  1.00  0.00    -0.259 OA 
HETATM    9  H   UNK A   1     -11.726   8.123  68.590  1.00  0.00     0.000 HD 
BRANCH   7  10
HETATM   10  C   UNK A   1     -10.857   9.947  68.207  1.00  0.00    -0.230 C  
HETATM   11  C   UNK A   1     -11.425  11.150  68.477  1.00  0.00    -0.371 C  
HETATM   12  C   UNK A   1      -9.993   9.974  66.960  1.00  0.00    -0.205 C  
HETATM   13  O   UNK A   1      -9.983   8.847  66.223  1.00  0.00    -0.282 OA 
HETATM   14  O   UNK A   1      -9.478  11.002  66.542  1.00  0.00    -0.180 OA 
BRANCH  11  15
HETATM   15  C   UNK A   1     -12.404  11.462  69.568  1.00  0.00    -0.211 C  
BRANCH  15  16
HETATM   16  C   UNK A   1     -12.116  12.717  70.414  1.00  0.00    -0.382 C  
BRANCH  16  17
HETATM   17  C   UNK A   1     -12.239  13.924  69.475  1.00  0.00    -0.356 C  
BRANCH  17  18
HETATM   18  C   UNK A   1     -11.193  15.016  69.663  1.00  0.00    -0.275 C  
BRANCH  18  19
HETATM   19  S   UNK A   1     -10.598  15.455  67.987  1.00  0.00    -0.270 SA 
BRANCH  19  20
HETATM   20  C   UNK A   1     -10.438  17.261  68.184  1.00  0.00    -0.382 C  
BRANCH  20  21
HETATM   21  C   UNK A   1     -10.324  17.949  66.814  1.00  0.00    -0.355 C  
HETATM   22  N   UNK A   1      -9.466  17.181  65.854  1.00  0.00    -0.523 NA 
HETATM   23  C   UNK A   1      -9.681  19.319  67.038  1.00  0.00    -0.328 C  
HETATM   24  O   UNK A   1     -10.259  20.299  67.478  1.00  0.00    -0.400 OA 
HETATM   25  O   UNK A   1      -8.357  19.298  66.732  1.00  0.00    -0.272 OA 
HETATM   26  H1  UNK A   1      -9.390  17.637  64.945  1.00  0.00     0.000 HD 
HETATM   27  H2  UNK A   1      -9.796  16.221  65.755  1.00  0.00     0.000 HD 
ENDBRANCH  20  21
ENDBRANCH  19  20
ENDBRANCH  18  19
ENDBRANCH  17  18
ENDBRANCH  16  17
ENDBRANCH  15  16
ENDBRANCH  11  15
ENDBRANCH   7  10
ENDBRANCH   5   6
TORSDOF 9
ENDMDL
MODEL      162
REMARK 921   NORMALIZED FREE ENERGY PREDICTED BY IDOCK:   -4.48 KCAL/MOL
REMARK 922        TOTAL FREE ENERGY PREDICTED BY IDOCK:   -7.81 KCAL/MOL
REMARK 923 INTER-LIGAND FREE ENERGY PREDICTED BY IDOCK:   -6.63 KCAL/MOL
REMARK 924 INTRA-LIGAND FREE ENERGY PREDICTED BY IDOCK:   -1.18 KCAL/MOL
REMARK 927      BINDING AFFINITY PREDICTED BY RF-SCORE:    0.00 PKD
ROOT
HETATM    1  C   UNK A   0      -5.322  13.624  68.435  1.00  0.00    -0.098 C  
HETATM    2  C   UNK A   0      -6.355  14.715  68.279  1.00  0.00    -0.124 C  
HETATM    3  C   UNK A   0      -6.333  15.800  69.327  1.00  0.00    -0.147 C  
HETATM    4  C   UNK A   0      -7.681  14.208  67.762  1.00  0.00    -0.175 C  
HETATM    5  C   UNK A   0      -5.900  16.133  67.909  1.00  0.00    -0.145 C  
ENDROOT
BRANCH   5   6
HETATM    6  C   UNK A   0      -6.759  17.106  67.156  1.00  0.00    -0.176 C  
HETATM    7  N   UNK A   1      -7.832  17.634  67.836  1.00  0.00    -0.216 N  
HETATM    8  O   UNK A   0      -6.530  17.341  65.976  1.00  0.00    -0.187 OA 
HETATM    9  H   UNK A   1      -7.934  17.341  68.808  1.00  0.00     0.000 HD 
BRANCH   7  10
HETATM   10  C   UNK A   1      -8.798  18.520  67.361  1.00  0.00    -0.268 C  
HETATM   11  C   UNK A   1      -9.946  18.061  66.801  1.00  0.00    -0.346 C  
HETATM   12  C   UNK A   1      -8.700  20.033  67.342  1.00  0.00    -0.345 C  
HETATM   13  O   UNK A   1      -7.465  20.545  67.177  1.00  0.00    -0.300 OA 
HETATM   14  O   UNK A   1      -9.688  20.754  67.295  1.00  0.00    -0.479 OA 
BRANCH  11  15
HETATM   15  C   UNK A   1     -10.330  16.632  66.568  1.00  0.00    -0.300 C  
BRANCH  15  16
HETATM   16  C   UNK A   1     -10.764  16.259  65.137  1.00  0.00    -0.350 C  
BRANCH  16  17
HETATM   17  C   UNK A   1     -10.995  14.742  65.124  1.00  0.00    -0.403 C  
BRANCH  17  18
HETATM   18  C   UNK A   1     -12.253  14.261  65.837  1.00  0.00    -0.407 C  
BRANCH  18  19
HETATM   19  S   UNK A   1     -11.688  13.219  67.234  1.00  0.00    -0.380 SA 
BRANCH  19  20
HETATM   20  C   UNK A   1     -11.187  11.725  66.316  1.00  0.00    -0.312 C  
BRANCH  20  21
HETATM   21  C   UNK A   1     -11.039  10.527  67.267  1.00  0.00    -0.213 C  
HETATM   22  N   UNK A   1     -11.997  10.584  68.418  1.00  0.00    -0.788 NA 
HETATM   23  C   UNK A   1      -9.616  10.556  67.828  1.00  0.00    -0.156 C  
HETATM   24  O   UNK A   1      -8.618  10.195  67.226  1.00  0.00    -0.125 OA 
HETATM   25  O   UNK A   1      -9.590  11.087  69.079  1.00  0.00    -0.190 OA 
HETATM   26  H1  UNK A   1     -11.899   9.789  69.050  1.00  0.00     0.000 HD 
HETATM   27  H2  UNK A   1     -12.959  10.674  68.090  1.00  0.00     0.000 HD 
ENDBRANCH  20  21
ENDBRANCH  19  20
ENDBRANCH  18  19
ENDBRANCH  17  18
ENDBRANCH  16  17
ENDBRANCH  15  16
ENDBRANCH  11  15
ENDBRANCH   7  10
ENDBRANCH   5   6
TORSDOF 9
ENDMDL
MODEL      163
REMARK 921   NORMALIZED FREE ENERGY PREDICTED BY IDOCK:   -4.48 KCAL/MOL
REMARK 922        TOTAL FREE ENERGY PREDICTED BY IDOCK:   -7.81 KCAL/MOL
REMARK 923 INTER-LIGAND FREE ENERGY PREDICTED BY IDOCK:   -6.83 KCAL/MOL
REMARK 924 INTRA-LIGAND FREE ENERGY PREDICTED BY IDOCK:   -0.98 KCAL/MOL
REMARK 927      BINDING AFFINITY PREDICTED BY RF-SCORE:    0.00 PKD
ROOT
HETATM    1  C   UNK A   0      -7.748  10.390  65.130  1.00  0.00    -0.110 C  
HETATM    2  C   UNK A   0      -9.179  10.748  65.457  1.00  0.00    -0.230 C  
HETATM    3  C   UNK A   0     -10.006   9.655  66.089  1.00  0.00    -0.346 C  
HETATM    4  C   UNK A   0      -9.812  11.661  64.434  1.00  0.00    -0.253 C  
HETATM    5  C   UNK A   0      -9.608  10.859  66.926  1.00  0.00    -0.203 C  
ENDROOT
BRANCH   5   6
HETATM    6  C   UNK A   0     -10.723  11.747  67.396  1.00  0.00    -0.236 C  
HETATM    7  N   UNK A   1     -10.446  12.570  68.463  1.00  0.00    -0.235 N  
HETATM    8  O   UNK A   0     -11.831  11.665  66.881  1.00  0.00    -0.577 OA 
HETATM    9  H   UNK A   1      -9.493  12.529  68.824  1.00  0.00     0.000 HD 
BRANCH   7  10
HETATM   10  C   UNK A   1     -11.307  13.453  69.112  1.00  0.00    -0.280 C  
HETATM   11  C   UNK A   1     -12.110  13.027  70.120  1.00  0.00    -0.377 C  
HETATM   12  C   UNK A   1     -11.513  14.919  68.778  1.00  0.00    -0.307 C  
HETATM   13  O   UNK A   1     -11.376  15.256  67.481  1.00  0.00    -0.331 OA 
HETATM   14  O   UNK A   1     -11.952  15.721  69.591  1.00  0.00    -0.356 OA 
BRANCH  11  15
HETATM   15  C   UNK A   1     -12.239  11.629  70.643  1.00  0.00    -0.461 C  
BRANCH  15  16
HETATM   16  C   UNK A   1     -13.011  11.456  71.965  1.00  0.00    -0.378 C  
BRANCH  16  17
HETATM   17  C   UNK A   1     -13.278   9.953  72.129  1.00  0.00    -0.511 C  
BRANCH  17  18
HETATM   18  C   UNK A   1     -12.429   9.034  71.260  1.00  0.00    -0.289 C  
BRANCH  18  19
HETATM   19  S   UNK A   1     -11.483   7.966  72.410  1.00  0.00    -0.397 SA 
BRANCH  19  20
HETATM   20  C   UNK A   1      -9.792   8.296  71.812  1.00  0.00    -0.218 C  
BRANCH  20  21
HETATM   21  C   UNK A   1      -9.281   7.128  70.954  1.00  0.00    -0.152 C  
HETATM   22  N   UNK A   1      -7.852   6.783  71.244  1.00  0.00    -0.100 NA 
HETATM   23  C   UNK A   1      -9.382   7.553  69.488  1.00  0.00    -0.153 C  
HETATM   24  O   UNK A   1     -10.412   7.576  68.835  1.00  0.00    -0.209 OA 
HETATM   25  O   UNK A   1      -8.176   7.957  69.008  1.00  0.00    -0.122 OA 
HETATM   26  H1  UNK A   1      -7.512   6.008  70.675  1.00  0.00     0.000 HD 
HETATM   27  H2  UNK A   1      -7.714   6.596  72.237  1.00  0.00     0.000 HD 
ENDBRANCH  20  21
ENDBRANCH  19  20
ENDBRANCH  18  19
ENDBRANCH  17  18
ENDBRANCH  16  17
ENDBRANCH  15  16
ENDBRANCH  11  15
ENDBRANCH   7  10
ENDBRANCH   5   6
TORSDOF 9
ENDMDL
MODEL      164
REMARK 921   NORMALIZED FREE ENERGY PREDICTED BY IDOCK:   -4.47 KCAL/MOL
REMARK 922        TOTAL FREE ENERGY PREDICTED BY IDOCK:   -7.79 KCAL/MOL
REMARK 923 INTER-LIGAND FREE ENERGY PREDICTED BY IDOCK:   -7.03 KCAL/MOL
REMARK 924 INTRA-LIGAND FREE ENERGY PREDICTED BY IDOCK:   -0.76 KCAL/MOL
REMARK 927      BINDING AFFINITY PREDICTED BY RF-SCORE:    0.00 PKD
ROOT
HETATM    1  C   UNK A   0     -10.809  18.843  67.592  1.00  0.00    -0.407 C  
HETATM    2  C   UNK A   0     -10.384  17.394  67.530  1.00  0.00    -0.351 C  
HETATM    3  C   UNK A   0      -9.798  16.823  68.798  1.00  0.00    -0.264 C  
HETATM    4  C   UNK A   0      -9.790  17.006  66.197  1.00  0.00    -0.297 C  
HETATM    5  C   UNK A   0     -11.165  16.347  68.335  1.00  0.00    -0.324 C  
ENDROOT
BRANCH   5   6
HETATM    6  C   UNK A   0     -11.273  14.906  67.931  1.00  0.00    -0.315 C  
HETATM    7  N   UNK A   1     -10.311  14.055  68.424  1.00  0.00    -0.245 N  
HETATM    8  O   UNK A   0     -12.142  14.554  67.143  1.00  0.00    -0.397 OA 
HETATM    9  H   UNK A   1      -9.623  14.473  69.051  1.00  0.00     0.000 HD 
BRANCH   7  10
HETATM   10  C   UNK A   1     -10.161  12.692  68.174  1.00  0.00    -0.240 C  
HETATM   11  C   UNK A   1     -10.881  11.774  68.868  1.00  0.00    -0.265 C  
HETATM   12  C   UNK A   1      -9.191  12.058  67.195  1.00  0.00    -0.190 C  
HETATM   13  O   UNK A   1      -8.024  12.705  67.014  1.00  0.00    -0.147 OA 
HETATM   14  O   UNK A   1      -9.366  10.939  66.730  1.00  0.00    -0.162 OA 
BRANCH  11  15
HETATM   15  C   UNK A   1     -11.856  12.039  69.974  1.00  0.00    -0.392 C  
BRANCH  15  16
HETATM   16  C   UNK A   1     -12.625  10.821  70.523  1.00  0.00    -0.421 C  
BRANCH  16  17
HETATM   17  C   UNK A   1     -11.589   9.908  71.193  1.00  0.00    -0.468 C  
BRANCH  17  18
HETATM   18  C   UNK A   1     -11.888   8.415  71.130  1.00  0.00    -0.282 C  
BRANCH  18  19
HETATM   19  S   UNK A   1     -10.385   7.616  70.452  1.00  0.00    -0.218 SA 
BRANCH  19  20
HETATM   20  C   UNK A   1     -11.156   6.512  69.222  1.00  0.00    -0.334 C  
BRANCH  20  21
HETATM   21  C   UNK A   1     -10.374   6.542  67.899  1.00  0.00    -0.189 C  
HETATM   22  N   UNK A   1     -11.267   6.695  66.705  1.00  0.00    -0.761 NA 
HETATM   23  C   UNK A   1      -9.631   5.211  67.773  1.00  0.00    -0.138 C  
HETATM   24  O   UNK A   1      -8.605   4.922  68.367  1.00  0.00    -0.097 OA 
HETATM   25  O   UNK A   1     -10.288   4.356  66.945  1.00  0.00    -0.128 OA 
HETATM   26  H1  UNK A   1     -10.748   6.714  65.827  1.00  0.00     0.000 HD 
HETATM   27  H2  UNK A   1     -11.863   7.517  66.797  1.00  0.00     0.000 HD 
ENDBRANCH  20  21
ENDBRANCH  19  20
ENDBRANCH  18  19
ENDBRANCH  17  18
ENDBRANCH  16  17
ENDBRANCH  15  16
ENDBRANCH  11  15
ENDBRANCH   7  10
ENDBRANCH   5   6
TORSDOF 9
ENDMDL
MODEL      165
REMARK 921   NORMALIZED FREE ENERGY PREDICTED BY IDOCK:   -4.46 KCAL/MOL
REMARK 922        TOTAL FREE ENERGY PREDICTED BY IDOCK:   -7.78 KCAL/MOL
REMARK 923 INTER-LIGAND FREE ENERGY PREDICTED BY IDOCK:   -6.36 KCAL/MOL
REMARK 924 INTRA-LIGAND FREE ENERGY PREDICTED BY IDOCK:   -1.42 KCAL/MOL
REMARK 927      BINDING AFFINITY PREDICTED BY RF-SCORE:    0.00 PKD
ROOT
HETATM    1  C   UNK A   0     -10.901  15.412  66.997  1.00  0.00    -0.320 C  
HETATM    2  C   UNK A   0     -10.667  14.196  67.862  1.00  0.00    -0.245 C  
HETATM    3  C   UNK A   0     -10.975  14.360  69.331  1.00  0.00    -0.261 C  
HETATM    4  C   UNK A   0      -9.461  13.391  67.442  1.00  0.00    -0.222 C  
HETATM    5  C   UNK A   0     -11.870  13.473  68.482  1.00  0.00    -0.398 C  
ENDROOT
BRANCH   5   6
HETATM    6  C   UNK A   0     -11.873  12.009  68.815  1.00  0.00    -0.302 C  
HETATM    7  N   UNK A   1     -11.328  11.652  70.027  1.00  0.00    -0.499 N  
HETATM    8  O   UNK A   0     -12.281  11.195  67.996  1.00  0.00    -0.584 OA 
HETATM    9  H   UNK A   1     -10.996  12.420  70.611  1.00  0.00     0.000 HD 
BRANCH   7  10
HETATM   10  C   UNK A   1     -11.174  10.372  70.555  1.00  0.00    -0.314 C  
HETATM   11  C   UNK A   1     -10.098   9.611  70.230  1.00  0.00    -0.331 C  
HETATM   12  C   UNK A   1     -12.147   9.651  71.468  1.00  0.00    -0.401 C  
HETATM   13  O   UNK A   1     -13.451   9.935  71.287  1.00  0.00    -0.367 OA 
HETATM   14  O   UNK A   1     -11.802   8.735  72.202  1.00  0.00    -0.355 OA 
BRANCH  11  15
HETATM   15  C   UNK A   1      -8.994   9.966  69.281  1.00  0.00    -0.184 C  
BRANCH  15  16
HETATM   16  C   UNK A   1      -9.228   9.631  67.795  1.00  0.00    -0.135 C  
BRANCH  16  17
HETATM   17  C   UNK A   1      -7.940   8.974  67.280  1.00  0.00    -0.099 C  
BRANCH  17  18
HETATM   18  C   UNK A   1      -7.929   7.450  67.289  1.00  0.00    -0.115 C  
BRANCH  18  19
HETATM   19  S   UNK A   1      -9.656   6.920  66.978  1.00  0.00    -0.166 SA 
BRANCH  19  20
HETATM   20  C   UNK A   1      -9.645   5.319  67.851  1.00  0.00    -0.134 C  
BRANCH  20  21
HETATM   21  C   UNK A   1      -9.055   5.473  69.262  1.00  0.00    -0.112 C  
HETATM   22  N   UNK A   1      -7.906   4.543  69.511  1.00  0.00    -0.058 NA 
HETATM   23  C   UNK A   1     -10.163   5.143  70.264  1.00  0.00    -0.271 C  
HETATM   24  O   UNK A   1     -11.077   5.891  70.569  1.00  0.00    -0.311 OA 
HETATM   25  O   UNK A   1     -10.033   3.877  70.742  1.00  0.00    -0.179 OA 
HETATM   26  H1  UNK A   1      -7.515   4.645  70.447  1.00  0.00     0.000 HD 
HETATM   27  H2  UNK A   1      -7.185   4.653  68.798  1.00  0.00     0.000 HD 
ENDBRANCH  20  21
ENDBRANCH  19  20
ENDBRANCH  18  19
ENDBRANCH  17  18
ENDBRANCH  16  17
ENDBRANCH  15  16
ENDBRANCH  11  15
ENDBRANCH   7  10
ENDBRANCH   5   6
TORSDOF 9
ENDMDL
MODEL      166
REMARK 921   NORMALIZED FREE ENERGY PREDICTED BY IDOCK:   -4.46 KCAL/MOL
REMARK 922        TOTAL FREE ENERGY PREDICTED BY IDOCK:   -7.78 KCAL/MOL
REMARK 923 INTER-LIGAND FREE ENERGY PREDICTED BY IDOCK:   -7.25 KCAL/MOL
REMARK 924 INTRA-LIGAND FREE ENERGY PREDICTED BY IDOCK:   -0.53 KCAL/MOL
REMARK 927      BINDING AFFINITY PREDICTED BY RF-SCORE:    0.00 PKD
ROOT
HETATM    1  C   UNK A   0     -14.125  15.612  71.716  1.00  0.00    -0.431 C  
HETATM    2  C   UNK A   0     -12.800  15.090  71.212  1.00  0.00    -0.438 C  
HETATM    3  C   UNK A   0     -12.433  13.692  71.646  1.00  0.00    -0.269 C  
HETATM    4  C   UNK A   0     -11.729  16.152  71.147  1.00  0.00    -0.454 C  
HETATM    5  C   UNK A   0     -12.783  13.946  70.190  1.00  0.00    -0.182 C  
ENDROOT
BRANCH   5   6
HETATM    6  C   UNK A   0     -11.681  13.747  69.190  1.00  0.00    -0.334 C  
HETATM    7  N   UNK A   1     -12.017  13.099  68.024  1.00  0.00    -0.342 N  
HETATM    8  O   UNK A   0     -10.538  14.092  69.462  1.00  0.00    -0.076 OA 
HETATM    9  H   UNK A   1     -12.998  12.837  67.925  1.00  0.00     0.000 HD 
BRANCH   7  10
HETATM   10  C   UNK A   1     -11.184  12.757  66.961  1.00  0.00    -0.292 C  
HETATM   11  C   UNK A   1     -10.827  13.680  66.032  1.00  0.00    -0.275 C  
HETATM   12  C   UNK A   1     -10.628  11.378  66.661  1.00  0.00    -0.258 C  
HETATM   13  O   UNK A   1     -11.409  10.336  67.007  1.00  0.00    -0.177 OA 
HETATM   14  O   UNK A   1      -9.620  11.209  65.987  1.00  0.00    -0.202 OA 
BRANCH  11  15
HETATM   15  C   UNK A   1     -11.271  15.109  65.961  1.00  0.00    -0.275 C  
BRANCH  15  16
HETATM   16  C   UNK A   1     -10.160  16.172  65.862  1.00  0.00    -0.379 C  
BRANCH  16  17
HETATM   17  C   UNK A   1     -10.021  16.800  67.256  1.00  0.00    -0.272 C  
BRANCH  17  18
HETATM   18  C   UNK A   1     -10.881  18.032  67.512  1.00  0.00    -0.234 C  
BRANCH  18  19
HETATM   19  S   UNK A   1      -9.728  19.379  67.972  1.00  0.00    -0.381 SA 
BRANCH  19  20
HETATM   20  C   UNK A   1      -9.017  19.744  66.332  1.00  0.00    -0.379 C  
BRANCH  20  21
HETATM   21  C   UNK A   1      -7.485  19.835  66.412  1.00  0.00    -0.284 C  
HETATM   22  N   UNK A   1      -6.913  20.799  65.416  1.00  0.00    -0.524 NA 
HETATM   23  C   UNK A   1      -6.923  18.445  66.109  1.00  0.00    -0.264 C  
HETATM   24  O   UNK A   1      -6.904  17.512  66.894  1.00  0.00    -0.158 OA 
HETATM   25  O   UNK A   1      -6.488  18.359  64.824  1.00  0.00    -0.366 OA 
HETATM   26  H1  UNK A   1      -5.896  20.859  65.469  1.00  0.00     0.000 HD 
HETATM   27  H2  UNK A   1      -7.340  21.720  65.510  1.00  0.00     0.000 HD 
ENDBRANCH  20  21
ENDBRANCH  19  20
ENDBRANCH  18  19
ENDBRANCH  17  18
ENDBRANCH  16  17
ENDBRANCH  15  16
ENDBRANCH  11  15
ENDBRANCH   7  10
ENDBRANCH   5   6
TORSDOF 9
ENDMDL
MODEL      167
REMARK 921   NORMALIZED FREE ENERGY PREDICTED BY IDOCK:   -4.45 KCAL/MOL
REMARK 922        TOTAL FREE ENERGY PREDICTED BY IDOCK:   -7.76 KCAL/MOL
REMARK 923 INTER-LIGAND FREE ENERGY PREDICTED BY IDOCK:   -6.64 KCAL/MOL
REMARK 924 INTRA-LIGAND FREE ENERGY PREDICTED BY IDOCK:   -1.12 KCAL/MOL
REMARK 927      BINDING AFFINITY PREDICTED BY RF-SCORE:    0.00 PKD
ROOT
HETATM    1  C   UNK A   0     -14.012   8.955  72.338  1.00  0.00    -0.516 C  
HETATM    2  C   UNK A   0     -12.634   8.744  71.757  1.00  0.00    -0.409 C  
HETATM    3  C   UNK A   0     -11.605   8.158  72.693  1.00  0.00    -0.441 C  
HETATM    4  C   UNK A   0     -12.225   9.829  70.790  1.00  0.00    -0.342 C  
HETATM    5  C   UNK A   0     -12.121   7.315  71.540  1.00  0.00    -0.365 C  
ENDROOT
BRANCH   5   6
HETATM    6  C   UNK A   0     -11.124   6.947  70.479  1.00  0.00    -0.288 C  
HETATM    7  N   UNK A   1      -9.867   7.491  70.601  1.00  0.00    -0.179 N  
HETATM    8  O   UNK A   0     -11.468   6.254  69.530  1.00  0.00    -0.428 OA 
HETATM    9  H   UNK A   1      -9.710   8.075  71.423  1.00  0.00     0.000 HD 
BRANCH   7  10
HETATM   10  C   UNK A   1      -8.780   7.343  69.741  1.00  0.00    -0.141 C  
HETATM   11  C   UNK A   1      -8.509   8.279  68.796  1.00  0.00    -0.125 C  
HETATM   12  C   UNK A   1      -7.828   6.163  69.688  1.00  0.00    -0.103 C  
HETATM   13  O   UNK A   1      -8.354   4.963  69.999  1.00  0.00    -0.072 OA 
HETATM   14  O   UNK A   1      -6.701   6.251  69.220  1.00  0.00    -0.052 OA 
BRANCH  11  15
HETATM   15  C   UNK A   1      -9.296   9.519  68.501  1.00  0.00    -0.138 C  
BRANCH  15  16
HETATM   16  C   UNK A   1     -10.477   9.369  67.523  1.00  0.00    -0.343 C  
BRANCH  16  17
HETATM   17  C   UNK A   1     -10.198  10.307  66.341  1.00  0.00    -0.290 C  
BRANCH  17  18
HETATM   18  C   UNK A   1      -9.750  11.717  66.710  1.00  0.00    -0.201 C  
BRANCH  18  19
HETATM   19  S   UNK A   1     -11.275  12.661  67.085  1.00  0.00    -0.318 SA 
BRANCH  19  20
HETATM   20  C   UNK A   1     -10.556  14.030  68.050  1.00  0.00    -0.247 C  
BRANCH  20  21
HETATM   21  C   UNK A   1     -11.536  15.211  68.132  1.00  0.00    -0.342 C  
HETATM   22  N   UNK A   1     -10.937  16.492  67.634  1.00  0.00    -0.262 NA 
HETATM   23  C   UNK A   1     -11.910  15.400  69.603  1.00  0.00    -0.347 C  
HETATM   24  O   UNK A   1     -12.702  14.705  70.218  1.00  0.00    -0.335 OA 
HETATM   25  O   UNK A   1     -11.205  16.417  70.165  1.00  0.00    -0.354 OA 
HETATM   26  H1  UNK A   1     -11.587  17.276  67.688  1.00  0.00     0.000 HD 
HETATM   27  H2  UNK A   1     -10.574  16.382  66.687  1.00  0.00     0.000 HD 
ENDBRANCH  20  21
ENDBRANCH  19  20
ENDBRANCH  18  19
ENDBRANCH  17  18
ENDBRANCH  16  17
ENDBRANCH  15  16
ENDBRANCH  11  15
ENDBRANCH   7  10
ENDBRANCH   5   6
TORSDOF 9
ENDMDL
MODEL      168
REMARK 921   NORMALIZED FREE ENERGY PREDICTED BY IDOCK:   -4.45 KCAL/MOL
REMARK 922        TOTAL FREE ENERGY PREDICTED BY IDOCK:   -7.76 KCAL/MOL
REMARK 923 INTER-LIGAND FREE ENERGY PREDICTED BY IDOCK:   -6.70 KCAL/MOL
REMARK 924 INTRA-LIGAND FREE ENERGY PREDICTED BY IDOCK:   -1.06 KCAL/MOL
REMARK 927      BINDING AFFINITY PREDICTED BY RF-SCORE:    0.00 PKD
ROOT
HETATM    1  C   UNK A   0      -7.359   9.276  65.628  1.00  0.00    -0.093 C  
HETATM    2  C   UNK A   0      -8.721   8.927  66.182  1.00  0.00    -0.177 C  
HETATM    3  C   UNK A   0      -9.079   7.461  66.178  1.00  0.00    -0.167 C  
HETATM    4  C   UNK A   0      -9.779   9.951  65.846  1.00  0.00    -0.326 C  
HETATM    5  C   UNK A   0      -8.819   8.156  67.504  1.00  0.00    -0.137 C  
ENDROOT
BRANCH   5   6
HETATM    6  C   UNK A   0      -9.984   8.269  68.443  1.00  0.00    -0.190 C  
HETATM    7  N   UNK A   1      -9.994   9.357  69.284  1.00  0.00    -0.173 N  
HETATM    8  O   UNK A   0     -10.828   7.382  68.482  1.00  0.00    -0.143 OA 
HETATM    9  H   UNK A   1      -9.221  10.014  69.175  1.00  0.00     0.000 HD 
BRANCH   7  10
HETATM   10  C   UNK A   1     -10.930   9.674  70.267  1.00  0.00    -0.285 C  
HETATM   11  C   UNK A   1     -11.862  10.638  70.056  1.00  0.00    -0.403 C  
HETATM   12  C   UNK A   1     -11.012   9.075  71.658  1.00  0.00    -0.365 C  
HETATM   13  O   UNK A   1      -9.841   8.710  72.216  1.00  0.00    -0.305 OA 
HETATM   14  O   UNK A   1     -12.044   9.082  72.316  1.00  0.00    -0.346 OA 
BRANCH  11  15
HETATM   15  C   UNK A   1     -12.010  11.500  68.839  1.00  0.00    -0.364 C  
BRANCH  15  16
HETATM   16  C   UNK A   1     -11.489  12.946  68.951  1.00  0.00    -0.350 C  
BRANCH  16  17
HETATM   17  C   UNK A   1     -11.784  13.629  67.609  1.00  0.00    -0.398 C  
BRANCH  17  18
HETATM   18  C   UNK A   1     -10.589  13.797  66.679  1.00  0.00    -0.274 C  
BRANCH  18  19
HETATM   19  S   UNK A   1     -11.024  15.147  65.518  1.00  0.00    -0.372 SA 
BRANCH  19  20
HETATM   20  C   UNK A   1      -9.926  16.458  66.150  1.00  0.00    -0.339 C  
BRANCH  20  21
HETATM   21  C   UNK A   1     -10.532  17.121  67.397  1.00  0.00    -0.334 C  
HETATM   22  N   UNK A   1     -10.903  18.554  67.165  1.00  0.00    -0.344 NA 
HETATM   23  C   UNK A   1      -9.476  17.074  68.503  1.00  0.00    -0.269 C  
HETATM   24  O   UNK A   1      -9.200  16.088  69.166  1.00  0.00    -0.227 OA 
HETATM   25  O   UNK A   1      -8.838  18.267  68.626  1.00  0.00    -0.313 OA 
HETATM   26  H1  UNK A   1     -11.305  18.994  67.993  1.00  0.00     0.000 HD 
HETATM   27  H2  UNK A   1     -11.526  18.646  66.362  1.00  0.00     0.000 HD 
ENDBRANCH  20  21
ENDBRANCH  19  20
ENDBRANCH  18  19
ENDBRANCH  17  18
ENDBRANCH  16  17
ENDBRANCH  15  16
ENDBRANCH  11  15
ENDBRANCH   7  10
ENDBRANCH   5   6
TORSDOF 9
ENDMDL
MODEL      169
REMARK 921   NORMALIZED FREE ENERGY PREDICTED BY IDOCK:   -4.45 KCAL/MOL
REMARK 922        TOTAL FREE ENERGY PREDICTED BY IDOCK:   -7.75 KCAL/MOL
REMARK 923 INTER-LIGAND FREE ENERGY PREDICTED BY IDOCK:   -6.70 KCAL/MOL
REMARK 924 INTRA-LIGAND FREE ENERGY PREDICTED BY IDOCK:   -1.05 KCAL/MOL
REMARK 927      BINDING AFFINITY PREDICTED BY RF-SCORE:    0.00 PKD
ROOT
HETATM    1  C   UNK A   0      -7.200   8.393  68.268  1.00  0.00    -0.086 C  
HETATM    2  C   UNK A   0      -7.562   9.859  68.285  1.00  0.00    -0.080 C  
HETATM    3  C   UNK A   0      -6.470  10.815  67.872  1.00  0.00    -0.062 C  
HETATM    4  C   UNK A   0      -8.482  10.231  69.424  1.00  0.00    -0.170 C  
HETATM    5  C   UNK A   0      -7.668  10.622  66.958  1.00  0.00    -0.117 C  
ENDROOT
BRANCH   5   6
HETATM    6  C   UNK A   0      -8.558  11.814  66.759  1.00  0.00    -0.185 C  
HETATM    7  N   UNK A   1      -9.775  11.581  66.161  1.00  0.00    -0.215 N  
HETATM    8  O   UNK A   0      -8.161  12.933  67.059  1.00  0.00    -0.146 OA 
HETATM    9  H   UNK A   1      -9.982  10.608  65.933  1.00  0.00     0.000 HD 
BRANCH   7  10
HETATM   10  C   UNK A   1     -10.760  12.509  65.829  1.00  0.00    -0.269 C  
HETATM   11  C   UNK A   1     -11.689  12.894  66.741  1.00  0.00    -0.445 C  
HETATM   12  C   UNK A   1     -10.973  13.148  64.470  1.00  0.00    -0.372 C  
HETATM   13  O   UNK A   1     -10.655  12.391  63.403  1.00  0.00    -0.436 OA 
HETATM   14  O   UNK A   1     -11.563  14.212  64.331  1.00  0.00    -0.389 OA 
BRANCH  11  15
HETATM   15  C   UNK A   1     -11.838  12.392  68.145  1.00  0.00    -0.372 C  
BRANCH  15  16
HETATM   16  C   UNK A   1     -11.699  13.437  69.269  1.00  0.00    -0.383 C  
BRANCH  16  17
HETATM   17  C   UNK A   1     -10.810  14.562  68.721  1.00  0.00    -0.256 C  
BRANCH  17  18
HETATM   18  C   UNK A   1     -11.415  15.960  68.764  1.00  0.00    -0.393 C  
BRANCH  18  19
HETATM   19  S   UNK A   1     -10.531  16.944  67.497  1.00  0.00    -0.312 SA 
BRANCH  19  20
HETATM   20  C   UNK A   1      -9.038  17.390  68.445  1.00  0.00    -0.274 C  
BRANCH  20  21
HETATM   21  C   UNK A   1      -9.001  18.902  68.721  1.00  0.00    -0.300 C  
HETATM   22  N   UNK A   1     -10.371  19.497  68.851  1.00  0.00    -0.570 NA 
HETATM   23  C   UNK A   1      -8.300  19.570  67.538  1.00  0.00    -0.297 C  
HETATM   24  O   UNK A   1      -7.094  19.579  67.352  1.00  0.00    -0.210 OA 
HETATM   25  O   UNK A   1      -9.199  20.117  66.677  1.00  0.00    -0.358 OA 
HETATM   26  H1  UNK A   1     -10.347  20.500  69.034  1.00  0.00     0.000 HD 
HETATM   27  H2  UNK A   1     -10.917  19.008  69.560  1.00  0.00     0.000 HD 
ENDBRANCH  20  21
ENDBRANCH  19  20
ENDBRANCH  18  19
ENDBRANCH  17  18
ENDBRANCH  16  17
ENDBRANCH  15  16
ENDBRANCH  11  15
ENDBRANCH   7  10
ENDBRANCH   5   6
TORSDOF 9
ENDMDL
MODEL      170
REMARK 921   NORMALIZED FREE ENERGY PREDICTED BY IDOCK:   -4.43 KCAL/MOL
REMARK 922        TOTAL FREE ENERGY PREDICTED BY IDOCK:   -7.72 KCAL/MOL
REMARK 923 INTER-LIGAND FREE ENERGY PREDICTED BY IDOCK:   -6.65 KCAL/MOL
REMARK 924 INTRA-LIGAND FREE ENERGY PREDICTED BY IDOCK:   -1.07 KCAL/MOL
REMARK 927      BINDING AFFINITY PREDICTED BY RF-SCORE:    0.00 PKD
ROOT
HETATM    1  C   UNK A   0      -9.206  18.105  68.606  1.00  0.00    -0.295 C  
HETATM    2  C   UNK A   0      -9.739  16.781  68.109  1.00  0.00    -0.247 C  
HETATM    3  C   UNK A   0     -11.224  16.564  68.271  1.00  0.00    -0.265 C  
HETATM    4  C   UNK A   0      -8.790  15.631  68.349  1.00  0.00    -0.184 C  
HETATM    5  C   UNK A   0     -10.651  16.754  66.876  1.00  0.00    -0.219 C  
ENDROOT
BRANCH   5   6
HETATM    6  C   UNK A   0     -10.749  15.580  65.946  1.00  0.00    -0.339 C  
HETATM    7  N   UNK A   1     -11.616  14.576  66.309  1.00  0.00    -0.363 N  
HETATM    8  O   UNK A   0     -10.025  15.518  64.960  1.00  0.00    -0.331 OA 
HETATM    9  H   UNK A   1     -12.145  14.732  67.168  1.00  0.00     0.000 HD 
BRANCH   7  10
HETATM   10  C   UNK A   1     -11.863  13.374  65.650  1.00  0.00    -0.370 C  
HETATM   11  C   UNK A   1     -11.262  12.225  66.051  1.00  0.00    -0.375 C  
HETATM   12  C   UNK A   1     -12.736  13.181  64.424  1.00  0.00    -0.163 C  
HETATM   13  O   UNK A   1     -12.781  14.214  63.561  1.00  0.00    -0.794 OA 
HETATM   14  O   UNK A   1     -13.229  12.100  64.133  1.00  0.00    -0.740 OA 
BRANCH  11  15
HETATM   15  C   UNK A   1     -10.267  12.065  67.160  1.00  0.00    -0.221 C  
BRANCH  15  16
HETATM   16  C   UNK A   1     -10.839  11.837  68.572  1.00  0.00    -0.261 C  
BRANCH  16  17
HETATM   17  C   UNK A   1     -10.680  10.342  68.880  1.00  0.00    -0.255 C  
BRANCH  17  18
HETATM   18  C   UNK A   1     -10.634   9.421  67.666  1.00  0.00    -0.271 C  
BRANCH  18  19
HETATM   19  S   UNK A   1      -9.693   7.936  68.181  1.00  0.00    -0.164 SA 
BRANCH  19  20
HETATM   20  C   UNK A   1      -8.836   8.610  69.643  1.00  0.00    -0.137 C  
BRANCH  20  21
HETATM   21  C   UNK A   1      -7.339   8.806  69.353  1.00  0.00    -0.072 C  
HETATM   22  N   UNK A   1      -6.475   7.844  70.112  1.00  0.00    -0.037 NA 
HETATM   23  C   UNK A   1      -6.967  10.226  69.786  1.00  0.00    -0.129 C  
HETATM   24  O   UNK A   1      -7.218  11.238  69.153  1.00  0.00    -0.112 OA 
HETATM   25  O   UNK A   1      -6.361  10.227  71.002  1.00  0.00    -0.312 OA 
HETATM   26  H1  UNK A   1      -5.482   7.974  69.920  1.00  0.00     0.000 HD 
HETATM   27  H2  UNK A   1      -6.759   6.880  69.937  1.00  0.00     0.000 HD 
ENDBRANCH  20  21
ENDBRANCH  19  20
ENDBRANCH  18  19
ENDBRANCH  17  18
ENDBRANCH  16  17
ENDBRANCH  15  16
ENDBRANCH  11  15
ENDBRANCH   7  10
ENDBRANCH   5   6
TORSDOF 9
ENDMDL
MODEL      171
REMARK 921   NORMALIZED FREE ENERGY PREDICTED BY IDOCK:   -4.42 KCAL/MOL
REMARK 922        TOTAL FREE ENERGY PREDICTED BY IDOCK:   -7.72 KCAL/MOL
REMARK 923 INTER-LIGAND FREE ENERGY PREDICTED BY IDOCK:   -7.14 KCAL/MOL
REMARK 924 INTRA-LIGAND FREE ENERGY PREDICTED BY IDOCK:   -0.58 KCAL/MOL
REMARK 927      BINDING AFFINITY PREDICTED BY RF-SCORE:    0.00 PKD
ROOT
HETATM    1  C   UNK A   0      -9.008  17.216  66.533  1.00  0.00    -0.300 C  
HETATM    2  C   UNK A   0      -9.378  17.088  67.992  1.00  0.00    -0.245 C  
HETATM    3  C   UNK A   0     -10.178  18.229  68.573  1.00  0.00    -0.402 C  
HETATM    4  C   UNK A   0      -8.298  16.440  68.824  1.00  0.00    -0.242 C  
HETATM    5  C   UNK A   0     -10.848  16.879  68.379  1.00  0.00    -0.347 C  
ENDROOT
BRANCH   5   6
HETATM    6  C   UNK A   0     -11.281  16.160  69.623  1.00  0.00    -0.331 C  
HETATM    7  N   UNK A   1     -12.063  15.042  69.447  1.00  0.00    -0.471 N  
HETATM    8  O   UNK A   0     -10.995  16.613  70.724  1.00  0.00    -0.125 OA 
HETATM    9  H   UNK A   1     -12.256  14.779  68.480  1.00  0.00     0.000 HD 
BRANCH   7  10
HETATM   10  C   UNK A   1     -12.625  14.224  70.426  1.00  0.00    -0.343 C  
HETATM   11  C   UNK A   1     -12.403  12.886  70.426  1.00  0.00    -0.333 C  
HETATM   12  C   UNK A   1     -13.559  14.664  71.538  1.00  0.00    -0.405 C  
HETATM   13  O   UNK A   1     -14.378  15.693  71.252  1.00  0.00    -0.521 OA 
HETATM   14  O   UNK A   1     -13.698  14.020  72.570  1.00  0.00    -0.510 OA 
BRANCH  11  15
HETATM   15  C   UNK A   1     -11.614  12.101  69.422  1.00  0.00    -0.381 C  
BRANCH  15  16
HETATM   16  C   UNK A   1     -11.550  10.576  69.635  1.00  0.00    -0.342 C  
BRANCH  16  17
HETATM   17  C   UNK A   1     -11.601  10.337  71.150  1.00  0.00    -0.385 C  
BRANCH  17  18
HETATM   18  C   UNK A   1     -10.855   9.106  71.649  1.00  0.00    -0.372 C  
BRANCH  18  19
HETATM   19  S   UNK A   1      -9.914   8.458  70.217  1.00  0.00    -0.189 SA 
BRANCH  19  20
HETATM   20  C   UNK A   1      -8.220   8.600  70.876  1.00  0.00    -0.143 C  
BRANCH  20  21
HETATM   21  C   UNK A   1      -8.145   8.045  72.307  1.00  0.00    -0.138 C  
HETATM   22  N   UNK A   1      -6.985   8.598  73.079  1.00  0.00    -0.309 NA 
HETATM   23  C   UNK A   1      -7.972   6.529  72.206  1.00  0.00    -0.102 C  
HETATM   24  O   UNK A   1      -8.865   5.738  71.950  1.00  0.00    -0.138 OA 
HETATM   25  O   UNK A   1      -6.674   6.168  72.386  1.00  0.00    -0.066 OA 
HETATM   26  H1  UNK A   1      -6.935   8.230  74.029  1.00  0.00     0.000 HD 
HETATM   27  H2  UNK A   1      -7.000   9.618  73.082  1.00  0.00     0.000 HD 
ENDBRANCH  20  21
ENDBRANCH  19  20
ENDBRANCH  18  19
ENDBRANCH  17  18
ENDBRANCH  16  17
ENDBRANCH  15  16
ENDBRANCH  11  15
ENDBRANCH   7  10
ENDBRANCH   5   6
TORSDOF 9
ENDMDL
MODEL      172
REMARK 921   NORMALIZED FREE ENERGY PREDICTED BY IDOCK:   -4.42 KCAL/MOL
REMARK 922        TOTAL FREE ENERGY PREDICTED BY IDOCK:   -7.71 KCAL/MOL
REMARK 923 INTER-LIGAND FREE ENERGY PREDICTED BY IDOCK:   -7.02 KCAL/MOL
REMARK 924 INTRA-LIGAND FREE ENERGY PREDICTED BY IDOCK:   -0.69 KCAL/MOL
REMARK 927      BINDING AFFINITY PREDICTED BY RF-SCORE:    0.00 PKD
ROOT
HETATM    1  C   UNK A   0      -8.094  10.654  65.647  1.00  0.00    -0.146 C  
HETATM    2  C   UNK A   0      -9.537  10.819  66.064  1.00  0.00    -0.244 C  
HETATM    3  C   UNK A   0     -10.291   9.544  66.354  1.00  0.00    -0.243 C  
HETATM    4  C   UNK A   0     -10.237  11.949  65.348  1.00  0.00    -0.300 C  
HETATM    5  C   UNK A   0      -9.946  10.477  67.503  1.00  0.00    -0.204 C  
ENDROOT
BRANCH   5   6
HETATM    6  C   UNK A   0     -11.101  11.126  68.210  1.00  0.00    -0.251 C  
HETATM    7  N   UNK A   1     -10.926  11.405  69.545  1.00  0.00    -0.411 N  
HETATM    8  O   UNK A   0     -12.155  11.316  67.616  1.00  0.00    -0.600 OA 
HETATM    9  H   UNK A   1     -10.011  11.175  69.934  1.00  0.00     0.000 HD 
BRANCH   7  10
HETATM   10  C   UNK A   1     -11.845  11.963  70.433  1.00  0.00    -0.239 C  
HETATM   11  C   UNK A   1     -12.588  11.175  71.251  1.00  0.00    -0.503 C  
HETATM   12  C   UNK A   1     -12.180  13.436  70.574  1.00  0.00    -0.352 C  
HETATM   13  O   UNK A   1     -12.099  14.172  69.449  1.00  0.00    -0.316 OA 
HETATM   14  O   UNK A   1     -12.667  13.902  71.595  1.00  0.00    -0.332 OA 
BRANCH  11  15
HETATM   15  C   UNK A   1     -12.588   9.678  71.308  1.00  0.00    -0.443 C  
BRANCH  15  16
HETATM   16  C   UNK A   1     -13.682   9.021  72.171  1.00  0.00    -0.536 C  
BRANCH  16  17
HETATM   17  C   UNK A   1     -13.612   7.511  71.904  1.00  0.00    -0.315 C  
BRANCH  17  18
HETATM   18  C   UNK A   1     -12.394   7.037  71.120  1.00  0.00    -0.378 C  
BRANCH  18  19
HETATM   19  S   UNK A   1     -11.330   6.141  72.313  1.00  0.00    -0.310 SA 
BRANCH  19  20
HETATM   20  C   UNK A   1      -9.830   5.945  71.295  1.00  0.00    -0.176 C  
BRANCH  20  21
HETATM   21  C   UNK A   1      -9.864   4.614  70.527  1.00  0.00    -0.231 C  
HETATM   22  N   UNK A   1      -8.760   3.685  70.935  1.00  0.00    -0.072 NA 
HETATM   23  C   UNK A   1      -9.693   4.934  69.041  1.00  0.00    -0.175 C  
HETATM   24  O   UNK A   1     -10.570   5.372  68.314  1.00  0.00    -0.160 OA 
HETATM   25  O   UNK A   1      -8.415   4.719  68.634  1.00  0.00    -0.086 OA 
HETATM   26  H1  UNK A   1      -8.783   2.802  70.426  1.00  0.00     0.000 HD 
HETATM   27  H2  UNK A   1      -8.769   3.527  71.943  1.00  0.00     0.000 HD 
ENDBRANCH  20  21
ENDBRANCH  19  20
ENDBRANCH  18  19
ENDBRANCH  17  18
ENDBRANCH  16  17
ENDBRANCH  15  16
ENDBRANCH  11  15
ENDBRANCH   7  10
ENDBRANCH   5   6
TORSDOF 9
ENDMDL
MODEL      173
REMARK 921   NORMALIZED FREE ENERGY PREDICTED BY IDOCK:   -4.41 KCAL/MOL
REMARK 922        TOTAL FREE ENERGY PREDICTED BY IDOCK:   -7.70 KCAL/MOL
REMARK 923 INTER-LIGAND FREE ENERGY PREDICTED BY IDOCK:   -6.49 KCAL/MOL
REMARK 924 INTRA-LIGAND FREE ENERGY PREDICTED BY IDOCK:   -1.21 KCAL/MOL
REMARK 927      BINDING AFFINITY PREDICTED BY RF-SCORE:    0.00 PKD
ROOT
HETATM    1  C   UNK A   0     -12.463  15.001  64.295  1.00  0.00    -0.130 C  
HETATM    2  C   UNK A   0     -11.623  14.122  65.192  1.00  0.00    -0.344 C  
HETATM    3  C   UNK A   0     -10.624  13.230  64.495  1.00  0.00    -0.437 C  
HETATM    4  C   UNK A   0     -12.381  13.594  66.386  1.00  0.00    -0.441 C  
HETATM    5  C   UNK A   0     -10.120  14.400  65.323  1.00  0.00    -0.387 C  
ENDROOT
BRANCH   5   6
HETATM    6  C   UNK A   0      -9.320  14.061  66.546  1.00  0.00    -0.255 C  
HETATM    7  N   UNK A   1      -8.722  12.822  66.567  1.00  0.00    -0.425 N  
HETATM    8  O   UNK A   0      -9.283  14.841  67.490  1.00  0.00    -0.190 OA 
HETATM    9  H   UNK A   1      -8.848  12.251  65.731  1.00  0.00     0.000 HD 
BRANCH   7  10
HETATM   10  C   UNK A   1      -7.965  12.251  67.588  1.00  0.00    -0.161 C  
HETATM   11  C   UNK A   1      -8.563  11.585  68.608  1.00  0.00    -0.109 C  
HETATM   12  C   UNK A   1      -6.458  12.330  67.744  1.00  0.00    -0.106 C  
HETATM   13  O   UNK A   1      -5.874  13.457  67.293  1.00  0.00    -0.350 OA 
HETATM   14  O   UNK A   1      -5.822  11.513  68.396  1.00  0.00    -0.046 OA 
BRANCH  11  15
HETATM   15  C   UNK A   1     -10.034  11.399  68.826  1.00  0.00    -0.188 C  
BRANCH  15  16
HETATM   16  C   UNK A   1     -10.662  10.120  68.239  1.00  0.00    -0.277 C  
BRANCH  16  17
HETATM   17  C   UNK A   1     -10.980   9.198  69.424  1.00  0.00    -0.108 C  
BRANCH  17  18
HETATM   18  C   UNK A   1     -10.996   9.866  70.793  1.00  0.00    -0.337 C  
BRANCH  18  19
HETATM   19  S   UNK A   1     -12.389   9.115  71.717  1.00  0.00    -0.394 SA 
BRANCH  19  20
HETATM   20  C   UNK A   1     -12.354   7.435  71.009  1.00  0.00    -0.268 C  
BRANCH  20  21
HETATM   21  C   UNK A   1     -11.668   6.453  71.973  1.00  0.00    -0.329 C  
HETATM   22  N   UNK A   1     -11.255   7.103  73.259  1.00  0.00    -0.567 NA 
HETATM   23  C   UNK A   1     -10.411   5.926  71.278  1.00  0.00    -0.233 C  
HETATM   24  O   UNK A   1     -10.399   5.073  70.407  1.00  0.00    -0.265 OA 
HETATM   25  O   UNK A   1      -9.298   6.570  71.719  1.00  0.00    -0.150 OA 
HETATM   26  H1  UNK A   1     -10.800   6.452  73.899  1.00  0.00     0.000 HD 
HETATM   27  H2  UNK A   1     -12.047   7.564  73.707  1.00  0.00     0.000 HD 
ENDBRANCH  20  21
ENDBRANCH  19  20
ENDBRANCH  18  19
ENDBRANCH  17  18
ENDBRANCH  16  17
ENDBRANCH  15  16
ENDBRANCH  11  15
ENDBRANCH   7  10
ENDBRANCH   5   6
TORSDOF 9
ENDMDL
MODEL      174
REMARK 921   NORMALIZED FREE ENERGY PREDICTED BY IDOCK:   -4.40 KCAL/MOL
REMARK 922        TOTAL FREE ENERGY PREDICTED BY IDOCK:   -7.69 KCAL/MOL
REMARK 923 INTER-LIGAND FREE ENERGY PREDICTED BY IDOCK:   -6.52 KCAL/MOL
REMARK 924 INTRA-LIGAND FREE ENERGY PREDICTED BY IDOCK:   -1.16 KCAL/MOL
REMARK 927      BINDING AFFINITY PREDICTED BY RF-SCORE:    0.00 PKD
ROOT
HETATM    1  C   UNK A   0      -6.982   4.992  70.216  1.00  0.00    -0.052 C  
HETATM    2  C   UNK A   0      -8.149   5.635  69.505  1.00  0.00    -0.103 C  
HETATM    3  C   UNK A   0      -9.195   4.691  68.964  1.00  0.00    -0.183 C  
HETATM    4  C   UNK A   0      -7.758   6.850  68.698  1.00  0.00    -0.113 C  
HETATM    5  C   UNK A   0      -9.542   5.580  70.146  1.00  0.00    -0.223 C  
ENDROOT
BRANCH   5   6
HETATM    6  C   UNK A   0     -10.599   6.620  69.916  1.00  0.00    -0.226 C  
HETATM    7  N   UNK A   1     -10.449   7.810  70.589  1.00  0.00    -0.211 N  
HETATM    8  O   UNK A   0     -11.571   6.361  69.216  1.00  0.00    -0.354 OA 
HETATM    9  H   UNK A   1      -9.611   7.896  71.164  1.00  0.00     0.000 HD 
BRANCH   7  10
HETATM   10  C   UNK A   1     -11.301   8.914  70.582  1.00  0.00    -0.259 C  
HETATM   11  C   UNK A   1     -11.013  10.009  69.835  1.00  0.00    -0.339 C  
HETATM   12  C   UNK A   1     -12.568   9.078  71.399  1.00  0.00    -0.311 C  
HETATM   13  O   UNK A   1     -12.577   8.479  72.605  1.00  0.00    -0.355 OA 
HETATM   14  O   UNK A   1     -13.461   9.850  71.076  1.00  0.00    -0.363 OA 
BRANCH  11  15
HETATM   15  C   UNK A   1      -9.797  10.231  68.987  1.00  0.00    -0.215 C  
BRANCH  15  16
HETATM   16  C   UNK A   1      -9.815   9.602  67.580  1.00  0.00    -0.213 C  
BRANCH  16  17
HETATM   17  C   UNK A   1     -10.650  10.531  66.688  1.00  0.00    -0.263 C  
BRANCH  17  18
HETATM   18  C   UNK A   1     -10.079  10.802  65.302  1.00  0.00    -0.290 C  
BRANCH  18  19
HETATM   19  S   UNK A   1     -11.254  11.937  64.473  1.00  0.00    -0.306 SA 
BRANCH  19  20
HETATM   20  C   UNK A   1     -11.977  12.749  65.938  1.00  0.00    -0.449 C  
BRANCH  20  21
HETATM   21  C   UNK A   1     -11.559  14.227  66.002  1.00  0.00    -0.360 C  
HETATM   22  N   UNK A   1     -11.124  14.760  64.670  1.00  0.00    -0.578 NA 
HETATM   23  C   UNK A   1     -10.377  14.331  66.967  1.00  0.00    -0.267 C  
HETATM   24  O   UNK A   1     -10.463  14.307  68.184  1.00  0.00    -0.237 OA 
HETATM   25  O   UNK A   1      -9.198  14.402  66.296  1.00  0.00    -0.253 OA 
HETATM   26  H1  UNK A   1     -10.846  15.741  64.712  1.00  0.00     0.000 HD 
HETATM   27  H2  UNK A   1     -11.845  14.614  63.963  1.00  0.00     0.000 HD 
ENDBRANCH  20  21
ENDBRANCH  19  20
ENDBRANCH  18  19
ENDBRANCH  17  18
ENDBRANCH  16  17
ENDBRANCH  15  16
ENDBRANCH  11  15
ENDBRANCH   7  10
ENDBRANCH   5   6
TORSDOF 9
ENDMDL
MODEL      175
REMARK 921   NORMALIZED FREE ENERGY PREDICTED BY IDOCK:   -4.40 KCAL/MOL
REMARK 922        TOTAL FREE ENERGY PREDICTED BY IDOCK:   -7.68 KCAL/MOL
REMARK 923 INTER-LIGAND FREE ENERGY PREDICTED BY IDOCK:   -6.82 KCAL/MOL
REMARK 924 INTRA-LIGAND FREE ENERGY PREDICTED BY IDOCK:   -0.85 KCAL/MOL
REMARK 927      BINDING AFFINITY PREDICTED BY RF-SCORE:    0.00 PKD
ROOT
HETATM    1  C   UNK A   0     -10.348  19.791  66.835  1.00  0.00    -0.601 C  
HETATM    2  C   UNK A   0      -9.865  18.423  67.254  1.00  0.00    -0.327 C  
HETATM    3  C   UNK A   0      -8.771  18.398  68.293  1.00  0.00    -0.321 C  
HETATM    4  C   UNK A   0      -9.831  17.430  66.116  1.00  0.00    -0.260 C  
HETATM    5  C   UNK A   0     -10.164  17.923  68.673  1.00  0.00    -0.387 C  
ENDROOT
BRANCH   5   6
HETATM    6  C   UNK A   0     -10.305  16.471  69.026  1.00  0.00    -0.296 C  
HETATM    7  N   UNK A   1     -11.541  15.904  68.818  1.00  0.00    -0.390 N  
HETATM    8  O   UNK A   0      -9.368  15.871  69.538  1.00  0.00    -0.257 OA 
HETATM    9  H   UNK A   1     -12.249  16.514  68.410  1.00  0.00     0.000 HD 
BRANCH   7  10
HETATM   10  C   UNK A   1     -11.945  14.599  69.096  1.00  0.00    -0.294 C  
HETATM   11  C   UNK A   1     -11.965  13.655  68.121  1.00  0.00    -0.390 C  
HETATM   12  C   UNK A   1     -12.448  14.077  70.428  1.00  0.00    -0.350 C  
HETATM   13  O   UNK A   1     -13.125  14.956  71.191  1.00  0.00    -0.348 OA 
HETATM   14  O   UNK A   1     -12.408  12.891  70.725  1.00  0.00    -0.368 OA 
BRANCH  11  15
HETATM   15  C   UNK A   1     -11.628  13.844  66.673  1.00  0.00    -0.392 C  
BRANCH  15  16
HETATM   16  C   UNK A   1     -10.388  13.094  66.150  1.00  0.00    -0.287 C  
BRANCH  16  17
HETATM   17  C   UNK A   1     -10.437  11.683  66.751  1.00  0.00    -0.265 C  
BRANCH  17  18
HETATM   18  C   UNK A   1      -9.209  10.816  66.499  1.00  0.00    -0.168 C  
BRANCH  18  19
HETATM   19  S   UNK A   1      -9.831   9.129  66.151  1.00  0.00    -0.259 SA 
BRANCH  19  20
HETATM   20  C   UNK A   1      -8.287   8.183  66.372  1.00  0.00    -0.115 C  
BRANCH  20  21
HETATM   21  C   UNK A   1      -7.686   7.798  65.012  1.00  0.00    -0.107 C  
HETATM   22  N   UNK A   1      -8.593   8.132  63.866  1.00  0.00    -0.390 NA 
HETATM   23  C   UNK A   1      -7.461   6.285  65.018  1.00  0.00    -0.083 C  
HETATM   24  O   UNK A   1      -6.540   5.716  65.581  1.00  0.00    -0.039 OA 
HETATM   25  O   UNK A   1      -8.454   5.637  64.354  1.00  0.00    -0.129 OA 
HETATM   26  H1  UNK A   1      -8.194   7.876  62.963  1.00  0.00     0.000 HD 
HETATM   27  H2  UNK A   1      -8.858   9.116  63.884  1.00  0.00     0.000 HD 
ENDBRANCH  20  21
ENDBRANCH  19  20
ENDBRANCH  18  19
ENDBRANCH  17  18
ENDBRANCH  16  17
ENDBRANCH  15  16
ENDBRANCH  11  15
ENDBRANCH   7  10
ENDBRANCH   5   6
TORSDOF 9
ENDMDL
MODEL      176
REMARK 921   NORMALIZED FREE ENERGY PREDICTED BY IDOCK:   -4.39 KCAL/MOL
REMARK 922        TOTAL FREE ENERGY PREDICTED BY IDOCK:   -7.66 KCAL/MOL
REMARK 923 INTER-LIGAND FREE ENERGY PREDICTED BY IDOCK:   -6.76 KCAL/MOL
REMARK 924 INTRA-LIGAND FREE ENERGY PREDICTED BY IDOCK:   -0.90 KCAL/MOL
REMARK 927      BINDING AFFINITY PREDICTED BY RF-SCORE:    0.00 PKD
ROOT
HETATM    1  C   UNK A   0      -9.948   4.924  65.844  1.00  0.00    -0.222 C  
HETATM    2  C   UNK A   0      -9.789   5.914  66.973  1.00  0.00    -0.173 C  
HETATM    3  C   UNK A   0     -10.312   7.306  66.710  1.00  0.00    -0.311 C  
HETATM    4  C   UNK A   0      -8.501   5.738  67.742  1.00  0.00    -0.103 C  
HETATM    5  C   UNK A   0     -11.036   6.420  67.710  1.00  0.00    -0.376 C  
ENDROOT
BRANCH   5   6
HETATM    6  C   UNK A   0     -11.025   6.874  69.140  1.00  0.00    -0.199 C  
HETATM    7  N   UNK A   1     -10.540   8.139  69.381  1.00  0.00    -0.279 N  
HETATM    8  O   UNK A   0     -11.368   6.105  70.030  1.00  0.00    -0.392 OA 
HETATM    9  H   UNK A   1     -10.259   8.673  68.559  1.00  0.00     0.000 HD 
BRANCH   7  10
HETATM   10  C   UNK A   1     -10.386   8.779  70.609  1.00  0.00    -0.209 C  
HETATM   11  C   UNK A   1     -11.100   9.895  70.906  1.00  0.00    -0.418 C  
HETATM   12  C   UNK A   1      -9.418   8.392  71.711  1.00  0.00    -0.233 C  
HETATM   13  O   UNK A   1      -8.254   7.844  71.312  1.00  0.00    -0.095 OA 
HETATM   14  O   UNK A   1      -9.591   8.715  72.879  1.00  0.00    -0.183 OA 
BRANCH  11  15
HETATM   15  C   UNK A   1     -12.070  10.609  70.016  1.00  0.00    -0.393 C  
BRANCH  15  16
HETATM   16  C   UNK A   1     -11.577  11.916  69.366  1.00  0.00    -0.388 C  
BRANCH  16  17
HETATM   17  C   UNK A   1     -11.103  11.557  67.951  1.00  0.00    -0.317 C  
BRANCH  17  18
HETATM   18  C   UNK A   1     -10.634  12.728  67.096  1.00  0.00    -0.237 C  
BRANCH  18  19
HETATM   19  S   UNK A   1     -11.820  14.092  67.393  1.00  0.00    -0.409 SA 
BRANCH  19  20
HETATM   20  C   UNK A   1     -10.776  15.512  66.924  1.00  0.00    -0.317 C  
BRANCH  20  21
HETATM   21  C   UNK A   1     -10.850  16.616  67.990  1.00  0.00    -0.337 C  
HETATM   22  N   UNK A   1     -10.721  17.990  67.405  1.00  0.00    -0.366 NA 
HETATM   23  C   UNK A   1      -9.688  16.399  68.961  1.00  0.00    -0.262 C  
HETATM   24  O   UNK A   1      -9.660  15.556  69.843  1.00  0.00    -0.275 OA 
HETATM   25  O   UNK A   1      -8.653  17.237  68.687  1.00  0.00    -0.269 OA 
HETATM   26  H1  UNK A   1     -10.770  18.724  68.113  1.00  0.00     0.000 HD 
HETATM   27  H2  UNK A   1     -11.413  18.143  66.671  1.00  0.00     0.000 HD 
ENDBRANCH  20  21
ENDBRANCH  19  20
ENDBRANCH  18  19
ENDBRANCH  17  18
ENDBRANCH  16  17
ENDBRANCH  15  16
ENDBRANCH  11  15
ENDBRANCH   7  10
ENDBRANCH   5   6
TORSDOF 9
ENDMDL
MODEL      177
REMARK 921   NORMALIZED FREE ENERGY PREDICTED BY IDOCK:   -4.38 KCAL/MOL
REMARK 922        TOTAL FREE ENERGY PREDICTED BY IDOCK:   -7.65 KCAL/MOL
REMARK 923 INTER-LIGAND FREE ENERGY PREDICTED BY IDOCK:   -6.77 KCAL/MOL
REMARK 924 INTRA-LIGAND FREE ENERGY PREDICTED BY IDOCK:   -0.88 KCAL/MOL
REMARK 927      BINDING AFFINITY PREDICTED BY RF-SCORE:    0.00 PKD
ROOT
HETATM    1  C   UNK A   0     -12.630  15.678  71.128  1.00  0.00    -0.511 C  
HETATM    2  C   UNK A   0     -11.855  15.024  70.008  1.00  0.00    -0.360 C  
HETATM    3  C   UNK A   0     -12.198  13.583  69.721  1.00  0.00    -0.330 C  
HETATM    4  C   UNK A   0     -10.415  15.472  69.941  1.00  0.00    -0.323 C  
HETATM    5  C   UNK A   0     -12.583  14.650  68.710  1.00  0.00     0.323 C  
ENDROOT
BRANCH   5   6
HETATM    6  C   UNK A   0     -11.907  14.582  67.373  1.00  0.00    -0.388 C  
HETATM    7  N   UNK A   1     -12.012  13.393  66.688  1.00  0.00    -0.397 N  
HETATM    8  O   UNK A   0     -11.242  15.530  66.973  1.00  0.00    -0.285 OA 
HETATM    9  H   UNK A   1     -12.571  12.667  67.138  1.00  0.00     0.000 HD 
BRANCH   7  10
HETATM   10  C   UNK A   1     -11.450  13.058  65.458  1.00  0.00    -0.321 C  
HETATM   11  C   UNK A   1     -10.275  12.383  65.391  1.00  0.00    -0.302 C  
HETATM   12  C   UNK A   1     -11.996  13.421  64.090  1.00  0.00    -0.450 C  
HETATM   13  O   UNK A   1     -12.655  14.593  64.008  1.00  0.00    -0.819 OA 
HETATM   14  O   UNK A   1     -11.709  12.791  63.081  1.00  0.00    -0.472 OA 
BRANCH  11  15
HETATM   15  C   UNK A   1      -9.414  11.952  66.539  1.00  0.00    -0.226 C  
BRANCH  15  16
HETATM   16  C   UNK A   1      -9.524  10.477  66.969  1.00  0.00    -0.188 C  
BRANCH  16  17
HETATM   17  C   UNK A   1     -10.686  10.392  67.969  1.00  0.00    -0.292 C  
BRANCH  17  18
HETATM   18  C   UNK A   1     -10.287  10.334  69.439  1.00  0.00    -0.235 C  
BRANCH  18  19
HETATM   19  S   UNK A   1     -10.848   8.705  70.062  1.00  0.00    -0.190 SA 
BRANCH  19  20
HETATM   20  C   UNK A   1      -9.399   7.692  69.614  1.00  0.00    -0.156 C  
BRANCH  20  21
HETATM   21  C   UNK A   1      -9.836   6.298  69.138  1.00  0.00    -0.144 C  
HETATM   22  N   UNK A   1      -8.752   5.274  69.282  1.00  0.00    -0.100 NA 
HETATM   23  C   UNK A   1     -10.196   6.408  67.655  1.00  0.00    -0.169 C  
HETATM   24  O   UNK A   1     -11.234   6.878  67.219  1.00  0.00    -0.317 OA 
HETATM   25  O   UNK A   1      -9.182   5.960  66.868  1.00  0.00    -0.120 OA 
HETATM   26  H1  UNK A   1      -9.042   4.348  68.966  1.00  0.00     0.000 HD 
HETATM   27  H2  UNK A   1      -8.403   5.241  70.240  1.00  0.00     0.000 HD 
ENDBRANCH  20  21
ENDBRANCH  19  20
ENDBRANCH  18  19
ENDBRANCH  17  18
ENDBRANCH  16  17
ENDBRANCH  15  16
ENDBRANCH  11  15
ENDBRANCH   7  10
ENDBRANCH   5   6
TORSDOF 9
ENDMDL
MODEL      178
REMARK 921   NORMALIZED FREE ENERGY PREDICTED BY IDOCK:   -4.37 KCAL/MOL
REMARK 922        TOTAL FREE ENERGY PREDICTED BY IDOCK:   -7.64 KCAL/MOL
REMARK 923 INTER-LIGAND FREE ENERGY PREDICTED BY IDOCK:   -6.73 KCAL/MOL
REMARK 924 INTRA-LIGAND FREE ENERGY PREDICTED BY IDOCK:   -0.91 KCAL/MOL
REMARK 927      BINDING AFFINITY PREDICTED BY RF-SCORE:    0.00 PKD
ROOT
HETATM    1  C   UNK A   0     -12.378  12.909  63.540  1.00  0.00    -0.521 C  
HETATM    2  C   UNK A   0     -11.575  13.554  64.645  1.00  0.00    -0.395 C  
HETATM    3  C   UNK A   0     -11.680  15.056  64.748  1.00  0.00    -0.370 C  
HETATM    4  C   UNK A   0     -10.241  12.885  64.878  1.00  0.00    -0.296 C  
HETATM    5  C   UNK A   0     -12.308  14.194  65.831  1.00  0.00    -0.486 C  
ENDROOT
BRANCH   5   6
HETATM    6  C   UNK A   0     -11.716  14.307  67.205  1.00  0.00    -0.395 C  
HETATM    7  N   UNK A   1     -12.369  13.637  68.214  1.00  0.00    -0.319 N  
HETATM    8  O   UNK A   0     -10.743  15.026  67.397  1.00  0.00    -0.276 OA 
HETATM    9  H   UNK A   1     -13.185  13.093  67.933  1.00  0.00     0.000 HD 
BRANCH   7  10
HETATM   10  C   UNK A   1     -12.054  13.610  69.571  1.00  0.00    -0.314 C  
HETATM   11  C   UNK A   1     -11.726  12.445  70.186  1.00  0.00    -0.266 C  
HETATM   12  C   UNK A   1     -12.083  14.788  70.526  1.00  0.00    -0.315 C  
HETATM   13  O   UNK A   1     -13.009  15.734  70.272  1.00  0.00    -0.340 OA 
HETATM   14  O   UNK A   1     -11.438  14.806  71.566  1.00  0.00    -0.302 OA 
BRANCH  11  15
HETATM   15  C   UNK A   1     -11.694  11.078  69.573  1.00  0.00    -0.400 C  
BRANCH  15  16
HETATM   16  C   UNK A   1     -10.944   9.986  70.361  1.00  0.00    -0.384 C  
BRANCH  16  17
HETATM   17  C   UNK A   1      -9.798   9.499  69.464  1.00  0.00    -0.205 C  
BRANCH  17  18
HETATM   18  C   UNK A   1      -8.495  10.279  69.577  1.00  0.00    -0.142 C  
BRANCH  18  19
HETATM   19  S   UNK A   1      -8.109  10.886  67.892  1.00  0.00    -0.116 SA 
BRANCH  19  20
HETATM   20  C   UNK A   1      -8.372   9.348  66.947  1.00  0.00    -0.127 C  
BRANCH  20  21
HETATM   21  C   UNK A   1      -8.162   9.591  65.444  1.00  0.00    -0.127 C  
HETATM   22  N   UNK A   1      -8.916   8.615  64.593  1.00  0.00    -0.416 NA 
HETATM   23  C   UNK A   1      -6.670   9.427  65.153  1.00  0.00    -0.080 C  
HETATM   24  O   UNK A   1      -5.812  10.258  65.403  1.00  0.00    -0.087 OA 
HETATM   25  O   UNK A   1      -6.403   8.204  64.623  1.00  0.00    -0.055 OA 
HETATM   26  H1  UNK A   1      -8.777   8.775  63.595  1.00  0.00     0.000 HD 
HETATM   27  H2  UNK A   1      -9.908   8.612  64.828  1.00  0.00     0.000 HD 
ENDBRANCH  20  21
ENDBRANCH  19  20
ENDBRANCH  18  19
ENDBRANCH  17  18
ENDBRANCH  16  17
ENDBRANCH  15  16
ENDBRANCH  11  15
ENDBRANCH   7  10
ENDBRANCH   5   6
TORSDOF 9
ENDMDL
MODEL      179
REMARK 921   NORMALIZED FREE ENERGY PREDICTED BY IDOCK:   -4.37 KCAL/MOL
REMARK 922        TOTAL FREE ENERGY PREDICTED BY IDOCK:   -7.63 KCAL/MOL
REMARK 923 INTER-LIGAND FREE ENERGY PREDICTED BY IDOCK:   -6.93 KCAL/MOL
REMARK 924 INTRA-LIGAND FREE ENERGY PREDICTED BY IDOCK:   -0.70 KCAL/MOL
REMARK 927      BINDING AFFINITY PREDICTED BY RF-SCORE:    0.00 PKD
ROOT
HETATM    1  C   UNK A   0     -10.314  20.454  68.244  1.00  0.00    -0.219 C  
HETATM    2  C   UNK A   0      -9.872  19.148  67.628  1.00  0.00    -0.412 C  
HETATM    3  C   UNK A   0      -8.495  18.666  68.016  1.00  0.00    -0.314 C  
HETATM    4  C   UNK A   0     -10.346  18.971  66.205  1.00  0.00    -0.530 C  
HETATM    5  C   UNK A   0      -9.713  17.911  68.522  1.00  0.00    -0.352 C  
ENDROOT
BRANCH   5   6
HETATM    6  C   UNK A   0      -9.884  16.505  68.027  1.00  0.00    -0.240 C  
HETATM    7  N   UNK A   1     -11.131  16.165  67.557  1.00  0.00    -0.236 N  
HETATM    8  O   UNK A   0      -8.960  15.707  68.118  1.00  0.00    -0.176 OA 
HETATM    9  H   UNK A   1     -11.827  16.911  67.557  1.00  0.00     0.000 HD 
BRANCH   7  10
HETATM   10  C   UNK A   1     -11.562  14.927  67.082  1.00  0.00    -0.315 C  
HETATM   11  C   UNK A   1     -12.208  14.056  67.898  1.00  0.00    -0.188 C  
HETATM   12  C   UNK A   1     -11.340  14.371  65.689  1.00  0.00    -0.330 C  
HETATM   13  O   UNK A   1     -10.199  14.744  65.077  1.00  0.00    -0.389 OA 
HETATM   14  O   UNK A   1     -12.051  13.498  65.210  1.00  0.00    -0.366 OA 
BRANCH  11  15
HETATM   15  C   UNK A   1     -12.507  14.235  69.355  1.00  0.00    -0.112 C  
BRANCH  15  16
HETATM   16  C   UNK A   1     -11.807  13.266  70.327  1.00  0.00    -0.307 C  
BRANCH  16  17
HETATM   17  C   UNK A   1     -11.684  11.920  69.600  1.00  0.00    -0.413 C  
BRANCH  17  18
HETATM   18  C   UNK A   1     -12.439  10.757  70.234  1.00  0.00    -0.317 C  
BRANCH  18  19
HETATM   19  S   UNK A   1     -11.184   9.482  70.628  1.00  0.00    -0.326 SA 
BRANCH  19  20
HETATM   20  C   UNK A   1     -10.092   9.671  69.179  1.00  0.00    -0.189 C  
BRANCH  20  21
HETATM   21  C   UNK A   1     -10.801   9.200  67.899  1.00  0.00    -0.083 C  
HETATM   22  N   UNK A   1     -10.800   7.707  67.757  1.00  0.00    -0.487 NA 
HETATM   23  C   UNK A   1     -10.047   9.794  66.709  1.00  0.00    -0.231 C  
HETATM   24  O   UNK A   1     -10.138  10.950  66.329  1.00  0.00    -0.218 OA 
HETATM   25  O   UNK A   1      -9.211   8.880  66.149  1.00  0.00    -0.184 OA 
HETATM   26  H1  UNK A   1     -11.270   7.394  66.907  1.00  0.00     0.000 HD 
HETATM   27  H2  UNK A   1     -11.198   7.260  68.582  1.00  0.00     0.000 HD 
ENDBRANCH  20  21
ENDBRANCH  19  20
ENDBRANCH  18  19
ENDBRANCH  17  18
ENDBRANCH  16  17
ENDBRANCH  15  16
ENDBRANCH  11  15
ENDBRANCH   7  10
ENDBRANCH   5   6
TORSDOF 9
ENDMDL
MODEL      180
REMARK 921   NORMALIZED FREE ENERGY PREDICTED BY IDOCK:   -4.36 KCAL/MOL
REMARK 922        TOTAL FREE ENERGY PREDICTED BY IDOCK:   -7.62 KCAL/MOL
REMARK 923 INTER-LIGAND FREE ENERGY PREDICTED BY IDOCK:   -6.13 KCAL/MOL
REMARK 924 INTRA-LIGAND FREE ENERGY PREDICTED BY IDOCK:   -1.49 KCAL/MOL
REMARK 927      BINDING AFFINITY PREDICTED BY RF-SCORE:    0.00 PKD
ROOT
HETATM    1  C   UNK A   0     -12.292  12.960  64.392  1.00  0.00    -0.468 C  
HETATM    2  C   UNK A   0     -11.457  12.896  65.649  1.00  0.00    -0.368 C  
HETATM    3  C   UNK A   0     -11.368  14.172  66.449  1.00  0.00    -0.342 C  
HETATM    4  C   UNK A   0     -10.233  12.023  65.505  1.00  0.00    -0.290 C  
HETATM    5  C   UNK A   0     -12.147  12.997  67.015  1.00  0.00    -0.330 C  
ENDROOT
BRANCH   5   6
HETATM    6  C   UNK A   0     -11.602  12.370  68.265  1.00  0.00    -0.333 C  
HETATM    7  N   UNK A   1     -11.805  11.017  68.415  1.00  0.00    -0.353 N  
HETATM    8  O   UNK A   0     -11.074  13.068  69.121  1.00  0.00    -0.244 OA 
HETATM    9  H   UNK A   1     -12.283  10.550  67.644  1.00  0.00     0.000 HD 
BRANCH   7  10
HETATM   10  C   UNK A   1     -11.439  10.208  69.488  1.00  0.00    -0.168 C  
HETATM   11  C   UNK A   1     -10.346   9.407  69.414  1.00  0.00    -0.222 C  
HETATM   12  C   UNK A   1     -12.187  10.058  70.799  1.00  0.00    -0.315 C  
HETATM   13  O   UNK A   1     -13.526  10.184  70.735  1.00  0.00    -0.311 OA 
HETATM   14  O   UNK A   1     -11.642   9.670  71.824  1.00  0.00    -0.378 OA 
BRANCH  11  15
HETATM   15  C   UNK A   1      -9.435   9.228  68.237  1.00  0.00    -0.148 C  
BRANCH  15  16
HETATM   16  C   UNK A   1      -7.988   9.733  68.402  1.00  0.00    -0.089 C  
BRANCH  16  17
HETATM   17  C   UNK A   1      -8.071  11.247  68.643  1.00  0.00    -0.145 C  
BRANCH  17  18
HETATM   18  C   UNK A   1      -6.804  11.899  69.181  1.00  0.00    -0.099 C  
BRANCH  18  19
HETATM   19  S   UNK A   1      -6.264  13.104  67.911  1.00  0.00    -0.153 SA 
BRANCH  19  20
HETATM   20  C   UNK A   1      -7.871  13.874  67.520  1.00  0.00    -0.181 C  
BRANCH  20  21
HETATM   21  C   UNK A   1      -7.732  15.401  67.420  1.00  0.00    -0.196 C  
HETATM   22  N   UNK A   1      -6.335  15.831  67.085  1.00  0.00    -0.321 NA 
HETATM   23  C   UNK A   1      -8.099  15.989  68.783  1.00  0.00    -0.212 C  
HETATM   24  O   UNK A   1      -9.236  16.125  69.204  1.00  0.00    -0.241 OA 
HETATM   25  O   UNK A   1      -6.988  16.299  69.502  1.00  0.00    -0.219 OA 
HETATM   26  H1  UNK A   1      -6.242  16.845  67.019  1.00  0.00     0.000 HD 
HETATM   27  H2  UNK A   1      -6.006  15.376  66.234  1.00  0.00     0.000 HD 
ENDBRANCH  20  21
ENDBRANCH  19  20
ENDBRANCH  18  19
ENDBRANCH  17  18
ENDBRANCH  16  17
ENDBRANCH  15  16
ENDBRANCH  11  15
ENDBRANCH   7  10
ENDBRANCH   5   6
TORSDOF 9
ENDMDL
MODEL      181
REMARK 921   NORMALIZED FREE ENERGY PREDICTED BY IDOCK:   -4.36 KCAL/MOL
REMARK 922        TOTAL FREE ENERGY PREDICTED BY IDOCK:   -7.62 KCAL/MOL
REMARK 923 INTER-LIGAND FREE ENERGY PREDICTED BY IDOCK:   -6.26 KCAL/MOL
REMARK 924 INTRA-LIGAND FREE ENERGY PREDICTED BY IDOCK:   -1.36 KCAL/MOL
REMARK 927      BINDING AFFINITY PREDICTED BY RF-SCORE:    0.00 PKD
ROOT
HETATM    1  C   UNK A   0     -12.869  13.676  65.417  1.00  0.00    -0.440 C  
HETATM    2  C   UNK A   0     -11.441  13.242  65.648  1.00  0.00    -0.342 C  
HETATM    3  C   UNK A   0     -10.951  13.312  67.074  1.00  0.00    -0.291 C  
HETATM    4  C   UNK A   0     -10.512  13.634  64.524  1.00  0.00    -0.411 C  
HETATM    5  C   UNK A   0     -11.165  11.952  66.431  1.00  0.00    -0.387 C  
ENDROOT
BRANCH   5   6
HETATM    6  C   UNK A   0      -9.942  11.106  66.227  1.00  0.00    -0.219 C  
HETATM    7  N   UNK A   1     -10.111   9.940  65.518  1.00  0.00    -0.284 N  
HETATM    8  O   UNK A   0      -8.879  11.432  66.741  1.00  0.00    -0.166 OA 
HETATM    9  H   UNK A   1     -11.051   9.765  65.163  1.00  0.00     0.000 HD 
BRANCH   7  10
HETATM   10  C   UNK A   1      -9.157   8.967  65.224  1.00  0.00    -0.167 C  
HETATM   11  C   UNK A   1      -9.035   7.858  65.996  1.00  0.00    -0.195 C  
HETATM   12  C   UNK A   1      -8.133   9.020  64.106  1.00  0.00    -0.157 C  
HETATM   13  O   UNK A   1      -7.681  10.244  63.773  1.00  0.00    -0.147 OA 
HETATM   14  O   UNK A   1      -7.607   8.012  63.650  1.00  0.00    -0.114 OA 
BRANCH  11  15
HETATM   15  C   UNK A   1      -9.812   7.528  67.234  1.00  0.00    -0.236 C  
BRANCH  15  16
HETATM   16  C   UNK A   1      -9.424   8.292  68.515  1.00  0.00    -0.149 C  
BRANCH  16  17
HETATM   17  C   UNK A   1     -10.702   8.968  69.032  1.00  0.00    -0.163 C  
BRANCH  17  18
HETATM   18  C   UNK A   1     -10.545   9.781  70.311  1.00  0.00    -0.292 C  
BRANCH  18  19
HETATM   19  S   UNK A   1     -12.023   9.423  71.334  1.00  0.00    -0.396 SA 
BRANCH  19  20
HETATM   20  C   UNK A   1     -12.274   7.669  70.903  1.00  0.00    -0.168 C  
BRANCH  20  21
HETATM   21  C   UNK A   1     -11.796   6.755  72.042  1.00  0.00    -0.314 C  
HETATM   22  N   UNK A   1     -11.558   7.504  73.319  1.00  0.00    -0.617 NA 
HETATM   23  C   UNK A   1     -10.474   6.124  71.605  1.00  0.00    -0.222 C  
HETATM   24  O   UNK A   1     -10.367   5.195  70.821  1.00  0.00    -0.240 OA 
HETATM   25  O   UNK A   1      -9.413   6.766  72.162  1.00  0.00    -0.142 OA 
HETATM   26  H1  UNK A   1     -11.241   6.898  74.076  1.00  0.00     0.000 HD 
HETATM   27  H2  UNK A   1     -12.386   8.031  73.595  1.00  0.00     0.000 HD 
ENDBRANCH  20  21
ENDBRANCH  19  20
ENDBRANCH  18  19
ENDBRANCH  17  18
ENDBRANCH  16  17
ENDBRANCH  15  16
ENDBRANCH  11  15
ENDBRANCH   7  10
ENDBRANCH   5   6
TORSDOF 9
ENDMDL
MODEL      182
REMARK 921   NORMALIZED FREE ENERGY PREDICTED BY IDOCK:   -4.35 KCAL/MOL
REMARK 922        TOTAL FREE ENERGY PREDICTED BY IDOCK:   -7.61 KCAL/MOL
REMARK 923 INTER-LIGAND FREE ENERGY PREDICTED BY IDOCK:   -6.17 KCAL/MOL
REMARK 924 INTRA-LIGAND FREE ENERGY PREDICTED BY IDOCK:   -1.44 KCAL/MOL
REMARK 927      BINDING AFFINITY PREDICTED BY RF-SCORE:    0.00 PKD
ROOT
HETATM    1  C   UNK A   0      -5.525  14.230  67.882  1.00  0.00    -0.084 C  
HETATM    2  C   UNK A   0      -6.431  13.034  68.050  1.00  0.00    -0.120 C  
HETATM    3  C   UNK A   0      -6.145  11.856  67.150  1.00  0.00    -0.152 C  
HETATM    4  C   UNK A   0      -7.864  13.410  68.347  1.00  0.00    -0.138 C  
HETATM    5  C   UNK A   0      -5.861  11.736  68.637  1.00  0.00    -0.049 C  
ENDROOT
BRANCH   5   6
HETATM    6  C   UNK A   0      -6.687  10.741  69.400  1.00  0.00    -0.097 C  
HETATM    7  N   UNK A   1      -7.518   9.934  68.658  1.00  0.00    -0.074 N  
HETATM    8  O   UNK A   0      -6.652  10.726  70.624  1.00  0.00    -0.332 OA 
HETATM    9  H   UNK A   1      -7.477  10.060  67.646  1.00  0.00     0.000 HD 
BRANCH   7  10
HETATM   10  C   UNK A   1      -8.408   8.965  69.118  1.00  0.00    -0.124 C  
HETATM   11  C   UNK A   1      -9.709   9.271  69.350  1.00  0.00    -0.175 C  
HETATM   12  C   UNK A   1      -8.072   7.527  69.465  1.00  0.00    -0.128 C  
HETATM   13  O   UNK A   1      -6.837   7.308  69.956  1.00  0.00    -0.053 OA 
HETATM   14  O   UNK A   1      -8.917   6.640  69.474  1.00  0.00    -0.138 OA 
BRANCH  11  15
HETATM   15  C   UNK A   1     -10.361  10.613  69.211  1.00  0.00    -0.240 C  
BRANCH  15  16
HETATM   16  C   UNK A   1     -10.679  11.079  67.777  1.00  0.00    -0.270 C  
BRANCH  16  17
HETATM   17  C   UNK A   1     -11.902  12.002  67.871  1.00  0.00    -0.320 C  
BRANCH  17  18
HETATM   18  C   UNK A   1     -11.708  13.270  68.694  1.00  0.00    -0.341 C  
BRANCH  18  19
HETATM   19  S   UNK A   1     -11.326  14.606  67.499  1.00  0.00    -0.360 SA 
BRANCH  19  20
HETATM   20  C   UNK A   1     -12.362  14.068  66.099  1.00  0.00    -0.458 C  
BRANCH  20  21
HETATM   21  C   UNK A   1     -11.677  14.386  64.761  1.00  0.00    -0.416 C  
HETATM   22  N   UNK A   1     -12.647  14.827  63.707  1.00  0.00    -0.986 NA 
HETATM   23  C   UNK A   1     -10.993  13.107  64.276  1.00  0.00    -0.403 C  
HETATM   24  O   UNK A   1      -9.939  12.670  64.708  1.00  0.00    -0.233 OA 
HETATM   25  O   UNK A   1     -11.738  12.478  63.329  1.00  0.00    -0.476 OA 
HETATM   26  H1  UNK A   1     -12.193  15.038  62.818  1.00  0.00     0.000 HD 
HETATM   27  H2  UNK A   1     -13.206  15.617  64.029  1.00  0.00     0.000 HD 
ENDBRANCH  20  21
ENDBRANCH  19  20
ENDBRANCH  18  19
ENDBRANCH  17  18
ENDBRANCH  16  17
ENDBRANCH  15  16
ENDBRANCH  11  15
ENDBRANCH   7  10
ENDBRANCH   5   6
TORSDOF 9
ENDMDL
MODEL      183
REMARK 921   NORMALIZED FREE ENERGY PREDICTED BY IDOCK:   -4.35 KCAL/MOL
REMARK 922        TOTAL FREE ENERGY PREDICTED BY IDOCK:   -7.60 KCAL/MOL
REMARK 923 INTER-LIGAND FREE ENERGY PREDICTED BY IDOCK:   -6.62 KCAL/MOL
REMARK 924 INTRA-LIGAND FREE ENERGY PREDICTED BY IDOCK:   -0.98 KCAL/MOL
REMARK 927      BINDING AFFINITY PREDICTED BY RF-SCORE:    0.00 PKD
ROOT
HETATM    1  C   UNK A   0     -10.916   9.639  70.146  1.00  0.00    -0.320 C  
HETATM    2  C   UNK A   0     -10.044  10.362  69.148  1.00  0.00    -0.236 C  
HETATM    3  C   UNK A   0      -8.554  10.221  69.347  1.00  0.00    -0.167 C  
HETATM    4  C   UNK A   0     -10.612  11.694  68.716  1.00  0.00    -0.241 C  
HETATM    5  C   UNK A   0      -9.207   9.548  68.152  1.00  0.00    -0.134 C  
ENDROOT
BRANCH   5   6
HETATM    6  C   UNK A   0      -8.810  10.055  66.797  1.00  0.00    -0.132 C  
HETATM    7  N   UNK A   1      -9.614   9.688  65.742  1.00  0.00    -0.244 N  
HETATM    8  O   UNK A   0      -7.778  10.700  66.662  1.00  0.00    -0.119 OA 
HETATM    9  H   UNK A   1     -10.432   9.126  65.979  1.00  0.00     0.000 HD 
BRANCH   7  10
HETATM   10  C   UNK A   1      -9.448   9.988  64.391  1.00  0.00    -0.286 C  
HETATM   11  C   UNK A   1     -10.212  10.935  63.791  1.00  0.00    -0.407 C  
HETATM   12  C   UNK A   1      -8.493   9.308  63.429  1.00  0.00    -0.202 C  
HETATM   13  O   UNK A   1      -8.249   8.003  63.659  1.00  0.00    -0.134 OA 
HETATM   14  O   UNK A   1      -8.104   9.847  62.401  1.00  0.00    -0.119 OA 
BRANCH  11  15
HETATM   15  C   UNK A   1     -11.318  11.732  64.413  1.00  0.00    -0.373 C  
BRANCH  15  16
HETATM   16  C   UNK A   1     -11.938  12.845  63.546  1.00  0.00    -0.629 C  
BRANCH  16  17
HETATM   17  C   UNK A   1     -12.410  13.945  64.506  1.00  0.00    -0.408 C  
BRANCH  17  18
HETATM   18  C   UNK A   1     -11.426  15.086  64.734  1.00  0.00    -0.403 C  
BRANCH  18  19
HETATM   19  S   UNK A   1     -10.924  14.991  66.494  1.00  0.00    -0.319 SA 
BRANCH  19  20
HETATM   20  C   UNK A   1      -9.773  16.403  66.560  1.00  0.00    -0.269 C  
BRANCH  20  21
HETATM   21  C   UNK A   1      -9.903  17.149  67.898  1.00  0.00    -0.283 C  
HETATM   22  N   UNK A   1     -10.545  18.495  67.746  1.00  0.00    -0.406 NA 
HETATM   23  C   UNK A   1      -8.493  17.351  68.453  1.00  0.00    -0.263 C  
HETATM   24  O   UNK A   1      -7.827  16.490  69.003  1.00  0.00    -0.230 OA 
HETATM   25  O   UNK A   1      -8.044  18.611  68.210  1.00  0.00    -0.294 OA 
HETATM   26  H1  UNK A   1     -10.631  18.990  68.634  1.00  0.00     0.000 HD 
HETATM   27  H2  UNK A   1     -11.448  18.421  67.279  1.00  0.00     0.000 HD 
ENDBRANCH  20  21
ENDBRANCH  19  20
ENDBRANCH  18  19
ENDBRANCH  17  18
ENDBRANCH  16  17
ENDBRANCH  15  16
ENDBRANCH  11  15
ENDBRANCH   7  10
ENDBRANCH   5   6
TORSDOF 9
ENDMDL
MODEL      184
REMARK 921   NORMALIZED FREE ENERGY PREDICTED BY IDOCK:   -4.35 KCAL/MOL
REMARK 922        TOTAL FREE ENERGY PREDICTED BY IDOCK:   -7.60 KCAL/MOL
REMARK 923 INTER-LIGAND FREE ENERGY PREDICTED BY IDOCK:   -6.74 KCAL/MOL
REMARK 924 INTRA-LIGAND FREE ENERGY PREDICTED BY IDOCK:   -0.86 KCAL/MOL
REMARK 927      BINDING AFFINITY PREDICTED BY RF-SCORE:    0.00 PKD
ROOT
HETATM    1  C   UNK A   0      -8.040  16.538  67.471  1.00  0.00    -0.171 C  
HETATM    2  C   UNK A   0      -8.982  15.549  68.117  1.00  0.00    -0.179 C  
HETATM    3  C   UNK A   0      -8.625  15.114  69.517  1.00  0.00    -0.133 C  
HETATM    4  C   UNK A   0      -9.539  14.537  67.144  1.00  0.00    -0.233 C  
HETATM    5  C   UNK A   0      -9.843  15.997  69.305  1.00  0.00    -0.255 C  
ENDROOT
BRANCH   5   6
HETATM    6  C   UNK A   0     -11.176  15.392  69.635  1.00  0.00    -0.283 C  
HETATM    7  N   UNK A   1     -11.190  14.434  70.621  1.00  0.00    -0.500 N  
HETATM    8  O   UNK A   0     -12.168  15.707  68.990  1.00  0.00    -0.277 OA 
HETATM    9  H   UNK A   1     -10.294  14.238  71.067  1.00  0.00     0.000 HD 
BRANCH   7  10
HETATM   10  C   UNK A   1     -12.277  13.696  71.086  1.00  0.00    -0.239 C  
HETATM   11  C   UNK A   1     -12.445  12.400  70.721  1.00  0.00    -0.356 C  
HETATM   12  C   UNK A   1     -13.402  14.207  71.967  1.00  0.00    -0.415 C  
HETATM   13  O   UNK A   1     -13.740  15.501  71.804  1.00  0.00    -0.476 OA 
HETATM   14  O   UNK A   1     -14.087  13.462  72.655  1.00  0.00    -0.767 OA 
BRANCH  11  15
HETATM   15  C   UNK A   1     -11.585  11.606  69.786  1.00  0.00    -0.389 C  
BRANCH  15  16
HETATM   16  C   UNK A   1     -11.191  10.189  70.247  1.00  0.00    -0.387 C  
BRANCH  16  17
HETATM   17  C   UNK A   1     -10.009   9.750  69.373  1.00  0.00    -0.217 C  
BRANCH  17  18
HETATM   18  C   UNK A   1     -10.294   9.648  67.880  1.00  0.00    -0.224 C  
BRANCH  18  19
HETATM   19  S   UNK A   1      -8.870  10.425  67.028  1.00  0.00    -0.136 SA 
BRANCH  19  20
HETATM   20  C   UNK A   1      -9.300  10.035  65.299  1.00  0.00    -0.237 C  
BRANCH  20  21
HETATM   21  C   UNK A   1      -8.036   9.722  64.482  1.00  0.00    -0.146 C  
HETATM   22  N   UNK A   1      -7.891  10.611  63.284  1.00  0.00    -0.345 NA 
HETATM   23  C   UNK A   1      -8.149   8.277  63.994  1.00  0.00    -0.128 C  
HETATM   24  O   UNK A   1      -7.945   7.289  64.679  1.00  0.00    -0.122 OA 
HETATM   25  O   UNK A   1      -8.559   8.225  62.699  1.00  0.00    -0.122 OA 
HETATM   26  H1  UNK A   1      -7.052  10.404  62.741  1.00  0.00     0.000 HD 
HETATM   27  H2  UNK A   1      -7.919  11.595  63.552  1.00  0.00     0.000 HD 
ENDBRANCH  20  21
ENDBRANCH  19  20
ENDBRANCH  18  19
ENDBRANCH  17  18
ENDBRANCH  16  17
ENDBRANCH  15  16
ENDBRANCH  11  15
ENDBRANCH   7  10
ENDBRANCH   5   6
TORSDOF 9
ENDMDL
MODEL      185
REMARK 921   NORMALIZED FREE ENERGY PREDICTED BY IDOCK:   -4.34 KCAL/MOL
REMARK 922        TOTAL FREE ENERGY PREDICTED BY IDOCK:   -7.59 KCAL/MOL
REMARK 923 INTER-LIGAND FREE ENERGY PREDICTED BY IDOCK:   -7.15 KCAL/MOL
REMARK 924 INTRA-LIGAND FREE ENERGY PREDICTED BY IDOCK:   -0.44 KCAL/MOL
REMARK 927      BINDING AFFINITY PREDICTED BY RF-SCORE:    0.00 PKD
ROOT
HETATM    1  C   UNK A   0      -7.331   8.127  64.938  1.00  0.00    -0.087 C  
HETATM    2  C   UNK A   0      -8.289   9.036  65.673  1.00  0.00    -0.137 C  
HETATM    3  C   UNK A   0      -7.658  10.116  66.518  1.00  0.00    -0.109 C  
HETATM    4  C   UNK A   0      -9.517   8.319  66.181  1.00  0.00    -0.241 C  
HETATM    5  C   UNK A   0      -8.401  10.507  65.252  1.00  0.00    -0.155 C  
ENDROOT
BRANCH   5   6
HETATM    6  C   UNK A   0      -9.646  11.325  65.431  1.00  0.00    -0.228 C  
HETATM    7  N   UNK A   1      -9.855  12.336  64.521  1.00  0.00    -0.478 N  
HETATM    8  O   UNK A   0     -10.380  11.123  66.390  1.00  0.00    -0.236 OA 
HETATM    9  H   UNK A   1      -9.157  12.422  63.781  1.00  0.00     0.000 HD 
BRANCH   7  10
HETATM   10  C   UNK A   1     -10.900  13.257  64.486  1.00  0.00    -0.394 C  
HETATM   11  C   UNK A   1     -10.930  14.309  65.342  1.00  0.00    -0.335 C  
HETATM   12  C   UNK A   1     -12.119  13.201  63.584  1.00  0.00    -0.513 C  
HETATM   13  O   UNK A   1     -12.559  11.970  63.259  1.00  0.00    -0.613 OA 
HETATM   14  O   UNK A   1     -12.778  14.195  63.310  1.00  0.00    -0.714 OA 
BRANCH  11  15
HETATM   15  C   UNK A   1      -9.944  14.618  66.428  1.00  0.00    -0.296 C  
BRANCH  15  16
HETATM   16  C   UNK A   1     -10.490  15.358  67.665  1.00  0.00    -0.272 C  
BRANCH  16  17
HETATM   17  C   UNK A   1      -9.426  15.231  68.763  1.00  0.00    -0.212 C  
BRANCH  17  18
HETATM   18  C   UNK A   1      -8.448  16.395  68.870  1.00  0.00    -0.247 C  
BRANCH  18  19
HETATM   19  S   UNK A   1      -6.923  15.867  68.002  1.00  0.00    -0.140 SA 
BRANCH  19  20
HETATM   20  C   UNK A   1      -7.054  16.897  66.503  1.00  0.00    -0.246 C  
BRANCH  20  21
HETATM   21  C   UNK A   1      -7.974  18.103  66.750  1.00  0.00    -0.240 C  
HETATM   22  N   UNK A   1      -9.204  18.075  65.894  1.00  0.00    -0.501 NA 
HETATM   23  C   UNK A   1      -7.182  19.366  66.407  1.00  0.00    -0.241 C  
HETATM   24  O   UNK A   1      -6.331  19.873  67.119  1.00  0.00    -0.187 OA 
HETATM   25  O   UNK A   1      -7.508  19.832  65.173  1.00  0.00    -0.329 OA 
HETATM   26  H1  UNK A   1      -9.814  18.875  66.058  1.00  0.00     0.000 HD 
HETATM   27  H2  UNK A   1      -9.711  17.197  66.010  1.00  0.00     0.000 HD 
ENDBRANCH  20  21
ENDBRANCH  19  20
ENDBRANCH  18  19
ENDBRANCH  17  18
ENDBRANCH  16  17
ENDBRANCH  15  16
ENDBRANCH  11  15
ENDBRANCH   7  10
ENDBRANCH   5   6
TORSDOF 9
ENDMDL
MODEL      186
REMARK 921   NORMALIZED FREE ENERGY PREDICTED BY IDOCK:   -4.34 KCAL/MOL
REMARK 922        TOTAL FREE ENERGY PREDICTED BY IDOCK:   -7.59 KCAL/MOL
REMARK 923 INTER-LIGAND FREE ENERGY PREDICTED BY IDOCK:   -6.65 KCAL/MOL
REMARK 924 INTRA-LIGAND FREE ENERGY PREDICTED BY IDOCK:   -0.94 KCAL/MOL
REMARK 927      BINDING AFFINITY PREDICTED BY RF-SCORE:    0.00 PKD
ROOT
HETATM    1  C   UNK A   0     -12.318  15.021  64.122  1.00  0.00    -0.167 C  
HETATM    2  C   UNK A   0     -12.119  13.606  64.610  1.00  0.00    -0.449 C  
HETATM    3  C   UNK A   0     -12.178  12.529  63.554  1.00  0.00    -0.652 C  
HETATM    4  C   UNK A   0     -12.737  13.351  65.964  1.00  0.00    -0.233 C  
HETATM    5  C   UNK A   0     -10.846  12.846  64.213  1.00  0.00    -0.423 C  
ENDROOT
BRANCH   5   6
HETATM    6  C   UNK A   0     -10.237  11.761  65.051  1.00  0.00    -0.272 C  
HETATM    7  N   UNK A   1      -9.751  12.133  66.283  1.00  0.00    -0.234 N  
HETATM    8  O   UNK A   0     -10.128  10.627  64.601  1.00  0.00    -0.311 OA 
HETATM    9  H   UNK A   1      -9.877  13.114  66.535  1.00  0.00     0.000 HD 
BRANCH   7  10
HETATM   10  C   UNK A   1      -9.109  11.336  67.229  1.00  0.00    -0.156 C  
HETATM   11  C   UNK A   1      -9.821  10.637  68.148  1.00  0.00    -0.170 C  
HETATM   12  C   UNK A   1      -7.610  11.182  67.408  1.00  0.00    -0.113 C  
HETATM   13  O   UNK A   1      -6.864  12.263  67.112  1.00  0.00    -0.147 OA 
HETATM   14  O   UNK A   1      -7.112  10.207  67.955  1.00  0.00    -0.082 OA 
BRANCH  11  15
HETATM   15  C   UNK A   1     -11.309  10.634  68.327  1.00  0.00    -0.357 C  
BRANCH  15  16
HETATM   16  C   UNK A   1     -11.895  11.716  69.254  1.00  0.00    -0.396 C  
BRANCH  16  17
HETATM   17  C   UNK A   1     -11.973  11.102  70.659  1.00  0.00    -0.459 C  
BRANCH  17  18
HETATM   18  C   UNK A   1     -13.022  10.013  70.844  1.00  0.00    -0.318 C  
BRANCH  18  19
HETATM   19  S   UNK A   1     -12.355   8.865  72.108  1.00  0.00    -0.366 SA 
BRANCH  19  20
HETATM   20  C   UNK A   1     -10.913   8.216  71.199  1.00  0.00    -0.237 C  
BRANCH  20  21
HETATM   21  C   UNK A   1     -10.161   7.176  72.044  1.00  0.00    -0.177 C  
HETATM   22  N   UNK A   1     -10.934   6.751  73.256  1.00  0.00    -0.467 NA 
HETATM   23  C   UNK A   1      -8.855   7.820  72.513  1.00  0.00    -0.150 C  
HETATM   24  O   UNK A   1      -7.861   7.971  71.822  1.00  0.00    -0.094 OA 
HETATM   25  O   UNK A   1      -8.954   8.257  73.796  1.00  0.00    -0.222 OA 
HETATM   26  H1  UNK A   1     -10.435   6.061  73.817  1.00  0.00     0.000 HD 
HETATM   27  H2  UNK A   1     -11.862   6.412  72.998  1.00  0.00     0.000 HD 
ENDBRANCH  20  21
ENDBRANCH  19  20
ENDBRANCH  18  19
ENDBRANCH  17  18
ENDBRANCH  16  17
ENDBRANCH  15  16
ENDBRANCH  11  15
ENDBRANCH   7  10
ENDBRANCH   5   6
TORSDOF 9
ENDMDL
MODEL      187
REMARK 921   NORMALIZED FREE ENERGY PREDICTED BY IDOCK:   -4.33 KCAL/MOL
REMARK 922        TOTAL FREE ENERGY PREDICTED BY IDOCK:   -7.57 KCAL/MOL
REMARK 923 INTER-LIGAND FREE ENERGY PREDICTED BY IDOCK:   -6.69 KCAL/MOL
REMARK 924 INTRA-LIGAND FREE ENERGY PREDICTED BY IDOCK:   -0.88 KCAL/MOL
REMARK 927      BINDING AFFINITY PREDICTED BY RF-SCORE:    0.00 PKD
ROOT
HETATM    1  C   UNK A   0     -10.694   7.673  73.202  1.00  0.00    -0.445 C  
HETATM    2  C   UNK A   0     -11.101   8.088  71.808  1.00  0.00    -0.313 C  
HETATM    3  C   UNK A   0     -11.319   9.567  71.596  1.00  0.00    -0.411 C  
HETATM    4  C   UNK A   0     -12.024   7.098  71.138  1.00  0.00    -0.381 C  
HETATM    5  C   UNK A   0     -10.120   8.896  70.949  1.00  0.00    -0.304 C  
ENDROOT
BRANCH   5   6
HETATM    6  C   UNK A   0     -10.104   8.852  69.449  1.00  0.00    -0.202 C  
HETATM    7  N   UNK A   1      -9.312   7.888  68.869  1.00  0.00    -0.150 N  
HETATM    8  O   UNK A   0     -10.720   9.692  68.805  1.00  0.00    -0.221 OA 
HETATM    9  H   UNK A   1      -8.826   7.263  69.513  1.00  0.00     0.000 HD 
BRANCH   7  10
HETATM   10  C   UNK A   1      -9.092   7.660  67.512  1.00  0.00    -0.125 C  
HETATM   11  C   UNK A   1      -8.147   8.360  66.834  1.00  0.00    -0.099 C  
HETATM   12  C   UNK A   1      -9.860   6.700  66.624  1.00  0.00    -0.149 C  
HETATM   13  O   UNK A   1     -11.159   6.520  66.931  1.00  0.00    -0.399 OA 
HETATM   14  O   UNK A   1      -9.393   6.250  65.586  1.00  0.00     0.008 OA 
BRANCH  11  15
HETATM   15  C   UNK A   1      -7.274   9.453  67.370  1.00  0.00    -0.087 C  
BRANCH  15  16
HETATM   16  C   UNK A   1      -6.875  10.565  66.381  1.00  0.00    -0.119 C  
BRANCH  16  17
HETATM   17  C   UNK A   1      -8.177  11.113  65.781  1.00  0.00    -0.004 C  
BRANCH  17  18
HETATM   18  C   UNK A   1      -8.861  12.213  66.584  1.00  0.00    -0.182 C  
BRANCH  18  19
HETATM   19  S   UNK A   1     -10.509  12.459  65.822  1.00  0.00    -0.267 SA 
BRANCH  19  20
HETATM   20  C   UNK A   1     -10.591  14.281  65.856  1.00  0.00    -0.302 C  
BRANCH  20  21
HETATM   21  C   UNK A   1     -12.027  14.765  65.599  1.00  0.00    -0.164 C  
HETATM   22  N   UNK A   1     -13.015  13.639  65.556  1.00  0.00    -0.638 NA 
HETATM   23  C   UNK A   1     -12.042  15.467  64.240  1.00  0.00    -0.166 C  
HETATM   24  O   UNK A   1     -11.629  16.595  64.031  1.00  0.00    -1.197 OA 
HETATM   25  O   UNK A   1     -12.532  14.650  63.270  1.00  0.00    -0.380 OA 
HETATM   26  H1  UNK A   1     -13.969  13.960  65.386  1.00  0.00     0.000 HD 
HETATM   27  H2  UNK A   1     -12.965  13.074  66.404  1.00  0.00     0.000 HD 
ENDBRANCH  20  21
ENDBRANCH  19  20
ENDBRANCH  18  19
ENDBRANCH  17  18
ENDBRANCH  16  17
ENDBRANCH  15  16
ENDBRANCH  11  15
ENDBRANCH   7  10
ENDBRANCH   5   6
TORSDOF 9
ENDMDL
MODEL      188
REMARK 921   NORMALIZED FREE ENERGY PREDICTED BY IDOCK:   -4.32 KCAL/MOL
REMARK 922        TOTAL FREE ENERGY PREDICTED BY IDOCK:   -7.56 KCAL/MOL
REMARK 923 INTER-LIGAND FREE ENERGY PREDICTED BY IDOCK:   -6.18 KCAL/MOL
REMARK 924 INTRA-LIGAND FREE ENERGY PREDICTED BY IDOCK:   -1.38 KCAL/MOL
REMARK 927      BINDING AFFINITY PREDICTED BY RF-SCORE:    0.00 PKD
ROOT
HETATM    1  C   UNK A   0      -9.496  13.817  67.200  1.00  0.00    -0.244 C  
HETATM    2  C   UNK A   0     -10.289  12.545  67.383  1.00  0.00    -0.222 C  
HETATM    3  C   UNK A   0      -9.752  11.324  66.675  1.00  0.00    -0.222 C  
HETATM    4  C   UNK A   0     -11.780  12.777  67.435  1.00  0.00    -0.425 C  
HETATM    5  C   UNK A   0      -9.682  11.391  68.191  1.00  0.00    -0.194 C  
ENDROOT
BRANCH   5   6
HETATM    6  C   UNK A   0     -10.505  10.388  68.946  1.00  0.00    -0.212 C  
HETATM    7  N   UNK A   1     -10.472  10.472  70.318  1.00  0.00    -0.425 N  
HETATM    8  O   UNK A   0     -11.105   9.509  68.341  1.00  0.00    -0.121 OA 
HETATM    9  H   UNK A   1      -9.913  11.233  70.706  1.00  0.00     0.000 HD 
BRANCH   7  10
HETATM   10  C   UNK A   1     -11.107   9.647  71.245  1.00  0.00    -0.355 C  
HETATM   11  C   UNK A   1     -10.437   8.631  71.846  1.00  0.00    -0.410 C  
HETATM   12  C   UNK A   1     -12.566   9.711  71.656  1.00  0.00    -0.402 C  
HETATM   13  O   UNK A   1     -13.432  10.113  70.706  1.00  0.00    -0.311 OA 
HETATM   14  O   UNK A   1     -12.968   9.257  72.719  1.00  0.00    -0.308 OA 
BRANCH  11  15
HETATM   15  C   UNK A   1      -9.017   8.218  71.604  1.00  0.00    -0.235 C  
BRANCH  15  16
HETATM   16  C   UNK A   1      -8.753   6.706  71.464  1.00  0.00    -0.131 C  
BRANCH  16  17
HETATM   17  C   UNK A   1     -10.116   6.008  71.555  1.00  0.00    -0.232 C  
BRANCH  17  18
HETATM   18  C   UNK A   1     -10.476   5.108  70.379  1.00  0.00    -0.216 C  
BRANCH  18  19
HETATM   19  S   UNK A   1      -8.892   4.639  69.585  1.00  0.00    -0.087 SA 
BRANCH  19  20
HETATM   20  C   UNK A   1      -9.371   4.798  67.833  1.00  0.00    -0.133 C  
BRANCH  20  21
HETATM   21  C   UNK A   1     -10.128   6.114  67.593  1.00  0.00    -0.155 C  
HETATM   22  N   UNK A   1     -11.146   6.001  66.498  1.00  0.00    -0.761 NA 
HETATM   23  C   UNK A   1      -9.100   7.170  67.183  1.00  0.00    -0.129 C  
HETATM   24  O   UNK A   1      -8.347   7.748  67.949  1.00  0.00    -0.121 OA 
HETATM   25  O   UNK A   1      -9.091   7.352  65.836  1.00  0.00    -0.131 OA 
HETATM   26  H1  UNK A   1     -11.648   6.874  66.338  1.00  0.00     0.000 HD 
HETATM   27  H2  UNK A   1     -11.793   5.233  66.676  1.00  0.00     0.000 HD 
ENDBRANCH  20  21
ENDBRANCH  19  20
ENDBRANCH  18  19
ENDBRANCH  17  18
ENDBRANCH  16  17
ENDBRANCH  15  16
ENDBRANCH  11  15
ENDBRANCH   7  10
ENDBRANCH   5   6
TORSDOF 9
ENDMDL
MODEL      189
REMARK 921   NORMALIZED FREE ENERGY PREDICTED BY IDOCK:   -4.30 KCAL/MOL
REMARK 922        TOTAL FREE ENERGY PREDICTED BY IDOCK:   -7.54 KCAL/MOL
REMARK 923 INTER-LIGAND FREE ENERGY PREDICTED BY IDOCK:   -6.76 KCAL/MOL
REMARK 924 INTRA-LIGAND FREE ENERGY PREDICTED BY IDOCK:   -0.78 KCAL/MOL
REMARK 927      BINDING AFFINITY PREDICTED BY RF-SCORE:    0.00 PKD
ROOT
HETATM    1  C   UNK A   0      -7.994  16.572  68.614  1.00  0.00    -0.232 C  
HETATM    2  C   UNK A   0      -8.994  15.945  67.671  1.00  0.00    -0.193 C  
HETATM    3  C   UNK A   0      -8.559  15.827  66.231  1.00  0.00    -0.307 C  
HETATM    4  C   UNK A   0     -10.423  16.316  67.988  1.00  0.00    -0.293 C  
HETATM    5  C   UNK A   0      -8.694  14.566  67.068  1.00  0.00    -0.256 C  
ENDROOT
BRANCH   5   6
HETATM    6  C   UNK A   0      -9.762  13.596  66.653  1.00  0.00    -0.284 C  
HETATM    7  N   UNK A   1     -10.069  13.555  65.313  1.00  0.00    -0.475 N  
HETATM    8  O   UNK A   0     -10.358  12.942  67.499  1.00  0.00    -0.220 OA 
HETATM    9  H   UNK A   1      -9.520  14.168  64.710  1.00  0.00     0.000 HD 
BRANCH   7  10
HETATM   10  C   UNK A   1     -11.038  12.780  64.677  1.00  0.00    -0.318 C  
HETATM   11  C   UNK A   1     -10.717  11.585  64.120  1.00  0.00    -0.428 C  
HETATM   12  C   UNK A   1     -12.494  13.151  64.470  1.00  0.00    -0.342 C  
HETATM   13  O   UNK A   1     -12.753  14.463  64.307  1.00  0.00    -0.657 OA 
HETATM   14  O   UNK A   1     -13.364  12.312  64.279  1.00  0.00    -0.777 OA 
BRANCH  11  15
HETATM   15  C   UNK A   1      -9.358  10.956  64.052  1.00  0.00    -0.266 C  
BRANCH  15  16
HETATM   16  C   UNK A   1      -8.762  10.457  65.382  1.00  0.00    -0.193 C  
BRANCH  16  17
HETATM   17  C   UNK A   1      -9.787   9.492  65.994  1.00  0.00    -0.353 C  
BRANCH  17  18
HETATM   18  C   UNK A   1      -9.720   9.332  67.508  1.00  0.00    -0.158 C  
BRANCH  18  19
HETATM   19  S   UNK A   1     -10.310   7.636  67.874  1.00  0.00    -0.206 SA 
BRANCH  19  20
HETATM   20  C   UNK A   1      -9.896   7.545  69.647  1.00  0.00    -0.180 C  
BRANCH  20  21
HETATM   21  C   UNK A   1      -9.241   6.197  69.984  1.00  0.00    -0.151 C  
HETATM   22  N   UNK A   1     -10.040   5.398  70.970  1.00  0.00    -0.205 NA 
HETATM   23  C   UNK A   1      -7.873   6.490  70.604  1.00  0.00    -0.106 C  
HETATM   24  O   UNK A   1      -6.876   6.813  69.980  1.00  0.00    -0.054 OA 
HETATM   25  O   UNK A   1      -7.916   6.395  71.959  1.00  0.00    -0.106 OA 
HETATM   26  H1  UNK A   1      -9.605   4.503  71.193  1.00  0.00     0.000 HD 
HETATM   27  H2  UNK A   1     -10.998   5.269  70.645  1.00  0.00     0.000 HD 
ENDBRANCH  20  21
ENDBRANCH  19  20
ENDBRANCH  18  19
ENDBRANCH  17  18
ENDBRANCH  16  17
ENDBRANCH  15  16
ENDBRANCH  11  15
ENDBRANCH   7  10
ENDBRANCH   5   6
TORSDOF 9
ENDMDL
MODEL      190
REMARK 921   NORMALIZED FREE ENERGY PREDICTED BY IDOCK:   -4.30 KCAL/MOL
REMARK 922        TOTAL FREE ENERGY PREDICTED BY IDOCK:   -7.53 KCAL/MOL
REMARK 923 INTER-LIGAND FREE ENERGY PREDICTED BY IDOCK:   -6.73 KCAL/MOL
REMARK 924 INTRA-LIGAND FREE ENERGY PREDICTED BY IDOCK:   -0.79 KCAL/MOL
REMARK 927      BINDING AFFINITY PREDICTED BY RF-SCORE:    0.00 PKD
ROOT
HETATM    1  C   UNK A   0     -11.335   7.813  72.811  1.00  0.00    -0.446 C  
HETATM    2  C   UNK A   0     -11.982   8.508  71.637  1.00  0.00    -0.372 C  
HETATM    3  C   UNK A   0     -12.682   9.810  71.943  1.00  0.00    -0.501 C  
HETATM    4  C   UNK A   0     -12.597   7.550  70.644  1.00  0.00     0.083 C  
HETATM    5  C   UNK A   0     -11.397   9.834  71.133  1.00  0.00    -0.459 C  
ENDROOT
BRANCH   5   6
HETATM    6  C   UNK A   0     -11.508  10.299  69.711  1.00  0.00    -0.256 C  
HETATM    7  N   UNK A   1     -10.349  10.301  68.970  1.00  0.00    -0.198 N  
HETATM    8  O   UNK A   0     -12.577  10.718  69.285  1.00  0.00    -0.324 OA 
HETATM    9  H   UNK A   1      -9.515   9.953  69.445  1.00  0.00     0.000 HD 
BRANCH   7  10
HETATM   10  C   UNK A   1     -10.172  10.718  67.653  1.00  0.00    -0.189 C  
HETATM   11  C   UNK A   1     -10.002  12.032  67.356  1.00  0.00    -0.200 C  
HETATM   12  C   UNK A   1     -10.198   9.837  66.418  1.00  0.00    -0.217 C  
HETATM   13  O   UNK A   1     -11.013   8.766  66.472  1.00  0.00     0.183 OA 
HETATM   14  O   UNK A   1      -9.659  10.162  65.369  1.00  0.00    -0.220 OA 
BRANCH  11  15
HETATM   15  C   UNK A   1     -10.022  13.184  68.314  1.00  0.00    -0.236 C  
BRANCH  15  16
HETATM   16  C   UNK A   1      -8.851  14.182  68.216  1.00  0.00    -0.187 C  
BRANCH  16  17
HETATM   17  C   UNK A   1      -8.944  15.097  69.444  1.00  0.00    -0.176 C  
BRANCH  17  18
HETATM   18  C   UNK A   1     -10.108  16.081  69.447  1.00  0.00    -0.271 C  
BRANCH  18  19
HETATM   19  S   UNK A   1      -9.442  17.668  68.818  1.00  0.00    -0.209 SA 
BRANCH  19  20
HETATM   20  C   UNK A   1     -10.737  18.080  67.602  1.00  0.00    -0.344 C  
BRANCH  20  21
HETATM   21  C   UNK A   1     -10.121  18.335  66.217  1.00  0.00    -0.380 C  
HETATM   22  N   UNK A   1     -10.701  19.541  65.542  1.00  0.00    -0.433 NA 
HETATM   23  C   UNK A   1     -10.417  17.111  65.348  1.00  0.00    -0.080 C  
HETATM   24  O   UNK A   1      -9.824  16.047  65.412  1.00  0.00    -0.440 OA 
HETATM   25  O   UNK A   1     -11.471  17.339  64.520  1.00  0.00    -0.864 OA 
HETATM   26  H1  UNK A   1     -10.293  19.710  64.622  1.00  0.00     0.000 HD 
HETATM   27  H2  UNK A   1     -10.622  20.367  66.135  1.00  0.00     0.000 HD 
ENDBRANCH  20  21
ENDBRANCH  19  20
ENDBRANCH  18  19
ENDBRANCH  17  18
ENDBRANCH  16  17
ENDBRANCH  15  16
ENDBRANCH  11  15
ENDBRANCH   7  10
ENDBRANCH   5   6
TORSDOF 9
ENDMDL
MODEL      191
REMARK 921   NORMALIZED FREE ENERGY PREDICTED BY IDOCK:   -4.28 KCAL/MOL
REMARK 922        TOTAL FREE ENERGY PREDICTED BY IDOCK:   -7.50 KCAL/MOL
REMARK 923 INTER-LIGAND FREE ENERGY PREDICTED BY IDOCK:   -7.13 KCAL/MOL
REMARK 924 INTRA-LIGAND FREE ENERGY PREDICTED BY IDOCK:   -0.37 KCAL/MOL
REMARK 927      BINDING AFFINITY PREDICTED BY RF-SCORE:    0.00 PKD
ROOT
HETATM    1  C   UNK A   0     -11.016   9.395  71.380  1.00  0.00    -0.443 C  
HETATM    2  C   UNK A   0     -11.263  10.505  70.386  1.00  0.00    -0.378 C  
HETATM    3  C   UNK A   0     -12.633  10.530  69.751  1.00  0.00    -0.038 C  
HETATM    4  C   UNK A   0     -10.051  10.833  69.548  1.00  0.00    -0.117 C  
HETATM    5  C   UNK A   0     -12.254  11.622  70.738  1.00  0.00    -0.443 C  
ENDROOT
BRANCH   5   6
HETATM    6  C   UNK A   0     -12.157  13.016  70.191  1.00  0.00    -0.307 C  
HETATM    7  N   UNK A   1     -11.762  13.137  68.879  1.00  0.00    -0.306 N  
HETATM    8  O   UNK A   0     -12.357  13.977  70.924  1.00  0.00    -0.331 OA 
HETATM    9  H   UNK A   1     -11.598  12.262  68.380  1.00  0.00     0.000 HD 
BRANCH   7  10
HETATM   10  C   UNK A   1     -11.556  14.306  68.149  1.00  0.00    -0.332 C  
HETATM   11  C   UNK A   1     -11.901  14.376  66.838  1.00  0.00    -0.433 C  
HETATM   12  C   UNK A   1     -10.903  15.579  68.653  1.00  0.00    -0.267 C  
HETATM   13  O   UNK A   1      -9.940  15.424  69.581  1.00  0.00    -0.258 OA 
HETATM   14  O   UNK A   1     -11.100  16.668  68.130  1.00  0.00    -0.361 OA 
BRANCH  11  15
HETATM   15  C   UNK A   1     -12.477  13.279  65.995  1.00  0.00    -0.388 C  
BRANCH  15  16
HETATM   16  C   UNK A   1     -11.736  12.958  64.683  1.00  0.00    -0.407 C  
BRANCH  16  17
HETATM   17  C   UNK A   1     -10.913  11.688  64.936  1.00  0.00    -0.345 C  
BRANCH  17  18
HETATM   18  C   UNK A   1      -9.570  11.899  65.623  1.00  0.00    -0.204 C  
BRANCH  18  19
HETATM   19  S   UNK A   1      -8.671  10.307  65.499  1.00  0.00    -0.170 SA 
BRANCH  19  20
HETATM   20  C   UNK A   1      -9.944   9.186  66.168  1.00  0.00    -0.268 C  
BRANCH  20  21
HETATM   21  C   UNK A   1      -9.313   7.865  66.636  1.00  0.00    -0.193 C  
HETATM   22  N   UNK A   1      -8.979   6.951  65.496  1.00  0.00    -0.368 NA 
HETATM   23  C   UNK A   1     -10.332   7.159  67.532  1.00  0.00    -0.236 C  
HETATM   24  O   UNK A   1     -10.567   7.453  68.693  1.00  0.00    -0.198 OA 
HETATM   25  O   UNK A   1     -10.992   6.183  66.854  1.00  0.00    -0.343 OA 
HETATM   26  H1  UNK A   1      -8.561   6.074  65.806  1.00  0.00     0.000 HD 
HETATM   27  H2  UNK A   1      -8.384   7.419  64.813  1.00  0.00     0.000 HD 
ENDBRANCH  20  21
ENDBRANCH  19  20
ENDBRANCH  18  19
ENDBRANCH  17  18
ENDBRANCH  16  17
ENDBRANCH  15  16
ENDBRANCH  11  15
ENDBRANCH   7  10
ENDBRANCH   5   6
TORSDOF 9
ENDMDL
MODEL      192
REMARK 921   NORMALIZED FREE ENERGY PREDICTED BY IDOCK:   -4.28 KCAL/MOL
REMARK 922        TOTAL FREE ENERGY PREDICTED BY IDOCK:   -7.50 KCAL/MOL
REMARK 923 INTER-LIGAND FREE ENERGY PREDICTED BY IDOCK:   -6.42 KCAL/MOL
REMARK 924 INTRA-LIGAND FREE ENERGY PREDICTED BY IDOCK:   -1.07 KCAL/MOL
REMARK 927      BINDING AFFINITY PREDICTED BY RF-SCORE:    0.00 PKD
ROOT
HETATM    1  C   UNK A   0      -8.170   7.301  65.838  1.00  0.00    -0.132 C  
HETATM    2  C   UNK A   0      -9.027   8.055  66.827  1.00  0.00    -0.169 C  
HETATM    3  C   UNK A   0     -10.495   7.707  66.828  1.00  0.00    -0.319 C  
HETATM    4  C   UNK A   0      -8.604   9.494  67.004  1.00  0.00    -0.131 C  
HETATM    5  C   UNK A   0      -9.639   7.303  68.016  1.00  0.00    -0.148 C  
ENDROOT
BRANCH   5   6
HETATM    6  C   UNK A   0      -9.962   7.955  69.329  1.00  0.00    -0.190 C  
HETATM    7  N   UNK A   1     -11.259   8.380  69.503  1.00  0.00    -0.439 N  
HETATM    8  O   UNK A   0      -9.076   8.149  70.151  1.00  0.00    -0.146 OA 
HETATM    9  H   UNK A   1     -11.900   8.185  68.733  1.00  0.00     0.000 HD 
BRANCH   7  10
HETATM   10  C   UNK A   1     -11.805   9.043  70.600  1.00  0.00    -0.154 C  
HETATM   11  C   UNK A   1     -11.777  10.398  70.678  1.00  0.00    -0.444 C  
HETATM   12  C   UNK A   1     -12.423   8.397  71.826  1.00  0.00    -0.335 C  
HETATM   13  O   UNK A   1     -11.901   7.213  72.199  1.00  0.00    -0.284 OA 
HETATM   14  O   UNK A   1     -13.220   8.985  72.545  1.00  0.00    -0.445 OA 
BRANCH  11  15
HETATM   15  C   UNK A   1     -11.159  11.347  69.698  1.00  0.00    -0.241 C  
BRANCH  15  16
HETATM   16  C   UNK A   1     -11.787  11.391  68.291  1.00  0.00    -0.320 C  
BRANCH  16  17
HETATM   17  C   UNK A   1     -11.258  12.659  67.608  1.00  0.00    -0.329 C  
BRANCH  17  18
HETATM   18  C   UNK A   1     -11.902  13.005  66.271  1.00  0.00    -0.408 C  
BRANCH  18  19
HETATM   19  S   UNK A   1     -10.963  14.428  65.600  1.00  0.00    -0.329 SA 
BRANCH  19  20
HETATM   20  C   UNK A   1      -9.421  14.255  66.558  1.00  0.00    -0.287 C  
BRANCH  20  21
HETATM   21  C   UNK A   1      -9.135  15.532  67.364  1.00  0.00    -0.199 C  
HETATM   22  N   UNK A   1     -10.071  16.652  67.019  1.00  0.00    -0.274 NA 
HETATM   23  C   UNK A   1      -7.711  15.980  67.032  1.00  0.00    -0.229 C  
HETATM   24  O   UNK A   1      -6.696  15.474  67.481  1.00  0.00    -0.166 OA 
HETATM   25  O   UNK A   1      -7.712  16.990  66.122  1.00  0.00    -0.307 OA 
HETATM   26  H1  UNK A   1      -9.882  17.499  67.554  1.00  0.00     0.000 HD 
HETATM   27  H2  UNK A   1     -11.043  16.362  67.123  1.00  0.00     0.000 HD 
ENDBRANCH  20  21
ENDBRANCH  19  20
ENDBRANCH  18  19
ENDBRANCH  17  18
ENDBRANCH  16  17
ENDBRANCH  15  16
ENDBRANCH  11  15
ENDBRANCH   7  10
ENDBRANCH   5   6
TORSDOF 9
ENDMDL
MODEL      193
REMARK 921   NORMALIZED FREE ENERGY PREDICTED BY IDOCK:   -4.28 KCAL/MOL
REMARK 922        TOTAL FREE ENERGY PREDICTED BY IDOCK:   -7.49 KCAL/MOL
REMARK 923 INTER-LIGAND FREE ENERGY PREDICTED BY IDOCK:   -6.59 KCAL/MOL
REMARK 924 INTRA-LIGAND FREE ENERGY PREDICTED BY IDOCK:   -0.90 KCAL/MOL
REMARK 927      BINDING AFFINITY PREDICTED BY RF-SCORE:    0.00 PKD
ROOT
HETATM    1  C   UNK A   0      -8.195   7.818  64.649  1.00  0.00    -0.080 C  
HETATM    2  C   UNK A   0      -8.057   8.917  65.675  1.00  0.00    -0.113 C  
HETATM    3  C   UNK A   0      -7.544  10.240  65.161  1.00  0.00    -0.133 C  
HETATM    4  C   UNK A   0      -7.597   8.416  67.024  1.00  0.00    -0.092 C  
HETATM    5  C   UNK A   0      -8.993  10.131  65.607  1.00  0.00    -0.199 C  
ENDROOT
BRANCH   5   6
HETATM    6  C   UNK A   0      -9.388  10.938  66.808  1.00  0.00    -0.165 C  
HETATM    7  N   UNK A   1     -10.719  10.916  67.155  1.00  0.00    -0.255 N  
HETATM    8  O   UNK A   0      -8.556  11.628  67.384  1.00  0.00    -0.140 OA 
HETATM    9  H   UNK A   1     -11.320  10.323  66.581  1.00  0.00     0.000 HD 
BRANCH   7  10
HETATM   10  C   UNK A   1     -11.349  11.601  68.192  1.00  0.00    -0.292 C  
HETATM   11  C   UNK A   1     -11.897  12.825  67.984  1.00  0.00    -0.386 C  
HETATM   12  C   UNK A   1     -11.461  11.146  69.634  1.00  0.00    -0.310 C  
HETATM   13  O   UNK A   1     -10.436  10.410  70.105  1.00  0.00    -0.252 OA 
HETATM   14  O   UNK A   1     -12.331  11.562  70.388  1.00  0.00    -0.325 OA 
BRANCH  11  15
HETATM   15  C   UNK A   1     -11.882  13.618  66.713  1.00  0.00    -0.452 C  
BRANCH  15  16
HETATM   16  C   UNK A   1     -10.642  14.497  66.462  1.00  0.00    -0.297 C  
BRANCH  16  17
HETATM   17  C   UNK A   1     -10.278  15.144  67.806  1.00  0.00    -0.236 C  
BRANCH  17  18
HETATM   18  C   UNK A   1     -10.502  16.648  67.896  1.00  0.00    -0.322 C  
BRANCH  18  19
HETATM   19  S   UNK A   1     -10.237  17.311  66.208  1.00  0.00    -0.314 SA 
BRANCH  19  20
HETATM   20  C   UNK A   1      -8.718  18.278  66.496  1.00  0.00    -0.274 C  
BRANCH  20  21
HETATM   21  C   UNK A   1      -9.005  19.484  67.405  1.00  0.00    -0.307 C  
HETATM   22  N   UNK A   1      -9.720  20.588  66.687  1.00  0.00    -0.643 NA 
HETATM   23  C   UNK A   1      -7.661  20.024  67.894  1.00  0.00    -0.290 C  
HETATM   24  O   UNK A   1      -6.985  19.524  68.778  1.00  0.00    -0.306 OA 
HETATM   25  O   UNK A   1      -7.278  21.115  67.179  1.00  0.00    -0.411 OA 
HETATM   26  H1  UNK A   1      -9.911  21.389  67.290  1.00  0.00     0.000 HD 
HETATM   27  H2  UNK A   1     -10.576  20.247  66.249  1.00  0.00     0.000 HD 
ENDBRANCH  20  21
ENDBRANCH  19  20
ENDBRANCH  18  19
ENDBRANCH  17  18
ENDBRANCH  16  17
ENDBRANCH  15  16
ENDBRANCH  11  15
ENDBRANCH   7  10
ENDBRANCH   5   6
TORSDOF 9
ENDMDL
MODEL      194
REMARK 921   NORMALIZED FREE ENERGY PREDICTED BY IDOCK:   -4.26 KCAL/MOL
REMARK 922        TOTAL FREE ENERGY PREDICTED BY IDOCK:   -7.46 KCAL/MOL
REMARK 923 INTER-LIGAND FREE ENERGY PREDICTED BY IDOCK:   -6.31 KCAL/MOL
REMARK 924 INTRA-LIGAND FREE ENERGY PREDICTED BY IDOCK:   -1.16 KCAL/MOL
REMARK 927      BINDING AFFINITY PREDICTED BY RF-SCORE:    0.00 PKD
ROOT
HETATM    1  C   UNK A   0     -13.777   7.701  71.675  1.00  0.00    -0.454 C  
HETATM    2  C   UNK A   0     -12.734   8.784  71.530  1.00  0.00    -0.372 C  
HETATM    3  C   UNK A   0     -11.308   8.368  71.796  1.00  0.00    -0.366 C  
HETATM    4  C   UNK A   0     -13.213  10.136  72.002  1.00  0.00    -0.534 C  
HETATM    5  C   UNK A   0     -11.727   8.708  70.376  1.00  0.00    -0.016 C  
ENDROOT
BRANCH   5   6
HETATM    6  C   UNK A   0     -11.085   9.915  69.758  1.00  0.00    -0.254 C  
HETATM    7  N   UNK A   1     -11.755  10.499  68.708  1.00  0.00    -0.512 N  
HETATM    8  O   UNK A   0      -9.985  10.291  70.145  1.00  0.00    -0.185 OA 
HETATM    9  H   UNK A   1     -12.650  10.078  68.460  1.00  0.00     0.000 HD 
BRANCH   7  10
HETATM   10  C   UNK A   1     -11.362  11.595  67.941  1.00  0.00    -0.299 C  
HETATM   11  C   UNK A   1     -10.367  11.481  67.025  1.00  0.00    -0.254 C  
HETATM   12  C   UNK A   1     -11.905  13.007  68.045  1.00  0.00    -0.347 C  
HETATM   13  O   UNK A   1     -12.299  13.402  69.271  1.00  0.00    -0.233 OA 
HETATM   14  O   UNK A   1     -11.829  13.808  67.123  1.00  0.00    -0.363 OA 
BRANCH  11  15
HETATM   15  C   UNK A   1      -9.545  10.264  66.730  1.00  0.00    -0.214 C  
BRANCH  15  16
HETATM   16  C   UNK A   1      -9.872   9.511  65.425  1.00  0.00    -0.248 C  
BRANCH  16  17
HETATM   17  C   UNK A   1      -8.531   9.181  64.756  1.00  0.00    -0.194 C  
BRANCH  17  18
HETATM   18  C   UNK A   1      -8.148   7.706  64.740  1.00  0.00    -0.121 C  
BRANCH  18  19
HETATM   19  S   UNK A   1      -7.008   7.454  66.153  1.00  0.00    -0.067 SA 
BRANCH  19  20
HETATM   20  C   UNK A   1      -8.047   6.374  67.193  1.00  0.00    -0.113 C  
BRANCH  20  21
HETATM   21  C   UNK A   1      -9.068   7.203  67.988  1.00  0.00    -0.132 C  
HETATM   22  N   UNK A   1      -8.727   7.293  69.444  1.00  0.00    -0.137 NA 
HETATM   23  C   UNK A   1     -10.426   6.512  67.856  1.00  0.00    -0.222 C  
HETATM   24  O   UNK A   1     -11.149   6.570  66.876  1.00  0.00    -0.399 OA 
HETATM   25  O   UNK A   1     -10.711   5.773  68.961  1.00  0.00    -0.274 OA 
HETATM   26  H1  UNK A   1      -9.404   7.844  69.972  1.00  0.00     0.000 HD 
HETATM   27  H2  UNK A   1      -7.781   7.651  69.578  1.00  0.00     0.000 HD 
ENDBRANCH  20  21
ENDBRANCH  19  20
ENDBRANCH  18  19
ENDBRANCH  17  18
ENDBRANCH  16  17
ENDBRANCH  15  16
ENDBRANCH  11  15
ENDBRANCH   7  10
ENDBRANCH   5   6
TORSDOF 9
ENDMDL
MODEL      195
REMARK 921   NORMALIZED FREE ENERGY PREDICTED BY IDOCK:   -4.23 KCAL/MOL
REMARK 922        TOTAL FREE ENERGY PREDICTED BY IDOCK:   -7.43 KCAL/MOL
REMARK 923 INTER-LIGAND FREE ENERGY PREDICTED BY IDOCK:   -6.97 KCAL/MOL
REMARK 924 INTRA-LIGAND FREE ENERGY PREDICTED BY IDOCK:   -0.46 KCAL/MOL
REMARK 927      BINDING AFFINITY PREDICTED BY RF-SCORE:    0.00 PKD
ROOT
HETATM    1  C   UNK A   0     -11.149   5.388  73.239  1.00  0.00    -0.352 C  
HETATM    2  C   UNK A   0     -10.639   6.647  72.579  1.00  0.00    -0.245 C  
HETATM    3  C   UNK A   0      -9.221   7.041  72.913  1.00  0.00    -0.162 C  
HETATM    4  C   UNK A   0     -11.695   7.719  72.448  1.00  0.00    -0.394 C  
HETATM    5  C   UNK A   0      -9.540   6.545  71.513  1.00  0.00    -0.169 C  
ENDROOT
BRANCH   5   6
HETATM    6  C   UNK A   0      -9.376   7.536  70.397  1.00  0.00    -0.161 C  
HETATM    7  N   UNK A   1     -10.492   7.795  69.635  1.00  0.00    -0.226 N  
HETATM    8  O   UNK A   0      -8.275   8.014  70.160  1.00  0.00    -0.116 OA 
HETATM    9  H   UNK A   1     -11.347   7.313  69.916  1.00  0.00     0.000 HD 
BRANCH   7  10
HETATM   10  C   UNK A   1     -10.599   8.634  68.528  1.00  0.00    -0.119 C  
HETATM   11  C   UNK A   1     -10.852   9.958  68.680  1.00  0.00    -0.244 C  
HETATM   12  C   UNK A   1     -10.516   8.217  67.071  1.00  0.00    -0.326 C  
HETATM   13  O   UNK A   1     -10.976   6.985  66.780  1.00  0.00    -0.317 OA 
HETATM   14  O   UNK A   1     -10.221   9.002  66.180  1.00  0.00    -0.267 OA 
BRANCH  11  15
HETATM   15  C   UNK A   1     -11.089  10.690  69.966  1.00  0.00    -0.359 C  
BRANCH  15  16
HETATM   16  C   UNK A   1     -12.272  11.678  69.989  1.00  0.00    -0.338 C  
BRANCH  16  17
HETATM   17  C   UNK A   1     -11.713  13.049  69.585  1.00  0.00    -0.364 C  
BRANCH  17  18
HETATM   18  C   UNK A   1     -12.503  14.254  70.081  1.00  0.00    -0.335 C  
BRANCH  18  19
HETATM   19  S   UNK A   1     -11.459  15.725  69.754  1.00  0.00    -0.365 SA 
BRANCH  19  20
HETATM   20  C   UNK A   1     -11.171  15.503  67.967  1.00  0.00    -0.332 C  
BRANCH  20  21
HETATM   21  C   UNK A   1      -9.959  16.328  67.506  1.00  0.00    -0.248 C  
HETATM   22  N   UNK A   1      -9.356  17.136  68.615  1.00  0.00    -0.266 NA 
HETATM   23  C   UNK A   1     -10.443  17.292  66.421  1.00  0.00    -0.263 C  
HETATM   24  O   UNK A   1     -10.670  16.985  65.262  1.00  0.00    -0.616 OA 
HETATM   25  O   UNK A   1     -10.641  18.539  66.923  1.00  0.00    -0.391 OA 
HETATM   26  H1  UNK A   1      -8.552  17.683  68.309  1.00  0.00     0.000 HD 
HETATM   27  H2  UNK A   1      -9.116  16.544  69.410  1.00  0.00     0.000 HD 
ENDBRANCH  20  21
ENDBRANCH  19  20
ENDBRANCH  18  19
ENDBRANCH  17  18
ENDBRANCH  16  17
ENDBRANCH  15  16
ENDBRANCH  11  15
ENDBRANCH   7  10
ENDBRANCH   5   6
TORSDOF 9
ENDMDL
MODEL      196
REMARK 921   NORMALIZED FREE ENERGY PREDICTED BY IDOCK:   -4.23 KCAL/MOL
REMARK 922        TOTAL FREE ENERGY PREDICTED BY IDOCK:   -7.43 KCAL/MOL
REMARK 923 INTER-LIGAND FREE ENERGY PREDICTED BY IDOCK:   -6.07 KCAL/MOL
REMARK 924 INTRA-LIGAND FREE ENERGY PREDICTED BY IDOCK:   -1.36 KCAL/MOL
REMARK 927      BINDING AFFINITY PREDICTED BY RF-SCORE:    0.00 PKD
ROOT
HETATM    1  C   UNK A   0      -7.212  20.002  65.506  1.00  0.00    -0.307 C  
HETATM    2  C   UNK A   0      -8.106  19.660  66.674  1.00  0.00    -0.330 C  
HETATM    3  C   UNK A   0      -9.505  20.226  66.624  1.00  0.00    -0.487 C  
HETATM    4  C   UNK A   0      -7.371  19.614  67.992  1.00  0.00    -0.321 C  
HETATM    5  C   UNK A   0      -9.306  18.729  66.454  1.00  0.00    -0.321 C  
ENDROOT
BRANCH   5   6
HETATM    6  C   UNK A   0      -9.878  17.851  67.528  1.00  0.00    -0.309 C  
HETATM    7  N   UNK A   1      -9.566  16.513  67.461  1.00  0.00    -0.230 N  
HETATM    8  O   UNK A   0     -10.640  18.321  68.364  1.00  0.00    -0.316 OA 
HETATM    9  H   UNK A   1      -8.942  16.237  66.701  1.00  0.00     0.000 HD 
BRANCH   7  10
HETATM   10  C   UNK A   1      -9.994  15.487  68.301  1.00  0.00    -0.213 C  
HETATM   11  C   UNK A   1      -9.179  14.993  69.267  1.00  0.00    -0.159 C  
HETATM   12  C   UNK A   1     -11.329  14.768  68.236  1.00  0.00    -0.301 C  
HETATM   13  O   UNK A   1     -11.871  14.636  67.010  1.00  0.00    -0.387 OA 
HETATM   14  O   UNK A   1     -11.806  14.183  69.199  1.00  0.00    -0.300 OA 
BRANCH  11  15
HETATM   15  C   UNK A   1      -7.764  15.397  69.549  1.00  0.00    -0.210 C  
BRANCH  15  16
HETATM   16  C   UNK A   1      -6.711  14.272  69.545  1.00  0.00    -0.130 C  
BRANCH  16  17
HETATM   17  C   UNK A   1      -6.137  14.206  68.123  1.00  0.00    -0.133 C  
BRANCH  17  18
HETATM   18  C   UNK A   1      -5.993  12.808  67.535  1.00  0.00    -0.143 C  
BRANCH  18  19
HETATM   19  S   UNK A   1      -7.372  11.815  68.219  1.00  0.00    -0.102 SA 
BRANCH  19  20
HETATM   20  C   UNK A   1      -7.733  10.760  66.776  1.00  0.00    -0.136 C  
BRANCH  20  21
HETATM   21  C   UNK A   1      -9.048  11.188  66.106  1.00  0.00    -0.201 C  
HETATM   22  N   UNK A   1      -9.348  12.643  66.305  1.00  0.00    -0.368 NA 
HETATM   23  C   UNK A   1     -10.177  10.376  66.741  1.00  0.00    -0.226 C  
HETATM   24  O   UNK A   1     -10.431   9.211  66.485  1.00  0.00    -0.228 OA 
HETATM   25  O   UNK A   1     -10.841  11.104  67.678  1.00  0.00    -0.212 OA 
HETATM   26  H1  UNK A   1     -10.221  12.928  65.860  1.00  0.00     0.000 HD 
HETATM   27  H2  UNK A   1      -8.571  13.224  65.991  1.00  0.00     0.000 HD 
ENDBRANCH  20  21
ENDBRANCH  19  20
ENDBRANCH  18  19
ENDBRANCH  17  18
ENDBRANCH  16  17
ENDBRANCH  15  16
ENDBRANCH  11  15
ENDBRANCH   7  10
ENDBRANCH   5   6
TORSDOF 9
ENDMDL
MODEL      197
REMARK 921   NORMALIZED FREE ENERGY PREDICTED BY IDOCK:   -4.23 KCAL/MOL
REMARK 922        TOTAL FREE ENERGY PREDICTED BY IDOCK:   -7.42 KCAL/MOL
REMARK 923 INTER-LIGAND FREE ENERGY PREDICTED BY IDOCK:   -6.33 KCAL/MOL
REMARK 924 INTRA-LIGAND FREE ENERGY PREDICTED BY IDOCK:   -1.09 KCAL/MOL
REMARK 927      BINDING AFFINITY PREDICTED BY RF-SCORE:    0.00 PKD
ROOT
HETATM    1  C   UNK A   0      -9.354   7.403  66.301  1.00  0.00    -0.166 C  
HETATM    2  C   UNK A   0      -9.622   6.614  67.561  1.00  0.00    -0.142 C  
HETATM    3  C   UNK A   0      -8.760   5.394  67.773  1.00  0.00    -0.106 C  
HETATM    4  C   UNK A   0     -11.086   6.561  67.929  1.00  0.00    -0.352 C  
HETATM    5  C   UNK A   0      -8.570   6.600  68.677  1.00  0.00    -0.125 C  
ENDROOT
BRANCH   5   6
HETATM    6  C   UNK A   0      -8.905   6.412  70.128  1.00  0.00    -0.150 C  
HETATM    7  N   UNK A   1      -9.129   7.553  70.862  1.00  0.00    -0.152 N  
HETATM    8  O   UNK A   0      -8.899   5.289  70.617  1.00  0.00    -0.125 OA 
HETATM    9  H   UNK A   1      -9.079   8.433  70.346  1.00  0.00     0.000 HD 
BRANCH   7  10
HETATM   10  C   UNK A   1      -9.416   7.658  72.221  1.00  0.00    -0.160 C  
HETATM   11  C   UNK A   1     -10.680   7.479  72.681  1.00  0.00    -0.354 C  
HETATM   12  C   UNK A   1      -8.438   8.021  73.322  1.00  0.00    -0.224 C  
HETATM   13  O   UNK A   1      -7.447   8.867  72.980  1.00  0.00    -0.355 OA 
HETATM   14  O   UNK A   1      -8.626   7.718  74.493  1.00  0.00    -0.205 OA 
BRANCH  11  15
HETATM   15  C   UNK A   1     -11.908   7.207  71.866  1.00  0.00    -0.336 C  
BRANCH  15  16
HETATM   16  C   UNK A   1     -12.566   8.422  71.184  1.00  0.00    -0.156 C  
BRANCH  16  17
HETATM   17  C   UNK A   1     -12.825   9.462  72.283  1.00  0.00    -0.452 C  
BRANCH  17  18
HETATM   18  C   UNK A   1     -12.998  10.898  71.803  1.00  0.00    -0.451 C  
BRANCH  18  19
HETATM   19  S   UNK A   1     -12.585  10.900  70.018  1.00  0.00    -0.087 SA 
BRANCH  19  20
HETATM   20  C   UNK A   1     -11.989  12.614  69.845  1.00  0.00    -0.295 C  
BRANCH  20  21
HETATM   21  C   UNK A   1     -10.932  12.713  68.734  1.00  0.00    -0.249 C  
HETATM   22  N   UNK A   1     -10.006  13.877  68.922  1.00  0.00    -0.410 NA 
HETATM   23  C   UNK A   1     -11.671  12.899  67.408  1.00  0.00    -0.372 C  
HETATM   24  O   UNK A   1     -12.232  12.010  66.789  1.00  0.00    -0.545 OA 
HETATM   25  O   UNK A   1     -11.670  14.202  67.023  1.00  0.00    -0.363 OA 
HETATM   26  H1  UNK A   1      -9.304  13.942  68.185  1.00  0.00     0.000 HD 
HETATM   27  H2  UNK A   1      -9.569  13.852  69.843  1.00  0.00     0.000 HD 
ENDBRANCH  20  21
ENDBRANCH  19  20
ENDBRANCH  18  19
ENDBRANCH  17  18
ENDBRANCH  16  17
ENDBRANCH  15  16
ENDBRANCH  11  15
ENDBRANCH   7  10
ENDBRANCH   5   6
TORSDOF 9
ENDMDL
MODEL      198
REMARK 921   NORMALIZED FREE ENERGY PREDICTED BY IDOCK:   -4.20 KCAL/MOL
REMARK 922        TOTAL FREE ENERGY PREDICTED BY IDOCK:   -7.37 KCAL/MOL
REMARK 923 INTER-LIGAND FREE ENERGY PREDICTED BY IDOCK:   -6.71 KCAL/MOL
REMARK 924 INTRA-LIGAND FREE ENERGY PREDICTED BY IDOCK:   -0.66 KCAL/MOL
REMARK 927      BINDING AFFINITY PREDICTED BY RF-SCORE:    0.00 PKD
ROOT
HETATM    1  C   UNK A   0     -11.456   8.196  72.438  1.00  0.00    -0.462 C  
HETATM    2  C   UNK A   0     -12.193   9.257  71.655  1.00  0.00    -0.445 C  
HETATM    3  C   UNK A   0     -13.699   9.216  71.741  1.00  0.00    -0.465 C  
HETATM    4  C   UNK A   0     -11.533   9.587  70.337  1.00  0.00    -0.297 C  
HETATM    5  C   UNK A   0     -12.951  10.357  72.408  1.00  0.00    -0.009 C  
ENDROOT
BRANCH   5   6
HETATM    6  C   UNK A   0     -13.186  11.730  71.850  1.00  0.00    -0.362 C  
HETATM    7  N   UNK A   1     -12.147  12.295  71.148  1.00  0.00    -0.253 N  
HETATM    8  O   UNK A   0     -14.233  12.318  72.089  1.00  0.00     0.198 OA 
HETATM    9  H   UNK A   1     -11.314  11.716  71.039  1.00  0.00     0.000 HD 
BRANCH   7  10
HETATM   10  C   UNK A   1     -12.092  13.561  70.566  1.00  0.00    -0.335 C  
HETATM   11  C   UNK A   1     -12.004  13.704  69.219  1.00  0.00    -0.384 C  
HETATM   12  C   UNK A   1     -12.063  14.888  71.300  1.00  0.00    -0.330 C  
HETATM   13  O   UNK A   1     -11.449  14.889  72.499  1.00  0.00    -0.267 OA 
HETATM   14  O   UNK A   1     -12.410  15.936  70.772  1.00  0.00    -0.406 OA 
BRANCH  11  15
HETATM   15  C   UNK A   1     -11.909  12.611  68.199  1.00  0.00    -0.366 C  
BRANCH  15  16
HETATM   16  C   UNK A   1     -11.515  13.033  66.770  1.00  0.00    -0.392 C  
BRANCH  16  17
HETATM   17  C   UNK A   1     -10.677  11.889  66.184  1.00  0.00    -0.318 C  
BRANCH  17  18
HETATM   18  C   UNK A   1      -9.974  10.999  67.202  1.00  0.00    -0.187 C  
BRANCH  18  19
HETATM   19  S   UNK A   1     -10.243   9.273  66.650  1.00  0.00    -0.226 SA 
BRANCH  19  20
HETATM   20  C   UNK A   1      -9.419   8.385  68.013  1.00  0.00    -0.143 C  
BRANCH  20  21
HETATM   21  C   UNK A   1      -9.599   6.866  67.860  1.00  0.00    -0.118 C  
HETATM   22  N   UNK A   1     -10.564   6.508  66.771  1.00  0.00    -0.441 NA 
HETATM   23  C   UNK A   1     -10.152   6.332  69.183  1.00  0.00    -0.168 C  
HETATM   24  O   UNK A   1      -9.494   6.148  70.193  1.00  0.00    -0.156 OA 
HETATM   25  O   UNK A   1     -11.494   6.132  69.111  1.00  0.00    -0.379 OA 
HETATM   26  H1  UNK A   1     -10.684   5.500  66.669  1.00  0.00     0.000 HD 
HETATM   27  H2  UNK A   1     -10.292   6.935  65.885  1.00  0.00     0.000 HD 
ENDBRANCH  20  21
ENDBRANCH  19  20
ENDBRANCH  18  19
ENDBRANCH  17  18
ENDBRANCH  16  17
ENDBRANCH  15  16
ENDBRANCH  11  15
ENDBRANCH   7  10
ENDBRANCH   5   6
TORSDOF 9
ENDMDL
MODEL      199
REMARK 921   NORMALIZED FREE ENERGY PREDICTED BY IDOCK:   -4.19 KCAL/MOL
REMARK 922        TOTAL FREE ENERGY PREDICTED BY IDOCK:   -7.36 KCAL/MOL
REMARK 923 INTER-LIGAND FREE ENERGY PREDICTED BY IDOCK:   -6.59 KCAL/MOL
REMARK 924 INTRA-LIGAND FREE ENERGY PREDICTED BY IDOCK:   -0.77 KCAL/MOL
REMARK 927      BINDING AFFINITY PREDICTED BY RF-SCORE:    0.00 PKD
ROOT
HETATM    1  C   UNK A   0      -8.058  17.043  67.521  1.00  0.00    -0.189 C  
HETATM    2  C   UNK A   0      -8.947  15.969  68.101  1.00  0.00    -0.183 C  
HETATM    3  C   UNK A   0      -8.604  15.509  69.497  1.00  0.00    -0.218 C  
HETATM    4  C   UNK A   0      -9.401  14.955  67.077  1.00  0.00    -0.240 C  
HETATM    5  C   UNK A   0      -9.874  16.312  69.274  1.00  0.00    -0.252 C  
ENDROOT
BRANCH   5   6
HETATM    6  C   UNK A   0     -11.171  15.604  69.539  1.00  0.00    -0.313 C  
HETATM    7  N   UNK A   1     -11.205  14.770  70.633  1.00  0.00    -0.477 N  
HETATM    8  O   UNK A   0     -12.107  15.729  68.760  1.00  0.00    -0.314 OA 
HETATM    9  H   UNK A   1     -10.351  14.730  71.190  1.00  0.00     0.000 HD 
BRANCH   7  10
HETATM   10  C   UNK A   1     -12.261  13.974  71.073  1.00  0.00    -0.353 C  
HETATM   11  C   UNK A   1     -12.374  12.684  70.669  1.00  0.00    -0.375 C  
HETATM   12  C   UNK A   1     -13.407  14.412  71.965  1.00  0.00    -0.384 C  
HETATM   13  O   UNK A   1     -13.799  15.695  71.840  1.00  0.00    -0.471 OA 
HETATM   14  O   UNK A   1     -14.061  13.619  72.629  1.00  0.00    -0.746 OA 
BRANCH  11  15
HETATM   15  C   UNK A   1     -11.479  11.954  69.714  1.00  0.00    -0.303 C  
BRANCH  15  16
HETATM   16  C   UNK A   1     -11.685  12.248  68.215  1.00  0.00    -0.392 C  
BRANCH  16  17
HETATM   17  C   UNK A   1     -11.424  10.935  67.465  1.00  0.00    -0.234 C  
BRANCH  17  18
HETATM   18  C   UNK A   1     -10.314  10.981  66.423  1.00  0.00    -0.250 C  
BRANCH  18  19
HETATM   19  S   UNK A   1      -9.022   9.813  66.993  1.00  0.00    -0.138 SA 
BRANCH  19  20
HETATM   20  C   UNK A   1      -9.216  10.001  68.796  1.00  0.00    -0.159 C  
BRANCH  20  21
HETATM   21  C   UNK A   1      -7.905  10.482  69.437  1.00  0.00    -0.147 C  
HETATM   22  N   UNK A   1      -6.874  10.867  68.419  1.00  0.00    -0.066 NA 
HETATM   23  C   UNK A   1      -7.347   9.327  70.270  1.00  0.00    -0.100 C  
HETATM   24  O   UNK A   1      -7.757   8.994  71.370  1.00  0.00    -0.247 OA 
HETATM   25  O   UNK A   1      -6.358   8.673  69.605  1.00  0.00    -0.038 OA 
HETATM   26  H1  UNK A   1      -6.003  11.186  68.844  1.00  0.00     0.000 HD 
HETATM   27  H2  UNK A   1      -7.241  11.563  67.770  1.00  0.00     0.000 HD 
ENDBRANCH  20  21
ENDBRANCH  19  20
ENDBRANCH  18  19
ENDBRANCH  17  18
ENDBRANCH  16  17
ENDBRANCH  15  16
ENDBRANCH  11  15
ENDBRANCH   7  10
ENDBRANCH   5   6
TORSDOF 9
ENDMDL
MODEL      200
REMARK 921   NORMALIZED FREE ENERGY PREDICTED BY IDOCK:   -4.17 KCAL/MOL
REMARK 922        TOTAL FREE ENERGY PREDICTED BY IDOCK:   -7.33 KCAL/MOL
REMARK 923 INTER-LIGAND FREE ENERGY PREDICTED BY IDOCK:   -6.46 KCAL/MOL
REMARK 924 INTRA-LIGAND FREE ENERGY PREDICTED BY IDOCK:   -0.87 KCAL/MOL
REMARK 927      BINDING AFFINITY PREDICTED BY RF-SCORE:    0.00 PKD
ROOT
HETATM    1  C   UNK A   0     -10.790   6.893  72.994  1.00  0.00    -0.328 C  
HETATM    2  C   UNK A   0      -9.824   7.423  71.961  1.00  0.00    -0.191 C  
HETATM    3  C   UNK A   0      -8.371   7.078  72.176  1.00  0.00    -0.107 C  
HETATM    4  C   UNK A   0     -10.194   8.796  71.451  1.00  0.00    -0.350 C  
HETATM    5  C   UNK A   0      -9.118   6.440  71.018  1.00  0.00    -0.154 C  
ENDROOT
BRANCH   5   6
HETATM    6  C   UNK A   0      -8.655   6.806  69.638  1.00  0.00    -0.133 C  
HETATM    7  N   UNK A   1      -9.514   6.516  68.603  1.00  0.00    -0.124 N  
HETATM    8  O   UNK A   0      -7.535   7.272  69.471  1.00  0.00    -0.086 OA 
HETATM    9  H   UNK A   1     -10.409   6.104  68.868  1.00  0.00     0.000 HD 
BRANCH   7  10
HETATM   10  C   UNK A   1      -9.313   6.715  67.239  1.00  0.00    -0.132 C  
HETATM   11  C   UNK A   1      -9.870   7.775  66.601  1.00  0.00    -0.295 C  
HETATM   12  C   UNK A   1      -8.539   5.807  66.301  1.00  0.00    -0.130 C  
HETATM   13  O   UNK A   1      -8.571   4.492  66.590  1.00  0.00    -0.112 OA 
HETATM   14  O   UNK A   1      -8.063   6.206  65.247  1.00  0.00    -0.119 OA 
BRANCH  11  15
HETATM   15  C   UNK A   1     -10.772   8.814  67.194  1.00  0.00    -0.204 C  
BRANCH  15  16
HETATM   16  C   UNK A   1     -10.136  10.182  67.506  1.00  0.00    -0.244 C  
BRANCH  16  17
HETATM   17  C   UNK A   1     -11.114  11.252  67.001  1.00  0.00    -0.356 C  
BRANCH  17  18
HETATM   18  C   UNK A   1     -10.480  12.437  66.282  1.00  0.00    -0.245 C  
BRANCH  18  19
HETATM   19  S   UNK A   1      -9.883  13.574  67.588  1.00  0.00    -0.234 SA 
BRANCH  19  20
HETATM   20  C   UNK A   1     -10.572  15.143  66.965  1.00  0.00    -0.300 C  
BRANCH  20  21
HETATM   21  C   UNK A   1      -9.955  15.505  65.604  1.00  0.00    -0.360 C  
HETATM   22  N   UNK A   1      -8.815  16.470  65.727  1.00  0.00    -0.450 NA 
HETATM   23  C   UNK A   1     -11.050  16.162  64.762  1.00  0.00    -0.333 C  
HETATM   24  O   UNK A   1     -11.948  15.565  64.191  1.00  0.00    -0.522 OA 
HETATM   25  O   UNK A   1     -10.929  17.516  64.768  1.00  0.00    -0.950 OA 
HETATM   26  H1  UNK A   1      -8.406  16.711  64.824  1.00  0.00     0.000 HD 
HETATM   27  H2  UNK A   1      -8.105  16.119  66.369  1.00  0.00     0.000 HD 
ENDBRANCH  20  21
ENDBRANCH  19  20
ENDBRANCH  18  19
ENDBRANCH  17  18
ENDBRANCH  16  17
ENDBRANCH  15  16
ENDBRANCH  11  15
ENDBRANCH   7  10
ENDBRANCH   5   6
TORSDOF 9
ENDMDL
MODEL      201
REMARK 921   NORMALIZED FREE ENERGY PREDICTED BY IDOCK:   -4.17 KCAL/MOL
REMARK 922        TOTAL FREE ENERGY PREDICTED BY IDOCK:   -7.33 KCAL/MOL
REMARK 923 INTER-LIGAND FREE ENERGY PREDICTED BY IDOCK:   -6.41 KCAL/MOL
REMARK 924 INTRA-LIGAND FREE ENERGY PREDICTED BY IDOCK:   -0.92 KCAL/MOL
REMARK 927      BINDING AFFINITY PREDICTED BY RF-SCORE:    0.00 PKD
ROOT
HETATM    1  C   UNK A   0     -11.638   7.730  72.538  1.00  0.00    -0.422 C  
HETATM    2  C   UNK A   0     -10.786   8.574  71.619  1.00  0.00    -0.351 C  
HETATM    3  C   UNK A   0      -9.334   8.713  72.007  1.00  0.00    -0.362 C  
HETATM    4  C   UNK A   0     -11.521   9.768  71.057  1.00  0.00    -0.458 C  
HETATM    5  C   UNK A   0      -9.696   7.901  70.775  1.00  0.00    -0.179 C  
ENDROOT
BRANCH   5   6
HETATM    6  C   UNK A   0      -9.223   8.437  69.455  1.00  0.00    -0.154 C  
HETATM    7  N   UNK A   1      -9.987   8.123  68.355  1.00  0.00    -0.184 N  
HETATM    8  O   UNK A   0      -8.169   9.056  69.388  1.00  0.00    -0.110 OA 
HETATM    9  H   UNK A   1     -10.830   7.578  68.536  1.00  0.00     0.000 HD 
BRANCH   7  10
HETATM   10  C   UNK A   1      -9.751   8.459  67.023  1.00  0.00    -0.206 C  
HETATM   11  C   UNK A   1     -10.222   9.621  66.505  1.00  0.00    -0.294 C  
HETATM   12  C   UNK A   1      -9.031   7.607  65.994  1.00  0.00    -0.139 C  
HETATM   13  O   UNK A   1      -9.162   6.274  66.132  1.00  0.00    -0.162 OA 
HETATM   14  O   UNK A   1      -8.512   8.086  64.995  1.00  0.00    -0.143 OA 
BRANCH  11  15
HETATM   15  C   UNK A   1     -11.056  10.650  67.205  1.00  0.00    -0.313 C  
BRANCH  15  16
HETATM   16  C   UNK A   1     -10.299  11.681  68.066  1.00  0.00    -0.208 C  
BRANCH  16  17
HETATM   17  C   UNK A   1     -11.192  12.927  68.152  1.00  0.00    -0.305 C  
BRANCH  17  18
HETATM   18  C   UNK A   1     -10.526  14.176  68.716  1.00  0.00    -0.247 C  
BRANCH  18  19
HETATM   19  S   UNK A   1     -10.558  15.426  67.376  1.00  0.00    -0.294 SA 
BRANCH  19  20
HETATM   20  C   UNK A   1      -9.024  16.332  67.769  1.00  0.00    -0.193 C  
BRANCH  20  21
HETATM   21  C   UNK A   1      -9.338  17.624  68.540  1.00  0.00    -0.291 C  
HETATM   22  N   UNK A   1     -10.645  17.555  69.270  1.00  0.00    -0.379 NA 
HETATM   23  C   UNK A   1      -9.419  18.762  67.522  1.00  0.00    -0.298 C  
HETATM   24  O   UNK A   1      -8.458  19.309  67.005  1.00  0.00    -0.271 OA 
HETATM   25  O   UNK A   1     -10.709  19.060  67.218  1.00  0.00    -0.452 OA 
HETATM   26  H1  UNK A   1     -10.854  18.412  69.783  1.00  0.00     0.000 HD 
HETATM   27  H2  UNK A   1     -10.679  16.743  69.887  1.00  0.00     0.000 HD 
ENDBRANCH  20  21
ENDBRANCH  19  20
ENDBRANCH  18  19
ENDBRANCH  17  18
ENDBRANCH  16  17
ENDBRANCH  15  16
ENDBRANCH  11  15
ENDBRANCH   7  10
ENDBRANCH   5   6
TORSDOF 9
ENDMDL
MODEL      202
REMARK 921   NORMALIZED FREE ENERGY PREDICTED BY IDOCK:   -4.17 KCAL/MOL
REMARK 922        TOTAL FREE ENERGY PREDICTED BY IDOCK:   -7.33 KCAL/MOL
REMARK 923 INTER-LIGAND FREE ENERGY PREDICTED BY IDOCK:   -6.21 KCAL/MOL
REMARK 924 INTRA-LIGAND FREE ENERGY PREDICTED BY IDOCK:   -1.11 KCAL/MOL
REMARK 927      BINDING AFFINITY PREDICTED BY RF-SCORE:    0.00 PKD
ROOT
HETATM    1  C   UNK A   0     -10.920   6.528  69.412  1.00  0.00    -0.395 C  
HETATM    2  C   UNK A   0     -10.023   6.535  68.197  1.00  0.00    -0.145 C  
HETATM    3  C   UNK A   0     -10.572   5.855  66.967  1.00  0.00    -0.376 C  
HETATM    4  C   UNK A   0      -8.559   6.383  68.538  1.00  0.00    -0.122 C  
HETATM    5  C   UNK A   0     -10.424   7.367  66.972  1.00  0.00    -0.404 C  
ENDROOT
BRANCH   5   6
HETATM    6  C   UNK A   0      -9.432   7.947  66.006  1.00  0.00    -0.016 C  
HETATM    7  N   UNK A   1      -9.574   9.281  65.705  1.00  0.00    -0.359 N  
HETATM    8  O   UNK A   0      -8.597   7.224  65.477  1.00  0.00    -0.140 OA 
HETATM    9  H   UNK A   1     -10.326   9.771  66.191  1.00  0.00     0.000 HD 
BRANCH   7  10
HETATM   10  C   UNK A   1      -8.819  10.047  64.818  1.00  0.00    -0.195 C  
HETATM   11  C   UNK A   1      -7.559  10.437  65.135  1.00  0.00    -0.103 C  
HETATM   12  C   UNK A   1      -9.277  10.579  63.474  1.00  0.00    -0.274 C  
HETATM   13  O   UNK A   1     -10.585  10.887  63.372  1.00  0.00    -0.282 OA 
HETATM   14  O   UNK A   1      -8.491  10.886  62.588  1.00  0.00    -0.210 OA 
BRANCH  11  15
HETATM   15  C   UNK A   1      -6.828  10.175  66.417  1.00  0.00    -0.100 C  
BRANCH  15  16
HETATM   16  C   UNK A   1      -6.319  11.410  67.185  1.00  0.00    -0.109 C  
BRANCH  16  17
HETATM   17  C   UNK A   1      -7.557  12.223  67.590  1.00  0.00    -0.144 C  
BRANCH  17  18
HETATM   18  C   UNK A   1      -7.375  13.735  67.609  1.00  0.00    -0.172 C  
BRANCH  18  19
HETATM   19  S   UNK A   1      -8.941  14.451  66.982  1.00  0.00    -0.241 SA 
BRANCH  19  20
HETATM   20  C   UNK A   1      -9.755  12.930  66.389  1.00  0.00    -0.263 C  
BRANCH  20  21
HETATM   21  C   UNK A   1     -11.163  12.798  66.991  1.00  0.00    -0.292 C  
HETATM   22  N   UNK A   1     -11.553  11.371  67.234  1.00  0.00    -0.560 NA 
HETATM   23  C   UNK A   1     -12.151  13.400  65.991  1.00  0.00    -0.438 C  
HETATM   24  O   UNK A   1     -12.339  14.594  65.825  1.00  0.00    -0.259 OA 
HETATM   25  O   UNK A   1     -12.766  12.431  65.263  1.00  0.00    -0.617 OA 
HETATM   26  H1  UNK A   1     -12.487  11.282  67.634  1.00  0.00     0.000 HD 
HETATM   27  H2  UNK A   1     -10.861  10.895  67.813  1.00  0.00     0.000 HD 
ENDBRANCH  20  21
ENDBRANCH  19  20
ENDBRANCH  18  19
ENDBRANCH  17  18
ENDBRANCH  16  17
ENDBRANCH  15  16
ENDBRANCH  11  15
ENDBRANCH   7  10
ENDBRANCH   5   6
TORSDOF 9
ENDMDL
MODEL      203
REMARK 921   NORMALIZED FREE ENERGY PREDICTED BY IDOCK:   -4.16 KCAL/MOL
REMARK 922        TOTAL FREE ENERGY PREDICTED BY IDOCK:   -7.32 KCAL/MOL
REMARK 923 INTER-LIGAND FREE ENERGY PREDICTED BY IDOCK:   -6.45 KCAL/MOL
REMARK 924 INTRA-LIGAND FREE ENERGY PREDICTED BY IDOCK:   -0.87 KCAL/MOL
REMARK 927      BINDING AFFINITY PREDICTED BY RF-SCORE:    0.00 PKD
ROOT
HETATM    1  C   UNK A   0     -10.469  17.539  66.902  1.00  0.00    -0.285 C  
HETATM    2  C   UNK A   0     -10.307  16.041  67.000  1.00  0.00    -0.292 C  
HETATM    3  C   UNK A   0     -10.297  15.467  68.396  1.00  0.00    -0.229 C  
HETATM    4  C   UNK A   0      -9.371  15.475  65.959  1.00  0.00    -0.379 C  
HETATM    5  C   UNK A   0     -11.485  15.188  67.490  1.00  0.00    -0.306 C  
ENDROOT
BRANCH   5   6
HETATM    6  C   UNK A   0     -11.697  13.759  67.082  1.00  0.00    -0.385 C  
HETATM    7  N   UNK A   1     -10.864  12.825  67.655  1.00  0.00    -0.224 N  
HETATM    8  O   UNK A   0     -12.529  13.483  66.228  1.00  0.00    -0.396 OA 
HETATM    9  H   UNK A   1     -10.192  13.183  68.334  1.00  0.00     0.000 HD 
BRANCH   7  10
HETATM   10  C   UNK A   1     -10.826  11.452  67.421  1.00  0.00    -0.254 C  
HETATM   11  C   UNK A   1     -11.367  10.580  68.309  1.00  0.00    -0.332 C  
HETATM   12  C   UNK A   1     -10.164  10.757  66.246  1.00  0.00    -0.245 C  
HETATM   13  O   UNK A   1      -9.065  11.355  65.746  1.00  0.00    -0.211 OA 
HETATM   14  O   UNK A   1     -10.487   9.635  65.881  1.00  0.00    -0.138 OA 
BRANCH  11  15
HETATM   15  C   UNK A   1     -12.012  10.910  69.621  1.00  0.00    -0.414 C  
BRANCH  15  16
HETATM   16  C   UNK A   1     -11.456  10.188  70.863  1.00  0.00    -0.444 C  
BRANCH  16  17
HETATM   17  C   UNK A   1     -11.844   8.709  70.728  1.00  0.00    -0.197 C  
BRANCH  17  18
HETATM   18  C   UNK A   1     -12.346   8.041  72.002  1.00  0.00    -0.326 C  
BRANCH  18  19
HETATM   19  S   UNK A   1     -11.194   6.659  72.347  1.00  0.00    -0.271 SA 
BRANCH  19  20
HETATM   20  C   UNK A   1     -10.013   7.513  73.443  1.00  0.00    -0.323 C  
BRANCH  20  21
HETATM   21  C   UNK A   1      -8.575   7.053  73.156  1.00  0.00    -0.121 C  
HETATM   22  N   UNK A   1      -7.694   7.128  74.366  1.00  0.00    -0.119 NA 
HETATM   23  C   UNK A   1      -7.998   7.982  72.086  1.00  0.00    -0.121 C  
HETATM   24  O   UNK A   1      -8.252   7.920  70.895  1.00  0.00    -0.099 OA 
HETATM   25  O   UNK A   1      -7.198   8.932  72.638  1.00  0.00    -0.337 OA 
HETATM   26  H1  UNK A   1      -6.739   6.824  74.176  1.00  0.00     0.000 HD 
HETATM   27  H2  UNK A   1      -8.096   6.608  75.145  1.00  0.00     0.000 HD 
ENDBRANCH  20  21
ENDBRANCH  19  20
ENDBRANCH  18  19
ENDBRANCH  17  18
ENDBRANCH  16  17
ENDBRANCH  15  16
ENDBRANCH  11  15
ENDBRANCH   7  10
ENDBRANCH   5   6
TORSDOF 9
ENDMDL
MODEL      204
REMARK 921   NORMALIZED FREE ENERGY PREDICTED BY IDOCK:   -4.15 KCAL/MOL
REMARK 922        TOTAL FREE ENERGY PREDICTED BY IDOCK:   -7.30 KCAL/MOL
REMARK 923 INTER-LIGAND FREE ENERGY PREDICTED BY IDOCK:   -5.99 KCAL/MOL
REMARK 924 INTRA-LIGAND FREE ENERGY PREDICTED BY IDOCK:   -1.32 KCAL/MOL
REMARK 927      BINDING AFFINITY PREDICTED BY RF-SCORE:    0.00 PKD
ROOT
HETATM    1  C   UNK A   0      -7.491   7.728  66.356  1.00  0.00    -0.084 C  
HETATM    2  C   UNK A   0      -7.385   8.449  67.679  1.00  0.00    -0.093 C  
HETATM    3  C   UNK A   0      -7.549   9.948  67.629  1.00  0.00    -0.091 C  
HETATM    4  C   UNK A   0      -6.355   7.845  68.604  1.00  0.00    -0.048 C  
HETATM    5  C   UNK A   0      -8.634   9.107  68.278  1.00  0.00    -0.129 C  
ENDROOT
BRANCH   5   6
HETATM    6  C   UNK A   0      -8.841   9.299  69.752  1.00  0.00    -0.167 C  
HETATM    7  N   UNK A   1      -9.671   8.399  70.380  1.00  0.00    -0.171 N  
HETATM    8  O   UNK A   0      -8.340  10.261  70.321  1.00  0.00    -0.012 OA 
HETATM    9  H   UNK A   1     -10.050   7.656  69.793  1.00  0.00     0.000 HD 
BRANCH   7  10
HETATM   10  C   UNK A   1     -10.057   8.377  71.719  1.00  0.00    -0.247 C  
HETATM   11  C   UNK A   1     -11.291   8.798  72.094  1.00  0.00    -0.411 C  
HETATM   12  C   UNK A   1      -9.196   7.962  72.897  1.00  0.00    -0.235 C  
HETATM   13  O   UNK A   1      -7.878   8.218  72.787  1.00  0.00    -0.138 OA 
HETATM   14  O   UNK A   1      -9.674   7.585  73.959  1.00  0.00    -0.245 OA 
BRANCH  11  15
HETATM   15  C   UNK A   1     -12.360   9.363  71.209  1.00  0.00    -0.422 C  
BRANCH  15  16
HETATM   16  C   UNK A   1     -12.691  10.857  71.396  1.00  0.00    -0.539 C  
BRANCH  16  17
HETATM   17  C   UNK A   1     -11.938  11.619  70.298  1.00  0.00    -0.445 C  
BRANCH  17  18
HETATM   18  C   UNK A   1     -12.071  11.050  68.890  1.00  0.00    -0.169 C  
BRANCH  18  19
HETATM   19  S   UNK A   1     -11.311  12.278  67.763  1.00  0.00    -0.324 SA 
BRANCH  19  20
HETATM   20  C   UNK A   1     -10.909  11.192  66.355  1.00  0.00    -0.225 C  
BRANCH  20  21
HETATM   21  C   UNK A   1      -9.849  11.841  65.452  1.00  0.00    -0.233 C  
HETATM   22  N   UNK A   1      -9.256  13.078  66.058  1.00  0.00    -0.462 NA 
HETATM   23  C   UNK A   1     -10.535  12.233  64.142  1.00  0.00    -0.375 C  
HETATM   24  O   UNK A   1     -10.820  11.460  63.243  1.00  0.00    -0.349 OA 
HETATM   25  O   UNK A   1     -10.839  13.558  64.122  1.00  0.00    -0.372 OA 
HETATM   26  H1  UNK A   1      -8.552  13.509  65.459  1.00  0.00     0.000 HD 
HETATM   27  H2  UNK A   1      -8.879  12.886  66.986  1.00  0.00     0.000 HD 
ENDBRANCH  20  21
ENDBRANCH  19  20
ENDBRANCH  18  19
ENDBRANCH  17  18
ENDBRANCH  16  17
ENDBRANCH  15  16
ENDBRANCH  11  15
ENDBRANCH   7  10
ENDBRANCH   5   6
TORSDOF 9
ENDMDL
MODEL      205
REMARK 921   NORMALIZED FREE ENERGY PREDICTED BY IDOCK:   -4.10 KCAL/MOL
REMARK 922        TOTAL FREE ENERGY PREDICTED BY IDOCK:   -7.23 KCAL/MOL
REMARK 923 INTER-LIGAND FREE ENERGY PREDICTED BY IDOCK:   -6.09 KCAL/MOL
REMARK 924 INTRA-LIGAND FREE ENERGY PREDICTED BY IDOCK:   -1.14 KCAL/MOL
REMARK 927      BINDING AFFINITY PREDICTED BY RF-SCORE:    0.00 PKD
ROOT
HETATM    1  C   UNK A   0     -12.627  12.641  64.648  1.00  0.00    -0.517 C  
HETATM    2  C   UNK A   0     -11.507  12.349  65.619  1.00  0.00    -0.412 C  
HETATM    3  C   UNK A   0     -10.990  13.529  66.405  1.00  0.00    -0.297 C  
HETATM    4  C   UNK A   0     -10.534  11.312  65.110  1.00  0.00    -0.351 C  
HETATM    5  C   UNK A   0     -11.775  12.447  67.127  1.00  0.00    -0.415 C  
ENDROOT
BRANCH   5   6
HETATM    6  C   UNK A   0     -11.028  11.647  68.153  1.00  0.00    -0.226 C  
HETATM    7  N   UNK A   1     -11.646  10.508  68.616  1.00  0.00    -0.491 N  
HETATM    8  O   UNK A   0      -9.958  12.054  68.587  1.00  0.00    -0.207 OA 
HETATM    9  H   UNK A   1     -12.550  10.288  68.196  1.00  0.00     0.000 HD 
BRANCH   7  10
HETATM   10  C   UNK A   1     -11.191   9.618  69.587  1.00  0.00    -0.141 C  
HETATM   11  C   UNK A   1     -10.499   8.504  69.239  1.00  0.00    -0.224 C  
HETATM   12  C   UNK A   1     -11.432   9.717  71.081  1.00  0.00    -0.384 C  
HETATM   13  O   UNK A   1     -12.598  10.275  71.458  1.00  0.00    -0.374 OA 
HETATM   14  O   UNK A   1     -10.707   9.167  71.900  1.00  0.00    -0.357 OA 
BRANCH  11  15
HETATM   15  C   UNK A   1     -10.168   8.042  67.853  1.00  0.00    -0.267 C  
BRANCH  15  16
HETATM   16  C   UNK A   1      -8.937   8.687  67.186  1.00  0.00    -0.148 C  
BRANCH  16  17
HETATM   17  C   UNK A   1      -7.932   7.558  66.923  1.00  0.00    -0.115 C  
BRANCH  17  18
HETATM   18  C   UNK A   1      -8.497   6.144  66.988  1.00  0.00    -0.105 C  
BRANCH  18  19
HETATM   19  S   UNK A   1      -8.615   5.556  65.257  1.00  0.00    -0.130 SA 
BRANCH  19  20
HETATM   20  C   UNK A   1      -7.698   3.986  65.405  1.00  0.00    -0.086 C  
BRANCH  20  21
HETATM   21  C   UNK A   1      -8.666   2.803  65.563  1.00  0.00    -0.127 C  
HETATM   22  N   UNK A   1     -10.091   3.187  65.298  1.00  0.00    -0.365 NA 
HETATM   23  C   UNK A   1      -8.564   2.313  67.008  1.00  0.00    -0.108 C  
HETATM   24  O   UNK A   1      -7.659   1.625  67.452  1.00  0.00    -0.057 OA 
HETATM   25  O   UNK A   1      -9.591   2.784  67.763  1.00  0.00    -0.184 OA 
HETATM   26  H1  UNK A   1     -10.734   2.402  65.403  1.00  0.00     0.000 HD 
HETATM   27  H2  UNK A   1     -10.189   3.621  64.381  1.00  0.00     0.000 HD 
ENDBRANCH  20  21
ENDBRANCH  19  20
ENDBRANCH  18  19
ENDBRANCH  17  18
ENDBRANCH  16  17
ENDBRANCH  15  16
ENDBRANCH  11  15
ENDBRANCH   7  10
ENDBRANCH   5   6
TORSDOF 9
ENDMDL
MODEL      206
REMARK 921   NORMALIZED FREE ENERGY PREDICTED BY IDOCK:   -4.10 KCAL/MOL
REMARK 922        TOTAL FREE ENERGY PREDICTED BY IDOCK:   -7.23 KCAL/MOL
REMARK 923 INTER-LIGAND FREE ENERGY PREDICTED BY IDOCK:   -6.36 KCAL/MOL
REMARK 924 INTRA-LIGAND FREE ENERGY PREDICTED BY IDOCK:   -0.87 KCAL/MOL
REMARK 927      BINDING AFFINITY PREDICTED BY RF-SCORE:    0.00 PKD
ROOT
HETATM    1  C   UNK A   0     -13.877  13.000  72.266  1.00  0.00    -0.529 C  
HETATM    2  C   UNK A   0     -13.243  14.324  71.910  1.00  0.00    -0.456 C  
HETATM    3  C   UNK A   0     -12.300  14.903  72.937  1.00  0.00    -0.430 C  
HETATM    4  C   UNK A   0     -14.173  15.244  71.155  1.00  0.00    -0.410 C  
HETATM    5  C   UNK A   0     -11.737  14.384  71.625  1.00  0.00    -0.004 C  
ENDROOT
BRANCH   5   6
HETATM    6  C   UNK A   0     -11.107  15.399  70.717  1.00  0.00    -0.336 C  
HETATM    7  N   UNK A   1     -10.472  14.914  69.597  1.00  0.00    -0.381 N  
HETATM    8  O   UNK A   0     -11.115  16.585  71.024  1.00  0.00    -0.170 OA 
HETATM    9  H   UNK A   1     -10.511  13.903  69.464  1.00  0.00     0.000 HD 
BRANCH   7  10
HETATM   10  C   UNK A   1      -9.781  15.632  68.623  1.00  0.00    -0.204 C  
HETATM   11  C   UNK A   1      -8.443  15.474  68.460  1.00  0.00    -0.163 C  
HETATM   12  C   UNK A   1     -10.365  16.678  67.692  1.00  0.00    -0.305 C  
HETATM   13  O   UNK A   1     -11.385  17.407  68.185  1.00  0.00    -0.027 OA 
HETATM   14  O   UNK A   1      -9.839  16.976  66.628  1.00  0.00    -0.264 OA 
BRANCH  11  15
HETATM   15  C   UNK A   1      -7.532  14.602  69.269  1.00  0.00    -0.132 C  
BRANCH  15  16
HETATM   16  C   UNK A   1      -6.493  13.777  68.485  1.00  0.00    -0.093 C  
BRANCH  16  17
HETATM   17  C   UNK A   1      -6.900  12.303  68.622  1.00  0.00    -0.087 C  
BRANCH  17  18
HETATM   18  C   UNK A   1      -7.436  11.647  67.356  1.00  0.00    -0.135 C  
BRANCH  18  19
HETATM   19  S   UNK A   1      -8.571  10.318  67.904  1.00  0.00    -0.118 SA 
BRANCH  19  20
HETATM   20  C   UNK A   1      -9.995  10.666  66.819  1.00  0.00    -0.209 C  
BRANCH  20  21
HETATM   21  C   UNK A   1     -10.939  11.688  67.472  1.00  0.00    -0.259 C  
HETATM   22  N   UNK A   1     -12.177  11.054  68.032  1.00  0.00    -0.563 NA 
HETATM   23  C   UNK A   1     -11.360  12.685  66.391  1.00  0.00    -0.331 C  
HETATM   24  O   UNK A   1     -10.667  13.598  65.972  1.00  0.00    -0.276 OA 
HETATM   25  O   UNK A   1     -12.597  12.395  65.908  1.00  0.00    -0.475 OA 
HETATM   26  H1  UNK A   1     -12.803  11.732  68.465  1.00  0.00     0.000 HD 
HETATM   27  H2  UNK A   1     -11.942  10.304  68.682  1.00  0.00     0.000 HD 
ENDBRANCH  20  21
ENDBRANCH  19  20
ENDBRANCH  18  19
ENDBRANCH  17  18
ENDBRANCH  16  17
ENDBRANCH  15  16
ENDBRANCH  11  15
ENDBRANCH   7  10
ENDBRANCH   5   6
TORSDOF 9
ENDMDL
MODEL      207
REMARK 921   NORMALIZED FREE ENERGY PREDICTED BY IDOCK:   -4.08 KCAL/MOL
REMARK 922        TOTAL FREE ENERGY PREDICTED BY IDOCK:   -7.20 KCAL/MOL
REMARK 923 INTER-LIGAND FREE ENERGY PREDICTED BY IDOCK:   -6.03 KCAL/MOL
REMARK 924 INTRA-LIGAND FREE ENERGY PREDICTED BY IDOCK:   -1.16 KCAL/MOL
REMARK 927      BINDING AFFINITY PREDICTED BY RF-SCORE:    0.00 PKD
ROOT
HETATM    1  C   UNK A   0     -10.363  18.922  66.177  1.00  0.00    -0.517 C  
HETATM    2  C   UNK A   0     -10.179  17.493  66.632  1.00  0.00    -0.332 C  
HETATM    3  C   UNK A   0     -10.181  16.448  65.543  1.00  0.00    -0.296 C  
HETATM    4  C   UNK A   0     -10.858  17.196  67.948  1.00  0.00    -0.294 C  
HETATM    5  C   UNK A   0      -8.884  16.752  66.274  1.00  0.00    -0.334 C  
ENDROOT
BRANCH   5   6
HETATM    6  C   UNK A   0      -8.309  15.644  67.107  1.00  0.00    -0.208 C  
HETATM    7  N   UNK A   1      -8.579  14.360  66.696  1.00  0.00    -0.437 N  
HETATM    8  O   UNK A   0      -7.695  15.906  68.134  1.00  0.00    -0.128 OA 
HETATM    9  H   UNK A   1      -9.124  14.271  65.837  1.00  0.00     0.000 HD 
BRANCH   7  10
HETATM   10  C   UNK A   1      -8.201  13.165  67.306  1.00  0.00    -0.168 C  
HETATM   11  C   UNK A   1      -9.066  12.486  68.101  1.00  0.00    -0.204 C  
HETATM   12  C   UNK A   1      -6.835  12.509  67.232  1.00  0.00    -0.114 C  
HETATM   13  O   UNK A   1      -5.782  13.343  67.127  1.00  0.00    -0.302 OA 
HETATM   14  O   UNK A   1      -6.670  11.314  67.434  1.00  0.00    -0.072 OA 
BRANCH  11  15
HETATM   15  C   UNK A   1     -10.459  12.893  68.474  1.00  0.00    -0.260 C  
BRANCH  15  16
HETATM   16  C   UNK A   1     -11.503  12.897  67.340  1.00  0.00    -0.388 C  
BRANCH  16  17
HETATM   17  C   UNK A   1     -11.467  11.504  66.698  1.00  0.00    -0.205 C  
BRANCH  17  18
HETATM   18  C   UNK A   1     -10.825  11.431  65.318  1.00  0.00    -0.233 C  
BRANCH  18  19
HETATM   19  S   UNK A   1      -9.876   9.864  65.272  1.00  0.00    -0.233 SA 
BRANCH  19  20
HETATM   20  C   UNK A   1     -10.344   9.178  66.896  1.00  0.00    -0.251 C  
BRANCH  20  21
HETATM   21  C   UNK A   1      -9.489   7.945  67.231  1.00  0.00    -0.149 C  
HETATM   22  N   UNK A   1      -8.704   7.452  66.054  1.00  0.00    -0.154 NA 
HETATM   23  C   UNK A   1     -10.440   6.831  67.672  1.00  0.00    -0.229 C  
HETATM   24  O   UNK A   1     -10.970   6.756  68.769  1.00  0.00    -0.239 OA 
HETATM   25  O   UNK A   1     -10.666   5.948  66.664  1.00  0.00    -0.286 OA 
HETATM   26  H1  UNK A   1      -8.137   6.633  66.276  1.00  0.00     0.000 HD 
HETATM   27  H2  UNK A   1      -8.132   8.197  65.657  1.00  0.00     0.000 HD 
ENDBRANCH  20  21
ENDBRANCH  19  20
ENDBRANCH  18  19
ENDBRANCH  17  18
ENDBRANCH  16  17
ENDBRANCH  15  16
ENDBRANCH  11  15
ENDBRANCH   7  10
ENDBRANCH   5   6
TORSDOF 9
ENDMDL
MODEL      208
REMARK 921   NORMALIZED FREE ENERGY PREDICTED BY IDOCK:   -4.08 KCAL/MOL
REMARK 922        TOTAL FREE ENERGY PREDICTED BY IDOCK:   -7.20 KCAL/MOL
REMARK 923 INTER-LIGAND FREE ENERGY PREDICTED BY IDOCK:   -6.07 KCAL/MOL
REMARK 924 INTRA-LIGAND FREE ENERGY PREDICTED BY IDOCK:   -1.12 KCAL/MOL
REMARK 927      BINDING AFFINITY PREDICTED BY RF-SCORE:    0.00 PKD
ROOT
HETATM    1  C   UNK A   0     -11.368  10.543  70.743  1.00  0.00    -0.295 C  
HETATM    2  C   UNK A   0     -10.994  11.334  69.512  1.00  0.00    -0.249 C  
HETATM    3  C   UNK A   0     -11.989  11.300  68.377  1.00  0.00    -0.255 C  
HETATM    4  C   UNK A   0      -9.516  11.293  69.204  1.00  0.00     0.064 C  
HETATM    5  C   UNK A   0     -11.798  12.591  69.154  1.00  0.00    -0.348 C  
ENDROOT
BRANCH   5   6
HETATM    6  C   UNK A   0     -11.224  13.752  68.395  1.00  0.00    -0.272 C  
HETATM    7  N   UNK A   1     -10.879  13.521  67.084  1.00  0.00    -0.282 N  
HETATM    8  O   UNK A   0     -11.018  14.816  68.966  1.00  0.00    -0.230 OA 
HETATM    9  H   UNK A   1     -11.075  12.584  66.729  1.00  0.00     0.000 HD 
BRANCH   7  10
HETATM   10  C   UNK A   1     -10.297  14.407  66.180  1.00  0.00    -0.298 C  
HETATM   11  C   UNK A   1     -10.889  14.674  64.988  1.00  0.00    -0.431 C  
HETATM   12  C   UNK A   1      -8.968  15.120  66.347  1.00  0.00    -0.279 C  
HETATM   13  O   UNK A   1      -8.022  14.454  67.037  1.00  0.00    -0.162 OA 
HETATM   14  O   UNK A   1      -8.698  16.152  65.748  1.00  0.00    -0.334 OA 
BRANCH  11  15
HETATM   15  C   UNK A   1     -12.154  14.074  64.453  1.00  0.00    -0.486 C  
BRANCH  15  16
HETATM   16  C   UNK A   1     -11.996  12.933  63.430  1.00  0.00    -0.612 C  
BRANCH  16  17
HETATM   17  C   UNK A   1     -10.672  12.226  63.754  1.00  0.00    -0.494 C  
BRANCH  17  18
HETATM   18  C   UNK A   1     -10.208  11.195  62.732  1.00  0.00     0.002 C  
BRANCH  18  19
HETATM   19  S   UNK A   1      -8.625  10.521  63.362  1.00  0.00    -0.152 SA 
BRANCH  19  20
HETATM   20  C   UNK A   1      -9.224   9.706  64.879  1.00  0.00    -0.246 C  
BRANCH  20  21
HETATM   21  C   UNK A   1      -8.404  10.158  66.099  1.00  0.00    -0.131 C  
HETATM   22  N   UNK A   1      -7.769  11.501  65.900  1.00  0.00    -0.347 NA 
HETATM   23  C   UNK A   1      -7.292   9.130  66.313  1.00  0.00    -0.092 C  
HETATM   24  O   UNK A   1      -7.442   8.033  66.826  1.00  0.00    -0.087 OA 
HETATM   25  O   UNK A   1      -6.109   9.572  65.811  1.00  0.00    -0.058 OA 
HETATM   26  H1  UNK A   1      -7.225  11.801  66.708  1.00  0.00     0.000 HD 
HETATM   27  H2  UNK A   1      -8.466  12.202  65.646  1.00  0.00     0.000 HD 
ENDBRANCH  20  21
ENDBRANCH  19  20
ENDBRANCH  18  19
ENDBRANCH  17  18
ENDBRANCH  16  17
ENDBRANCH  15  16
ENDBRANCH  11  15
ENDBRANCH   7  10
ENDBRANCH   5   6
TORSDOF 9
ENDMDL
MODEL      209
REMARK 921   NORMALIZED FREE ENERGY PREDICTED BY IDOCK:   -4.08 KCAL/MOL
REMARK 922        TOTAL FREE ENERGY PREDICTED BY IDOCK:   -7.19 KCAL/MOL
REMARK 923 INTER-LIGAND FREE ENERGY PREDICTED BY IDOCK:   -6.28 KCAL/MOL
REMARK 924 INTRA-LIGAND FREE ENERGY PREDICTED BY IDOCK:   -0.91 KCAL/MOL
REMARK 927      BINDING AFFINITY PREDICTED BY RF-SCORE:    0.00 PKD
ROOT
HETATM    1  C   UNK A   0     -12.673   7.853  72.234  1.00  0.00    -0.191 C  
HETATM    2  C   UNK A   0     -11.666   8.789  71.608  1.00  0.00    -0.402 C  
HETATM    3  C   UNK A   0     -10.251   8.675  72.119  1.00  0.00    -0.394 C  
HETATM    4  C   UNK A   0     -12.236  10.153  71.298  1.00  0.00    -0.496 C  
HETATM    5  C   UNK A   0     -10.567   8.215  70.706  1.00  0.00    -0.234 C  
ENDROOT
BRANCH   5   6
HETATM    6  C   UNK A   0      -9.926   8.987  69.590  1.00  0.00    -0.192 C  
HETATM    7  N   UNK A   1     -10.565   8.954  68.372  1.00  0.00    -0.363 N  
HETATM    8  O   UNK A   0      -8.852   9.547  69.770  1.00  0.00    -0.165 OA 
HETATM    9  H   UNK A   1     -11.440   8.431  68.341  1.00  0.00     0.000 HD 
BRANCH   7  10
HETATM   10  C   UNK A   1     -10.164   9.547  67.176  1.00  0.00    -0.242 C  
HETATM   11  C   UNK A   1     -10.596  10.788  66.836  1.00  0.00    -0.312 C  
HETATM   12  C   UNK A   1      -9.289   8.918  66.109  1.00  0.00    -0.239 C  
HETATM   13  O   UNK A   1      -9.397   7.583  65.964  1.00  0.00    -0.118 OA 
HETATM   14  O   UNK A   1      -8.656   9.586  65.302  1.00  0.00    -0.138 OA 
BRANCH  11  15
HETATM   15  C   UNK A   1     -11.546  11.656  67.604  1.00  0.00    -0.349 C  
BRANCH  15  16
HETATM   16  C   UNK A   1     -10.999  13.011  68.093  1.00  0.00    -0.269 C  
BRANCH  16  17
HETATM   17  C   UNK A   1     -11.815  14.101  67.383  1.00  0.00    -0.447 C  
BRANCH  17  18
HETATM   18  C   UNK A   1     -11.073  15.400  67.098  1.00  0.00    -0.291 C  
BRANCH  18  19
HETATM   19  S   UNK A   1      -9.320  14.943  66.822  1.00  0.00    -0.265 SA 
BRANCH  19  20
HETATM   20  C   UNK A   1      -8.545  16.584  66.999  1.00  0.00    -0.193 C  
BRANCH  20  21
HETATM   21  C   UNK A   1      -7.046  16.447  67.307  1.00  0.00    -0.181 C  
HETATM   22  N   UNK A   1      -6.665  15.053  67.704  1.00  0.00    -0.171 NA 
HETATM   23  C   UNK A   1      -6.728  17.380  68.476  1.00  0.00    -0.195 C  
HETATM   24  O   UNK A   1      -6.595  18.590  68.390  1.00  0.00    -0.215 OA 
HETATM   25  O   UNK A   1      -6.661  16.696  69.649  1.00  0.00    -0.221 OA 
HETATM   26  H1  UNK A   1      -5.670  14.961  67.909  1.00  0.00     0.000 HD 
HETATM   27  H2  UNK A   1      -6.957  14.378  66.997  1.00  0.00     0.000 HD 
ENDBRANCH  20  21
ENDBRANCH  19  20
ENDBRANCH  18  19
ENDBRANCH  17  18
ENDBRANCH  16  17
ENDBRANCH  15  16
ENDBRANCH  11  15
ENDBRANCH   7  10
ENDBRANCH   5   6
TORSDOF 9
ENDMDL
MODEL      210
REMARK 921   NORMALIZED FREE ENERGY PREDICTED BY IDOCK:   -4.08 KCAL/MOL
REMARK 922        TOTAL FREE ENERGY PREDICTED BY IDOCK:   -7.19 KCAL/MOL
REMARK 923 INTER-LIGAND FREE ENERGY PREDICTED BY IDOCK:   -6.35 KCAL/MOL
REMARK 924 INTRA-LIGAND FREE ENERGY PREDICTED BY IDOCK:   -0.84 KCAL/MOL
REMARK 927      BINDING AFFINITY PREDICTED BY RF-SCORE:    0.00 PKD
ROOT
HETATM    1  C   UNK A   0     -12.246  13.780  63.346  1.00  0.00    -0.123 C  
HETATM    2  C   UNK A   0     -11.729  13.525  64.742  1.00  0.00    -0.397 C  
HETATM    3  C   UNK A   0     -12.683  13.842  65.868  1.00  0.00    -0.466 C  
HETATM    4  C   UNK A   0     -10.261  13.846  64.899  1.00  0.00    -0.378 C  
HETATM    5  C   UNK A   0     -12.340  12.391  65.575  1.00  0.00    -0.250 C  
ENDROOT
BRANCH   5   6
HETATM    6  C   UNK A   0     -11.588  11.651  66.641  1.00  0.00    -0.115 C  
HETATM    7  N   UNK A   1     -10.405  11.059  66.263  1.00  0.00    -0.245 N  
HETATM    8  O   UNK A   0     -12.068  11.536  67.762  1.00  0.00    -0.626 OA 
HETATM    9  H   UNK A   1     -10.124  11.203  65.293  1.00  0.00     0.000 HD 
BRANCH   7  10
HETATM   10  C   UNK A   1      -9.543  10.289  67.041  1.00  0.00    -0.171 C  
HETATM   11  C   UNK A   1      -8.796  10.856  68.021  1.00  0.00    -0.135 C  
HETATM   12  C   UNK A   1      -9.277   8.803  66.886  1.00  0.00    -0.156 C  
HETATM   13  O   UNK A   1      -9.350   8.315  65.633  1.00  0.00    -0.098 OA 
HETATM   14  O   UNK A   1      -8.846   8.115  67.802  1.00  0.00    -0.130 OA 
BRANCH  11  15
HETATM   15  C   UNK A   1      -8.733  12.309  68.383  1.00  0.00    -0.139 C  
BRANCH  15  16
HETATM   16  C   UNK A   1      -7.792  13.189  67.539  1.00  0.00    -0.173 C  
BRANCH  16  17
HETATM   17  C   UNK A   1      -8.165  14.648  67.834  1.00  0.00    -0.152 C  
BRANCH  17  18
HETATM   18  C   UNK A   1      -9.189  14.855  68.944  1.00  0.00    -0.192 C  
BRANCH  18  19
HETATM   19  S   UNK A   1     -10.509  15.911  68.238  1.00  0.00    -0.266 SA 
BRANCH  19  20
HETATM   20  C   UNK A   1      -9.544  17.422  67.903  1.00  0.00    -0.267 C  
BRANCH  20  21
HETATM   21  C   UNK A   1      -9.585  17.773  66.407  1.00  0.00    -0.283 C  
HETATM   22  N   UNK A   1      -8.257  17.588  65.737  1.00  0.00    -0.522 NA 
HETATM   23  C   UNK A   1      -9.980  19.246  66.289  1.00  0.00    -0.413 C  
HETATM   24  O   UNK A   1     -11.113  19.679  66.417  1.00  0.00    -0.313 OA 
HETATM   25  O   UNK A   1      -8.892  20.031  66.072  1.00  0.00    -0.343 OA 
HETATM   26  H1  UNK A   1      -8.284  17.821  64.744  1.00  0.00     0.000 HD 
HETATM   27  H2  UNK A   1      -7.901  16.644  65.882  1.00  0.00     0.000 HD 
ENDBRANCH  20  21
ENDBRANCH  19  20
ENDBRANCH  18  19
ENDBRANCH  17  18
ENDBRANCH  16  17
ENDBRANCH  15  16
ENDBRANCH  11  15
ENDBRANCH   7  10
ENDBRANCH   5   6
TORSDOF 9
ENDMDL
MODEL      211
REMARK 921   NORMALIZED FREE ENERGY PREDICTED BY IDOCK:   -4.08 KCAL/MOL
REMARK 922        TOTAL FREE ENERGY PREDICTED BY IDOCK:   -7.19 KCAL/MOL
REMARK 923 INTER-LIGAND FREE ENERGY PREDICTED BY IDOCK:   -5.74 KCAL/MOL
REMARK 924 INTRA-LIGAND FREE ENERGY PREDICTED BY IDOCK:   -1.45 KCAL/MOL
REMARK 927      BINDING AFFINITY PREDICTED BY RF-SCORE:    0.00 PKD
ROOT
HETATM    1  C   UNK A   0     -12.484  12.450  64.309  1.00  0.00    -0.529 C  
HETATM    2  C   UNK A   0     -11.371  12.158  65.286  1.00  0.00    -0.386 C  
HETATM    3  C   UNK A   0     -10.774  13.356  65.985  1.00  0.00    -0.283 C  
HETATM    4  C   UNK A   0     -10.468  11.033  64.840  1.00  0.00    -0.371 C  
HETATM    5  C   UNK A   0     -11.612  12.374  66.786  1.00  0.00    -0.444 C  
ENDROOT
BRANCH   5   6
HETATM    6  C   UNK A   0     -10.899  11.602  67.857  1.00  0.00    -0.210 C  
HETATM    7  N   UNK A   1     -11.443  10.388  68.207  1.00  0.00    -0.510 N  
HETATM    8  O   UNK A   0      -9.927  12.089  68.421  1.00  0.00    -0.206 OA 
HETATM    9  H   UNK A   1     -12.271  10.102  67.683  1.00  0.00     0.000 HD 
BRANCH   7  10
HETATM   10  C   UNK A   1     -11.005   9.501  69.189  1.00  0.00    -0.125 C  
HETATM   11  C   UNK A   1     -10.523   8.277  68.855  1.00  0.00    -0.209 C  
HETATM   12  C   UNK A   1     -11.048   9.725  70.688  1.00  0.00    -0.332 C  
HETATM   13  O   UNK A   1     -12.071  10.472  71.146  1.00  0.00    -0.354 OA 
HETATM   14  O   UNK A   1     -10.315   9.124  71.463  1.00  0.00    -0.320 OA 
BRANCH  11  15
HETATM   15  C   UNK A   1     -10.429   7.687  67.480  1.00  0.00    -0.336 C  
BRANCH  15  16
HETATM   16  C   UNK A   1      -9.021   7.605  66.860  1.00  0.00    -0.156 C  
BRANCH  16  17
HETATM   17  C   UNK A   1      -8.118   8.533  67.685  1.00  0.00    -0.107 C  
BRANCH  17  18
HETATM   18  C   UNK A   1      -7.754   9.857  67.023  1.00  0.00    -0.095 C  
BRANCH  18  19
HETATM   19  S   UNK A   1      -6.572  10.689  68.149  1.00  0.00    -0.063 SA 
BRANCH  19  20
HETATM   20  C   UNK A   1      -7.216  10.103  69.752  1.00  0.00    -0.141 C  
BRANCH  20  21
HETATM   21  C   UNK A   1      -6.089   9.496  70.602  1.00  0.00    -0.071 C  
HETATM   22  N   UNK A   1      -5.128   8.683  69.787  1.00  0.00    -0.029 NA 
HETATM   23  C   UNK A   1      -6.736   8.574  71.637  1.00  0.00    -0.079 C  
HETATM   24  O   UNK A   1      -7.295   8.948  72.655  1.00  0.00    -0.342 OA 
HETATM   25  O   UNK A   1      -6.656   7.272  71.255  1.00  0.00    -0.043 OA 
HETATM   26  H1  UNK A   1      -4.379   8.280  70.351  1.00  0.00     0.000 HD 
HETATM   27  H2  UNK A   1      -4.750   9.230  69.013  1.00  0.00     0.000 HD 
ENDBRANCH  20  21
ENDBRANCH  19  20
ENDBRANCH  18  19
ENDBRANCH  17  18
ENDBRANCH  16  17
ENDBRANCH  15  16
ENDBRANCH  11  15
ENDBRANCH   7  10
ENDBRANCH   5   6
TORSDOF 9
ENDMDL
MODEL      212
REMARK 921   NORMALIZED FREE ENERGY PREDICTED BY IDOCK:   -4.07 KCAL/MOL
REMARK 922        TOTAL FREE ENERGY PREDICTED BY IDOCK:   -7.18 KCAL/MOL
REMARK 923 INTER-LIGAND FREE ENERGY PREDICTED BY IDOCK:   -5.93 KCAL/MOL
REMARK 924 INTRA-LIGAND FREE ENERGY PREDICTED BY IDOCK:   -1.26 KCAL/MOL
REMARK 927      BINDING AFFINITY PREDICTED BY RF-SCORE:    0.00 PKD
ROOT
HETATM    1  C   UNK A   0     -12.513  12.592  64.640  1.00  0.00    -0.538 C  
HETATM    2  C   UNK A   0     -11.391  12.284  65.604  1.00  0.00    -0.394 C  
HETATM    3  C   UNK A   0     -10.878  13.449  66.414  1.00  0.00    -0.294 C  
HETATM    4  C   UNK A   0     -10.415  11.261  65.072  1.00  0.00    -0.359 C  
HETATM    5  C   UNK A   0     -11.659  12.349  67.113  1.00  0.00    -0.435 C  
ENDROOT
BRANCH   5   6
HETATM    6  C   UNK A   0     -10.909  11.530  68.122  1.00  0.00    -0.215 C  
HETATM    7  N   UNK A   1     -11.560  10.429  68.629  1.00  0.00    -0.510 N  
HETATM    8  O   UNK A   0      -9.803  11.892  68.505  1.00  0.00    -0.208 OA 
HETATM    9  H   UNK A   1     -12.489  10.246  68.249  1.00  0.00     0.000 HD 
BRANCH   7  10
HETATM   10  C   UNK A   1     -11.107   9.533  69.596  1.00  0.00    -0.171 C  
HETATM   11  C   UNK A   1     -10.532   8.357  69.240  1.00  0.00    -0.223 C  
HETATM   12  C   UNK A   1     -11.231   9.694  71.099  1.00  0.00    -0.384 C  
HETATM   13  O   UNK A   1     -12.320  10.356  71.537  1.00  0.00    -0.376 OA 
HETATM   14  O   UNK A   1     -10.495   9.111  71.884  1.00  0.00    -0.348 OA 
BRANCH  11  15
HETATM   15  C   UNK A   1     -10.340   7.830  67.850  1.00  0.00    -0.276 C  
BRANCH  15  16
HETATM   16  C   UNK A   1      -8.889   7.544  67.416  1.00  0.00    -0.127 C  
BRANCH  16  17
HETATM   17  C   UNK A   1      -8.872   7.567  65.882  1.00  0.00    -0.157 C  
BRANCH  17  18
HETATM   18  C   UNK A   1      -8.018   6.494  65.216  1.00  0.00    -0.119 C  
BRANCH  18  19
HETATM   19  S   UNK A   1      -7.609   7.124  63.545  1.00  0.00    -0.113 SA 
BRANCH  19  20
HETATM   20  C   UNK A   1      -8.264   8.820  63.690  1.00  0.00    -0.163 C  
BRANCH  20  21
HETATM   21  C   UNK A   1      -7.136   9.853  63.540  1.00  0.00    -0.120 C  
HETATM   22  N   UNK A   1      -6.072   9.409  62.582  1.00  0.00    -0.093 NA 
HETATM   23  C   UNK A   1      -6.493  10.037  64.916  1.00  0.00    -0.125 C  
HETATM   24  O   UNK A   1      -6.967  10.693  65.828  1.00  0.00    -0.133 OA 
HETATM   25  O   UNK A   1      -5.338   9.328  65.018  1.00  0.00    -0.044 OA 
HETATM   26  H1  UNK A   1      -5.323  10.094  62.482  1.00  0.00     0.000 HD 
HETATM   27  H2  UNK A   1      -6.473   9.170  61.675  1.00  0.00     0.000 HD 
ENDBRANCH  20  21
ENDBRANCH  19  20
ENDBRANCH  18  19
ENDBRANCH  17  18
ENDBRANCH  16  17
ENDBRANCH  15  16
ENDBRANCH  11  15
ENDBRANCH   7  10
ENDBRANCH   5   6
TORSDOF 9
ENDMDL
MODEL      213
REMARK 921   NORMALIZED FREE ENERGY PREDICTED BY IDOCK:   -4.07 KCAL/MOL
REMARK 922        TOTAL FREE ENERGY PREDICTED BY IDOCK:   -7.18 KCAL/MOL
REMARK 923 INTER-LIGAND FREE ENERGY PREDICTED BY IDOCK:   -6.49 KCAL/MOL
REMARK 924 INTRA-LIGAND FREE ENERGY PREDICTED BY IDOCK:   -0.69 KCAL/MOL
REMARK 927      BINDING AFFINITY PREDICTED BY RF-SCORE:    0.00 PKD
ROOT
HETATM    1  C   UNK A   0     -11.846  14.449  66.292  1.00  0.00    -0.391 C  
HETATM    2  C   UNK A   0     -11.329  13.195  66.957  1.00  0.00    -0.349 C  
HETATM    3  C   UNK A   0     -10.365  13.402  68.099  1.00  0.00    -0.249 C  
HETATM    4  C   UNK A   0     -11.099  12.060  65.988  1.00  0.00    -0.364 C  
HETATM    5  C   UNK A   0     -11.759  12.875  68.395  1.00  0.00    -0.382 C  
ENDROOT
BRANCH   5   6
HETATM    6  C   UNK A   0     -11.847  11.480  68.940  1.00  0.00    -0.341 C  
HETATM    7  N   UNK A   1     -11.369  11.286  70.215  1.00  0.00    -0.491 N  
HETATM    8  O   UNK A   0     -12.263  10.570  68.233  1.00  0.00    -0.203 OA 
HETATM    9  H   UNK A   1     -11.022  12.118  70.694  1.00  0.00     0.000 HD 
BRANCH   7  10
HETATM   10  C   UNK A   1     -11.298  10.094  70.934  1.00  0.00    -0.340 C  
HETATM   11  C   UNK A   1     -10.208   9.290  70.842  1.00  0.00    -0.371 C  
HETATM   12  C   UNK A   1     -12.380   9.515  71.826  1.00  0.00    -0.394 C  
HETATM   13  O   UNK A   1     -13.651   9.775  71.461  1.00  0.00    -0.348 OA 
HETATM   14  O   UNK A   1     -12.136   8.712  72.716  1.00  0.00    -0.298 OA 
BRANCH  11  15
HETATM   15  C   UNK A   1      -9.000   9.501  69.982  1.00  0.00    -0.249 C  
BRANCH  15  16
HETATM   16  C   UNK A   1      -7.974   8.352  69.940  1.00  0.00    -0.107 C  
BRANCH  16  17
HETATM   17  C   UNK A   1      -8.263   7.546  68.666  1.00  0.00    -0.129 C  
BRANCH  17  18
HETATM   18  C   UNK A   1      -9.682   7.007  68.535  1.00  0.00    -0.141 C  
BRANCH  18  19
HETATM   19  S   UNK A   1     -10.086   7.049  66.748  1.00  0.00    -0.173 SA 
BRANCH  19  20
HETATM   20  C   UNK A   1      -8.550   7.794  66.106  1.00  0.00    -0.151 C  
BRANCH  20  21
HETATM   21  C   UNK A   1      -8.862   9.039  65.260  1.00  0.00    -0.193 C  
HETATM   22  N   UNK A   1      -8.770   8.772  63.788  1.00  0.00    -0.429 NA 
HETATM   23  C   UNK A   1      -7.829  10.110  65.617  1.00  0.00    -0.145 C  
HETATM   24  O   UNK A   1      -7.852  10.795  66.626  1.00  0.00    -0.128 OA 
HETATM   25  O   UNK A   1      -6.841  10.171  64.686  1.00  0.00    -0.128 OA 
HETATM   26  H1  UNK A   1      -8.977   9.598  63.227  1.00  0.00     0.000 HD 
HETATM   27  H2  UNK A   1      -9.366   7.989  63.520  1.00  0.00     0.000 HD 
ENDBRANCH  20  21
ENDBRANCH  19  20
ENDBRANCH  18  19
ENDBRANCH  17  18
ENDBRANCH  16  17
ENDBRANCH  15  16
ENDBRANCH  11  15
ENDBRANCH   7  10
ENDBRANCH   5   6
TORSDOF 9
ENDMDL
MODEL      214
REMARK 921   NORMALIZED FREE ENERGY PREDICTED BY IDOCK:   -4.07 KCAL/MOL
REMARK 922        TOTAL FREE ENERGY PREDICTED BY IDOCK:   -7.18 KCAL/MOL
REMARK 923 INTER-LIGAND FREE ENERGY PREDICTED BY IDOCK:   -6.00 KCAL/MOL
REMARK 924 INTRA-LIGAND FREE ENERGY PREDICTED BY IDOCK:   -1.18 KCAL/MOL
REMARK 927      BINDING AFFINITY PREDICTED BY RF-SCORE:    0.00 PKD
ROOT
HETATM    1  C   UNK A   0      -9.976  20.684  66.260  1.00  0.00    -0.027 C  
HETATM    2  C   UNK A   0      -9.764  19.308  66.847  1.00  0.00    -0.406 C  
HETATM    3  C   UNK A   0      -9.850  18.155  65.877  1.00  0.00    -0.042 C  
HETATM    4  C   UNK A   0     -10.345  19.158  68.233  1.00  0.00    -0.448 C  
HETATM    5  C   UNK A   0      -8.502  18.519  66.475  1.00  0.00    -0.291 C  
ENDROOT
BRANCH   5   6
HETATM    6  C   UNK A   0      -7.870  17.498  67.376  1.00  0.00    -0.202 C  
HETATM    7  N   UNK A   1      -8.257  16.191  67.192  1.00  0.00    -0.179 N  
HETATM    8  O   UNK A   0      -7.107  17.854  68.265  1.00  0.00    -0.216 OA 
HETATM    9  H   UNK A   1      -8.920  16.024  66.435  1.00  0.00     0.000 HD 
BRANCH   7  10
HETATM   10  C   UNK A   1      -7.856  15.068  67.913  1.00  0.00    -0.138 C  
HETATM   11  C   UNK A   1      -8.600  14.604  68.948  1.00  0.00    -0.131 C  
HETATM   12  C   UNK A   1      -6.580  14.274  67.706  1.00  0.00    -0.174 C  
HETATM   13  O   UNK A   1      -5.510  14.973  67.281  1.00  0.00    -0.314 OA 
HETATM   14  O   UNK A   1      -6.465  13.111  68.068  1.00  0.00    -0.094 OA 
BRANCH  11  15
HETATM   15  C   UNK A   1      -9.864  15.199  69.491  1.00  0.00    -0.191 C  
BRANCH  15  16
HETATM   16  C   UNK A   1     -11.001  15.442  68.480  1.00  0.00    -0.278 C  
BRANCH  16  17
HETATM   17  C   UNK A   1     -11.708  14.095  68.274  1.00  0.00    -0.383 C  
BRANCH  17  18
HETATM   18  C   UNK A   1     -11.909  13.671  66.825  1.00  0.00    -0.413 C  
BRANCH  18  19
HETATM   19  S   UNK A   1     -10.967  12.115  66.607  1.00  0.00    -0.297 SA 
BRANCH  19  20
HETATM   20  C   UNK A   1     -10.623  11.720  68.354  1.00  0.00    -0.216 C  
BRANCH  20  21
HETATM   21  C   UNK A   1     -11.310  10.407  68.760  1.00  0.00    -0.214 C  
HETATM   22  N   UNK A   1     -12.594  10.634  69.499  1.00  0.00    -0.643 NA 
HETATM   23  C   UNK A   1     -10.354   9.652  69.684  1.00  0.00    -0.227 C  
HETATM   24  O   UNK A   1      -9.376   9.022  69.316  1.00  0.00    -0.147 OA 
HETATM   25  O   UNK A   1     -10.700   9.813  70.989  1.00  0.00    -0.324 OA 
HETATM   26  H1  UNK A   1     -13.051   9.762  69.768  1.00  0.00     0.000 HD 
HETATM   27  H2  UNK A   1     -13.226  11.227  68.961  1.00  0.00     0.000 HD 
ENDBRANCH  20  21
ENDBRANCH  19  20
ENDBRANCH  18  19
ENDBRANCH  17  18
ENDBRANCH  16  17
ENDBRANCH  15  16
ENDBRANCH  11  15
ENDBRANCH   7  10
ENDBRANCH   5   6
TORSDOF 9
ENDMDL
MODEL      215
REMARK 921   NORMALIZED FREE ENERGY PREDICTED BY IDOCK:   -4.07 KCAL/MOL
REMARK 922        TOTAL FREE ENERGY PREDICTED BY IDOCK:   -7.18 KCAL/MOL
REMARK 923 INTER-LIGAND FREE ENERGY PREDICTED BY IDOCK:   -6.26 KCAL/MOL
REMARK 924 INTRA-LIGAND FREE ENERGY PREDICTED BY IDOCK:   -0.92 KCAL/MOL
REMARK 927      BINDING AFFINITY PREDICTED BY RF-SCORE:    0.00 PKD
ROOT
HETATM    1  C   UNK A   0     -11.776  14.736  66.026  1.00  0.00    -0.248 C  
HETATM    2  C   UNK A   0     -10.970  13.499  66.345  1.00  0.00    -0.297 C  
HETATM    3  C   UNK A   0     -11.665  12.458  67.189  1.00  0.00    -0.415 C  
HETATM    4  C   UNK A   0      -9.506  13.787  66.578  1.00  0.00    -0.282 C  
HETATM    5  C   UNK A   0     -11.379  12.155  65.728  1.00  0.00    -0.402 C  
ENDROOT
BRANCH   5   6
HETATM    6  C   UNK A   0     -10.410  11.044  65.450  1.00  0.00    -0.268 C  
HETATM    7  N   UNK A   1      -9.957  10.334  66.538  1.00  0.00    -0.215 N  
HETATM    8  O   UNK A   0     -10.008  10.853  64.309  1.00  0.00    -0.277 OA 
HETATM    9  H   UNK A   1     -10.346  10.606  67.442  1.00  0.00     0.000 HD 
BRANCH   7  10
HETATM   10  C   UNK A   1      -9.033   9.291  66.559  1.00  0.00    -0.149 C  
HETATM   11  C   UNK A   1      -9.380   8.065  67.027  1.00  0.00    -0.197 C  
HETATM   12  C   UNK A   1      -7.576   9.371  66.147  1.00  0.00    -0.096 C  
HETATM   13  O   UNK A   1      -6.964  10.552  66.360  1.00  0.00    -0.108 OA 
HETATM   14  O   UNK A   1      -6.935   8.385  65.810  1.00  0.00    -0.066 OA 
BRANCH  11  15
HETATM   15  C   UNK A   1     -10.702   7.658  67.603  1.00  0.00    -0.246 C  
BRANCH  15  16
HETATM   16  C   UNK A   1     -10.935   6.147  67.795  1.00  0.00    -0.400 C  
BRANCH  16  17
HETATM   17  C   UNK A   1     -11.126   5.915  69.300  1.00  0.00    -0.352 C  
BRANCH  17  18
HETATM   18  C   UNK A   1      -9.951   5.267  70.022  1.00  0.00    -0.245 C  
BRANCH  18  19
HETATM   19  S   UNK A   1     -10.450   5.104  71.777  1.00  0.00    -0.169 SA 
BRANCH  19  20
HETATM   20  C   UNK A   1      -9.101   6.045  72.566  1.00  0.00    -0.135 C  
BRANCH  20  21
HETATM   21  C   UNK A   1      -9.655   7.267  73.315  1.00  0.00    -0.212 C  
HETATM   22  N   UNK A   1     -11.097   7.105  73.692  1.00  0.00    -0.536 NA 
HETATM   23  C   UNK A   1      -9.538   8.473  72.381  1.00  0.00    -0.286 C  
HETATM   24  O   UNK A   1      -8.508   9.085  72.154  1.00  0.00    -0.365 OA 
HETATM   25  O   UNK A   1     -10.728   8.752  71.786  1.00  0.00    -0.290 OA 
HETATM   26  H1  UNK A   1     -11.466   7.916  74.189  1.00  0.00     0.000 HD 
HETATM   27  H2  UNK A   1     -11.242   6.250  74.229  1.00  0.00     0.000 HD 
ENDBRANCH  20  21
ENDBRANCH  19  20
ENDBRANCH  18  19
ENDBRANCH  17  18
ENDBRANCH  16  17
ENDBRANCH  15  16
ENDBRANCH  11  15
ENDBRANCH   7  10
ENDBRANCH   5   6
TORSDOF 9
ENDMDL
MODEL      216
REMARK 921   NORMALIZED FREE ENERGY PREDICTED BY IDOCK:   -4.07 KCAL/MOL
REMARK 922        TOTAL FREE ENERGY PREDICTED BY IDOCK:   -7.18 KCAL/MOL
REMARK 923 INTER-LIGAND FREE ENERGY PREDICTED BY IDOCK:   -6.41 KCAL/MOL
REMARK 924 INTRA-LIGAND FREE ENERGY PREDICTED BY IDOCK:   -0.77 KCAL/MOL
REMARK 927      BINDING AFFINITY PREDICTED BY RF-SCORE:    0.00 PKD
ROOT
HETATM    1  C   UNK A   0     -12.027   7.764  72.442  1.00  0.00    -0.338 C  
HETATM    2  C   UNK A   0     -11.307   8.121  71.163  1.00  0.00    -0.299 C  
HETATM    3  C   UNK A   0     -11.579   9.500  70.614  1.00  0.00    -0.350 C  
HETATM    4  C   UNK A   0     -11.175   6.956  70.211  1.00  0.00    -0.363 C  
HETATM    5  C   UNK A   0     -10.209   9.191  71.193  1.00  0.00    -0.384 C  
ENDROOT
BRANCH   5   6
HETATM    6  C   UNK A   0      -9.054   9.218  70.235  1.00  0.00    -0.237 C  
HETATM    7  N   UNK A   1      -9.366   9.226  68.895  1.00  0.00    -0.149 N  
HETATM    8  O   UNK A   0      -7.906   9.161  70.657  1.00  0.00    -0.115 OA 
HETATM    9  H   UNK A   1     -10.361   9.246  68.668  1.00  0.00     0.000 HD 
BRANCH   7  10
HETATM   10  C   UNK A   1      -8.492   9.211  67.810  1.00  0.00    -0.117 C  
HETATM   11  C   UNK A   1      -8.500  10.215  66.896  1.00  0.00    -0.126 C  
HETATM   12  C   UNK A   1      -7.500   8.115  67.468  1.00  0.00    -0.094 C  
HETATM   13  O   UNK A   1      -7.862   6.862  67.803  1.00  0.00    -0.109 OA 
HETATM   14  O   UNK A   1      -6.513   8.317  66.772  1.00  0.00    -0.054 OA 
BRANCH  11  15
HETATM   15  C   UNK A   1      -9.413  11.402  66.867  1.00  0.00    -0.193 C  
BRANCH  15  16
HETATM   16  C   UNK A   1     -10.926  11.108  66.822  1.00  0.00    -0.309 C  
BRANCH  16  17
HETATM   17  C   UNK A   1     -11.552  12.147  65.882  1.00  0.00    -0.425 C  
BRANCH  17  18
HETATM   18  C   UNK A   1     -10.581  13.142  65.258  1.00  0.00    -0.313 C  
BRANCH  18  19
HETATM   19  S   UNK A   1     -11.353  14.794  65.433  1.00  0.00    -0.352 SA 
BRANCH  19  20
HETATM   20  C   UNK A   1     -11.645  14.806  67.233  1.00  0.00    -0.369 C  
BRANCH  20  21
HETATM   21  C   UNK A   1     -10.389  15.273  67.985  1.00  0.00    -0.244 C  
HETATM   22  N   UNK A   1      -9.954  14.301  69.040  1.00  0.00    -0.395 NA 
HETATM   23  C   UNK A   1     -10.726  16.600  68.667  1.00  0.00    -0.349 C  
HETATM   24  O   UNK A   1     -10.786  17.681  68.104  1.00  0.00    -0.375 OA 
HETATM   25  O   UNK A   1     -11.005  16.419  69.985  1.00  0.00    -0.354 OA 
HETATM   26  H1  UNK A   1      -9.121  14.611  69.539  1.00  0.00     0.000 HD 
HETATM   27  H2  UNK A   1      -9.821  13.369  68.648  1.00  0.00     0.000 HD 
ENDBRANCH  20  21
ENDBRANCH  19  20
ENDBRANCH  18  19
ENDBRANCH  17  18
ENDBRANCH  16  17
ENDBRANCH  15  16
ENDBRANCH  11  15
ENDBRANCH   7  10
ENDBRANCH   5   6
TORSDOF 9
ENDMDL
MODEL      217
REMARK 921   NORMALIZED FREE ENERGY PREDICTED BY IDOCK:   -4.07 KCAL/MOL
REMARK 922        TOTAL FREE ENERGY PREDICTED BY IDOCK:   -7.18 KCAL/MOL
REMARK 923 INTER-LIGAND FREE ENERGY PREDICTED BY IDOCK:   -6.54 KCAL/MOL
REMARK 924 INTRA-LIGAND FREE ENERGY PREDICTED BY IDOCK:   -0.64 KCAL/MOL
REMARK 927      BINDING AFFINITY PREDICTED BY RF-SCORE:    0.00 PKD
ROOT
HETATM    1  C   UNK A   0     -10.427   1.617  72.215  1.00  0.00    -0.208 C  
HETATM    2  C   UNK A   0      -9.871   2.999  72.464  1.00  0.00    -0.219 C  
HETATM    3  C   UNK A   0      -8.558   3.314  71.790  1.00  0.00    -0.103 C  
HETATM    4  C   UNK A   0     -10.123   3.497  73.868  1.00  0.00    -0.188 C  
HETATM    5  C   UNK A   0      -9.822   4.008  71.310  1.00  0.00    -0.242 C  
ENDROOT
BRANCH   5   6
HETATM    6  C   UNK A   0      -9.888   5.494  71.508  1.00  0.00    -0.171 C  
HETATM    7  N   UNK A   1     -11.000   6.133  71.010  1.00  0.00    -0.280 N  
HETATM    8  O   UNK A   0      -8.949   6.086  72.026  1.00  0.00    -0.140 OA 
HETATM    9  H   UNK A   1     -11.702   5.534  70.575  1.00  0.00     0.000 HD 
BRANCH   7  10
HETATM   10  C   UNK A   1     -11.285   7.497  71.025  1.00  0.00    -0.263 C  
HETATM   11  C   UNK A   1     -11.140   8.251  69.906  1.00  0.00    -0.100 C  
HETATM   12  C   UNK A   1     -11.718   8.312  72.229  1.00  0.00    -0.388 C  
HETATM   13  O   UNK A   1     -11.229   7.916  73.420  1.00  0.00    -0.275 OA 
HETATM   14  O   UNK A   1     -12.324   9.370  72.122  1.00  0.00    -0.354 OA 
BRANCH  11  15
HETATM   15  C   UNK A   1     -10.639   7.796  68.569  1.00  0.00    -0.153 C  
BRANCH  15  16
HETATM   16  C   UNK A   1      -9.288   8.375  68.106  1.00  0.00    -0.141 C  
BRANCH  16  17
HETATM   17  C   UNK A   1      -9.534   9.045  66.748  1.00  0.00    -0.238 C  
BRANCH  17  18
HETATM   18  C   UNK A   1     -10.510  10.215  66.757  1.00  0.00    -0.204 C  
BRANCH  18  19
HETATM   19  S   UNK A   1     -10.402  10.991  65.101  1.00  0.00    -0.269 SA 
BRANCH  19  20
HETATM   20  C   UNK A   1     -10.696  12.731  65.560  1.00  0.00    -0.278 C  
BRANCH  20  21
HETATM   21  C   UNK A   1     -12.144  13.139  65.245  1.00  0.00    -0.429 C  
HETATM   22  N   UNK A   1     -12.918  12.044  64.575  1.00  0.00    -0.538 NA 
HETATM   23  C   UNK A   1     -12.089  14.336  64.293  1.00  0.00    -0.441 C  
HETATM   24  O   UNK A   1     -11.843  15.484  64.625  1.00  0.00    -0.297 OA 
HETATM   25  O   UNK A   1     -12.301  13.952  63.007  1.00  0.00    -0.618 OA 
HETATM   26  H1  UNK A   1     -13.879  12.314  64.366  1.00  0.00     0.000 HD 
HETATM   27  H2  UNK A   1     -12.891  11.186  65.127  1.00  0.00     0.000 HD 
ENDBRANCH  20  21
ENDBRANCH  19  20
ENDBRANCH  18  19
ENDBRANCH  17  18
ENDBRANCH  16  17
ENDBRANCH  15  16
ENDBRANCH  11  15
ENDBRANCH   7  10
ENDBRANCH   5   6
TORSDOF 9
ENDMDL
MODEL      218
REMARK 921   NORMALIZED FREE ENERGY PREDICTED BY IDOCK:   -4.06 KCAL/MOL
REMARK 922        TOTAL FREE ENERGY PREDICTED BY IDOCK:   -7.17 KCAL/MOL
REMARK 923 INTER-LIGAND FREE ENERGY PREDICTED BY IDOCK:   -5.36 KCAL/MOL
REMARK 924 INTRA-LIGAND FREE ENERGY PREDICTED BY IDOCK:   -1.80 KCAL/MOL
REMARK 927      BINDING AFFINITY PREDICTED BY RF-SCORE:    0.00 PKD
ROOT
HETATM    1  C   UNK A   0      -9.010  11.487  67.512  1.00  0.00    -0.159 C  
HETATM    2  C   UNK A   0      -9.939  10.300  67.416  1.00  0.00    -0.230 C  
HETATM    3  C   UNK A   0     -10.141   9.729  66.033  1.00  0.00    -0.322 C  
HETATM    4  C   UNK A   0     -11.114  10.386  68.361  1.00  0.00    -0.322 C  
HETATM    5  C   UNK A   0      -9.364   8.923  67.061  1.00  0.00    -0.194 C  
ENDROOT
BRANCH   5   6
HETATM    6  C   UNK A   0      -9.982   7.629  67.505  1.00  0.00    -0.178 C  
HETATM    7  N   UNK A   1      -9.469   7.062  68.648  1.00  0.00    -0.136 N  
HETATM    8  O   UNK A   0     -10.847   7.097  66.821  1.00  0.00    -0.320 OA 
HETATM    9  H   UNK A   1      -8.730   7.589  69.115  1.00  0.00     0.000 HD 
BRANCH   7  10
HETATM   10  C   UNK A   1      -9.833   5.858  69.247  1.00  0.00    -0.160 C  
HETATM   11  C   UNK A   1     -10.954   5.769  70.006  1.00  0.00    -0.382 C  
HETATM   12  C   UNK A   1      -9.054   4.557  69.199  1.00  0.00    -0.121 C  
HETATM   13  O   UNK A   1      -7.713   4.671  69.137  1.00  0.00    -0.066 OA 
HETATM   14  O   UNK A   1      -9.582   3.469  69.384  1.00  0.00    -0.181 OA 
BRANCH  11  15
HETATM   15  C   UNK A   1     -11.903   6.878  70.349  1.00  0.00    -0.351 C  
BRANCH  15  16
HETATM   16  C   UNK A   1     -12.498   6.861  71.770  1.00  0.00    -0.397 C  
BRANCH  16  17
HETATM   17  C   UNK A   1     -11.959   8.103  72.492  1.00  0.00    -0.410 C  
BRANCH  17  18
HETATM   18  C   UNK A   1     -10.449   8.146  72.691  1.00  0.00    -0.330 C  
BRANCH  18  19
HETATM   19  S   UNK A   1     -10.019   6.674  73.695  1.00  0.00    -0.280 SA 
BRANCH  19  20
HETATM   20  C   UNK A   1      -8.432   6.228  72.917  1.00  0.00    -0.118 C  
BRANCH  20  21
HETATM   21  C   UNK A   1      -7.822   7.438  72.191  1.00  0.00    -0.089 C  
HETATM   22  N   UNK A   1      -7.043   7.046  70.972  1.00  0.00    -0.069 NA 
HETATM   23  C   UNK A   1      -6.868   8.128  73.167  1.00  0.00    -0.108 C  
HETATM   24  O   UNK A   1      -7.210   8.856  74.084  1.00  0.00    -0.396 OA 
HETATM   25  O   UNK A   1      -5.576   7.787  72.917  1.00  0.00    -0.043 OA 
HETATM   26  H1  UNK A   1      -6.638   7.848  70.490  1.00  0.00     0.000 HD 
HETATM   27  H2  UNK A   1      -7.613   6.486  70.337  1.00  0.00     0.000 HD 
ENDBRANCH  20  21
ENDBRANCH  19  20
ENDBRANCH  18  19
ENDBRANCH  17  18
ENDBRANCH  16  17
ENDBRANCH  15  16
ENDBRANCH  11  15
ENDBRANCH   7  10
ENDBRANCH   5   6
TORSDOF 9
ENDMDL
MODEL      219
REMARK 921   NORMALIZED FREE ENERGY PREDICTED BY IDOCK:   -4.05 KCAL/MOL
REMARK 922        TOTAL FREE ENERGY PREDICTED BY IDOCK:   -7.15 KCAL/MOL
REMARK 923 INTER-LIGAND FREE ENERGY PREDICTED BY IDOCK:   -6.37 KCAL/MOL
REMARK 924 INTRA-LIGAND FREE ENERGY PREDICTED BY IDOCK:   -0.78 KCAL/MOL
REMARK 927      BINDING AFFINITY PREDICTED BY RF-SCORE:    0.00 PKD
ROOT
HETATM    1  C   UNK A   0      -7.244  10.128  68.450  1.00  0.00    -0.076 C  
HETATM    2  C   UNK A   0      -8.524   9.344  68.287  1.00  0.00    -0.120 C  
HETATM    3  C   UNK A   0      -8.365   7.861  68.054  1.00  0.00    -0.123 C  
HETATM    4  C   UNK A   0      -9.595  10.102  67.540  1.00  0.00    -0.180 C  
HETATM    5  C   UNK A   0      -8.937   8.345  69.376  1.00  0.00    -0.153 C  
ENDROOT
BRANCH   5   6
HETATM    6  C   UNK A   0     -10.363   7.979  69.665  1.00  0.00    -0.220 C  
HETATM    7  N   UNK A   1     -10.975   8.653  70.697  1.00  0.00    -0.235 N  
HETATM    8  O   UNK A   0     -10.901   7.072  69.043  1.00  0.00    -0.222 OA 
HETATM    9  H   UNK A   1     -10.414   9.369  71.158  1.00  0.00     0.000 HD 
BRANCH   7  10
HETATM   10  C   UNK A   1     -12.267   8.478  71.189  1.00  0.00    -0.232 C  
HETATM   11  C   UNK A   1     -13.076   9.544  71.415  1.00  0.00    -0.449 C  
HETATM   12  C   UNK A   1     -12.910   7.161  71.582  1.00  0.00    -0.379 C  
HETATM   13  O   UNK A   1     -12.082   6.221  72.077  1.00  0.00    -0.337 OA 
HETATM   14  O   UNK A   1     -14.124   7.011  71.622  1.00  0.00    -0.359 OA 
BRANCH  11  15
HETATM   15  C   UNK A   1     -12.733  10.992  71.233  1.00  0.00    -0.537 C  
BRANCH  15  16
HETATM   16  C   UNK A   1     -13.407  11.986  72.199  1.00  0.00    -0.396 C  
BRANCH  16  17
HETATM   17  C   UNK A   1     -13.370  13.361  71.519  1.00  0.00    -0.345 C  
BRANCH  17  18
HETATM   18  C   UNK A   1     -12.150  13.631  70.646  1.00  0.00    -0.323 C  
BRANCH  18  19
HETATM   19  S   UNK A   1     -11.531  15.288  71.124  1.00  0.00    -0.377 SA 
BRANCH  19  20
HETATM   20  C   UNK A   1     -10.309  15.551  69.796  1.00  0.00    -0.309 C  
BRANCH  20  21
HETATM   21  C   UNK A   1     -10.966  16.215  68.576  1.00  0.00    -0.338 C  
HETATM   22  N   UNK A   1     -12.429  16.472  68.780  1.00  0.00     0.276 NA 
HETATM   23  C   UNK A   1     -10.809  15.262  67.391  1.00  0.00    -0.304 C  
HETATM   24  O   UNK A   1      -9.784  15.107  66.748  1.00  0.00    -0.227 OA 
HETATM   25  O   UNK A   1     -11.951  14.559  67.168  1.00  0.00    -0.406 OA 
HETATM   26  H1  UNK A   1     -12.866  16.913  67.970  1.00  0.00     0.000 HD 
HETATM   27  H2  UNK A   1     -12.591  17.018  69.626  1.00  0.00     0.000 HD 
ENDBRANCH  20  21
ENDBRANCH  19  20
ENDBRANCH  18  19
ENDBRANCH  17  18
ENDBRANCH  16  17
ENDBRANCH  15  16
ENDBRANCH  11  15
ENDBRANCH   7  10
ENDBRANCH   5   6
TORSDOF 9
ENDMDL
MODEL      220
REMARK 921   NORMALIZED FREE ENERGY PREDICTED BY IDOCK:   -4.05 KCAL/MOL
REMARK 922        TOTAL FREE ENERGY PREDICTED BY IDOCK:   -7.14 KCAL/MOL
REMARK 923 INTER-LIGAND FREE ENERGY PREDICTED BY IDOCK:   -5.87 KCAL/MOL
REMARK 924 INTRA-LIGAND FREE ENERGY PREDICTED BY IDOCK:   -1.28 KCAL/MOL
REMARK 927      BINDING AFFINITY PREDICTED BY RF-SCORE:    0.00 PKD
ROOT
HETATM    1  C   UNK A   0     -14.023   8.077  71.857  1.00  0.00    -0.445 C  
HETATM    2  C   UNK A   0     -12.972   9.149  71.684  1.00  0.00    -0.431 C  
HETATM    3  C   UNK A   0     -11.575   8.781  72.123  1.00  0.00    -0.434 C  
HETATM    4  C   UNK A   0     -13.492  10.541  71.954  1.00  0.00    -0.358 C  
HETATM    5  C   UNK A   0     -11.864   8.953  70.641  1.00  0.00    -0.159 C  
ENDROOT
BRANCH   5   6
HETATM    6  C   UNK A   0     -11.169  10.090  69.950  1.00  0.00    -0.275 C  
HETATM    7  N   UNK A   1     -11.702  10.498  68.749  1.00  0.00    -0.512 N  
HETATM    8  O   UNK A   0     -10.142  10.559  70.423  1.00  0.00     0.135 OA 
HETATM    9  H   UNK A   1     -12.546  10.011  68.446  1.00  0.00     0.000 HD 
BRANCH   7  10
HETATM   10  C   UNK A   1     -11.231  11.494  67.895  1.00  0.00    -0.279 C  
HETATM   11  C   UNK A   1     -10.162  11.271  67.090  1.00  0.00    -0.235 C  
HETATM   12  C   UNK A   1     -11.766  12.909  67.781  1.00  0.00    -0.362 C  
HETATM   13  O   UNK A   1     -12.261  13.448  68.912  1.00  0.00    -0.294 OA 
HETATM   14  O   UNK A   1     -11.601  13.594  66.781  1.00  0.00    -0.330 OA 
BRANCH  11  15
HETATM   15  C   UNK A   1      -9.331  10.026  67.015  1.00  0.00    -0.180 C  
BRANCH  15  16
HETATM   16  C   UNK A   1      -9.895   8.871  66.166  1.00  0.00    -0.326 C  
BRANCH  16  17
HETATM   17  C   UNK A   1     -10.192   7.715  67.131  1.00  0.00    -0.360 C  
BRANCH  17  18
HETATM   18  C   UNK A   1      -9.189   6.567  67.112  1.00  0.00    -0.128 C  
BRANCH  18  19
HETATM   19  S   UNK A   1      -9.015   6.006  68.848  1.00  0.00    -0.122 SA 
BRANCH  19  20
HETATM   20  C   UNK A   1      -8.417   7.551  69.609  1.00  0.00    -0.135 C  
BRANCH  20  21
HETATM   21  C   UNK A   1      -7.174   7.285  70.474  1.00  0.00    -0.066 C  
HETATM   22  N   UNK A   1      -6.838   5.827  70.565  1.00  0.00    -0.054 NA 
HETATM   23  C   UNK A   1      -7.475   7.796  71.884  1.00  0.00    -0.074 C  
HETATM   24  O   UNK A   1      -7.456   8.967  72.223  1.00  0.00    -0.340 OA 
HETATM   25  O   UNK A   1      -7.823   6.776  72.713  1.00  0.00    -0.098 OA 
HETATM   26  H1  UNK A   1      -6.013   5.650  71.139  1.00  0.00     0.000 HD 
HETATM   27  H2  UNK A   1      -6.733   5.416  69.638  1.00  0.00     0.000 HD 
ENDBRANCH  20  21
ENDBRANCH  19  20
ENDBRANCH  18  19
ENDBRANCH  17  18
ENDBRANCH  16  17
ENDBRANCH  15  16
ENDBRANCH  11  15
ENDBRANCH   7  10
ENDBRANCH   5   6
TORSDOF 9
ENDMDL
MODEL      221
REMARK 921   NORMALIZED FREE ENERGY PREDICTED BY IDOCK:   -4.04 KCAL/MOL
REMARK 922        TOTAL FREE ENERGY PREDICTED BY IDOCK:   -7.13 KCAL/MOL
REMARK 923 INTER-LIGAND FREE ENERGY PREDICTED BY IDOCK:   -6.32 KCAL/MOL
REMARK 924 INTRA-LIGAND FREE ENERGY PREDICTED BY IDOCK:   -0.81 KCAL/MOL
REMARK 927      BINDING AFFINITY PREDICTED BY RF-SCORE:    0.00 PKD
ROOT
HETATM    1  C   UNK A   0     -10.962  15.355  71.399  1.00  0.00    -0.200 C  
HETATM    2  C   UNK A   0     -11.357  15.245  69.945  1.00  0.00    -0.308 C  
HETATM    3  C   UNK A   0     -11.451  16.547  69.186  1.00  0.00    -0.084 C  
HETATM    4  C   UNK A   0     -12.373  14.159  69.685  1.00  0.00    -0.304 C  
HETATM    5  C   UNK A   0     -10.325  15.580  68.860  1.00  0.00    -0.221 C  
ENDROOT
BRANCH   5   6
HETATM    6  C   UNK A   0     -10.341  14.971  67.488  1.00  0.00    -0.241 C  
HETATM    7  N   UNK A   1     -11.571  14.610  66.989  1.00  0.00    -0.373 N  
HETATM    8  O   UNK A   0      -9.288  14.753  66.902  1.00  0.00    -0.217 OA 
HETATM    9  H   UNK A   1     -12.373  14.819  67.584  1.00  0.00     0.000 HD 
BRANCH   7  10
HETATM   10  C   UNK A   1     -11.857  13.996  65.771  1.00  0.00    -0.383 C  
HETATM   11  C   UNK A   1     -11.830  12.644  65.651  1.00  0.00    -0.488 C  
HETATM   12  C   UNK A   1     -12.163  14.695  64.460  1.00  0.00    -0.456 C  
HETATM   13  O   UNK A   1     -11.552  15.879  64.263  1.00  0.00    -0.403 OA 
HETATM   14  O   UNK A   1     -12.780  14.149  63.554  1.00  0.00    -0.794 OA 
BRANCH  11  15
HETATM   15  C   UNK A   1     -11.470  11.650  66.712  1.00  0.00    -0.299 C  
BRANCH  15  16
HETATM   16  C   UNK A   1      -9.987  11.239  66.797  1.00  0.00    -0.238 C  
BRANCH  16  17
HETATM   17  C   UNK A   1      -9.588  11.319  68.277  1.00  0.00    -0.193 C  
BRANCH  17  18
HETATM   18  C   UNK A   1      -8.169  11.800  68.552  1.00  0.00    -0.134 C  
BRANCH  18  19
HETATM   19  S   UNK A   1      -7.305  11.808  66.936  1.00  0.00    -0.058 SA 
BRANCH  19  20
HETATM   20  C   UNK A   1      -6.678  10.096  66.917  1.00  0.00    -0.079 C  
BRANCH  20  21
HETATM   21  C   UNK A   1      -6.431   9.623  65.476  1.00  0.00    -0.078 C  
HETATM   22  N   UNK A   1      -6.022  10.741  64.566  1.00  0.00    -0.375 NA 
HETATM   23  C   UNK A   1      -7.743   9.036  64.952  1.00  0.00    -0.111 C  
HETATM   24  O   UNK A   1      -8.178   7.932  65.235  1.00  0.00    -0.135 OA 
HETATM   25  O   UNK A   1      -8.400   9.925  64.162  1.00  0.00    -0.145 OA 
HETATM   26  H1  UNK A   1      -5.858  10.427  63.609  1.00  0.00     0.000 HD 
HETATM   27  H2  UNK A   1      -5.208  11.234  64.934  1.00  0.00     0.000 HD 
ENDBRANCH  20  21
ENDBRANCH  19  20
ENDBRANCH  18  19
ENDBRANCH  17  18
ENDBRANCH  16  17
ENDBRANCH  15  16
ENDBRANCH  11  15
ENDBRANCH   7  10
ENDBRANCH   5   6
TORSDOF 9
ENDMDL
MODEL      222
REMARK 921   NORMALIZED FREE ENERGY PREDICTED BY IDOCK:   -4.03 KCAL/MOL
REMARK 922        TOTAL FREE ENERGY PREDICTED BY IDOCK:   -7.12 KCAL/MOL
REMARK 923 INTER-LIGAND FREE ENERGY PREDICTED BY IDOCK:   -5.80 KCAL/MOL
REMARK 924 INTRA-LIGAND FREE ENERGY PREDICTED BY IDOCK:   -1.32 KCAL/MOL
REMARK 927      BINDING AFFINITY PREDICTED BY RF-SCORE:    0.00 PKD
ROOT
HETATM    1  C   UNK A   0      -8.678   9.863  69.798  1.00  0.00    -0.229 C  
HETATM    2  C   UNK A   0      -9.077  10.193  68.380  1.00  0.00    -0.133 C  
HETATM    3  C   UNK A   0     -10.496   9.850  67.995  1.00  0.00    -0.266 C  
HETATM    4  C   UNK A   0      -7.964   9.973  67.383  1.00  0.00    -0.106 C  
HETATM    5  C   UNK A   0     -10.098  11.310  68.127  1.00  0.00    -0.195 C  
ENDROOT
BRANCH   5   6
HETATM    6  C   UNK A   0     -10.132  12.131  66.871  1.00  0.00    -0.206 C  
HETATM    7  N   UNK A   1     -11.021  11.734  65.899  1.00  0.00    -0.302 N  
HETATM    8  O   UNK A   0      -9.343  13.056  66.722  1.00  0.00    -0.234 OA 
HETATM    9  H   UNK A   1     -11.606  10.930  66.131  1.00  0.00     0.000 HD 
BRANCH   7  10
HETATM   10  C   UNK A   1     -11.222  12.292  64.638  1.00  0.00    -0.315 C  
HETATM   11  C   UNK A   1     -10.620  11.766  63.541  1.00  0.00    -0.499 C  
HETATM   12  C   UNK A   1     -12.041  13.529  64.322  1.00  0.00    -0.431 C  
HETATM   13  O   UNK A   1     -12.066  14.482  65.273  1.00  0.00    -0.372 OA 
HETATM   14  O   UNK A   1     -12.505  13.741  63.209  1.00  0.00    -0.819 OA 
BRANCH  11  15
HETATM   15  C   UNK A   1      -9.669  10.609  63.500  1.00  0.00    -0.389 C  
BRANCH  15  16
HETATM   16  C   UNK A   1      -8.188  10.925  63.784  1.00  0.00     0.207 C  
BRANCH  16  17
HETATM   17  C   UNK A   1      -7.424   9.597  63.684  1.00  0.00    -0.121 C  
BRANCH  17  18
HETATM   18  C   UNK A   1      -8.287   8.349  63.545  1.00  0.00    -0.051 C  
BRANCH  18  19
HETATM   19  S   UNK A   1      -7.205   6.926  63.943  1.00  0.00    -0.072 SA 
BRANCH  19  20
HETATM   20  C   UNK A   1      -8.258   6.074  65.163  1.00  0.00    -0.142 C  
BRANCH  20  21
HETATM   21  C   UNK A   1      -8.684   4.692  64.643  1.00  0.00    -0.151 C  
HETATM   22  N   UNK A   1      -9.184   4.737  63.230  1.00  0.00    -0.331 NA 
HETATM   23  C   UNK A   1      -9.821   4.192  65.536  1.00  0.00    -0.207 C  
HETATM   24  O   UNK A   1      -9.679   3.723  66.653  1.00  0.00    -0.203 OA 
HETATM   25  O   UNK A   1     -11.031   4.385  64.947  1.00  0.00    -0.230 OA 
HETATM   26  H1  UNK A   1      -9.467   3.820  62.885  1.00  0.00     0.000 HD 
HETATM   27  H2  UNK A   1      -8.495   5.166  62.612  1.00  0.00     0.000 HD 
ENDBRANCH  20  21
ENDBRANCH  19  20
ENDBRANCH  18  19
ENDBRANCH  17  18
ENDBRANCH  16  17
ENDBRANCH  15  16
ENDBRANCH  11  15
ENDBRANCH   7  10
ENDBRANCH   5   6
TORSDOF 9
ENDMDL
MODEL      223
REMARK 921   NORMALIZED FREE ENERGY PREDICTED BY IDOCK:   -4.03 KCAL/MOL
REMARK 922        TOTAL FREE ENERGY PREDICTED BY IDOCK:   -7.11 KCAL/MOL
REMARK 923 INTER-LIGAND FREE ENERGY PREDICTED BY IDOCK:   -6.42 KCAL/MOL
REMARK 924 INTRA-LIGAND FREE ENERGY PREDICTED BY IDOCK:   -0.70 KCAL/MOL
REMARK 927      BINDING AFFINITY PREDICTED BY RF-SCORE:    0.00 PKD
ROOT
HETATM    1  C   UNK A   0     -10.510  19.309  66.363  1.00  0.00    -0.563 C  
HETATM    2  C   UNK A   0     -10.069  18.008  66.991  1.00  0.00    -0.348 C  
HETATM    3  C   UNK A   0      -8.899  18.096  67.941  1.00  0.00    -0.273 C  
HETATM    4  C   UNK A   0     -10.178  16.828  66.054  1.00  0.00    -0.361 C  
HETATM    5  C   UNK A   0     -10.281  17.790  68.495  1.00  0.00    -0.382 C  
ENDROOT
BRANCH   5   6
HETATM    6  C   UNK A   0     -10.470  16.437  69.116  1.00  0.00    -0.303 C  
HETATM    7  N   UNK A   1     -11.738  15.907  69.062  1.00  0.00    -0.390 N  
HETATM    8  O   UNK A   0      -9.539  15.894  69.697  1.00  0.00    -0.259 OA 
HETATM    9  H   UNK A   1     -12.437  16.468  68.573  1.00  0.00     0.000 HD 
BRANCH   7  10
HETATM   10  C   UNK A   1     -12.187  14.698  69.591  1.00  0.00    -0.283 C  
HETATM   11  C   UNK A   1     -11.969  13.529  68.937  1.00  0.00    -0.378 C  
HETATM   12  C   UNK A   1     -12.988  14.517  70.867  1.00  0.00    -0.361 C  
HETATM   13  O   UNK A   1     -13.832  15.517  71.184  1.00  0.00    -0.549 OA 
HETATM   14  O   UNK A   1     -13.010  13.459  71.482  1.00  0.00    -0.350 OA 
BRANCH  11  15
HETATM   15  C   UNK A   1     -11.302  13.348  67.608  1.00  0.00    -0.321 C  
BRANCH  15  16
HETATM   16  C   UNK A   1     -10.661  11.973  67.340  1.00  0.00    -0.253 C  
BRANCH  16  17
HETATM   17  C   UNK A   1     -11.457  10.946  68.156  1.00  0.00    -0.368 C  
BRANCH  17  18
HETATM   18  C   UNK A   1     -11.126   9.484  67.879  1.00  0.00     0.011 C  
BRANCH  18  19
HETATM   19  S   UNK A   1      -9.840   9.007  69.094  1.00  0.00    -0.181 SA 
BRANCH  19  20
HETATM   20  C   UNK A   1      -8.646   8.203  67.975  1.00  0.00    -0.129 C  
BRANCH  20  21
HETATM   21  C   UNK A   1      -8.156   6.872  68.568  1.00  0.00    -0.120 C  
HETATM   22  N   UNK A   1      -7.753   6.997  70.006  1.00  0.00    -0.102 NA 
HETATM   23  C   UNK A   1      -6.931   6.432  67.764  1.00  0.00    -0.075 C  
HETATM   24  O   UNK A   1      -6.967   5.920  66.657  1.00  0.00    -0.061 OA 
HETATM   25  O   UNK A   1      -5.779   6.731  68.420  1.00  0.00    -0.016 OA 
HETATM   26  H1  UNK A   1      -7.428   6.114  70.400  1.00  0.00     0.000 HD 
HETATM   27  H2  UNK A   1      -8.509   7.391  70.566  1.00  0.00     0.000 HD 
ENDBRANCH  20  21
ENDBRANCH  19  20
ENDBRANCH  18  19
ENDBRANCH  17  18
ENDBRANCH  16  17
ENDBRANCH  15  16
ENDBRANCH  11  15
ENDBRANCH   7  10
ENDBRANCH   5   6
TORSDOF 9
ENDMDL
MODEL      224
REMARK 921   NORMALIZED FREE ENERGY PREDICTED BY IDOCK:   -4.02 KCAL/MOL
REMARK 922        TOTAL FREE ENERGY PREDICTED BY IDOCK:   -7.11 KCAL/MOL
REMARK 923 INTER-LIGAND FREE ENERGY PREDICTED BY IDOCK:   -6.70 KCAL/MOL
REMARK 924 INTRA-LIGAND FREE ENERGY PREDICTED BY IDOCK:   -0.40 KCAL/MOL
REMARK 927      BINDING AFFINITY PREDICTED BY RF-SCORE:    0.00 PKD
ROOT
HETATM    1  C   UNK A   0     -10.632  15.556  66.386  1.00  0.00    -0.312 C  
HETATM    2  C   UNK A   0     -10.964  14.088  66.515  1.00  0.00    -0.306 C  
HETATM    3  C   UNK A   0      -9.790  13.140  66.491  1.00  0.00    -0.265 C  
HETATM    4  C   UNK A   0     -12.243  13.703  65.808  1.00  0.00    -0.503 C  
HETATM    5  C   UNK A   0     -10.557  13.334  67.787  1.00  0.00    -0.249 C  
ENDROOT
BRANCH   5   6
HETATM    6  C   UNK A   0     -11.298  12.139  68.313  1.00  0.00    -0.289 C  
HETATM    7  N   UNK A   1     -10.865  11.626  69.514  1.00  0.00    -0.454 N  
HETATM    8  O   UNK A   0     -12.190  11.629  67.647  1.00  0.00    -0.544 OA 
HETATM    9  H   UNK A   1     -10.095  12.124  69.961  1.00  0.00     0.000 HD 
BRANCH   7  10
HETATM   10  C   UNK A   1     -11.349  10.511  70.195  1.00  0.00    -0.323 C  
HETATM   11  C   UNK A   1     -11.029   9.256  69.791  1.00  0.00    -0.213 C  
HETATM   12  C   UNK A   1     -12.295  10.521  71.382  1.00  0.00    -0.372 C  
HETATM   13  O   UNK A   1     -13.193  11.524  71.415  1.00  0.00    -0.314 OA 
HETATM   14  O   UNK A   1     -12.369   9.587  72.169  1.00  0.00    -0.340 OA 
BRANCH  11  15
HETATM   15  C   UNK A   1     -10.201   8.874  68.602  1.00  0.00    -0.221 C  
BRANCH  15  16
HETATM   16  C   UNK A   1     -10.436   7.465  68.022  1.00  0.00    -0.253 C  
BRANCH  16  17
HETATM   17  C   UNK A   1      -9.547   6.503  68.821  1.00  0.00    -0.126 C  
BRANCH  17  18
HETATM   18  C   UNK A   1      -8.138   7.001  69.120  1.00  0.00    -0.121 C  
BRANCH  18  19
HETATM   19  S   UNK A   1      -7.798   6.568  70.867  1.00  0.00    -0.107 SA 
BRANCH  19  20
HETATM   20  C   UNK A   1      -9.336   5.672  71.265  1.00  0.00    -0.147 C  
BRANCH  20  21
HETATM   21  C   UNK A   1     -10.062   6.336  72.445  1.00  0.00    -0.177 C  
HETATM   22  N   UNK A   1      -9.497   5.928  73.772  1.00  0.00    -0.138 NA 
HETATM   23  C   UNK A   1     -11.526   5.895  72.393  1.00  0.00    -0.306 C  
HETATM   24  O   UNK A   1     -12.366   6.343  71.630  1.00  0.00    -0.312 OA 
HETATM   25  O   UNK A   1     -11.770   4.893  73.278  1.00  0.00    -0.312 OA 
HETATM   26  H1  UNK A   1      -9.979   6.369  74.555  1.00  0.00     0.000 HD 
HETATM   27  H2  UNK A   1      -8.493   6.106  73.813  1.00  0.00     0.000 HD 
ENDBRANCH  20  21
ENDBRANCH  19  20
ENDBRANCH  18  19
ENDBRANCH  17  18
ENDBRANCH  16  17
ENDBRANCH  15  16
ENDBRANCH  11  15
ENDBRANCH   7  10
ENDBRANCH   5   6
TORSDOF 9
ENDMDL
MODEL      225
REMARK 921   NORMALIZED FREE ENERGY PREDICTED BY IDOCK:   -4.02 KCAL/MOL
REMARK 922        TOTAL FREE ENERGY PREDICTED BY IDOCK:   -7.10 KCAL/MOL
REMARK 923 INTER-LIGAND FREE ENERGY PREDICTED BY IDOCK:   -6.29 KCAL/MOL
REMARK 924 INTRA-LIGAND FREE ENERGY PREDICTED BY IDOCK:   -0.81 KCAL/MOL
REMARK 927      BINDING AFFINITY PREDICTED BY RF-SCORE:    0.00 PKD
ROOT
HETATM    1  C   UNK A   0      -6.318   7.653  66.952  1.00  0.00    -0.053 C  
HETATM    2  C   UNK A   0      -7.349   8.532  66.285  1.00  0.00    -0.079 C  
HETATM    3  C   UNK A   0      -8.622   7.845  65.852  1.00  0.00    -0.171 C  
HETATM    4  C   UNK A   0      -6.742   9.595  65.401  1.00  0.00    -0.090 C  
HETATM    5  C   UNK A   0      -8.668   8.826  67.012  1.00  0.00    -0.131 C  
ENDROOT
BRANCH   5   6
HETATM    6  C   UNK A   0      -9.467  10.078  66.799  1.00  0.00    -0.168 C  
HETATM    7  N   UNK A   1      -9.459  10.996  67.825  1.00  0.00    -0.160 N  
HETATM    8  O   UNK A   0     -10.139  10.212  65.784  1.00  0.00    -0.264 OA 
HETATM    9  H   UNK A   1      -8.881  10.758  68.632  1.00  0.00     0.000 HD 
BRANCH   7  10
HETATM   10  C   UNK A   1     -10.141  12.209  67.897  1.00  0.00    -0.197 C  
HETATM   11  C   UNK A   1      -9.474  13.370  68.118  1.00  0.00    -0.218 C  
HETATM   12  C   UNK A   1     -11.643  12.403  67.806  1.00  0.00    -0.352 C  
HETATM   13  O   UNK A   1     -12.401  11.402  68.293  1.00  0.00    -0.506 OA 
HETATM   14  O   UNK A   1     -12.147  13.470  67.481  1.00  0.00    -0.357 OA 
BRANCH  11  15
HETATM   15  C   UNK A   1      -8.004  13.536  68.354  1.00  0.00    -0.142 C  
BRANCH  15  16
HETATM   16  C   UNK A   1      -7.290  14.618  67.520  1.00  0.00    -0.220 C  
BRANCH  16  17
HETATM   17  C   UNK A   1      -7.854  15.971  67.974  1.00  0.00    -0.142 C  
BRANCH  17  18
HETATM   18  C   UNK A   1      -7.132  17.200  67.436  1.00  0.00    -0.155 C  
BRANCH  18  19
HETATM   19  S   UNK A   1      -7.571  18.586  68.551  1.00  0.00    -0.311 SA 
BRANCH  19  20
HETATM   20  C   UNK A   1      -8.369  19.703  67.350  1.00  0.00    -0.300 C  
BRANCH  20  21
HETATM   21  C   UNK A   1      -9.888  19.747  67.575  1.00  0.00    -0.389 C  
HETATM   22  N   UNK A   1     -10.267  19.479  69.001  1.00  0.00    -0.604 NA 
HETATM   23  C   UNK A   1     -10.517  18.660  66.702  1.00  0.00    -0.413 C  
HETATM   24  O   UNK A   1     -10.697  18.747  65.498  1.00  0.00    -0.569 OA 
HETATM   25  O   UNK A   1     -10.807  17.550  67.430  1.00  0.00    -0.296 OA 
HETATM   26  H1  UNK A   1     -11.275  19.508  69.151  1.00  0.00     0.000 HD 
HETATM   27  H2  UNK A   1      -9.784  20.116  69.634  1.00  0.00     0.000 HD 
ENDBRANCH  20  21
ENDBRANCH  19  20
ENDBRANCH  18  19
ENDBRANCH  17  18
ENDBRANCH  16  17
ENDBRANCH  15  16
ENDBRANCH  11  15
ENDBRANCH   7  10
ENDBRANCH   5   6
TORSDOF 9
ENDMDL
MODEL      226
REMARK 921   NORMALIZED FREE ENERGY PREDICTED BY IDOCK:   -4.01 KCAL/MOL
REMARK 922        TOTAL FREE ENERGY PREDICTED BY IDOCK:   -7.09 KCAL/MOL
REMARK 923 INTER-LIGAND FREE ENERGY PREDICTED BY IDOCK:   -6.06 KCAL/MOL
REMARK 924 INTRA-LIGAND FREE ENERGY PREDICTED BY IDOCK:   -1.03 KCAL/MOL
REMARK 927      BINDING AFFINITY PREDICTED BY RF-SCORE:    0.00 PKD
ROOT
HETATM    1  C   UNK A   0     -11.460  14.831  67.302  1.00  0.00    -0.378 C  
HETATM    2  C   UNK A   0     -11.044  13.706  68.220  1.00  0.00    -0.281 C  
HETATM    3  C   UNK A   0     -11.498  13.821  69.655  1.00  0.00    -0.300 C  
HETATM    4  C   UNK A   0      -9.664  13.172  67.918  1.00  0.00    -0.221 C  
HETATM    5  C   UNK A   0     -12.112  12.751  68.769  1.00  0.00    -0.165 C  
ENDROOT
BRANCH   5   6
HETATM    6  C   UNK A   0     -11.831  11.325  69.146  1.00  0.00    -0.355 C  
HETATM    7  N   UNK A   1     -11.056  11.126  70.266  1.00  0.00    -0.455 N  
HETATM    8  O   UNK A   0     -12.226  10.413  68.431  1.00  0.00    -0.099 OA 
HETATM    9  H   UNK A   1     -10.765  11.968  70.763  1.00  0.00     0.000 HD 
BRANCH   7  10
HETATM   10  C   UNK A   1     -10.620   9.916  70.804  1.00  0.00    -0.239 C  
HETATM   11  C   UNK A   1      -9.470   9.338  70.374  1.00  0.00    -0.292 C  
HETATM   12  C   UNK A   1     -11.344   9.081  71.843  1.00  0.00    -0.368 C  
HETATM   13  O   UNK A   1     -12.689   9.128  71.809  1.00  0.00    -0.326 OA 
HETATM   14  O   UNK A   1     -10.763   8.272  72.554  1.00  0.00    -0.322 OA 
BRANCH  11  15
HETATM   15  C   UNK A   1      -8.559   9.834  69.293  1.00  0.00    -0.158 C  
BRANCH  15  16
HETATM   16  C   UNK A   1      -8.505   8.999  67.999  1.00  0.00    -0.125 C  
BRANCH  16  17
HETATM   17  C   UNK A   1      -9.141   7.640  68.321  1.00  0.00    -0.136 C  
BRANCH  17  18
HETATM   18  C   UNK A   1     -10.185   7.148  67.326  1.00  0.00    -0.245 C  
BRANCH  18  19
HETATM   19  S   UNK A   1     -10.783   5.537  67.960  1.00  0.00     0.020 SA 
BRANCH  19  20
HETATM   20  C   UNK A   1      -9.608   4.423  67.120  1.00  0.00    -0.195 C  
BRANCH  20  21
HETATM   21  C   UNK A   1      -9.805   4.475  65.596  1.00  0.00    -0.216 C  
HETATM   22  N   UNK A   1     -11.250   4.431  65.201  1.00  0.00    -1.040 NA 
HETATM   23  C   UNK A   1      -9.108   3.252  64.999  1.00  0.00    -0.143 C  
HETATM   24  O   UNK A   1      -7.904   3.142  64.835  1.00  0.00    -0.080 OA 
HETATM   25  O   UNK A   1     -10.000   2.266  64.716  1.00  0.00     0.063 OA 
HETATM   26  H1  UNK A   1     -11.381   4.465  64.190  1.00  0.00     0.000 HD 
HETATM   27  H2  UNK A   1     -11.780   5.169  65.664  1.00  0.00     0.000 HD 
ENDBRANCH  20  21
ENDBRANCH  19  20
ENDBRANCH  18  19
ENDBRANCH  17  18
ENDBRANCH  16  17
ENDBRANCH  15  16
ENDBRANCH  11  15
ENDBRANCH   7  10
ENDBRANCH   5   6
TORSDOF 9
ENDMDL
MODEL      227
REMARK 921   NORMALIZED FREE ENERGY PREDICTED BY IDOCK:   -3.96 KCAL/MOL
REMARK 922        TOTAL FREE ENERGY PREDICTED BY IDOCK:   -7.01 KCAL/MOL
REMARK 923 INTER-LIGAND FREE ENERGY PREDICTED BY IDOCK:   -6.22 KCAL/MOL
REMARK 924 INTRA-LIGAND FREE ENERGY PREDICTED BY IDOCK:   -0.79 KCAL/MOL
REMARK 927      BINDING AFFINITY PREDICTED BY RF-SCORE:    0.00 PKD
ROOT
HETATM    1  C   UNK A   0     -12.402  14.093  65.358  1.00  0.00    -0.475 C  
HETATM    2  C   UNK A   0     -11.680  12.767  65.372  1.00  0.00    -0.425 C  
HETATM    3  C   UNK A   0     -11.680  12.000  64.072  1.00  0.00    -0.498 C  
HETATM    4  C   UNK A   0     -11.837  12.019  66.675  1.00  0.00    -0.239 C  
HETATM    5  C   UNK A   0     -10.381  12.610  64.571  1.00  0.00    -0.369 C  
ENDROOT
BRANCH   5   6
HETATM    6  C   UNK A   0      -9.290  11.650  64.946  1.00  0.00    -0.008 C  
HETATM    7  N   UNK A   1      -8.743  11.798  66.199  1.00  0.00    -0.368 N  
HETATM    8  O   UNK A   0      -8.882  10.836  64.127  1.00  0.00    -0.174 OA 
HETATM    9  H   UNK A   1      -9.150  12.531  66.780  1.00  0.00     0.000 HD 
BRANCH   7  10
HETATM   10  C   UNK A   1      -7.701  11.071  66.773  1.00  0.00    -0.146 C  
HETATM   11  C   UNK A   1      -7.937   9.886  67.389  1.00  0.00    -0.106 C  
HETATM   12  C   UNK A   1      -6.245  11.490  66.846  1.00  0.00    -0.143 C  
HETATM   13  O   UNK A   1      -6.013  12.813  66.948  1.00  0.00    -0.230 OA 
HETATM   14  O   UNK A   1      -5.337  10.682  66.987  1.00  0.00    -0.040 OA 
BRANCH  11  15
HETATM   15  C   UNK A   1      -9.265   9.221  67.590  1.00  0.00    -0.139 C  
BRANCH  15  16
HETATM   16  C   UNK A   1      -9.727   9.031  69.048  1.00  0.00    -0.167 C  
BRANCH  16  17
HETATM   17  C   UNK A   1      -9.057   7.750  69.563  1.00  0.00    -0.146 C  
BRANCH  17  18
HETATM   18  C   UNK A   1      -9.600   6.446  68.990  1.00  0.00    -0.131 C  
BRANCH  18  19
HETATM   19  S   UNK A   1     -11.265   6.217  69.719  1.00  0.00    -0.423 SA 
BRANCH  19  20
HETATM   20  C   UNK A   1     -10.793   5.706  71.404  1.00  0.00    -0.222 C  
BRANCH  20  21
HETATM   21  C   UNK A   1     -11.664   6.417  72.452  1.00  0.00    -0.245 C  
HETATM   22  N   UNK A   1     -12.932   6.966  71.870  1.00  0.00    -0.524 NA 
HETATM   23  C   UNK A   1     -10.851   7.584  73.014  1.00  0.00    -0.392 C  
HETATM   24  O   UNK A   1      -9.955   7.482  73.835  1.00  0.00    -0.281 OA 
HETATM   25  O   UNK A   1     -11.218   8.761  72.441  1.00  0.00    -0.329 OA 
HETATM   26  H1  UNK A   1     -13.510   7.438  72.565  1.00  0.00     0.000 HD 
HETATM   27  H2  UNK A   1     -13.459   6.239  71.387  1.00  0.00     0.000 HD 
ENDBRANCH  20  21
ENDBRANCH  19  20
ENDBRANCH  18  19
ENDBRANCH  17  18
ENDBRANCH  16  17
ENDBRANCH  15  16
ENDBRANCH  11  15
ENDBRANCH   7  10
ENDBRANCH   5   6
TORSDOF 9
ENDMDL
MODEL      228
REMARK 921   NORMALIZED FREE ENERGY PREDICTED BY IDOCK:   -3.96 KCAL/MOL
REMARK 922        TOTAL FREE ENERGY PREDICTED BY IDOCK:   -7.01 KCAL/MOL
REMARK 923 INTER-LIGAND FREE ENERGY PREDICTED BY IDOCK:   -6.27 KCAL/MOL
REMARK 924 INTRA-LIGAND FREE ENERGY PREDICTED BY IDOCK:   -0.74 KCAL/MOL
REMARK 927      BINDING AFFINITY PREDICTED BY RF-SCORE:    0.00 PKD
ROOT
HETATM    1  C   UNK A   0      -8.719   5.583  65.728  1.00  0.00    -0.151 C  
HETATM    2  C   UNK A   0      -9.345   6.325  66.885  1.00  0.00    -0.148 C  
HETATM    3  C   UNK A   0     -10.721   6.894  66.639  1.00  0.00    -0.161 C  
HETATM    4  C   UNK A   0      -8.346   7.122  67.691  1.00  0.00    -0.117 C  
HETATM    5  C   UNK A   0     -10.565   5.722  67.593  1.00  0.00    -0.313 C  
ENDROOT
BRANCH   5   6
HETATM    6  C   UNK A   0     -10.897   5.981  69.034  1.00  0.00    -0.342 C  
HETATM    7  N   UNK A   1      -9.942   5.629  69.959  1.00  0.00    -0.188 N  
HETATM    8  O   UNK A   0     -12.000   6.417  69.340  1.00  0.00    -0.048 OA 
HETATM    9  H   UNK A   1      -9.073   5.250  69.581  1.00  0.00     0.000 HD 
BRANCH   7  10
HETATM   10  C   UNK A   1     -10.014   5.727  71.347  1.00  0.00    -0.185 C  
HETATM   11  C   UNK A   1      -9.842   6.920  71.970  1.00  0.00    -0.172 C  
HETATM   12  C   UNK A   1     -10.222   4.581  72.320  1.00  0.00    -0.192 C  
HETATM   13  O   UNK A   1      -9.709   3.391  71.953  1.00  0.00    -0.146 OA 
HETATM   14  O   UNK A   1     -10.666   4.752  73.448  1.00  0.00    -0.202 OA 
BRANCH  11  15
HETATM   15  C   UNK A   1      -9.522   8.236  71.330  1.00  0.00    -0.219 C  
BRANCH  15  16
HETATM   16  C   UNK A   1     -10.663   9.269  71.269  1.00  0.00    -0.422 C  
BRANCH  16  17
HETATM   17  C   UNK A   1     -10.971   9.504  69.784  1.00  0.00    -0.245 C  
BRANCH  17  18
HETATM   18  C   UNK A   1     -10.437  10.805  69.198  1.00  0.00    -0.218 C  
BRANCH  18  19
HETATM   19  S   UNK A   1     -11.841  11.591  68.322  1.00  0.00    -0.181 SA 
BRANCH  19  20
HETATM   20  C   UNK A   1     -10.989  12.131  66.803  1.00  0.00    -0.280 C  
BRANCH  20  21
HETATM   21  C   UNK A   1     -11.179  13.640  66.580  1.00  0.00    -0.313 C  
HETATM   22  N   UNK A   1     -12.129  14.252  67.565  1.00  0.00    -0.570 NA 
HETATM   23  C   UNK A   1     -11.757  13.830  65.177  1.00  0.00    -0.343 C  
HETATM   24  O   UNK A   1     -11.117  13.763  64.141  1.00  0.00    -0.329 OA 
HETATM   25  O   UNK A   1     -13.100  14.036  65.221  1.00  0.00    -0.782 OA 
HETATM   26  H1  UNK A   1     -12.256  15.254  67.418  1.00  0.00     0.000 HD 
HETATM   27  H2  UNK A   1     -11.840  14.057  68.524  1.00  0.00     0.000 HD 
ENDBRANCH  20  21
ENDBRANCH  19  20
ENDBRANCH  18  19
ENDBRANCH  17  18
ENDBRANCH  16  17
ENDBRANCH  15  16
ENDBRANCH  11  15
ENDBRANCH   7  10
ENDBRANCH   5   6
TORSDOF 9
ENDMDL
MODEL      229
REMARK 921   NORMALIZED FREE ENERGY PREDICTED BY IDOCK:   -3.93 KCAL/MOL
REMARK 922        TOTAL FREE ENERGY PREDICTED BY IDOCK:   -6.97 KCAL/MOL
REMARK 923 INTER-LIGAND FREE ENERGY PREDICTED BY IDOCK:   -6.20 KCAL/MOL
REMARK 924 INTRA-LIGAND FREE ENERGY PREDICTED BY IDOCK:   -0.77 KCAL/MOL
REMARK 927      BINDING AFFINITY PREDICTED BY RF-SCORE:    0.00 PKD
ROOT
HETATM    1  C   UNK A   0     -10.552   7.223  73.486  1.00  0.00    -0.408 C  
HETATM    2  C   UNK A   0     -10.760   6.780  72.058  1.00  0.00    -0.245 C  
HETATM    3  C   UNK A   0     -12.059   7.203  71.416  1.00  0.00    -0.381 C  
HETATM    4  C   UNK A   0     -10.208   5.402  71.777  1.00  0.00    -0.263 C  
HETATM    5  C   UNK A   0     -10.759   7.828  70.938  1.00  0.00    -0.229 C  
ENDROOT
BRANCH   5   6
HETATM    6  C   UNK A   0     -10.350   7.528  69.525  1.00  0.00    -0.216 C  
HETATM    7  N   UNK A   1      -9.060   7.851  69.175  1.00  0.00    -0.145 N  
HETATM    8  O   UNK A   0     -11.171   7.086  68.730  1.00  0.00    -0.083 OA 
HETATM    9  H   UNK A   1      -8.479   8.239  69.920  1.00  0.00     0.000 HD 
BRANCH   7  10
HETATM   10  C   UNK A   1      -8.447   7.715  67.931  1.00  0.00    -0.123 C  
HETATM   11  C   UNK A   1      -8.429   8.745  67.048  1.00  0.00    -0.109 C  
HETATM   12  C   UNK A   1      -7.799   6.458  67.380  1.00  0.00    -0.105 C  
HETATM   13  O   UNK A   1      -8.343   5.290  67.773  1.00  0.00    -0.099 OA 
HETATM   14  O   UNK A   1      -6.955   6.490  66.495  1.00  0.00    -0.063 OA 
BRANCH  11  15
HETATM   15  C   UNK A   1      -9.057  10.094  67.221  1.00  0.00    -0.151 C  
BRANCH  15  16
HETATM   16  C   UNK A   1     -10.320  10.379  66.385  1.00  0.00    -0.278 C  
BRANCH  16  17
HETATM   17  C   UNK A   1     -10.549  11.896  66.429  1.00  0.00    -0.284 C  
BRANCH  17  18
HETATM   18  C   UNK A   1     -10.507  12.528  67.814  1.00  0.00    -0.220 C  
BRANCH  18  19
HETATM   19  S   UNK A   1     -11.789  13.838  67.822  1.00  0.00    -0.360 SA 
BRANCH  19  20
HETATM   20  C   UNK A   1     -12.037  14.011  69.620  1.00  0.00    -0.355 C  
BRANCH  20  21
HETATM   21  C   UNK A   1     -12.153  15.493  70.013  1.00  0.00    -0.368 C  
HETATM   22  N   UNK A   1     -10.819  16.172  70.095  1.00  0.00    -0.341 NA 
HETATM   23  C   UNK A   1     -12.807  15.555  71.394  1.00  0.00    -0.465 C  
HETATM   24  O   UNK A   1     -13.998  15.408  71.612  1.00  0.00    -0.488 OA 
HETATM   25  O   UNK A   1     -11.880  15.744  72.370  1.00  0.00    -0.418 OA 
HETATM   26  H1  UNK A   1     -10.896  17.156  70.356  1.00  0.00     0.000 HD 
HETATM   27  H2  UNK A   1     -10.298  16.064  69.225  1.00  0.00     0.000 HD 
ENDBRANCH  20  21
ENDBRANCH  19  20
ENDBRANCH  18  19
ENDBRANCH  17  18
ENDBRANCH  16  17
ENDBRANCH  15  16
ENDBRANCH  11  15
ENDBRANCH   7  10
ENDBRANCH   5   6
TORSDOF 9
ENDMDL
MODEL      230
REMARK 921   NORMALIZED FREE ENERGY PREDICTED BY IDOCK:   -3.93 KCAL/MOL
REMARK 922        TOTAL FREE ENERGY PREDICTED BY IDOCK:   -6.96 KCAL/MOL
REMARK 923 INTER-LIGAND FREE ENERGY PREDICTED BY IDOCK:   -5.71 KCAL/MOL
REMARK 924 INTRA-LIGAND FREE ENERGY PREDICTED BY IDOCK:   -1.25 KCAL/MOL
REMARK 927      BINDING AFFINITY PREDICTED BY RF-SCORE:    0.00 PKD
ROOT
HETATM    1  C   UNK A   0     -12.011  12.353  65.597  1.00  0.00    -0.449 C  
HETATM    2  C   UNK A   0     -11.045  11.682  66.545  1.00  0.00    -0.357 C  
HETATM    3  C   UNK A   0     -10.228  12.603  67.418  1.00  0.00    -0.219 C  
HETATM    4  C   UNK A   0     -10.400  10.448  65.960  1.00  0.00    -0.262 C  
HETATM    5  C   UNK A   0     -11.308  11.745  68.055  1.00  0.00    -0.355 C  
ENDROOT
BRANCH   5   6
HETATM    6  C   UNK A   0     -10.846  10.692  69.019  1.00  0.00    -0.235 C  
HETATM    7  N   UNK A   1     -11.817   9.873  69.549  1.00  0.00    -0.458 N  
HETATM    8  O   UNK A   0      -9.668  10.638  69.350  1.00  0.00    -0.198 OA 
HETATM    9  H   UNK A   1     -12.767  10.034  69.215  1.00  0.00     0.000 HD 
BRANCH   7  10
HETATM   10  C   UNK A   1     -11.662   8.853  70.486  1.00  0.00    -0.111 C  
HETATM   11  C   UNK A   1     -11.124   7.659  70.131  1.00  0.00    -0.229 C  
HETATM   12  C   UNK A   1     -12.097   8.892  71.939  1.00  0.00    -0.373 C  
HETATM   13  O   UNK A   1     -13.195   9.623  72.209  1.00  0.00    -0.433 OA 
HETATM   14  O   UNK A   1     -11.600   8.168  72.791  1.00  0.00    -0.411 OA 
BRANCH  11  15
HETATM   15  C   UNK A   1     -10.678   7.240  68.764  1.00  0.00    -0.168 C  
BRANCH  15  16
HETATM   16  C   UNK A   1      -9.205   6.809  68.621  1.00  0.00    -0.132 C  
BRANCH  16  17
HETATM   17  C   UNK A   1      -9.211   5.309  68.294  1.00  0.00    -0.132 C  
BRANCH  17  18
HETATM   18  C   UNK A   1      -9.388   4.376  69.486  1.00  0.00    -0.156 C  
BRANCH  18  19
HETATM   19  S   UNK A   1      -7.800   4.400  70.400  1.00  0.00    -0.052 SA 
BRANCH  19  20
HETATM   20  C   UNK A   1      -8.433   4.443  72.110  1.00  0.00    -0.112 C  
BRANCH  20  21
HETATM   21  C   UNK A   1      -9.531   5.508  72.256  1.00  0.00    -0.145 C  
HETATM   22  N   UNK A   1      -9.005   6.809  72.784  1.00  0.00    -0.128 NA 
HETATM   23  C   UNK A   1     -10.564   4.973  73.249  1.00  0.00    -0.234 C  
HETATM   24  O   UNK A   1     -11.415   4.137  72.991  1.00  0.00    -0.093 OA 
HETATM   25  O   UNK A   1     -10.385   5.509  74.485  1.00  0.00    -0.269 OA 
HETATM   26  H1  UNK A   1      -9.734   7.516  72.882  1.00  0.00     0.000 HD 
HETATM   27  H2  UNK A   1      -8.235   7.153  72.210  1.00  0.00     0.000 HD 
ENDBRANCH  20  21
ENDBRANCH  19  20
ENDBRANCH  18  19
ENDBRANCH  17  18
ENDBRANCH  16  17
ENDBRANCH  15  16
ENDBRANCH  11  15
ENDBRANCH   7  10
ENDBRANCH   5   6
TORSDOF 9
ENDMDL
MODEL      231
REMARK 921   NORMALIZED FREE ENERGY PREDICTED BY IDOCK:   -3.92 KCAL/MOL
REMARK 922        TOTAL FREE ENERGY PREDICTED BY IDOCK:   -6.95 KCAL/MOL
REMARK 923 INTER-LIGAND FREE ENERGY PREDICTED BY IDOCK:   -5.93 KCAL/MOL
REMARK 924 INTRA-LIGAND FREE ENERGY PREDICTED BY IDOCK:   -1.03 KCAL/MOL
REMARK 927      BINDING AFFINITY PREDICTED BY RF-SCORE:    0.00 PKD
ROOT
HETATM    1  C   UNK A   0     -12.194  11.107  70.262  1.00  0.00    -0.436 C  
HETATM    2  C   UNK A   0     -11.029  10.583  69.455  1.00  0.00    -0.312 C  
HETATM    3  C   UNK A   0     -10.130   9.596  70.159  1.00  0.00    -0.311 C  
HETATM    4  C   UNK A   0     -10.421  11.623  68.545  1.00  0.00    -0.236 C  
HETATM    5  C   UNK A   0     -11.016   9.111  69.024  1.00  0.00    -0.035 C  
ENDROOT
BRANCH   5   6
HETATM    6  C   UNK A   0     -10.317   8.618  67.791  1.00  0.00    -0.242 C  
HETATM    7  N   UNK A   1      -9.002   8.990  67.637  1.00  0.00    -0.124 N  
HETATM    8  O   UNK A   0     -10.937   7.979  66.949  1.00  0.00    -0.154 OA 
HETATM    9  H   UNK A   1      -8.604   9.546  68.395  1.00  0.00     0.000 HD 
BRANCH   7  10
HETATM   10  C   UNK A   1      -8.146   8.702  66.576  1.00  0.00    -0.103 C  
HETATM   11  C   UNK A   1      -8.027   9.555  65.527  1.00  0.00    -0.112 C  
HETATM   12  C   UNK A   1      -7.311   7.446  66.408  1.00  0.00    -0.083 C  
HETATM   13  O   UNK A   1      -7.835   6.314  66.916  1.00  0.00    -0.102 OA 
HETATM   14  O   UNK A   1      -6.312   7.413  65.702  1.00  0.00    -0.040 OA 
BRANCH  11  15
HETATM   15  C   UNK A   1      -8.774  10.836  65.316  1.00  0.00    -0.183 C  
BRANCH  15  16
HETATM   16  C   UNK A   1     -10.108  10.739  64.550  1.00  0.00    -0.415 C  
BRANCH  16  17
HETATM   17  C   UNK A   1     -10.322  12.092  63.859  1.00  0.00    -0.441 C  
BRANCH  17  18
HETATM   18  C   UNK A   1     -11.650  12.779  64.153  1.00  0.00    -0.396 C  
BRANCH  18  19
HETATM   19  S   UNK A   1     -11.457  13.600  65.779  1.00  0.00    -0.324 SA 
BRANCH  19  20
HETATM   20  C   UNK A   1     -10.888  15.243  65.226  1.00  0.00    -0.403 C  
BRANCH  20  21
HETATM   21  C   UNK A   1      -9.727  15.739  66.102  1.00  0.00    -0.322 C  
HETATM   22  N   UNK A   1      -9.018  14.621  66.805  1.00  0.00    -0.276 NA 
HETATM   23  C   UNK A   1     -10.315  16.673  67.161  1.00  0.00    -0.300 C  
HETATM   24  O   UNK A   1     -10.655  17.828  66.965  1.00  0.00    -0.333 OA 
HETATM   25  O   UNK A   1     -10.462  16.036  68.353  1.00  0.00    -0.245 OA 
HETATM   26  H1  UNK A   1      -8.247  14.951  67.387  1.00  0.00     0.000 HD 
HETATM   27  H2  UNK A   1      -8.700  13.914  66.142  1.00  0.00     0.000 HD 
ENDBRANCH  20  21
ENDBRANCH  19  20
ENDBRANCH  18  19
ENDBRANCH  17  18
ENDBRANCH  16  17
ENDBRANCH  15  16
ENDBRANCH  11  15
ENDBRANCH   7  10
ENDBRANCH   5   6
TORSDOF 9
ENDMDL
MODEL      232
REMARK 921   NORMALIZED FREE ENERGY PREDICTED BY IDOCK:   -3.92 KCAL/MOL
REMARK 922        TOTAL FREE ENERGY PREDICTED BY IDOCK:   -6.95 KCAL/MOL
REMARK 923 INTER-LIGAND FREE ENERGY PREDICTED BY IDOCK:   -6.39 KCAL/MOL
REMARK 924 INTRA-LIGAND FREE ENERGY PREDICTED BY IDOCK:   -0.56 KCAL/MOL
REMARK 927      BINDING AFFINITY PREDICTED BY RF-SCORE:    0.00 PKD
ROOT
HETATM    1  C   UNK A   0     -10.675   7.586  69.551  1.00  0.00    -0.222 C  
HETATM    2  C   UNK A   0     -10.749   9.062  69.866  1.00  0.00    -0.240 C  
HETATM    3  C   UNK A   0      -9.455   9.829  69.746  1.00  0.00    -0.253 C  
HETATM    4  C   UNK A   0     -11.699   9.381  70.997  1.00  0.00    -0.395 C  
HETATM    5  C   UNK A   0     -10.562  10.082  68.736  1.00  0.00    -0.241 C  
ENDROOT
BRANCH   5   6
HETATM    6  C   UNK A   0     -11.180  11.450  68.746  1.00  0.00    -0.247 C  
HETATM    7  N   UNK A   1     -11.052  12.191  67.594  1.00  0.00    -0.251 N  
HETATM    8  O   UNK A   0     -11.700  11.880  69.767  1.00  0.00    -0.308 OA 
HETATM    9  H   UNK A   1     -10.573  11.733  66.818  1.00  0.00     0.000 HD 
BRANCH   7  10
HETATM   10  C   UNK A   1     -11.495  13.491  67.356  1.00  0.00    -0.336 C  
HETATM   11  C   UNK A   1     -12.244  13.781  66.263  1.00  0.00    -0.489 C  
HETATM   12  C   UNK A   1     -11.181  14.716  68.194  1.00  0.00    -0.289 C  
HETATM   13  O   UNK A   1      -9.978  14.728  68.799  1.00  0.00    -0.223 OA 
HETATM   14  O   UNK A   1     -11.887  15.716  68.184  1.00  0.00    -0.286 OA 
BRANCH  11  15
HETATM   15  C   UNK A   1     -12.657  12.838  65.174  1.00  0.00    -0.513 C  
BRANCH  15  16
HETATM   16  C   UNK A   1     -11.980  13.028  63.803  1.00  0.00    -0.585 C  
BRANCH  16  17
HETATM   17  C   UNK A   1     -10.574  12.423  63.915  1.00  0.00    -0.470 C  
BRANCH  17  18
HETATM   18  C   UNK A   1     -10.519  10.910  64.094  1.00  0.00    -0.327 C  
BRANCH  18  19
HETATM   19  S   UNK A   1      -8.758  10.434  63.923  1.00  0.00    -0.195 SA 
BRANCH  19  20
HETATM   20  C   UNK A   1      -8.251  10.508  65.674  1.00  0.00    -0.161 C  
BRANCH  20  21
HETATM   21  C   UNK A   1      -6.744  10.243  65.815  1.00  0.00    -0.120 C  
HETATM   22  N   UNK A   1      -6.301   9.026  65.059  1.00  0.00    -0.065 NA 
HETATM   23  C   UNK A   1      -6.453  10.016  67.299  1.00  0.00    -0.068 C  
HETATM   24  O   UNK A   1      -6.372  10.897  68.139  1.00  0.00    -0.056 OA 
HETATM   25  O   UNK A   1      -6.344   8.691  67.583  1.00  0.00    -0.052 OA 
HETATM   26  H1  UNK A   1      -5.300   8.850  65.153  1.00  0.00     0.000 HD 
HETATM   27  H2  UNK A   1      -6.572   9.085  64.078  1.00  0.00     0.000 HD 
ENDBRANCH  20  21
ENDBRANCH  19  20
ENDBRANCH  18  19
ENDBRANCH  17  18
ENDBRANCH  16  17
ENDBRANCH  15  16
ENDBRANCH  11  15
ENDBRANCH   7  10
ENDBRANCH   5   6
TORSDOF 9
ENDMDL
MODEL      233
REMARK 921   NORMALIZED FREE ENERGY PREDICTED BY IDOCK:   -3.92 KCAL/MOL
REMARK 922        TOTAL FREE ENERGY PREDICTED BY IDOCK:   -6.94 KCAL/MOL
REMARK 923 INTER-LIGAND FREE ENERGY PREDICTED BY IDOCK:   -6.63 KCAL/MOL
REMARK 924 INTRA-LIGAND FREE ENERGY PREDICTED BY IDOCK:   -0.32 KCAL/MOL
REMARK 927      BINDING AFFINITY PREDICTED BY RF-SCORE:    0.00 PKD
ROOT
HETATM    1  C   UNK A   0     -13.603  15.784  72.524  1.00  0.00    -0.589 C  
HETATM    2  C   UNK A   0     -12.440  15.381  71.649  1.00  0.00    -0.450 C  
HETATM    3  C   UNK A   0     -12.550  14.031  70.983  1.00  0.00    -0.437 C  
HETATM    4  C   UNK A   0     -11.104  15.835  72.190  1.00  0.00     0.118 C  
HETATM    5  C   UNK A   0     -12.638  15.286  70.131  1.00  0.00    -0.334 C  
ENDROOT
BRANCH   5   6
HETATM    6  C   UNK A   0     -11.535  15.501  69.138  1.00  0.00    -0.348 C  
HETATM    7  N   UNK A   1     -10.981  16.760  69.095  1.00  0.00    -0.274 N  
HETATM    8  O   UNK A   0     -11.217  14.602  68.369  1.00  0.00    -0.252 OA 
HETATM    9  H   UNK A   1     -11.350  17.433  69.769  1.00  0.00     0.000 HD 
BRANCH   7  10
HETATM   10  C   UNK A   1      -9.981  17.230  68.247  1.00  0.00    -0.313 C  
HETATM   11  C   UNK A   1      -8.698  16.808  68.383  1.00  0.00    -0.236 C  
HETATM   12  C   UNK A   1     -10.144  18.264  67.149  1.00  0.00    -0.356 C  
HETATM   13  O   UNK A   1     -11.069  19.219  67.366  1.00  0.00    -0.444 OA 
HETATM   14  O   UNK A   1      -9.369  18.346  66.205  1.00  0.00    -0.465 OA 
BRANCH  11  15
HETATM   15  C   UNK A   1      -8.162  15.869  69.421  1.00  0.00    -0.174 C  
BRANCH  15  16
HETATM   16  C   UNK A   1      -6.947  15.012  69.013  1.00  0.00    -0.127 C  
BRANCH  16  17
HETATM   17  C   UNK A   1      -7.376  13.544  69.145  1.00  0.00     0.074 C  
BRANCH  17  18
HETATM   18  C   UNK A   1      -7.138  12.676  67.916  1.00  0.00    -0.113 C  
BRANCH  18  19
HETATM   19  S   UNK A   1      -8.673  11.709  67.663  1.00  0.00    -0.163 SA 
BRANCH  19  20
HETATM   20  C   UNK A   1      -9.426  12.679  66.315  1.00  0.00    -0.207 C  
BRANCH  20  21
HETATM   21  C   UNK A   1     -10.671  11.967  65.762  1.00  0.00    -0.279 C  
HETATM   22  N   UNK A   1     -11.948  12.546  66.292  1.00  0.00    -0.577 NA 
HETATM   23  C   UNK A   1     -10.595  10.502  66.195  1.00  0.00    -0.112 C  
HETATM   24  O   UNK A   1      -9.886   9.655  65.677  1.00  0.00    -0.290 OA 
HETATM   25  O   UNK A   1     -11.386  10.265  67.274  1.00  0.00    -0.280 OA 
HETATM   26  H1  UNK A   1     -12.775  12.073  65.925  1.00  0.00     0.000 HD 
HETATM   27  H2  UNK A   1     -11.994  13.550  66.120  1.00  0.00     0.000 HD 
ENDBRANCH  20  21
ENDBRANCH  19  20
ENDBRANCH  18  19
ENDBRANCH  17  18
ENDBRANCH  16  17
ENDBRANCH  15  16
ENDBRANCH  11  15
ENDBRANCH   7  10
ENDBRANCH   5   6
TORSDOF 9
ENDMDL
MODEL      234
REMARK 921   NORMALIZED FREE ENERGY PREDICTED BY IDOCK:   -3.91 KCAL/MOL
REMARK 922        TOTAL FREE ENERGY PREDICTED BY IDOCK:   -6.93 KCAL/MOL
REMARK 923 INTER-LIGAND FREE ENERGY PREDICTED BY IDOCK:   -6.30 KCAL/MOL
REMARK 924 INTRA-LIGAND FREE ENERGY PREDICTED BY IDOCK:   -0.63 KCAL/MOL
REMARK 927      BINDING AFFINITY PREDICTED BY RF-SCORE:    0.00 PKD
ROOT
HETATM    1  C   UNK A   0      -6.737  19.293  65.436  1.00  0.00    -0.293 C  
HETATM    2  C   UNK A   0      -7.277  18.823  66.766  1.00  0.00    -0.228 C  
HETATM    3  C   UNK A   0      -8.296  19.722  67.422  1.00  0.00    -0.348 C  
HETATM    4  C   UNK A   0      -6.237  18.134  67.619  1.00  0.00    -0.174 C  
HETATM    5  C   UNK A   0      -8.742  18.379  66.869  1.00  0.00    -0.275 C  
ENDROOT
BRANCH   5   6
HETATM    6  C   UNK A   0      -9.233  17.372  67.867  1.00  0.00    -0.256 C  
HETATM    7  N   UNK A   1      -9.780  16.217  67.358  1.00  0.00    -0.231 N  
HETATM    8  O   UNK A   0      -9.199  17.629  69.064  1.00  0.00    -0.189 OA 
HETATM    9  H   UNK A   1      -9.775  16.130  66.342  1.00  0.00     0.000 HD 
BRANCH   7  10
HETATM   10  C   UNK A   1     -10.339  15.150  68.060  1.00  0.00    -0.240 C  
HETATM   11  C   UNK A   1     -10.033  13.868  67.737  1.00  0.00    -0.241 C  
HETATM   12  C   UNK A   1     -11.357  15.245  69.181  1.00  0.00    -0.297 C  
HETATM   13  O   UNK A   1     -12.224  16.273  69.108  1.00  0.00    -0.050 OA 
HETATM   14  O   UNK A   1     -11.509  14.354  70.005  1.00  0.00    -0.261 OA 
BRANCH  11  15
HETATM   15  C   UNK A   1      -9.144  13.405  66.623  1.00  0.00    -0.180 C  
BRANCH  15  16
HETATM   16  C   UNK A   1      -9.705  12.302  65.706  1.00  0.00    -0.228 C  
BRANCH  16  17
HETATM   17  C   UNK A   1     -10.951  11.737  66.402  1.00  0.00    -0.341 C  
BRANCH  17  18
HETATM   18  C   UNK A   1     -10.767  10.391  67.093  1.00  0.00    -0.256 C  
BRANCH  18  19
HETATM   19  S   UNK A   1     -11.409  10.594  68.797  1.00  0.00    -0.267 SA 
BRANCH  19  20
HETATM   20  C   UNK A   1      -9.926  10.108  69.741  1.00  0.00    -0.220 C  
BRANCH  20  21
HETATM   21  C   UNK A   1     -10.072   8.677  70.282  1.00  0.00    -0.187 C  
HETATM   22  N   UNK A   1     -11.417   8.084  69.988  1.00  0.00    -0.469 NA 
HETATM   23  C   UNK A   1      -9.899   8.738  71.801  1.00  0.00    -0.321 C  
HETATM   24  O   UNK A   1      -8.831   8.844  72.380  1.00  0.00    -0.396 OA 
HETATM   25  O   UNK A   1     -11.101   8.712  72.435  1.00  0.00    -0.354 OA 
HETATM   26  H1  UNK A   1     -11.514   7.134  70.347  1.00  0.00     0.000 HD 
HETATM   27  H2  UNK A   1     -11.623   8.121  68.990  1.00  0.00     0.000 HD 
ENDBRANCH  20  21
ENDBRANCH  19  20
ENDBRANCH  18  19
ENDBRANCH  17  18
ENDBRANCH  16  17
ENDBRANCH  15  16
ENDBRANCH  11  15
ENDBRANCH   7  10
ENDBRANCH   5   6
TORSDOF 9
ENDMDL
MODEL      235
REMARK 921   NORMALIZED FREE ENERGY PREDICTED BY IDOCK:   -3.89 KCAL/MOL
REMARK 922        TOTAL FREE ENERGY PREDICTED BY IDOCK:   -6.91 KCAL/MOL
REMARK 923 INTER-LIGAND FREE ENERGY PREDICTED BY IDOCK:   -6.27 KCAL/MOL
REMARK 924 INTRA-LIGAND FREE ENERGY PREDICTED BY IDOCK:   -0.64 KCAL/MOL
REMARK 927      BINDING AFFINITY PREDICTED BY RF-SCORE:    0.00 PKD
ROOT
HETATM    1  C   UNK A   0      -8.777   2.680  68.979  1.00  0.00    -0.133 C  
HETATM    2  C   UNK A   0      -8.886   3.718  70.071  1.00  0.00    -0.146 C  
HETATM    3  C   UNK A   0      -7.703   4.644  70.223  1.00  0.00    -0.057 C  
HETATM    4  C   UNK A   0      -9.596   3.212  71.304  1.00  0.00    -0.229 C  
HETATM    5  C   UNK A   0      -9.013   5.199  69.689  1.00  0.00    -0.137 C  
ENDROOT
BRANCH   5   6
HETATM    6  C   UNK A   0      -9.709   6.216  70.545  1.00  0.00    -0.173 C  
HETATM    7  N   UNK A   1     -10.757   6.894  69.967  1.00  0.00    -0.232 N  
HETATM    8  O   UNK A   0      -9.293   6.457  71.672  1.00  0.00    -0.145 OA 
HETATM    9  H   UNK A   1     -10.992   6.622  69.012  1.00  0.00     0.000 HD 
BRANCH   7  10
HETATM   10  C   UNK A   1     -11.537   7.906  70.524  1.00  0.00    -0.144 C  
HETATM   11  C   UNK A   1     -11.112   9.194  70.520  1.00  0.00    -0.308 C  
HETATM   12  C   UNK A   1     -12.869   7.730  71.230  1.00  0.00    -0.233 C  
HETATM   13  O   UNK A   1     -13.034   6.576  71.905  1.00  0.00    -0.268 OA 
HETATM   14  O   UNK A   1     -13.678   8.642  71.339  1.00  0.00    -0.329 OA 
BRANCH  11  15
HETATM   15  C   UNK A   1      -9.807   9.713  69.998  1.00  0.00    -0.286 C  
BRANCH  15  16
HETATM   16  C   UNK A   1      -9.731   9.991  68.484  1.00  0.00    -0.164 C  
BRANCH  16  17
HETATM   17  C   UNK A   1      -9.647  11.514  68.316  1.00  0.00    -0.189 C  
BRANCH  17  18
HETATM   18  C   UNK A   1      -8.747  12.005  67.189  1.00  0.00    -0.183 C  
BRANCH  18  19
HETATM   19  S   UNK A   1      -9.208  11.037  65.703  1.00  0.00    -0.212 SA 
BRANCH  19  20
HETATM   20  C   UNK A   1     -10.965  11.507  65.566  1.00  0.00    -0.229 C  
BRANCH  20  21
HETATM   21  C   UNK A   1     -11.150  12.623  64.526  1.00  0.00    -0.327 C  
HETATM   22  N   UNK A   1      -9.845  13.170  64.030  1.00  0.00    -0.713 NA 
HETATM   23  C   UNK A   1     -11.919  13.760  65.200  1.00  0.00    -0.379 C  
HETATM   24  O   UNK A   1     -13.121  13.764  65.411  1.00  0.00    -0.727 OA 
HETATM   25  O   UNK A   1     -11.083  14.759  65.589  1.00  0.00    -0.324 OA 
HETATM   26  H1  UNK A   1      -9.967  13.911  63.340  1.00  0.00     0.000 HD 
HETATM   27  H2  UNK A   1      -9.250  12.426  63.667  1.00  0.00     0.000 HD 
ENDBRANCH  20  21
ENDBRANCH  19  20
ENDBRANCH  18  19
ENDBRANCH  17  18
ENDBRANCH  16  17
ENDBRANCH  15  16
ENDBRANCH  11  15
ENDBRANCH   7  10
ENDBRANCH   5   6
TORSDOF 9
ENDMDL
MODEL      236
REMARK 921   NORMALIZED FREE ENERGY PREDICTED BY IDOCK:   -3.89 KCAL/MOL
REMARK 922        TOTAL FREE ENERGY PREDICTED BY IDOCK:   -6.91 KCAL/MOL
REMARK 923 INTER-LIGAND FREE ENERGY PREDICTED BY IDOCK:   -5.86 KCAL/MOL
REMARK 924 INTRA-LIGAND FREE ENERGY PREDICTED BY IDOCK:   -1.05 KCAL/MOL
REMARK 927      BINDING AFFINITY PREDICTED BY RF-SCORE:    0.00 PKD
ROOT
HETATM    1  C   UNK A   0      -9.797   6.241  66.825  1.00  0.00    -0.208 C  
HETATM    2  C   UNK A   0      -9.268   7.636  67.062  1.00  0.00    -0.168 C  
HETATM    3  C   UNK A   0      -9.490   8.626  65.945  1.00  0.00    -0.243 C  
HETATM    4  C   UNK A   0      -7.964   7.655  67.824  1.00  0.00    -0.121 C  
HETATM    5  C   UNK A   0     -10.258   8.794  67.245  1.00  0.00    -0.332 C  
ENDROOT
BRANCH   5   6
HETATM    6  C   UNK A   0      -9.954  10.023  68.051  1.00  0.00    -0.150 C  
HETATM    7  N   UNK A   1      -9.564  11.139  67.348  1.00  0.00    -0.168 N  
HETATM    8  O   UNK A   0      -9.990   9.978  69.274  1.00  0.00    -0.189 OA 
HETATM    9  H   UNK A   1      -9.546  11.043  66.332  1.00  0.00     0.000 HD 
BRANCH   7  10
HETATM   10  C   UNK A   1      -9.190  12.384  67.851  1.00  0.00    -0.192 C  
HETATM   11  C   UNK A   1     -10.125  13.321  68.151  1.00  0.00    -0.241 C  
HETATM   12  C   UNK A   1      -7.773  12.876  68.072  1.00  0.00    -0.143 C  
HETATM   13  O   UNK A   1      -6.844  12.413  67.215  1.00  0.00    -0.146 OA 
HETATM   14  O   UNK A   1      -7.507  13.775  68.859  1.00  0.00    -0.111 OA 
BRANCH  11  15
HETATM   15  C   UNK A   1     -11.607  13.211  67.964  1.00  0.00    -0.371 C  
BRANCH  15  16
HETATM   16  C   UNK A   1     -12.310  14.414  67.305  1.00  0.00    -0.090 C  
BRANCH  16  17
HETATM   17  C   UNK A   1     -12.606  14.015  65.853  1.00  0.00    -0.484 C  
BRANCH  17  18
HETATM   18  C   UNK A   1     -11.438  14.142  64.884  1.00  0.00    -0.366 C  
BRANCH  18  19
HETATM   19  S   UNK A   1     -10.828  15.863  65.034  1.00  0.00    -0.342 SA 
BRANCH  19  20
HETATM   20  C   UNK A   1      -9.169  15.540  65.721  1.00  0.00    -0.181 C  
BRANCH  20  21
HETATM   21  C   UNK A   1      -8.794  16.607  66.761  1.00  0.00    -0.231 C  
HETATM   22  N   UNK A   1      -9.841  17.672  66.897  1.00  0.00    -0.293 NA 
HETATM   23  C   UNK A   1      -7.497  17.270  66.295  1.00  0.00    -0.319 C  
HETATM   24  O   UNK A   1      -6.384  16.782  66.401  1.00  0.00    -0.257 OA 
HETATM   25  O   UNK A   1      -7.742  18.464  65.693  1.00  0.00    -0.518 OA 
HETATM   26  H1  UNK A   1      -9.592  18.380  67.587  1.00  0.00     0.000 HD 
HETATM   27  H2  UNK A   1     -10.753  17.264  67.103  1.00  0.00     0.000 HD 
ENDBRANCH  20  21
ENDBRANCH  19  20
ENDBRANCH  18  19
ENDBRANCH  17  18
ENDBRANCH  16  17
ENDBRANCH  15  16
ENDBRANCH  11  15
ENDBRANCH   7  10
ENDBRANCH   5   6
TORSDOF 9
ENDMDL
MODEL      237
REMARK 921   NORMALIZED FREE ENERGY PREDICTED BY IDOCK:   -3.89 KCAL/MOL
REMARK 922        TOTAL FREE ENERGY PREDICTED BY IDOCK:   -6.90 KCAL/MOL
REMARK 923 INTER-LIGAND FREE ENERGY PREDICTED BY IDOCK:   -6.04 KCAL/MOL
REMARK 924 INTRA-LIGAND FREE ENERGY PREDICTED BY IDOCK:   -0.86 KCAL/MOL
REMARK 927      BINDING AFFINITY PREDICTED BY RF-SCORE:    0.00 PKD
ROOT
HETATM    1  C   UNK A   0     -10.025   6.379  73.294  1.00  0.00    -0.195 C  
HETATM    2  C   UNK A   0      -9.160   6.442  72.057  1.00  0.00    -0.141 C  
HETATM    3  C   UNK A   0      -7.801   5.795  72.167  1.00  0.00    -0.103 C  
HETATM    4  C   UNK A   0      -9.305   7.739  71.295  1.00  0.00    -0.171 C  
HETATM    5  C   UNK A   0      -8.858   5.151  71.285  1.00  0.00    -0.149 C  
ENDROOT
BRANCH   5   6
HETATM    6  C   UNK A   0      -8.572   5.116  69.812  1.00  0.00    -0.096 C  
HETATM    7  N   UNK A   1      -9.630   4.817  68.986  1.00  0.00    -0.152 N  
HETATM    8  O   UNK A   0      -7.428   5.279  69.406  1.00  0.00    -0.063 OA 
HETATM    9  H   UNK A   1     -10.530   4.675  69.447  1.00  0.00     0.000 HD 
BRANCH   7  10
HETATM   10  C   UNK A   1      -9.626   4.683  67.599  1.00  0.00    -0.161 C  
HETATM   11  C   UNK A   1     -10.189   5.631  66.807  1.00  0.00    -0.276 C  
HETATM   12  C   UNK A   1      -9.081   3.507  66.810  1.00  0.00    -0.164 C  
HETATM   13  O   UNK A   1      -9.174   2.302  67.403  1.00  0.00    -0.157 OA 
HETATM   14  O   UNK A   1      -8.743   3.605  65.638  1.00  0.00    -0.111 OA 
BRANCH  11  15
HETATM   15  C   UNK A   1     -10.902   6.871  67.251  1.00  0.00    -0.426 C  
BRANCH  15  16
HETATM   16  C   UNK A   1     -10.042   8.139  67.418  1.00  0.00    -0.298 C  
BRANCH  16  17
HETATM   17  C   UNK A   1     -10.251   8.987  66.156  1.00  0.00    -0.141 C  
BRANCH  17  18
HETATM   18  C   UNK A   1      -9.644  10.384  66.193  1.00  0.00    -0.196 C  
BRANCH  18  19
HETATM   19  S   UNK A   1     -10.503  11.285  67.537  1.00  0.00    -0.212 SA 
BRANCH  19  20
HETATM   20  C   UNK A   1     -10.893  12.837  66.662  1.00  0.00    -0.264 C  
BRANCH  20  21
HETATM   21  C   UNK A   1     -10.950  12.606  65.144  1.00  0.00    -0.291 C  
HETATM   22  N   UNK A   1      -9.810  13.257  64.420  1.00  0.00    -0.653 NA 
HETATM   23  C   UNK A   1     -12.254  13.219  64.632  1.00  0.00    -0.407 C  
HETATM   24  O   UNK A   1     -13.358  12.712  64.745  1.00  0.00    -0.787 OA 
HETATM   25  O   UNK A   1     -12.038  14.439  64.072  1.00  0.00    -0.430 OA 
HETATM   26  H1  UNK A   1      -9.847  13.104  63.412  1.00  0.00     0.000 HD 
HETATM   27  H2  UNK A   1      -8.913  12.958  64.804  1.00  0.00     0.000 HD 
ENDBRANCH  20  21
ENDBRANCH  19  20
ENDBRANCH  18  19
ENDBRANCH  17  18
ENDBRANCH  16  17
ENDBRANCH  15  16
ENDBRANCH  11  15
ENDBRANCH   7  10
ENDBRANCH   5   6
TORSDOF 9
ENDMDL
MODEL      238
REMARK 921   NORMALIZED FREE ENERGY PREDICTED BY IDOCK:   -3.88 KCAL/MOL
REMARK 922        TOTAL FREE ENERGY PREDICTED BY IDOCK:   -6.89 KCAL/MOL
REMARK 923 INTER-LIGAND FREE ENERGY PREDICTED BY IDOCK:   -6.03 KCAL/MOL
REMARK 924 INTRA-LIGAND FREE ENERGY PREDICTED BY IDOCK:   -0.86 KCAL/MOL
REMARK 927      BINDING AFFINITY PREDICTED BY RF-SCORE:    0.00 PKD
ROOT
HETATM    1  C   UNK A   0     -11.289   6.268  69.732  1.00  0.00    -0.506 C  
HETATM    2  C   UNK A   0     -10.438   6.636  68.540  1.00  0.00    -0.246 C  
HETATM    3  C   UNK A   0     -10.862   6.044  67.218  1.00  0.00    -0.403 C  
HETATM    4  C   UNK A   0      -8.968   6.742  68.868  1.00  0.00    -0.131 C  
HETATM    5  C   UNK A   0     -11.026   7.537  67.446  1.00  0.00    -0.165 C  
ENDROOT
BRANCH   5   6
HETATM    6  C   UNK A   0     -10.195   8.443  66.585  1.00  0.00    -0.265 C  
HETATM    7  N   UNK A   1     -10.487   9.787  66.645  1.00  0.00    -0.196 N  
HETATM    8  O   UNK A   0      -9.358   7.970  65.827  1.00  0.00    -0.085 OA 
HETATM    9  H   UNK A   1     -11.225  10.055  67.296  1.00  0.00     0.000 HD 
BRANCH   7  10
HETATM   10  C   UNK A   1      -9.898  10.825  65.925  1.00  0.00    -0.239 C  
HETATM   11  C   UNK A   1      -8.699  11.338  66.300  1.00  0.00    -0.184 C  
HETATM   12  C   UNK A   1     -10.492  11.539  64.726  1.00  0.00    -0.299 C  
HETATM   13  O   UNK A   1     -11.835  11.649  64.707  1.00  0.00    -0.154 OA 
HETATM   14  O   UNK A   1      -9.803  12.139  63.912  1.00  0.00    -0.287 OA 
BRANCH  11  15
HETATM   15  C   UNK A   1      -7.880  10.943  67.491  1.00  0.00    -0.114 C  
BRANCH  15  16
HETATM   16  C   UNK A   1      -6.772  11.924  67.922  1.00  0.00    -0.079 C  
BRANCH  16  17
HETATM   17  C   UNK A   1      -7.262  13.333  67.562  1.00  0.00    -0.157 C  
BRANCH  17  18
HETATM   18  C   UNK A   1      -7.334  14.321  68.721  1.00  0.00    -0.131 C  
BRANCH  18  19
HETATM   19  S   UNK A   1      -8.976  15.127  68.609  1.00  0.00    -0.200 SA 
BRANCH  19  20
HETATM   20  C   UNK A   1      -9.124  15.268  66.797  1.00  0.00    -0.256 C  
BRANCH  20  21
HETATM   21  C   UNK A   1      -8.843  16.708  66.339  1.00  0.00    -0.302 C  
HETATM   22  N   UNK A   1      -8.214  17.541  67.414  1.00  0.00    -0.205 NA 
HETATM   23  C   UNK A   1     -10.184  17.343  65.965  1.00  0.00    -0.300 C  
HETATM   24  O   UNK A   1     -10.791  17.136  64.928  1.00  0.00    -0.751 OA 
HETATM   25  O   UNK A   1     -10.648  18.137  66.965  1.00  0.00    -0.378 OA 
HETATM   26  H1  UNK A   1      -8.028  18.497  67.110  1.00  0.00     0.000 HD 
HETATM   27  H2  UNK A   1      -7.367  17.100  67.772  1.00  0.00     0.000 HD 
ENDBRANCH  20  21
ENDBRANCH  19  20
ENDBRANCH  18  19
ENDBRANCH  17  18
ENDBRANCH  16  17
ENDBRANCH  15  16
ENDBRANCH  11  15
ENDBRANCH   7  10
ENDBRANCH   5   6
TORSDOF 9
ENDMDL
MODEL      239
REMARK 921   NORMALIZED FREE ENERGY PREDICTED BY IDOCK:   -3.86 KCAL/MOL
REMARK 922        TOTAL FREE ENERGY PREDICTED BY IDOCK:   -6.86 KCAL/MOL
REMARK 923 INTER-LIGAND FREE ENERGY PREDICTED BY IDOCK:   -5.97 KCAL/MOL
REMARK 924 INTRA-LIGAND FREE ENERGY PREDICTED BY IDOCK:   -0.89 KCAL/MOL
REMARK 927      BINDING AFFINITY PREDICTED BY RF-SCORE:    0.00 PKD
ROOT
HETATM    1  C   UNK A   0     -12.524  14.746  64.071  1.00  0.00    -0.015 C  
HETATM    2  C   UNK A   0     -11.669  13.886  64.971  1.00  0.00    -0.365 C  
HETATM    3  C   UNK A   0     -10.490  13.210  64.314  1.00  0.00    -0.410 C  
HETATM    4  C   UNK A   0     -12.466  13.140  66.014  1.00  0.00    -0.330 C  
HETATM    5  C   UNK A   0     -10.240  14.335  65.303  1.00  0.00    -0.408 C  
ENDROOT
BRANCH   5   6
HETATM    6  C   UNK A   0      -9.531  13.967  66.574  1.00  0.00    -0.274 C  
HETATM    7  N   UNK A   1      -8.541  13.017  66.474  1.00  0.00    -0.425 N  
HETATM    8  O   UNK A   0      -9.890  14.453  67.639  1.00  0.00    -0.220 OA 
HETATM    9  H   UNK A   1      -8.352  12.666  65.534  1.00  0.00     0.000 HD 
BRANCH   7  10
HETATM   10  C   UNK A   1      -7.765  12.474  67.496  1.00  0.00    -0.165 C  
HETATM   11  C   UNK A   1      -8.066  11.263  68.029  1.00  0.00    -0.128 C  
HETATM   12  C   UNK A   1      -6.577  13.133  68.171  1.00  0.00    -0.107 C  
HETATM   13  O   UNK A   1      -6.621  14.475  68.269  1.00  0.00    -0.098 OA 
HETATM   14  O   UNK A   1      -5.714  12.489  68.753  1.00  0.00    -0.060 OA 
BRANCH  11  15
HETATM   15  C   UNK A   1      -9.226  10.382  67.674  1.00  0.00    -0.157 C  
BRANCH  15  16
HETATM   16  C   UNK A   1      -8.886   8.976  67.142  1.00  0.00    -0.130 C  
BRANCH  16  17
HETATM   17  C   UNK A   1     -10.216   8.225  66.993  1.00  0.00    -0.380 C  
BRANCH  17  18
HETATM   18  C   UNK A   1     -10.172   6.737  67.317  1.00  0.00    -0.210 C  
BRANCH  18  19
HETATM   19  S   UNK A   1      -9.546   6.601  69.033  1.00  0.00    -0.133 SA 
BRANCH  19  20
HETATM   20  C   UNK A   1     -10.950   5.727  69.802  1.00  0.00    -0.327 C  
BRANCH  20  21
HETATM   21  C   UNK A   1     -11.785   6.691  70.661  1.00  0.00    -0.394 C  
HETATM   22  N   UNK A   1     -11.507   8.130  70.347  1.00  0.00    -0.434 NA 
HETATM   23  C   UNK A   1     -11.416   6.441  72.124  1.00  0.00    -0.301 C  
HETATM   24  O   UNK A   1     -11.814   5.504  72.796  1.00  0.00    -0.271 OA 
HETATM   25  O   UNK A   1     -10.539   7.374  72.577  1.00  0.00    -0.225 OA 
HETATM   26  H1  UNK A   1     -12.061   8.769  70.917  1.00  0.00     0.000 HD 
HETATM   27  H2  UNK A   1     -11.636   8.320  69.353  1.00  0.00     0.000 HD 
ENDBRANCH  20  21
ENDBRANCH  19  20
ENDBRANCH  18  19
ENDBRANCH  17  18
ENDBRANCH  16  17
ENDBRANCH  15  16
ENDBRANCH  11  15
ENDBRANCH   7  10
ENDBRANCH   5   6
TORSDOF 9
ENDMDL
MODEL      240
REMARK 921   NORMALIZED FREE ENERGY PREDICTED BY IDOCK:   -3.83 KCAL/MOL
REMARK 922        TOTAL FREE ENERGY PREDICTED BY IDOCK:   -6.81 KCAL/MOL
REMARK 923 INTER-LIGAND FREE ENERGY PREDICTED BY IDOCK:   -6.07 KCAL/MOL
REMARK 924 INTRA-LIGAND FREE ENERGY PREDICTED BY IDOCK:   -0.74 KCAL/MOL
REMARK 927      BINDING AFFINITY PREDICTED BY RF-SCORE:    0.00 PKD
ROOT
HETATM    1  C   UNK A   0     -11.045   4.990  72.873  1.00  0.00    -0.348 C  
HETATM    2  C   UNK A   0     -10.978   6.348  72.215  1.00  0.00    -0.289 C  
HETATM    3  C   UNK A   0     -10.456   6.372  70.800  1.00  0.00    -0.270 C  
HETATM    4  C   UNK A   0     -10.586   7.452  73.169  1.00  0.00    -0.424 C  
HETATM    5  C   UNK A   0     -11.925   6.667  71.051  1.00  0.00    -0.415 C  
ENDROOT
BRANCH   5   6
HETATM    6  C   UNK A   0     -12.396   8.054  70.724  1.00  0.00     0.044 C  
HETATM    7  N   UNK A   1     -11.519   8.855  70.029  1.00  0.00    -0.454 N  
HETATM    8  O   UNK A   0     -13.481   8.445  71.134  1.00  0.00    -0.161 OA 
HETATM    9  H   UNK A   1     -10.632   8.423  69.767  1.00  0.00     0.000 HD 
BRANCH   7  10
HETATM   10  C   UNK A   1     -11.692  10.181  69.639  1.00  0.00    -0.098 C  
HETATM   11  C   UNK A   1     -11.234  10.619  68.439  1.00  0.00    -0.347 C  
HETATM   12  C   UNK A   1     -12.325  11.286  70.463  1.00  0.00    -0.356 C  
HETATM   13  O   UNK A   1     -12.156  11.202  71.797  1.00  0.00     0.069 OA 
HETATM   14  O   UNK A   1     -12.804  12.291  69.955  1.00  0.00     0.299 OA 
BRANCH  11  15
HETATM   15  C   UNK A   1     -10.476   9.826  67.418  1.00  0.00    -0.319 C  
BRANCH  15  16
HETATM   16  C   UNK A   1      -8.945  10.006  67.402  1.00  0.00    -0.139 C  
BRANCH  16  17
HETATM   17  C   UNK A   1      -8.663  11.339  66.696  1.00  0.00    -0.174 C  
BRANCH  17  18
HETATM   18  C   UNK A   1      -7.935  12.386  67.530  1.00  0.00    -0.173 C  
BRANCH  18  19
HETATM   19  S   UNK A   1      -8.779  13.980  67.209  1.00  0.00    -0.221 SA 
BRANCH  19  20
HETATM   20  C   UNK A   1     -10.257  13.371  66.331  1.00  0.00    -0.293 C  
BRANCH  20  21
HETATM   21  C   UNK A   1     -11.437  14.338  66.517  1.00  0.00    -0.360 C  
HETATM   22  N   UNK A   1     -12.750  13.626  66.639  1.00  0.00    -0.263 NA 
HETATM   23  C   UNK A   1     -11.494  15.239  65.282  1.00  0.00    -0.217 C  
HETATM   24  O   UNK A   1     -10.756  16.187  65.072  1.00  0.00    -0.558 OA 
HETATM   25  O   UNK A   1     -12.447  14.818  64.409  1.00  0.00    -0.599 OA 
HETATM   26  H1  UNK A   1     -13.534  14.267  66.762  1.00  0.00     0.000 HD 
HETATM   27  H2  UNK A   1     -12.724  12.933  67.386  1.00  0.00     0.000 HD 
ENDBRANCH  20  21
ENDBRANCH  19  20
ENDBRANCH  18  19
ENDBRANCH  17  18
ENDBRANCH  16  17
ENDBRANCH  15  16
ENDBRANCH  11  15
ENDBRANCH   7  10
ENDBRANCH   5   6
TORSDOF 9
ENDMDL
MODEL      241
REMARK 921   NORMALIZED FREE ENERGY PREDICTED BY IDOCK:   -3.82 KCAL/MOL
REMARK 922        TOTAL FREE ENERGY PREDICTED BY IDOCK:   -6.80 KCAL/MOL
REMARK 923 INTER-LIGAND FREE ENERGY PREDICTED BY IDOCK:   -6.67 KCAL/MOL
REMARK 924 INTRA-LIGAND FREE ENERGY PREDICTED BY IDOCK:   -0.13 KCAL/MOL
REMARK 927      BINDING AFFINITY PREDICTED BY RF-SCORE:    0.00 PKD
ROOT
HETATM    1  C   UNK A   0     -12.295  14.986  72.606  1.00  0.00    -0.446 C  
HETATM    2  C   UNK A   0     -12.414  14.477  71.189  1.00  0.00    -0.411 C  
HETATM    3  C   UNK A   0     -13.274  15.300  70.262  1.00  0.00    -0.054 C  
HETATM    4  C   UNK A   0     -12.459  12.970  71.101  1.00  0.00    -0.364 C  
HETATM    5  C   UNK A   0     -11.770  15.274  70.048  1.00  0.00    -0.344 C  
ENDROOT
BRANCH   5   6
HETATM    6  C   UNK A   0     -11.284  14.649  68.773  1.00  0.00    -0.267 C  
HETATM    7  N   UNK A   1     -12.247  14.154  67.924  1.00  0.00    -0.563 N  
HETATM    8  O   UNK A   0     -10.083  14.535  68.566  1.00  0.00    -0.228 OA 
HETATM    9  H   UNK A   1     -13.214  14.285  68.221  1.00  0.00     0.000 HD 
BRANCH   7  10
HETATM   10  C   UNK A   1     -12.064  13.497  66.709  1.00  0.00    -0.375 C  
HETATM   11  C   UNK A   1     -11.849  12.158  66.668  1.00  0.00    -0.314 C  
HETATM   12  C   UNK A   1     -12.020  14.140  65.335  1.00  0.00    -0.381 C  
HETATM   13  O   UNK A   1     -11.515  15.388  65.281  1.00  0.00    -0.271 OA 
HETATM   14  O   UNK A   1     -12.255  13.514  64.310  1.00  0.00    -0.472 OA 
BRANCH  11  15
HETATM   15  C   UNK A   1     -11.732  11.226  67.835  1.00  0.00    -0.289 C  
BRANCH  15  16
HETATM   16  C   UNK A   1     -10.895   9.950  67.617  1.00  0.00    -0.318 C  
BRANCH  16  17
HETATM   17  C   UNK A   1      -9.456  10.406  67.337  1.00  0.00    -0.170 C  
BRANCH  17  18
HETATM   18  C   UNK A   1      -8.378   9.348  67.541  1.00  0.00    -0.122 C  
BRANCH  18  19
HETATM   19  S   UNK A   1      -9.207   7.725  67.353  1.00  0.00    -0.139 SA 
BRANCH  19  20
HETATM   20  C   UNK A   1      -8.739   7.341  65.633  1.00  0.00    -0.070 C  
BRANCH  20  21
HETATM   21  C   UNK A   1      -8.654   5.822  65.418  1.00  0.00    -0.143 C  
HETATM   22  N   UNK A   1      -8.944   5.423  64.003  1.00  0.00    -0.347 NA 
HETATM   23  C   UNK A   1      -9.700   5.169  66.323  1.00  0.00    -0.174 C  
HETATM   24  O   UNK A   1      -9.579   5.002  67.525  1.00  0.00    -0.132 OA 
HETATM   25  O   UNK A   1     -10.818   4.839  65.624  1.00  0.00    -0.274 OA 
HETATM   26  H1  UNK A   1      -8.888   4.414  63.860  1.00  0.00     0.000 HD 
HETATM   27  H2  UNK A   1      -8.337   5.919  63.350  1.00  0.00     0.000 HD 
ENDBRANCH  20  21
ENDBRANCH  19  20
ENDBRANCH  18  19
ENDBRANCH  17  18
ENDBRANCH  16  17
ENDBRANCH  15  16
ENDBRANCH  11  15
ENDBRANCH   7  10
ENDBRANCH   5   6
TORSDOF 9
ENDMDL
MODEL      242
REMARK 921   NORMALIZED FREE ENERGY PREDICTED BY IDOCK:   -3.82 KCAL/MOL
REMARK 922        TOTAL FREE ENERGY PREDICTED BY IDOCK:   -6.80 KCAL/MOL
REMARK 923 INTER-LIGAND FREE ENERGY PREDICTED BY IDOCK:   -5.64 KCAL/MOL
REMARK 924 INTRA-LIGAND FREE ENERGY PREDICTED BY IDOCK:   -1.16 KCAL/MOL
REMARK 927      BINDING AFFINITY PREDICTED BY RF-SCORE:    0.00 PKD
ROOT
HETATM    1  C   UNK A   0     -11.964  12.055  63.861  1.00  0.00    -0.542 C  
HETATM    2  C   UNK A   0     -10.969  11.871  64.983  1.00  0.00    -0.365 C  
HETATM    3  C   UNK A   0     -10.515  13.133  65.677  1.00  0.00    -0.290 C  
HETATM    4  C   UNK A   0      -9.970  10.770  64.718  1.00  0.00    -0.382 C  
HETATM    5  C   UNK A   0     -11.404  12.155  66.427  1.00  0.00    -0.411 C  
ENDROOT
BRANCH   5   6
HETATM    6  C   UNK A   0     -10.798  11.477  67.621  1.00  0.00    -0.227 C  
HETATM    7  N   UNK A   1     -11.529  10.459  68.188  1.00  0.00    -0.499 N  
HETATM    8  O   UNK A   0      -9.740  11.883  68.085  1.00  0.00    -0.183 OA 
HETATM    9  H   UNK A   1     -12.410  10.231  67.726  1.00  0.00     0.000 HD 
BRANCH   7  10
HETATM   10  C   UNK A   1     -11.216   9.702  69.315  1.00  0.00    -0.047 C  
HETATM   11  C   UNK A   1     -10.708   8.449  69.192  1.00  0.00    -0.123 C  
HETATM   12  C   UNK A   1     -11.434  10.106  70.761  1.00  0.00    -0.357 C  
HETATM   13  O   UNK A   1     -12.498  10.897  71.001  1.00  0.00    -0.349 OA 
HETATM   14  O   UNK A   1     -10.802   9.609  71.683  1.00  0.00    -0.290 OA 
BRANCH  11  15
HETATM   15  C   UNK A   1     -10.457   7.697  67.921  1.00  0.00    -0.270 C  
BRANCH  15  16
HETATM   16  C   UNK A   1      -9.049   7.827  67.309  1.00  0.00    -0.147 C  
BRANCH  16  17
HETATM   17  C   UNK A   1      -8.184   6.732  67.948  1.00  0.00    -0.117 C  
BRANCH  17  18
HETATM   18  C   UNK A   1      -7.256   7.193  69.065  1.00  0.00    -0.086 C  
BRANCH  18  19
HETATM   19  S   UNK A   1      -7.348   5.913  70.373  1.00  0.00    -0.090 SA 
BRANCH  19  20
HETATM   20  C   UNK A   1      -6.506   6.799  71.726  1.00  0.00    -0.049 C  
BRANCH  20  21
HETATM   21  C   UNK A   1      -7.110   6.416  73.086  1.00  0.00    -0.082 C  
HETATM   22  N   UNK A   1      -7.774   5.072  73.063  1.00  0.00    -0.096 NA 
HETATM   23  C   UNK A   1      -8.168   7.464  73.434  1.00  0.00    -0.119 C  
HETATM   24  O   UNK A   1      -7.931   8.583  73.860  1.00  0.00    -0.375 OA 
HETATM   25  O   UNK A   1      -9.420   7.012  73.159  1.00  0.00    -0.143 OA 
HETATM   26  H1  UNK A   1      -8.175   4.816  73.965  1.00  0.00     0.000 HD 
HETATM   27  H2  UNK A   1      -7.132   4.352  72.731  1.00  0.00     0.000 HD 
ENDBRANCH  20  21
ENDBRANCH  19  20
ENDBRANCH  18  19
ENDBRANCH  17  18
ENDBRANCH  16  17
ENDBRANCH  15  16
ENDBRANCH  11  15
ENDBRANCH   7  10
ENDBRANCH   5   6
TORSDOF 9
ENDMDL
MODEL      243
REMARK 921   NORMALIZED FREE ENERGY PREDICTED BY IDOCK:   -3.79 KCAL/MOL
REMARK 922        TOTAL FREE ENERGY PREDICTED BY IDOCK:   -6.74 KCAL/MOL
REMARK 923 INTER-LIGAND FREE ENERGY PREDICTED BY IDOCK:   -5.94 KCAL/MOL
REMARK 924 INTRA-LIGAND FREE ENERGY PREDICTED BY IDOCK:   -0.81 KCAL/MOL
REMARK 927      BINDING AFFINITY PREDICTED BY RF-SCORE:    0.00 PKD
ROOT
HETATM    1  C   UNK A   0     -13.019  13.502  72.420  1.00  0.00    -0.399 C  
HETATM    2  C   UNK A   0     -12.556  13.801  71.014  1.00  0.00    -0.446 C  
HETATM    3  C   UNK A   0     -13.269  14.928  70.309  1.00  0.00     0.005 C  
HETATM    4  C   UNK A   0     -12.176  12.562  70.238  1.00  0.00    -0.345 C  
HETATM    5  C   UNK A   0     -11.821  15.117  70.729  1.00  0.00    -0.371 C  
ENDROOT
BRANCH   5   6
HETATM    6  C   UNK A   0     -10.818  15.282  69.625  1.00  0.00    -0.286 C  
HETATM    7  N   UNK A   1     -11.311  15.291  68.341  1.00  0.00    -0.313 N  
HETATM    8  O   UNK A   0      -9.622  15.330  69.886  1.00  0.00    -0.207 OA 
HETATM    9  H   UNK A   1     -12.325  15.216  68.252  1.00  0.00     0.000 HD 
BRANCH   7  10
HETATM   10  C   UNK A   1     -10.598  15.389  67.148  1.00  0.00    -0.305 C  
HETATM   11  C   UNK A   1     -10.016  14.295  66.594  1.00  0.00    -0.279 C  
HETATM   12  C   UNK A   1     -10.327  16.658  66.363  1.00  0.00    -0.306 C  
HETATM   13  O   UNK A   1     -10.198  17.786  67.088  1.00  0.00    -0.326 OA 
HETATM   14  O   UNK A   1     -10.060  16.647  65.169  1.00  0.00    -0.539 OA 
BRANCH  11  15
HETATM   15  C   UNK A   1      -9.998  12.903  67.148  1.00  0.00    -0.240 C  
BRANCH  15  16
HETATM   16  C   UNK A   1     -10.316  11.764  66.160  1.00  0.00    -0.266 C  
BRANCH  16  17
HETATM   17  C   UNK A   1      -9.555  10.525  66.651  1.00  0.00    -0.210 C  
BRANCH  17  18
HETATM   18  C   UNK A   1     -10.394   9.267  66.840  1.00  0.00    -0.246 C  
BRANCH  18  19
HETATM   19  S   UNK A   1      -9.353   8.088  67.779  1.00  0.00    -0.138 SA 
BRANCH  19  20
HETATM   20  C   UNK A   1      -9.523   6.617  66.715  1.00  0.00    -0.160 C  
BRANCH  20  21
HETATM   21  C   UNK A   1      -8.143   6.094  66.286  1.00  0.00    -0.113 C  
HETATM   22  N   UNK A   1      -7.155   7.197  66.056  1.00  0.00    -0.071 NA 
HETATM   23  C   UNK A   1      -8.326   5.334  64.971  1.00  0.00    -0.146 C  
HETATM   24  O   UNK A   1      -8.780   4.206  64.871  1.00  0.00    -0.118 OA 
HETATM   25  O   UNK A   1      -7.965   6.098  63.906  1.00  0.00    -0.113 OA 
HETATM   26  H1  UNK A   1      -6.239   6.850  65.771  1.00  0.00     0.000 HD 
HETATM   27  H2  UNK A   1      -7.080   7.799  66.876  1.00  0.00     0.000 HD 
ENDBRANCH  20  21
ENDBRANCH  19  20
ENDBRANCH  18  19
ENDBRANCH  17  18
ENDBRANCH  16  17
ENDBRANCH  15  16
ENDBRANCH  11  15
ENDBRANCH   7  10
ENDBRANCH   5   6
TORSDOF 9
ENDMDL
MODEL      244
REMARK 921   NORMALIZED FREE ENERGY PREDICTED BY IDOCK:   -3.78 KCAL/MOL
REMARK 922        TOTAL FREE ENERGY PREDICTED BY IDOCK:   -6.73 KCAL/MOL
REMARK 923 INTER-LIGAND FREE ENERGY PREDICTED BY IDOCK:   -6.06 KCAL/MOL
REMARK 924 INTRA-LIGAND FREE ENERGY PREDICTED BY IDOCK:   -0.67 KCAL/MOL
REMARK 927      BINDING AFFINITY PREDICTED BY RF-SCORE:    0.00 PKD
ROOT
HETATM    1  C   UNK A   0     -11.158  15.282  67.531  1.00  0.00    -0.324 C  
HETATM    2  C   UNK A   0     -11.109  13.797  67.261  1.00  0.00    -0.319 C  
HETATM    3  C   UNK A   0      -9.736  13.169  67.274  1.00  0.00    -0.230 C  
HETATM    4  C   UNK A   0     -12.122  13.345  66.237  1.00  0.00    -0.475 C  
HETATM    5  C   UNK A   0     -10.710  12.840  68.392  1.00  0.00    -0.269 C  
ENDROOT
BRANCH   5   6
HETATM    6  C   UNK A   0     -11.181  11.418  68.476  1.00  0.00    -0.250 C  
HETATM    7  N   UNK A   1     -10.267  10.446  68.142  1.00  0.00    -0.155 N  
HETATM    8  O   UNK A   0     -12.346  11.174  68.762  1.00  0.00    -0.539 OA 
HETATM    9  H   UNK A   1      -9.333  10.776  67.894  1.00  0.00     0.000 HD 
BRANCH   7  10
HETATM   10  C   UNK A   1     -10.457   9.066  68.098  1.00  0.00    -0.207 C  
HETATM   11  C   UNK A   1     -10.604   8.348  69.240  1.00  0.00    -0.193 C  
HETATM   12  C   UNK A   1     -10.471   8.198  66.854  1.00  0.00    -0.309 C  
HETATM   13  O   UNK A   1      -9.678   8.600  65.842  1.00  0.00    -0.209 OA 
HETATM   14  O   UNK A   1     -11.021   7.105  66.823  1.00  0.00    -0.305 OA 
BRANCH  11  15
HETATM   15  C   UNK A   1     -10.543   8.864  70.646  1.00  0.00    -0.277 C  
BRANCH  15  16
HETATM   16  C   UNK A   1      -9.164   8.832  71.333  1.00  0.00    -0.325 C  
BRANCH  16  17
HETATM   17  C   UNK A   1      -9.414   8.521  72.815  1.00  0.00    -0.244 C  
BRANCH  17  18
HETATM   18  C   UNK A   1      -8.308   7.747  73.521  1.00  0.00    -0.196 C  
BRANCH  18  19
HETATM   19  S   UNK A   1      -9.111   6.296  74.300  1.00  0.00    -0.167 SA 
BRANCH  19  20
HETATM   20  C   UNK A   1      -8.867   5.065  72.977  1.00  0.00    -0.116 C  
BRANCH  20  21
HETATM   21  C   UNK A   1     -10.218   4.573  72.436  1.00  0.00    -0.190 C  
HETATM   22  N   UNK A   1     -11.365   5.426  72.888  1.00  0.00    -0.348 NA 
HETATM   23  C   UNK A   1     -10.439   3.155  72.967  1.00  0.00    -0.163 C  
HETATM   24  O   UNK A   1      -9.903   2.152  72.527  1.00  0.00    -0.106 OA 
HETATM   25  O   UNK A   1     -11.278   3.155  74.036  1.00  0.00    -0.147 OA 
HETATM   26  H1  UNK A   1     -12.262   5.100  72.529  1.00  0.00     0.000 HD 
HETATM   27  H2  UNK A   1     -11.209   6.405  72.649  1.00  0.00     0.000 HD 
ENDBRANCH  20  21
ENDBRANCH  19  20
ENDBRANCH  18  19
ENDBRANCH  17  18
ENDBRANCH  16  17
ENDBRANCH  15  16
ENDBRANCH  11  15
ENDBRANCH   7  10
ENDBRANCH   5   6
TORSDOF 9
ENDMDL
MODEL      245
REMARK 921   NORMALIZED FREE ENERGY PREDICTED BY IDOCK:   -3.76 KCAL/MOL
REMARK 922        TOTAL FREE ENERGY PREDICTED BY IDOCK:   -6.71 KCAL/MOL
REMARK 923 INTER-LIGAND FREE ENERGY PREDICTED BY IDOCK:   -6.20 KCAL/MOL
REMARK 924 INTRA-LIGAND FREE ENERGY PREDICTED BY IDOCK:   -0.51 KCAL/MOL
REMARK 927      BINDING AFFINITY PREDICTED BY RF-SCORE:    0.00 PKD
ROOT
HETATM    1  C   UNK A   0      -7.232   7.292  65.712  1.00  0.00    -0.070 C  
HETATM    2  C   UNK A   0      -8.222   7.902  66.675  1.00  0.00    -0.119 C  
HETATM    3  C   UNK A   0      -9.630   7.363  66.606  1.00  0.00    -0.251 C  
HETATM    4  C   UNK A   0      -8.003   9.380  66.896  1.00  0.00    -0.109 C  
HETATM    5  C   UNK A   0      -8.777   7.049  67.823  1.00  0.00    -0.121 C  
ENDROOT
BRANCH   5   6
HETATM    6  C   UNK A   0      -9.238   7.622  69.132  1.00  0.00    -0.141 C  
HETATM    7  N   UNK A   1     -10.504   8.159  69.157  1.00  0.00    -0.241 N  
HETATM    8  O   UNK A   0      -8.473   7.658  70.088  1.00  0.00    -0.134 OA 
HETATM    9  H   UNK A   1     -11.035   8.092  68.288  1.00  0.00     0.000 HD 
BRANCH   7  10
HETATM   10  C   UNK A   1     -11.151   8.782  70.222  1.00  0.00    -0.222 C  
HETATM   11  C   UNK A   1     -11.218  10.136  70.299  1.00  0.00    -0.387 C  
HETATM   12  C   UNK A   1     -11.788   8.095  71.415  1.00  0.00    -0.295 C  
HETATM   13  O   UNK A   1     -11.209   6.948  71.818  1.00  0.00    -0.238 OA 
HETATM   14  O   UNK A   1     -12.660   8.627  72.089  1.00  0.00    -0.346 OA 
BRANCH  11  15
HETATM   15  C   UNK A   1     -10.613  11.125  69.350  1.00  0.00    -0.174 C  
BRANCH  15  16
HETATM   16  C   UNK A   1     -11.282  11.253  67.968  1.00  0.00    -0.351 C  
BRANCH  16  17
HETATM   17  C   UNK A   1     -11.829  12.684  67.870  1.00  0.00    -0.388 C  
BRANCH  17  18
HETATM   18  C   UNK A   1     -12.268  13.128  66.480  1.00  0.00    -0.291 C  
BRANCH  18  19
HETATM   19  S   UNK A   1     -11.264  14.604  66.069  1.00  0.00    -0.342 SA 
BRANCH  19  20
HETATM   20  C   UNK A   1      -9.938  13.812  65.100  1.00  0.00    -0.211 C  
BRANCH  20  21
HETATM   21  C   UNK A   1     -10.222  12.313  64.914  1.00  0.00    -0.281 C  
HETATM   22  N   UNK A   1      -8.993  11.470  65.072  1.00  0.00    -0.406 NA 
HETATM   23  C   UNK A   1     -10.758  12.117  63.495  1.00  0.00    -0.457 C  
HETATM   24  O   UNK A   1     -11.895  12.372  63.134  1.00  0.00    -0.410 OA 
HETATM   25  O   UNK A   1      -9.785  11.665  62.660  1.00  0.00    -0.217 OA 
HETATM   26  H1  UNK A   1      -9.181  10.475  64.948  1.00  0.00     0.000 HD 
HETATM   27  H2  UNK A   1      -8.538  11.649  65.967  1.00  0.00     0.000 HD 
ENDBRANCH  20  21
ENDBRANCH  19  20
ENDBRANCH  18  19
ENDBRANCH  17  18
ENDBRANCH  16  17
ENDBRANCH  15  16
ENDBRANCH  11  15
ENDBRANCH   7  10
ENDBRANCH   5   6
TORSDOF 9
ENDMDL
MODEL      246
REMARK 921   NORMALIZED FREE ENERGY PREDICTED BY IDOCK:   -3.76 KCAL/MOL
REMARK 922        TOTAL FREE ENERGY PREDICTED BY IDOCK:   -6.70 KCAL/MOL
REMARK 923 INTER-LIGAND FREE ENERGY PREDICTED BY IDOCK:   -6.69 KCAL/MOL
REMARK 924 INTRA-LIGAND FREE ENERGY PREDICTED BY IDOCK:   -0.01 KCAL/MOL
REMARK 927      BINDING AFFINITY PREDICTED BY RF-SCORE:    0.00 PKD
ROOT
HETATM    1  C   UNK A   0     -10.770   7.321  69.803  1.00  0.00    -0.253 C  
HETATM    2  C   UNK A   0     -11.286   8.486  70.614  1.00  0.00    -0.265 C  
HETATM    3  C   UNK A   0     -10.263   9.523  71.008  1.00  0.00    -0.332 C  
HETATM    4  C   UNK A   0     -12.363   8.094  71.599  1.00  0.00    -0.347 C  
HETATM    5  C   UNK A   0     -11.324   9.884  69.982  1.00  0.00    -0.303 C  
ENDROOT
BRANCH   5   6
HETATM    6  C   UNK A   0     -12.308  10.945  70.380  1.00  0.00    -0.351 C  
HETATM    7  N   UNK A   1     -11.841  12.239  70.406  1.00  0.00    -0.532 N  
HETATM    8  O   UNK A   0     -13.440  10.632  70.727  1.00  0.00    -0.099 OA 
HETATM    9  H   UNK A   1     -10.870  12.369  70.120  1.00  0.00     0.000 HD 
BRANCH   7  10
HETATM   10  C   UNK A   1     -12.530  13.393  70.773  1.00  0.00    -0.341 C  
HETATM   11  C   UNK A   1     -12.311  14.568  70.131  1.00  0.00    -0.398 C  
HETATM   12  C   UNK A   1     -13.524  13.523  71.912  1.00  0.00    -0.442 C  
HETATM   13  O   UNK A   1     -13.302  12.741  72.985  1.00  0.00    -0.077 OA 
HETATM   14  O   UNK A   1     -14.372  14.405  71.944  1.00  0.00    -0.488 OA 
BRANCH  11  15
HETATM   15  C   UNK A   1     -11.329  14.826  69.029  1.00  0.00    -0.295 C  
BRANCH  15  16
HETATM   16  C   UNK A   1     -11.406  16.205  68.346  1.00  0.00    -0.345 C  
BRANCH  16  17
HETATM   17  C   UNK A   1      -9.992  16.531  67.845  1.00  0.00    -0.245 C  
BRANCH  17  18
HETATM   18  C   UNK A   1      -9.645  16.000  66.460  1.00  0.00    -0.261 C  
BRANCH  18  19
HETATM   19  S   UNK A   1      -8.587  14.527  66.723  1.00  0.00    -0.048 SA 
BRANCH  19  20
HETATM   20  C   UNK A   1      -9.604  13.268  65.882  1.00  0.00    -0.106 C  
BRANCH  20  21
HETATM   21  C   UNK A   1      -9.114  11.853  66.229  1.00  0.00    -0.188 C  
HETATM   22  N   UNK A   1      -7.641  11.804  66.499  1.00  0.00    -0.366 NA 
HETATM   23  C   UNK A   1      -9.410  10.954  65.027  1.00  0.00    -0.226 C  
HETATM   24  O   UNK A   1     -10.507  10.501  64.745  1.00  0.00    -0.304 OA 
HETATM   25  O   UNK A   1      -8.298  10.760  64.271  1.00  0.00    -0.079 OA 
HETATM   26  H1  UNK A   1      -7.316  10.865  66.730  1.00  0.00     0.000 HD 
HETATM   27  H2  UNK A   1      -7.379  12.470  67.225  1.00  0.00     0.000 HD 
ENDBRANCH  20  21
ENDBRANCH  19  20
ENDBRANCH  18  19
ENDBRANCH  17  18
ENDBRANCH  16  17
ENDBRANCH  15  16
ENDBRANCH  11  15
ENDBRANCH   7  10
ENDBRANCH   5   6
TORSDOF 9
ENDMDL
MODEL      247
REMARK 921   NORMALIZED FREE ENERGY PREDICTED BY IDOCK:   -3.76 KCAL/MOL
REMARK 922        TOTAL FREE ENERGY PREDICTED BY IDOCK:   -6.70 KCAL/MOL
REMARK 923 INTER-LIGAND FREE ENERGY PREDICTED BY IDOCK:   -5.42 KCAL/MOL
REMARK 924 INTRA-LIGAND FREE ENERGY PREDICTED BY IDOCK:   -1.28 KCAL/MOL
REMARK 927      BINDING AFFINITY PREDICTED BY RF-SCORE:    0.00 PKD
ROOT
HETATM    1  C   UNK A   0      -9.809   7.806  68.674  1.00  0.00    -0.174 C  
HETATM    2  C   UNK A   0      -9.547   9.235  68.258  1.00  0.00    -0.160 C  
HETATM    3  C   UNK A   0      -9.085   9.434  66.835  1.00  0.00    -0.160 C  
HETATM    4  C   UNK A   0      -8.943  10.073  69.359  1.00  0.00    -0.205 C  
HETATM    5  C   UNK A   0     -10.475   9.901  67.234  1.00  0.00    -0.319 C  
ENDROOT
BRANCH   5   6
HETATM    6  C   UNK A   0     -10.726  11.380  67.185  1.00  0.00    -0.249 C  
HETATM    7  N   UNK A   1      -9.853  12.128  66.430  1.00  0.00    -0.221 N  
HETATM    8  O   UNK A   0     -11.628  11.871  67.853  1.00  0.00    -0.304 OA 
HETATM    9  H   UNK A   1      -9.125  11.606  65.941  1.00  0.00     0.000 HD 
BRANCH   7  10
HETATM   10  C   UNK A   1      -9.839  13.510  66.252  1.00  0.00    -0.299 C  
HETATM   11  C   UNK A   1      -9.205  14.319  67.137  1.00  0.00    -0.230 C  
HETATM   12  C   UNK A   1     -10.534  14.282  65.146  1.00  0.00    -0.411 C  
HETATM   13  O   UNK A   1     -11.687  13.756  64.690  1.00  0.00    -0.362 OA 
HETATM   14  O   UNK A   1     -10.178  15.402  64.804  1.00  0.00    -0.301 OA 
BRANCH  11  15
HETATM   15  C   UNK A   1      -8.502  13.907  68.395  1.00  0.00    -0.159 C  
BRANCH  15  16
HETATM   16  C   UNK A   1      -7.190  13.116  68.224  1.00  0.00    -0.107 C  
BRANCH  16  17
HETATM   17  C   UNK A   1      -6.124  13.838  69.058  1.00  0.00    -0.091 C  
BRANCH  17  18
HETATM   18  C   UNK A   1      -6.647  14.890  70.028  1.00  0.00    -0.162 C  
BRANCH  18  19
HETATM   19  S   UNK A   1      -5.503  16.316  69.909  1.00  0.00    -0.172 SA 
BRANCH  19  20
HETATM   20  C   UNK A   1      -6.105  17.061  68.357  1.00  0.00    -0.144 C  
BRANCH  20  21
HETATM   21  C   UNK A   1      -7.049  18.238  68.650  1.00  0.00    -0.275 C  
HETATM   22  N   UNK A   1      -8.475  17.933  68.301  1.00  0.00    -0.271 NA 
HETATM   23  C   UNK A   1      -6.591  19.421  67.796  1.00  0.00    -0.223 C  
HETATM   24  O   UNK A   1      -5.633  20.134  68.044  1.00  0.00    -0.195 OA 
HETATM   25  O   UNK A   1      -7.361  19.553  66.683  1.00  0.00    -0.225 OA 
HETATM   26  H1  UNK A   1      -9.102  18.714  68.495  1.00  0.00     0.000 HD 
HETATM   27  H2  UNK A   1      -8.792  17.083  68.768  1.00  0.00     0.000 HD 
ENDBRANCH  20  21
ENDBRANCH  19  20
ENDBRANCH  18  19
ENDBRANCH  17  18
ENDBRANCH  16  17
ENDBRANCH  15  16
ENDBRANCH  11  15
ENDBRANCH   7  10
ENDBRANCH   5   6
TORSDOF 9
ENDMDL
MODEL      248
REMARK 921   NORMALIZED FREE ENERGY PREDICTED BY IDOCK:   -3.75 KCAL/MOL
REMARK 922        TOTAL FREE ENERGY PREDICTED BY IDOCK:   -6.70 KCAL/MOL
REMARK 923 INTER-LIGAND FREE ENERGY PREDICTED BY IDOCK:   -7.19 KCAL/MOL
REMARK 924 INTRA-LIGAND FREE ENERGY PREDICTED BY IDOCK:    0.49 KCAL/MOL
REMARK 927      BINDING AFFINITY PREDICTED BY RF-SCORE:    0.00 PKD
ROOT
HETATM    1  C   UNK A   0     -10.782   7.309  69.807  1.00  0.00    -0.253 C  
HETATM    2  C   UNK A   0     -11.248   8.483  70.635  1.00  0.00    -0.278 C  
HETATM    3  C   UNK A   0     -10.201   9.520  70.959  1.00  0.00    -0.332 C  
HETATM    4  C   UNK A   0     -12.267   8.103  71.684  1.00  0.00    -0.343 C  
HETATM    5  C   UNK A   0     -11.319   9.874  69.993  1.00  0.00    -0.303 C  
ENDROOT
BRANCH   5   6
HETATM    6  C   UNK A   0     -12.276  10.941  70.436  1.00  0.00    -0.365 C  
HETATM    7  N   UNK A   1     -11.826  12.240  70.366  1.00  0.00    -0.532 N  
HETATM    8  O   UNK A   0     -13.367  10.633  70.898  1.00  0.00    -0.243 OA 
HETATM    9  H   UNK A   1     -10.887  12.367  69.987  1.00  0.00     0.000 HD 
BRANCH   7  10
HETATM   10  C   UNK A   1     -12.494  13.401  70.749  1.00  0.00    -0.341 C  
HETATM   11  C   UNK A   1     -12.391  14.537  70.013  1.00  0.00    -0.376 C  
HETATM   12  C   UNK A   1     -13.337  13.586  71.996  1.00  0.00    -0.475 C  
HETATM   13  O   UNK A   1     -12.957  12.878  73.078  1.00  0.00     0.122 OA 
HETATM   14  O   UNK A   1     -14.197  14.452  72.084  1.00  0.00    -0.483 OA 
BRANCH  11  15
HETATM   15  C   UNK A   1     -11.566  14.742  68.779  1.00  0.00    -0.347 C  
BRANCH  15  16
HETATM   16  C   UNK A   1     -11.596  13.610  67.733  1.00  0.00    -0.373 C  
BRANCH  16  17
HETATM   17  C   UNK A   1     -11.328  14.259  66.369  1.00  0.00    -0.346 C  
BRANCH  17  18
HETATM   18  C   UNK A   1      -9.862  14.495  66.028  1.00  0.00    -0.318 C  
BRANCH  18  19
HETATM   19  S   UNK A   1      -9.541  16.273  66.335  1.00  0.00    -0.314 SA 
BRANCH  19  20
HETATM   20  C   UNK A   1      -8.278  16.134  67.643  1.00  0.00    -0.147 C  
BRANCH  20  21
HETATM   21  C   UNK A   1      -8.104  17.475  68.374  1.00  0.00    -0.266 C  
HETATM   22  N   UNK A   1      -8.352  18.654  67.483  1.00  0.00    -0.263 NA 
HETATM   23  C   UNK A   1      -6.658  17.545  68.869  1.00  0.00    -0.226 C  
HETATM   24  O   UNK A   1      -6.224  16.960  69.847  1.00  0.00    -0.227 OA 
HETATM   25  O   UNK A   1      -5.893  18.310  68.046  1.00  0.00    -0.163 OA 
HETATM   26  H1  UNK A   1      -8.236  19.543  67.968  1.00  0.00     0.000 HD 
HETATM   27  H2  UNK A   1      -9.270  18.594  67.042  1.00  0.00     0.000 HD 
ENDBRANCH  20  21
ENDBRANCH  19  20
ENDBRANCH  18  19
ENDBRANCH  17  18
ENDBRANCH  16  17
ENDBRANCH  15  16
ENDBRANCH  11  15
ENDBRANCH   7  10
ENDBRANCH   5   6
TORSDOF 9
ENDMDL
MODEL      249
REMARK 921   NORMALIZED FREE ENERGY PREDICTED BY IDOCK:   -3.74 KCAL/MOL
REMARK 922        TOTAL FREE ENERGY PREDICTED BY IDOCK:   -6.68 KCAL/MOL
REMARK 923 INTER-LIGAND FREE ENERGY PREDICTED BY IDOCK:   -5.75 KCAL/MOL
REMARK 924 INTRA-LIGAND FREE ENERGY PREDICTED BY IDOCK:   -0.93 KCAL/MOL
REMARK 927      BINDING AFFINITY PREDICTED BY RF-SCORE:    0.00 PKD
ROOT
HETATM    1  C   UNK A   0     -11.130   7.882  72.947  1.00  0.00    -0.442 C  
HETATM    2  C   UNK A   0     -11.273   8.119  71.462  1.00  0.00    -0.307 C  
HETATM    3  C   UNK A   0     -12.013   9.372  71.061  1.00  0.00    -0.389 C  
HETATM    4  C   UNK A   0     -11.484   6.848  70.675  1.00  0.00    -0.383 C  
HETATM    5  C   UNK A   0     -10.517   9.285  70.811  1.00  0.00    -0.343 C  
ENDROOT
BRANCH   5   6
HETATM    6  C   UNK A   0     -10.075   9.286  69.377  1.00  0.00    -0.197 C  
HETATM    7  N   UNK A   1      -8.718   9.270  69.150  1.00  0.00    -0.135 N  
HETATM    8  O   UNK A   0     -10.905   9.370  68.480  1.00  0.00    -0.191 OA 
HETATM    9  H   UNK A   1      -8.128   9.227  69.981  1.00  0.00     0.000 HD 
BRANCH   7  10
HETATM   10  C   UNK A   1      -8.051   9.306  67.928  1.00  0.00    -0.104 C  
HETATM   11  C   UNK A   1      -7.854  10.481  67.277  1.00  0.00    -0.107 C  
HETATM   12  C   UNK A   1      -7.528   8.112  67.152  1.00  0.00    -0.089 C  
HETATM   13  O   UNK A   1      -8.232   6.970  67.276  1.00  0.00    -0.116 OA 
HETATM   14  O   UNK A   1      -6.632   8.209  66.324  1.00  0.00    -0.046 OA 
BRANCH  11  15
HETATM   15  C   UNK A   1      -8.324  11.839  67.703  1.00  0.00    -0.145 C  
BRANCH  15  16
HETATM   16  C   UNK A   1      -7.237  12.838  68.144  1.00  0.00    -0.115 C  
BRANCH  16  17
HETATM   17  C   UNK A   1      -7.918  14.207  68.274  1.00  0.00    -0.140 C  
BRANCH  17  18
HETATM   18  C   UNK A   1      -7.475  15.261  67.267  1.00  0.00    -0.202 C  
BRANCH  18  19
HETATM   19  S   UNK A   1      -8.943  16.305  66.934  1.00  0.00    -0.236 SA 
BRANCH  19  20
HETATM   20  C   UNK A   1      -9.930  15.926  68.420  1.00  0.00    -0.222 C  
BRANCH  20  21
HETATM   21  C   UNK A   1     -11.381  15.596  68.039  1.00  0.00    -0.324 C  
HETATM   22  N   UNK A   1     -12.339  15.824  69.169  1.00  0.00    -0.539 NA 
HETATM   23  C   UNK A   1     -11.434  14.116  67.659  1.00  0.00    -0.338 C  
HETATM   24  O   UNK A   1     -11.054  13.651  66.597  1.00  0.00    -0.299 OA 
HETATM   25  O   UNK A   1     -11.914  13.361  68.683  1.00  0.00    -0.343 OA 
HETATM   26  H1  UNK A   1     -13.303  15.605  68.916  1.00  0.00     0.000 HD 
HETATM   27  H2  UNK A   1     -12.262  16.776  69.528  1.00  0.00     0.000 HD 
ENDBRANCH  20  21
ENDBRANCH  19  20
ENDBRANCH  18  19
ENDBRANCH  17  18
ENDBRANCH  16  17
ENDBRANCH  15  16
ENDBRANCH  11  15
ENDBRANCH   7  10
ENDBRANCH   5   6
TORSDOF 9
ENDMDL
MODEL      250
REMARK 921   NORMALIZED FREE ENERGY PREDICTED BY IDOCK:   -3.72 KCAL/MOL
REMARK 922        TOTAL FREE ENERGY PREDICTED BY IDOCK:   -6.64 KCAL/MOL
REMARK 923 INTER-LIGAND FREE ENERGY PREDICTED BY IDOCK:   -5.83 KCAL/MOL
REMARK 924 INTRA-LIGAND FREE ENERGY PREDICTED BY IDOCK:   -0.82 KCAL/MOL
REMARK 927      BINDING AFFINITY PREDICTED BY RF-SCORE:    0.00 PKD
ROOT
HETATM    1  C   UNK A   0     -12.139  15.056  64.094  1.00  0.00    -0.244 C  
HETATM    2  C   UNK A   0     -11.944  13.601  64.449  1.00  0.00    -0.476 C  
HETATM    3  C   UNK A   0     -11.938  12.633  63.291  1.00  0.00    -0.526 C  
HETATM    4  C   UNK A   0     -12.621  13.208  65.741  1.00  0.00    -0.351 C  
HETATM    5  C   UNK A   0     -10.644  12.896  64.042  1.00  0.00    -0.418 C  
ENDROOT
BRANCH   5   6
HETATM    6  C   UNK A   0     -10.059  11.738  64.797  1.00  0.00    -0.263 C  
HETATM    7  N   UNK A   1      -8.977  12.011  65.601  1.00  0.00    -0.417 N  
HETATM    8  O   UNK A   0     -10.502  10.609  64.627  1.00  0.00    -0.336 OA 
HETATM    9  H   UNK A   1      -8.683  12.987  65.639  1.00  0.00     0.000 HD 
BRANCH   7  10
HETATM   10  C   UNK A   1      -8.232  11.118  66.370  1.00  0.00    -0.164 C  
HETATM   11  C   UNK A   1      -8.226  11.204  67.724  1.00  0.00    -0.119 C  
HETATM   12  C   UNK A   1      -7.324  10.021  65.848  1.00  0.00    -0.115 C  
HETATM   13  O   UNK A   1      -6.706  10.271  64.677  1.00  0.00    -0.130 OA 
HETATM   14  O   UNK A   1      -7.021   9.045  66.521  1.00  0.00    -0.078 OA 
BRANCH  11  15
HETATM   15  C   UNK A   1      -8.927  12.224  68.568  1.00  0.00    -0.070 C  
BRANCH  15  16
HETATM   16  C   UNK A   1     -10.468  12.196  68.546  1.00  0.00    -0.248 C  
BRANCH  16  17
HETATM   17  C   UNK A   1     -10.937  13.654  68.443  1.00  0.00    -0.284 C  
BRANCH  17  18
HETATM   18  C   UNK A   1     -10.591  14.542  69.632  1.00  0.00    -0.052 C  
BRANCH  18  19
HETATM   19  S   UNK A   1     -10.117  16.171  68.939  1.00  0.00    -0.253 SA 
BRANCH  19  20
HETATM   20  C   UNK A   1      -8.896  15.629  67.697  1.00  0.00    -0.175 C  
BRANCH  20  21
HETATM   21  C   UNK A   1      -7.536  16.301  67.943  1.00  0.00    -0.137 C  
HETATM   22  N   UNK A   1      -7.072  16.159  69.361  1.00  0.00    -0.222 NA 
HETATM   23  C   UNK A   1      -7.696  17.791  67.639  1.00  0.00    -0.208 C  
HETATM   24  O   UNK A   1      -7.729  18.278  66.521  1.00  0.00    -0.228 OA 
HETATM   25  O   UNK A   1      -7.850  18.513  68.781  1.00  0.00    -0.312 OA 
HETATM   26  H1  UNK A   1      -6.169  16.605  69.525  1.00  0.00     0.000 HD 
HETATM   27  H2  UNK A   1      -7.053  15.179  69.644  1.00  0.00     0.000 HD 
ENDBRANCH  20  21
ENDBRANCH  19  20
ENDBRANCH  18  19
ENDBRANCH  17  18
ENDBRANCH  16  17
ENDBRANCH  15  16
ENDBRANCH  11  15
ENDBRANCH   7  10
ENDBRANCH   5   6
TORSDOF 9
ENDMDL
MODEL      251
REMARK 921   NORMALIZED FREE ENERGY PREDICTED BY IDOCK:   -3.71 KCAL/MOL
REMARK 922        TOTAL FREE ENERGY PREDICTED BY IDOCK:   -6.64 KCAL/MOL
REMARK 923 INTER-LIGAND FREE ENERGY PREDICTED BY IDOCK:   -5.63 KCAL/MOL
REMARK 924 INTRA-LIGAND FREE ENERGY PREDICTED BY IDOCK:   -1.01 KCAL/MOL
REMARK 927      BINDING AFFINITY PREDICTED BY RF-SCORE:    0.00 PKD
ROOT
HETATM    1  C   UNK A   0     -12.109  14.750  64.327  1.00  0.00    -0.415 C  
HETATM    2  C   UNK A   0     -11.837  13.333  64.772  1.00  0.00    -0.411 C  
HETATM    3  C   UNK A   0     -12.103  12.256  63.749  1.00  0.00    -0.624 C  
HETATM    4  C   UNK A   0     -12.192  13.087  66.220  1.00  0.00    -0.390 C  
HETATM    5  C   UNK A   0     -10.669  12.560  64.147  1.00  0.00    -0.423 C  
ENDROOT
BRANCH   5   6
HETATM    6  C   UNK A   0      -9.924  11.469  64.859  1.00  0.00    -0.259 C  
HETATM    7  N   UNK A   1      -8.777  11.838  65.523  1.00  0.00    -0.383 N  
HETATM    8  O   UNK A   0     -10.306  10.309  64.772  1.00  0.00    -0.277 OA 
HETATM    9  H   UNK A   1      -8.548  12.832  65.500  1.00  0.00     0.000 HD 
BRANCH   7  10
HETATM   10  C   UNK A   1      -7.889  11.022  66.222  1.00  0.00    -0.141 C  
HETATM   11  C   UNK A   1      -7.867  11.022  67.579  1.00  0.00    -0.116 C  
HETATM   12  C   UNK A   1      -6.838  10.111  65.618  1.00  0.00    -0.124 C  
HETATM   13  O   UNK A   1      -6.290  10.524  64.459  1.00  0.00    -0.093 OA 
HETATM   14  O   UNK A   1      -6.376   9.151  66.222  1.00  0.00    -0.063 OA 
BRANCH  11  15
HETATM   15  C   UNK A   1      -8.695  11.869  68.496  1.00  0.00    -0.108 C  
BRANCH  15  16
HETATM   16  C   UNK A   1     -10.165  11.446  68.686  1.00  0.00    -0.217 C  
BRANCH  16  17
HETATM   17  C   UNK A   1     -10.167  10.287  69.692  1.00  0.00    -0.268 C  
BRANCH  17  18
HETATM   18  C   UNK A   1     -10.417   8.904  69.104  1.00  0.00    -0.223 C  
BRANCH  18  19
HETATM   19  S   UNK A   1     -10.318   7.723  70.502  1.00  0.00    -0.208 SA 
BRANCH  19  20
HETATM   20  C   UNK A   1      -8.642   8.108  71.107  1.00  0.00    -0.133 C  
BRANCH  20  21
HETATM   21  C   UNK A   1      -8.426   7.529  72.514  1.00  0.00    -0.116 C  
HETATM   22  N   UNK A   1      -7.943   8.558  73.492  1.00  0.00    -0.403 NA 
HETATM   23  C   UNK A   1      -7.361   6.437  72.406  1.00  0.00    -0.088 C  
HETATM   24  O   UNK A   1      -7.555   5.311  71.978  1.00  0.00    -0.093 OA 
HETATM   25  O   UNK A   1      -6.144   6.893  72.803  1.00  0.00    -0.051 OA 
HETATM   26  H1  UNK A   1      -7.800   8.175  74.426  1.00  0.00     0.000 HD 
HETATM   27  H2  UNK A   1      -8.571   9.362  73.518  1.00  0.00     0.000 HD 
ENDBRANCH  20  21
ENDBRANCH  19  20
ENDBRANCH  18  19
ENDBRANCH  17  18
ENDBRANCH  16  17
ENDBRANCH  15  16
ENDBRANCH  11  15
ENDBRANCH   7  10
ENDBRANCH   5   6
TORSDOF 9
ENDMDL
MODEL      252
REMARK 921   NORMALIZED FREE ENERGY PREDICTED BY IDOCK:   -3.71 KCAL/MOL
REMARK 922        TOTAL FREE ENERGY PREDICTED BY IDOCK:   -6.63 KCAL/MOL
REMARK 923 INTER-LIGAND FREE ENERGY PREDICTED BY IDOCK:   -5.88 KCAL/MOL
REMARK 924 INTRA-LIGAND FREE ENERGY PREDICTED BY IDOCK:   -0.75 KCAL/MOL
REMARK 927      BINDING AFFINITY PREDICTED BY RF-SCORE:    0.00 PKD
ROOT
HETATM    1  C   UNK A   0     -10.509   6.877  66.929  1.00  0.00    -0.349 C  
HETATM    2  C   UNK A   0      -9.638   8.111  66.940  1.00  0.00    -0.269 C  
HETATM    3  C   UNK A   0      -9.900   9.114  65.844  1.00  0.00    -0.305 C  
HETATM    4  C   UNK A   0      -8.217   7.832  67.367  1.00  0.00    -0.123 C  
HETATM    5  C   UNK A   0     -10.266   9.470  67.274  1.00  0.00    -0.295 C  
ENDROOT
BRANCH   5   6
HETATM    6  C   UNK A   0      -9.504  10.602  67.900  1.00  0.00    -0.159 C  
HETATM    7  N   UNK A   1      -8.959  11.527  67.041  1.00  0.00    -0.169 N  
HETATM    8  O   UNK A   0      -9.334  10.629  69.113  1.00  0.00    -0.196 OA 
HETATM    9  H   UNK A   1      -9.148  11.381  66.049  1.00  0.00     0.000 HD 
BRANCH   7  10
HETATM   10  C   UNK A   1      -8.180  12.639  67.357  1.00  0.00    -0.184 C  
HETATM   11  C   UNK A   1      -8.755  13.845  67.594  1.00  0.00    -0.187 C  
HETATM   12  C   UNK A   1      -6.666  12.688  67.424  1.00  0.00    -0.142 C  
HETATM   13  O   UNK A   1      -6.008  11.874  66.576  1.00  0.00    -0.196 OA 
HETATM   14  O   UNK A   1      -6.065  13.535  68.072  1.00  0.00    -0.104 OA 
BRANCH  11  15
HETATM   15  C   UNK A   1     -10.213  14.182  67.516  1.00  0.00    -0.241 C  
BRANCH  15  16
HETATM   16  C   UNK A   1     -10.567  15.618  67.083  1.00  0.00    -0.308 C  
BRANCH  16  17
HETATM   17  C   UNK A   1      -9.361  16.156  66.301  1.00  0.00    -0.351 C  
BRANCH  17  18
HETATM   18  C   UNK A   1      -8.547  17.235  67.004  1.00  0.00    -0.227 C  
BRANCH  18  19
HETATM   19  S   UNK A   1      -9.404  18.822  66.677  1.00  0.00    -0.337 SA 
BRANCH  19  20
HETATM   20  C   UNK A   1      -8.878  19.761  68.150  1.00  0.00    -0.292 C  
BRANCH  20  21
HETATM   21  C   UNK A   1      -7.730  20.721  67.800  1.00  0.00    -0.096 C  
HETATM   22  N   UNK A   1      -7.418  20.736  66.334  1.00  0.00    -0.520 NA 
HETATM   23  C   UNK A   1      -6.484  20.243  68.549  1.00  0.00    -0.305 C  
HETATM   24  O   UNK A   1      -6.269  20.424  69.736  1.00  0.00    -0.337 OA 
HETATM   25  O   UNK A   1      -5.659  19.537  67.732  1.00  0.00    -0.186 OA 
HETATM   26  H1  UNK A   1      -6.656  21.373  66.102  1.00  0.00     0.000 HD 
HETATM   27  H2  UNK A   1      -8.251  20.945  65.784  1.00  0.00     0.000 HD 
ENDBRANCH  20  21
ENDBRANCH  19  20
ENDBRANCH  18  19
ENDBRANCH  17  18
ENDBRANCH  16  17
ENDBRANCH  15  16
ENDBRANCH  11  15
ENDBRANCH   7  10
ENDBRANCH   5   6
TORSDOF 9
ENDMDL
MODEL      253
REMARK 921   NORMALIZED FREE ENERGY PREDICTED BY IDOCK:   -3.71 KCAL/MOL
REMARK 922        TOTAL FREE ENERGY PREDICTED BY IDOCK:   -6.62 KCAL/MOL
REMARK 923 INTER-LIGAND FREE ENERGY PREDICTED BY IDOCK:   -6.33 KCAL/MOL
REMARK 924 INTRA-LIGAND FREE ENERGY PREDICTED BY IDOCK:   -0.29 KCAL/MOL
REMARK 927      BINDING AFFINITY PREDICTED BY RF-SCORE:    0.00 PKD
ROOT
HETATM    1  C   UNK A   0      -7.070  14.857  69.500  1.00  0.00    -0.184 C  
HETATM    2  C   UNK A   0      -7.844  14.729  68.210  1.00  0.00    -0.125 C  
HETATM    3  C   UNK A   0      -7.507  13.533  67.353  1.00  0.00    -0.136 C  
HETATM    4  C   UNK A   0      -8.127  16.058  67.551  1.00  0.00    -0.167 C  
HETATM    5  C   UNK A   0      -8.855  13.585  68.051  1.00  0.00    -0.181 C  
ENDROOT
BRANCH   5   6
HETATM    6  C   UNK A   0     -10.065  13.669  67.167  1.00  0.00    -0.245 C  
HETATM    7  N   UNK A   1      -9.870  13.418  65.829  1.00  0.00    -0.428 N  
HETATM    8  O   UNK A   0     -11.143  14.016  67.635  1.00  0.00    -0.270 OA 
HETATM    9  H   UNK A   1      -8.919  13.164  65.557  1.00  0.00     0.000 HD 
BRANCH   7  10
HETATM   10  C   UNK A   1     -10.808  13.467  64.800  1.00  0.00    -0.381 C  
HETATM   11  C   UNK A   1     -10.958  12.424  63.945  1.00  0.00    -0.467 C  
HETATM   12  C   UNK A   1     -11.708  14.639  64.458  1.00  0.00    -0.401 C  
HETATM   13  O   UNK A   1     -11.203  15.864  64.699  1.00  0.00    -0.456 OA 
HETATM   14  O   UNK A   1     -12.753  14.503  63.836  1.00  0.00    -0.782 OA 
BRANCH  11  15
HETATM   15  C   UNK A   1     -10.169  11.150  63.927  1.00  0.00    -0.420 C  
BRANCH  15  16
HETATM   16  C   UNK A   1      -9.218  10.911  65.116  1.00  0.00    -0.240 C  
BRANCH  16  17
HETATM   17  C   UNK A   1      -9.751   9.687  65.872  1.00  0.00    -0.343 C  
BRANCH  17  18
HETATM   18  C   UNK A   1      -8.698   8.830  66.564  1.00  0.00    -0.120 C  
BRANCH  18  19
HETATM   19  S   UNK A   1      -7.082   9.627  66.229  1.00  0.00    -0.095 SA 
BRANCH  19  20
HETATM   20  C   UNK A   1      -6.652  10.165  67.917  1.00  0.00    -0.066 C  
BRANCH  20  21
HETATM   21  C   UNK A   1      -7.660   9.613  68.937  1.00  0.00    -0.076 C  
HETATM   22  N   UNK A   1      -8.504  10.688  69.553  1.00  0.00    -0.375 NA 
HETATM   23  C   UNK A   1      -6.864   8.933  70.052  1.00  0.00    -0.043 C  
HETATM   24  O   UNK A   1      -6.348   7.831  69.972  1.00  0.00    -0.033 OA 
HETATM   25  O   UNK A   1      -6.755   9.739  71.141  1.00  0.00    -0.298 OA 
HETATM   26  H1  UNK A   1      -9.173  10.322  70.230  1.00  0.00     0.000 HD 
HETATM   27  H2  UNK A   1      -8.974  11.241  68.836  1.00  0.00     0.000 HD 
ENDBRANCH  20  21
ENDBRANCH  19  20
ENDBRANCH  18  19
ENDBRANCH  17  18
ENDBRANCH  16  17
ENDBRANCH  15  16
ENDBRANCH  11  15
ENDBRANCH   7  10
ENDBRANCH   5   6
TORSDOF 9
ENDMDL
MODEL      254
REMARK 921   NORMALIZED FREE ENERGY PREDICTED BY IDOCK:   -3.70 KCAL/MOL
REMARK 922        TOTAL FREE ENERGY PREDICTED BY IDOCK:   -6.61 KCAL/MOL
REMARK 923 INTER-LIGAND FREE ENERGY PREDICTED BY IDOCK:   -5.10 KCAL/MOL
REMARK 924 INTRA-LIGAND FREE ENERGY PREDICTED BY IDOCK:   -1.51 KCAL/MOL
REMARK 927      BINDING AFFINITY PREDICTED BY RF-SCORE:    0.00 PKD
ROOT
HETATM    1  C   UNK A   0     -13.242  12.273  71.917  1.00  0.00    -0.481 C  
HETATM    2  C   UNK A   0     -12.849  10.928  71.355  1.00  0.00    -0.554 C  
HETATM    3  C   UNK A   0     -12.924  10.792  69.853  1.00  0.00     0.159 C  
HETATM    4  C   UNK A   0     -13.274   9.771  72.227  1.00  0.00    -0.468 C  
HETATM    5  C   UNK A   0     -11.562  10.807  70.527  1.00  0.00    -0.425 C  
ENDROOT
BRANCH   5   6
HETATM    6  C   UNK A   0     -10.754   9.546  70.435  1.00  0.00    -0.284 C  
HETATM    7  N   UNK A   1     -11.161   8.620  69.502  1.00  0.00    -0.438 N  
HETATM    8  O   UNK A   0      -9.830   9.352  71.214  1.00  0.00    -0.275 OA 
HETATM    9  H   UNK A   1     -11.963   8.886  68.929  1.00  0.00     0.000 HD 
BRANCH   7  10
HETATM   10  C   UNK A   1     -10.615   7.364  69.244  1.00  0.00    -0.213 C  
HETATM   11  C   UNK A   1     -11.002   6.277  69.958  1.00  0.00    -0.422 C  
HETATM   12  C   UNK A   1      -9.531   7.046  68.231  1.00  0.00    -0.128 C  
HETATM   13  O   UNK A   1      -8.620   8.014  68.013  1.00  0.00    -0.128 OA 
HETATM   14  O   UNK A   1      -9.375   5.923  67.769  1.00  0.00    -0.109 OA 
BRANCH  11  15
HETATM   15  C   UNK A   1     -11.975   6.244  71.097  1.00  0.00    -0.154 C  
BRANCH  15  16
HETATM   16  C   UNK A   1     -11.382   6.042  72.505  1.00  0.00    -0.344 C  
BRANCH  16  17
HETATM   17  C   UNK A   1      -9.865   6.238  72.380  1.00  0.00    -0.176 C  
BRANCH  17  18
HETATM   18  C   UNK A   1      -9.006   5.098  72.915  1.00  0.00    -0.120 C  
BRANCH  18  19
HETATM   19  S   UNK A   1     -10.142   3.690  73.206  1.00  0.00    -0.148 SA 
BRANCH  19  20
HETATM   20  C   UNK A   1      -9.618   2.591  71.848  1.00  0.00    -0.138 C  
BRANCH  20  21
HETATM   21  C   UNK A   1      -8.544   3.270  70.983  1.00  0.00    -0.071 C  
HETATM   22  N   UNK A   1      -9.016   3.539  69.586  1.00  0.00    -0.097 NA 
HETATM   23  C   UNK A   1      -7.346   2.322  70.908  1.00  0.00    -0.033 C  
HETATM   24  O   UNK A   1      -6.524   2.162  71.796  1.00  0.00    -0.014 OA 
HETATM   25  O   UNK A   1      -7.335   1.632  69.737  1.00  0.00    -0.036 OA 
HETATM   26  H1  UNK A   1      -8.303   3.989  69.011  1.00  0.00     0.000 HD 
HETATM   27  H2  UNK A   1      -9.880   4.082  69.589  1.00  0.00     0.000 HD 
ENDBRANCH  20  21
ENDBRANCH  19  20
ENDBRANCH  18  19
ENDBRANCH  17  18
ENDBRANCH  16  17
ENDBRANCH  15  16
ENDBRANCH  11  15
ENDBRANCH   7  10
ENDBRANCH   5   6
TORSDOF 9
ENDMDL
MODEL      255
REMARK 921   NORMALIZED FREE ENERGY PREDICTED BY IDOCK:   -3.69 KCAL/MOL
REMARK 922        TOTAL FREE ENERGY PREDICTED BY IDOCK:   -6.59 KCAL/MOL
REMARK 923 INTER-LIGAND FREE ENERGY PREDICTED BY IDOCK:   -5.81 KCAL/MOL
REMARK 924 INTRA-LIGAND FREE ENERGY PREDICTED BY IDOCK:   -0.78 KCAL/MOL
REMARK 927      BINDING AFFINITY PREDICTED BY RF-SCORE:    0.00 PKD
ROOT
HETATM    1  C   UNK A   0      -8.157   6.430  64.226  1.00  0.00    -0.063 C  
HETATM    2  C   UNK A   0      -7.809   7.749  64.875  1.00  0.00    -0.123 C  
HETATM    3  C   UNK A   0      -7.412   8.863  63.937  1.00  0.00    -0.112 C  
HETATM    4  C   UNK A   0      -7.081   7.591  66.189  1.00  0.00    -0.070 C  
HETATM    5  C   UNK A   0      -8.737   8.953  64.674  1.00  0.00    -0.138 C  
ENDROOT
BRANCH   5   6
HETATM    6  C   UNK A   0      -8.875  10.066  65.672  1.00  0.00    -0.160 C  
HETATM    7  N   UNK A   1     -10.076  10.152  66.337  1.00  0.00    -0.231 N  
HETATM    8  O   UNK A   0      -7.972  10.882  65.809  1.00  0.00    -0.150 OA 
HETATM    9  H   UNK A   1     -10.761   9.428  66.117  1.00  0.00     0.000 HD 
BRANCH   7  10
HETATM   10  C   UNK A   1     -10.473  11.103  67.274  1.00  0.00    -0.226 C  
HETATM   11  C   UNK A   1     -10.132  10.976  68.582  1.00  0.00    -0.207 C  
HETATM   12  C   UNK A   1     -11.341  12.319  67.010  1.00  0.00    -0.334 C  
HETATM   13  O   UNK A   1     -12.272  12.185  66.047  1.00  0.00    -0.609 OA 
HETATM   14  O   UNK A   1     -11.329  13.304  67.738  1.00  0.00    -0.266 OA 
BRANCH  11  15
HETATM   15  C   UNK A   1      -9.367   9.852  69.211  1.00  0.00    -0.215 C  
BRANCH  15  16
HETATM   16  C   UNK A   1      -9.906   8.429  68.963  1.00  0.00    -0.184 C  
BRANCH  16  17
HETATM   17  C   UNK A   1      -9.572   7.604  70.214  1.00  0.00    -0.172 C  
BRANCH  17  18
HETATM   18  C   UNK A   1     -10.179   8.109  71.517  1.00  0.00    -0.206 C  
BRANCH  18  19
HETATM   19  S   UNK A   1     -11.993   8.144  71.262  1.00  0.00    -0.278 SA 
BRANCH  19  20
HETATM   20  C   UNK A   1     -12.382   9.738  72.057  1.00  0.00    -0.256 C  
BRANCH  20  21
HETATM   21  C   UNK A   1     -13.316  10.575  71.168  1.00  0.00    -0.153 C  
HETATM   22  N   UNK A   1     -13.024  10.408  69.708  1.00  0.00    -0.538 NA 
HETATM   23  C   UNK A   1     -13.104  12.046  71.533  1.00  0.00    -0.261 C  
HETATM   24  O   UNK A   1     -13.561  12.595  72.522  1.00  0.00    -0.499 OA 
HETATM   25  O   UNK A   1     -12.292  12.664  70.635  1.00  0.00    -0.359 OA 
HETATM   26  H1  UNK A   1     -13.643  10.964  69.118  1.00  0.00     0.000 HD 
HETATM   27  H2  UNK A   1     -13.047   9.424  69.440  1.00  0.00     0.000 HD 
ENDBRANCH  20  21
ENDBRANCH  19  20
ENDBRANCH  18  19
ENDBRANCH  17  18
ENDBRANCH  16  17
ENDBRANCH  15  16
ENDBRANCH  11  15
ENDBRANCH   7  10
ENDBRANCH   5   6
TORSDOF 9
ENDMDL
MODEL      256
REMARK 921   NORMALIZED FREE ENERGY PREDICTED BY IDOCK:   -3.68 KCAL/MOL
REMARK 922        TOTAL FREE ENERGY PREDICTED BY IDOCK:   -6.59 KCAL/MOL
REMARK 923 INTER-LIGAND FREE ENERGY PREDICTED BY IDOCK:   -6.74 KCAL/MOL
REMARK 924 INTRA-LIGAND FREE ENERGY PREDICTED BY IDOCK:    0.15 KCAL/MOL
REMARK 927      BINDING AFFINITY PREDICTED BY RF-SCORE:    0.00 PKD
ROOT
HETATM    1  C   UNK A   0      -8.033   7.839  66.869  1.00  0.00    -0.112 C  
HETATM    2  C   UNK A   0      -8.089   9.062  65.985  1.00  0.00    -0.111 C  
HETATM    3  C   UNK A   0      -8.017   8.806  64.499  1.00  0.00    -0.141 C  
HETATM    4  C   UNK A   0      -7.365  10.251  66.569  1.00  0.00    -0.113 C  
HETATM    5  C   UNK A   0      -9.322   9.296  65.103  1.00  0.00    -0.239 C  
ENDROOT
BRANCH   5   6
HETATM    6  C   UNK A   0      -9.789  10.657  64.678  1.00  0.00    -0.321 C  
HETATM    7  N   UNK A   1     -10.878  11.170  65.344  1.00  0.00    -0.194 N  
HETATM    8  O   UNK A   0      -9.249  11.224  63.736  1.00  0.00    -0.166 OA 
HETATM    9  H   UNK A   1     -11.257  10.590  66.093  1.00  0.00     0.000 HD 
BRANCH   7  10
HETATM   10  C   UNK A   1     -11.529  12.382  65.120  1.00  0.00    -0.334 C  
HETATM   11  C   UNK A   1     -11.553  13.345  66.077  1.00  0.00    -0.375 C  
HETATM   12  C   UNK A   1     -12.310  12.769  63.879  1.00  0.00    -0.426 C  
HETATM   13  O   UNK A   1     -12.943  11.766  63.241  1.00  0.00    -0.633 OA 
HETATM   14  O   UNK A   1     -12.511  13.936  63.568  1.00  0.00    -0.810 OA 
BRANCH  11  15
HETATM   15  C   UNK A   1     -10.972  13.263  67.455  1.00  0.00    -0.281 C  
BRANCH  15  16
HETATM   16  C   UNK A   1     -11.615  14.162  68.529  1.00  0.00    -0.351 C  
BRANCH  16  17
HETATM   17  C   UNK A   1     -11.059  15.577  68.315  1.00  0.00    -0.322 C  
BRANCH  17  18
HETATM   18  C   UNK A   1     -10.430  15.838  66.952  1.00  0.00    -0.315 C  
BRANCH  18  19
HETATM   19  S   UNK A   1      -8.664  16.217  67.262  1.00  0.00    -0.191 SA 
BRANCH  19  20
HETATM   20  C   UNK A   1      -8.369  15.134  68.699  1.00  0.00    -0.160 C  
BRANCH  20  21
HETATM   21  C   UNK A   1      -6.886  15.158  69.102  1.00  0.00    -0.136 C  
HETATM   22  N   UNK A   1      -6.427  16.519  69.529  1.00  0.00    -0.219 NA 
HETATM   23  C   UNK A   1      -6.068  14.740  67.878  1.00  0.00    -0.154 C  
HETATM   24  O   UNK A   1      -5.937  13.594  67.482  1.00  0.00    -0.309 OA 
HETATM   25  O   UNK A   1      -5.539  15.822  67.247  1.00  0.00    -0.323 OA 
HETATM   26  H1  UNK A   1      -5.443  16.536  69.797  1.00  0.00     0.000 HD 
HETATM   27  H2  UNK A   1      -7.016  16.886  70.277  1.00  0.00     0.000 HD 
ENDBRANCH  20  21
ENDBRANCH  19  20
ENDBRANCH  18  19
ENDBRANCH  17  18
ENDBRANCH  16  17
ENDBRANCH  15  16
ENDBRANCH  11  15
ENDBRANCH   7  10
ENDBRANCH   5   6
TORSDOF 9
ENDMDL
MODEL      257
REMARK 921   NORMALIZED FREE ENERGY PREDICTED BY IDOCK:   -3.68 KCAL/MOL
REMARK 922        TOTAL FREE ENERGY PREDICTED BY IDOCK:   -6.59 KCAL/MOL
REMARK 923 INTER-LIGAND FREE ENERGY PREDICTED BY IDOCK:   -6.01 KCAL/MOL
REMARK 924 INTRA-LIGAND FREE ENERGY PREDICTED BY IDOCK:   -0.58 KCAL/MOL
REMARK 927      BINDING AFFINITY PREDICTED BY RF-SCORE:    0.00 PKD
ROOT
HETATM    1  C   UNK A   0      -7.070  15.193  69.577  1.00  0.00    -0.195 C  
HETATM    2  C   UNK A   0      -7.821  15.038  68.276  1.00  0.00    -0.119 C  
HETATM    3  C   UNK A   0      -7.389  13.889  67.397  1.00  0.00    -0.129 C  
HETATM    4  C   UNK A   0      -8.193  16.357  67.642  1.00  0.00    -0.166 C  
HETATM    5  C   UNK A   0      -8.744  13.828  68.081  1.00  0.00    -0.183 C  
ENDROOT
BRANCH   5   6
HETATM    6  C   UNK A   0      -9.949  13.843  67.186  1.00  0.00    -0.239 C  
HETATM    7  N   UNK A   1      -9.722  13.644  65.844  1.00  0.00    -0.457 N  
HETATM    8  O   UNK A   0     -11.054  14.093  67.650  1.00  0.00    -0.269 OA 
HETATM    9  H   UNK A   1      -8.752  13.472  65.576  1.00  0.00     0.000 HD 
BRANCH   7  10
HETATM   10  C   UNK A   1     -10.651  13.650  64.806  1.00  0.00    -0.422 C  
HETATM   11  C   UNK A   1     -10.844  12.547  64.039  1.00  0.00    -0.446 C  
HETATM   12  C   UNK A   1     -11.495  14.829  64.360  1.00  0.00    -0.253 C  
HETATM   13  O   UNK A   1     -10.937  16.046  64.504  1.00  0.00    -0.592 OA 
HETATM   14  O   UNK A   1     -12.542  14.689  63.742  1.00  0.00    -0.820 OA 
BRANCH  11  15
HETATM   15  C   UNK A   1     -10.113  11.242  64.134  1.00  0.00    -0.373 C  
BRANCH  15  16
HETATM   16  C   UNK A   1      -9.776  10.742  65.552  1.00  0.00    -0.290 C  
BRANCH  16  17
HETATM   17  C   UNK A   1     -10.000   9.224  65.552  1.00  0.00    -0.022 C  
BRANCH  17  18
HETATM   18  C   UNK A   1      -9.082   8.423  66.468  1.00  0.00    -0.176 C  
BRANCH  18  19
HETATM   19  S   UNK A   1      -8.412   9.609  67.693  1.00  0.00    -0.125 SA 
BRANCH  19  20
HETATM   20  C   UNK A   1      -8.901   8.765  69.233  1.00  0.00    -0.140 C  
BRANCH  20  21
HETATM   21  C   UNK A   1     -10.344   9.129  69.619  1.00  0.00    -0.219 C  
HETATM   22  N   UNK A   1     -10.427   9.826  70.943  1.00  0.00    -0.321 NA 
HETATM   23  C   UNK A   1     -11.139   7.826  69.714  1.00  0.00    -0.089 C  
HETATM   24  O   UNK A   1     -11.559   7.191  68.760  1.00  0.00     0.290 OA 
HETATM   25  O   UNK A   1     -11.280   7.428  71.006  1.00  0.00    -0.253 OA 
HETATM   26  H1  UNK A   1     -11.384  10.068  71.199  1.00  0.00     0.000 HD 
HETATM   27  H2  UNK A   1      -9.824  10.649  70.963  1.00  0.00     0.000 HD 
ENDBRANCH  20  21
ENDBRANCH  19  20
ENDBRANCH  18  19
ENDBRANCH  17  18
ENDBRANCH  16  17
ENDBRANCH  15  16
ENDBRANCH  11  15
ENDBRANCH   7  10
ENDBRANCH   5   6
TORSDOF 9
ENDMDL
MODEL      258
REMARK 921   NORMALIZED FREE ENERGY PREDICTED BY IDOCK:   -3.68 KCAL/MOL
REMARK 922        TOTAL FREE ENERGY PREDICTED BY IDOCK:   -6.59 KCAL/MOL
REMARK 923 INTER-LIGAND FREE ENERGY PREDICTED BY IDOCK:   -5.42 KCAL/MOL
REMARK 924 INTRA-LIGAND FREE ENERGY PREDICTED BY IDOCK:   -1.17 KCAL/MOL
REMARK 927      BINDING AFFINITY PREDICTED BY RF-SCORE:    0.00 PKD
ROOT
HETATM    1  C   UNK A   0     -12.962   9.194  71.996  1.00  0.00    -0.496 C  
HETATM    2  C   UNK A   0     -11.605   8.559  71.804  1.00  0.00    -0.380 C  
HETATM    3  C   UNK A   0     -11.013   7.886  73.018  1.00  0.00    -0.398 C  
HETATM    4  C   UNK A   0     -10.707   9.344  70.878  1.00  0.00    -0.393 C  
HETATM    5  C   UNK A   0     -11.478   7.031  71.852  1.00  0.00    -0.304 C  
ENDROOT
BRANCH   5   6
HETATM    6  C   UNK A   0     -10.417   6.266  71.116  1.00  0.00    -0.223 C  
HETATM    7  N   UNK A   1     -10.836   5.499  70.053  1.00  0.00    -0.294 N  
HETATM    8  O   UNK A   0      -9.258   6.290  71.511  1.00  0.00    -0.146 OA 
HETATM    9  H   UNK A   1     -11.832   5.541  69.837  1.00  0.00     0.000 HD 
BRANCH   7  10
HETATM   10  C   UNK A   1     -10.068   4.671  69.236  1.00  0.00    -0.100 C  
HETATM   11  C   UNK A   1      -9.990   4.892  67.900  1.00  0.00    -0.181 C  
HETATM   12  C   UNK A   1      -9.298   3.439  69.673  1.00  0.00    -0.171 C  
HETATM   13  O   UNK A   1      -9.829   2.739  70.693  1.00  0.00    -0.090 OA 
HETATM   14  O   UNK A   1      -8.352   2.996  69.034  1.00  0.00    -0.058 OA 
BRANCH  11  15
HETATM   15  C   UNK A   1     -10.698   5.955  67.117  1.00  0.00    -0.387 C  
BRANCH  15  16
HETATM   16  C   UNK A   1      -9.963   7.300  66.958  1.00  0.00    -0.293 C  
BRANCH  16  17
HETATM   17  C   UNK A   1      -8.513   6.971  66.579  1.00  0.00    -0.125 C  
BRANCH  17  18
HETATM   18  C   UNK A   1      -8.274   6.642  65.111  1.00  0.00    -0.118 C  
BRANCH  18  19
HETATM   19  S   UNK A   1      -6.706   7.469  64.645  1.00  0.00    -0.051 SA 
BRANCH  19  20
HETATM   20  C   UNK A   1      -6.731   8.856  65.829  1.00  0.00    -0.068 C  
BRANCH  20  21
HETATM   21  C   UNK A   1      -6.973  10.188  65.101  1.00  0.00    -0.137 C  
HETATM   22  N   UNK A   1      -6.102  11.293  65.616  1.00  0.00    -0.432 NA 
HETATM   23  C   UNK A   1      -8.433  10.582  65.334  1.00  0.00    -0.170 C  
HETATM   24  O   UNK A   1      -9.390  10.096  64.755  1.00  0.00    -0.222 OA 
HETATM   25  O   UNK A   1      -8.540  11.517  66.315  1.00  0.00    -0.180 OA 
HETATM   26  H1  UNK A   1      -6.262  12.177  65.133  1.00  0.00     0.000 HD 
HETATM   27  H2  UNK A   1      -5.117  11.030  65.580  1.00  0.00     0.000 HD 
ENDBRANCH  20  21
ENDBRANCH  19  20
ENDBRANCH  18  19
ENDBRANCH  17  18
ENDBRANCH  16  17
ENDBRANCH  15  16
ENDBRANCH  11  15
ENDBRANCH   7  10
ENDBRANCH   5   6
TORSDOF 9
ENDMDL
MODEL      259
REMARK 921   NORMALIZED FREE ENERGY PREDICTED BY IDOCK:   -3.67 KCAL/MOL
REMARK 922        TOTAL FREE ENERGY PREDICTED BY IDOCK:   -6.57 KCAL/MOL
REMARK 923 INTER-LIGAND FREE ENERGY PREDICTED BY IDOCK:   -5.49 KCAL/MOL
REMARK 924 INTRA-LIGAND FREE ENERGY PREDICTED BY IDOCK:   -1.08 KCAL/MOL
REMARK 927      BINDING AFFINITY PREDICTED BY RF-SCORE:    0.00 PKD
ROOT
HETATM    1  C   UNK A   0      -6.880   7.257  70.172  1.00  0.00    -0.059 C  
HETATM    2  C   UNK A   0      -7.108   8.663  69.668  1.00  0.00    -0.055 C  
HETATM    3  C   UNK A   0      -5.929   9.323  68.996  1.00  0.00    -0.042 C  
HETATM    4  C   UNK A   0      -8.001   9.480  70.571  1.00  0.00    -0.188 C  
HETATM    5  C   UNK A   0      -7.131   8.924  68.157  1.00  0.00    -0.078 C  
ENDROOT
BRANCH   5   6
HETATM    6  C   UNK A   0      -7.907  10.041  67.523  1.00  0.00    -0.095 C  
HETATM    7  N   UNK A   1      -9.052   9.690  66.846  1.00  0.00    -0.137 N  
HETATM    8  O   UNK A   0      -7.476  11.187  67.564  1.00  0.00    -0.096 OA 
HETATM    9  H   UNK A   1      -9.292   8.698  66.860  1.00  0.00     0.000 HD 
BRANCH   7  10
HETATM   10  C   UNK A   1      -9.923  10.519  66.143  1.00  0.00    -0.229 C  
HETATM   11  C   UNK A   1     -10.985  11.095  66.760  1.00  0.00    -0.309 C  
HETATM   12  C   UNK A   1      -9.861  10.841  64.662  1.00  0.00    -0.307 C  
HETATM   13  O   UNK A   1      -9.385   9.867  63.863  1.00  0.00    -0.267 OA 
HETATM   14  O   UNK A   1     -10.374  11.846  64.187  1.00  0.00    -0.286 OA 
BRANCH  11  15
HETATM   15  C   UNK A   1     -11.406  10.917  68.187  1.00  0.00    -0.383 C  
BRANCH  15  16
HETATM   16  C   UNK A   1     -10.960  12.009  69.179  1.00  0.00    -0.231 C  
BRANCH  16  17
HETATM   17  C   UNK A   1     -11.350  13.357  68.560  1.00  0.00    -0.324 C  
BRANCH  17  18
HETATM   18  C   UNK A   1     -10.412  14.519  68.865  1.00  0.00    -0.246 C  
BRANCH  18  19
HETATM   19  S   UNK A   1     -11.135  15.993  68.053  1.00  0.00    -0.303 SA 
BRANCH  19  20
HETATM   20  C   UNK A   1      -9.943  17.259  68.603  1.00  0.00    -0.327 C  
BRANCH  20  21
HETATM   21  C   UNK A   1      -9.531  18.164  67.431  1.00  0.00    -0.255 C  
HETATM   22  N   UNK A   1     -10.507  18.113  66.294  1.00  0.00    -0.388 NA 
HETATM   23  C   UNK A   1      -8.176  17.671  66.921  1.00  0.00    -0.225 C  
HETATM   24  O   UNK A   1      -7.104  17.889  67.461  1.00  0.00    -0.190 OA 
HETATM   25  O   UNK A   1      -8.318  16.906  65.807  1.00  0.00    -0.472 OA 
HETATM   26  H1  UNK A   1     -10.234  18.713  65.516  1.00  0.00     0.000 HD 
HETATM   27  H2  UNK A   1     -11.451  18.331  66.611  1.00  0.00     0.000 HD 
ENDBRANCH  20  21
ENDBRANCH  19  20
ENDBRANCH  18  19
ENDBRANCH  17  18
ENDBRANCH  16  17
ENDBRANCH  15  16
ENDBRANCH  11  15
ENDBRANCH   7  10
ENDBRANCH   5   6
TORSDOF 9
ENDMDL
MODEL      260
REMARK 921   NORMALIZED FREE ENERGY PREDICTED BY IDOCK:   -3.67 KCAL/MOL
REMARK 922        TOTAL FREE ENERGY PREDICTED BY IDOCK:   -6.57 KCAL/MOL
REMARK 923 INTER-LIGAND FREE ENERGY PREDICTED BY IDOCK:   -5.47 KCAL/MOL
REMARK 924 INTRA-LIGAND FREE ENERGY PREDICTED BY IDOCK:   -1.10 KCAL/MOL
REMARK 927      BINDING AFFINITY PREDICTED BY RF-SCORE:    0.00 PKD
ROOT
HETATM    1  C   UNK A   0     -11.018   4.199  73.192  1.00  0.00    -0.278 C  
HETATM    2  C   UNK A   0     -10.693   5.465  72.434  1.00  0.00    -0.286 C  
HETATM    3  C   UNK A   0     -11.103   5.489  70.982  1.00  0.00    -0.115 C  
HETATM    4  C   UNK A   0      -9.377   6.082  72.845  1.00  0.00    -0.147 C  
HETATM    5  C   UNK A   0     -11.836   6.378  71.972  1.00  0.00    -0.382 C  
ENDROOT
BRANCH   5   6
HETATM    6  C   UNK A   0     -11.686   7.859  71.783  1.00  0.00    -0.287 C  
HETATM    7  N   UNK A   1     -11.398   8.291  70.509  1.00  0.00    -0.352 N  
HETATM    8  O   UNK A   0     -11.751   8.610  72.748  1.00  0.00    -0.254 OA 
HETATM    9  H   UNK A   1     -11.342   7.566  69.793  1.00  0.00     0.000 HD 
BRANCH   7  10
HETATM   10  C   UNK A   1     -11.173   9.596  70.075  1.00  0.00    -0.231 C  
HETATM   11  C   UNK A   1      -9.911  10.081  69.956  1.00  0.00    -0.247 C  
HETATM   12  C   UNK A   1     -12.232  10.631  69.746  1.00  0.00    -0.247 C  
HETATM   13  O   UNK A   1     -13.373  10.557  70.458  1.00  0.00    -0.206 OA 
HETATM   14  O   UNK A   1     -12.011  11.586  69.014  1.00  0.00    -0.325 OA 
BRANCH  11  15
HETATM   15  C   UNK A   1      -8.635   9.371  70.290  1.00  0.00    -0.249 C  
BRANCH  15  16
HETATM   16  C   UNK A   1      -7.354  10.227  70.310  1.00  0.00    -0.032 C  
BRANCH  16  17
HETATM   17  C   UNK A   1      -7.425  11.161  69.094  1.00  0.00    -0.109 C  
BRANCH  17  18
HETATM   18  C   UNK A   1      -6.538  12.398  69.160  1.00  0.00    -0.099 C  
BRANCH  18  19
HETATM   19  S   UNK A   1      -7.547  13.792  68.530  1.00  0.00    -0.131 SA 
BRANCH  19  20
HETATM   20  C   UNK A   1      -9.031  12.876  67.996  1.00  0.00    -0.196 C  
BRANCH  20  21
HETATM   21  C   UNK A   1      -9.313  13.119  66.505  1.00  0.00    -0.216 C  
HETATM   22  N   UNK A   1      -9.995  14.430  66.255  1.00  0.00    -0.294 NA 
HETATM   23  C   UNK A   1     -10.236  12.000  66.021  1.00  0.00    -0.226 C  
HETATM   24  O   UNK A   1      -9.881  10.861  65.764  1.00  0.00    -0.214 OA 
HETATM   25  O   UNK A   1     -11.528  12.418  65.961  1.00  0.00    -0.343 OA 
HETATM   26  H1  UNK A   1     -10.183  14.592  65.266  1.00  0.00     0.000 HD 
HETATM   27  H2  UNK A   1      -9.465  15.202  66.658  1.00  0.00     0.000 HD 
ENDBRANCH  20  21
ENDBRANCH  19  20
ENDBRANCH  18  19
ENDBRANCH  17  18
ENDBRANCH  16  17
ENDBRANCH  15  16
ENDBRANCH  11  15
ENDBRANCH   7  10
ENDBRANCH   5   6
TORSDOF 9
ENDMDL
MODEL      261
REMARK 921   NORMALIZED FREE ENERGY PREDICTED BY IDOCK:   -3.66 KCAL/MOL
REMARK 922        TOTAL FREE ENERGY PREDICTED BY IDOCK:   -6.55 KCAL/MOL
REMARK 923 INTER-LIGAND FREE ENERGY PREDICTED BY IDOCK:   -5.38 KCAL/MOL
REMARK 924 INTRA-LIGAND FREE ENERGY PREDICTED BY IDOCK:   -1.17 KCAL/MOL
REMARK 927      BINDING AFFINITY PREDICTED BY RF-SCORE:    0.00 PKD
ROOT
HETATM    1  C   UNK A   0     -12.482  14.169  64.547  1.00  0.00    -0.350 C  
HETATM    2  C   UNK A   0     -11.481  13.820  65.622  1.00  0.00    -0.318 C  
HETATM    3  C   UNK A   0     -11.242  14.880  66.671  1.00  0.00    -0.340 C  
HETATM    4  C   UNK A   0     -10.316  13.008  65.110  1.00  0.00    -0.321 C  
HETATM    5  C   UNK A   0     -11.969  13.604  67.061  1.00  0.00    -0.448 C  
ENDROOT
BRANCH   5   6
HETATM    6  C   UNK A   0     -11.272  12.709  68.044  1.00  0.00    -0.265 C  
HETATM    7  N   UNK A   1     -11.814  11.458  68.229  1.00  0.00    -0.288 N  
HETATM    8  O   UNK A   0     -10.317  13.129  68.684  1.00  0.00    -0.243 OA 
HETATM    9  H   UNK A   1     -12.628  11.234  67.656  1.00  0.00     0.000 HD 
BRANCH   7  10
HETATM   10  C   UNK A   1     -11.389  10.459  69.103  1.00  0.00    -0.226 C  
HETATM   11  C   UNK A   1     -10.655   9.409  68.655  1.00  0.00    -0.230 C  
HETATM   12  C   UNK A   1     -11.708  10.362  70.583  1.00  0.00    -0.351 C  
HETATM   13  O   UNK A   1     -12.904  10.849  70.964  1.00  0.00    -0.368 OA 
HETATM   14  O   UNK A   1     -11.013   9.724  71.363  1.00  0.00    -0.342 OA 
BRANCH  11  15
HETATM   15  C   UNK A   1     -10.243   9.133  67.241  1.00  0.00    -0.319 C  
BRANCH  15  16
HETATM   16  C   UNK A   1      -9.073   9.970  66.687  1.00  0.00    -0.169 C  
BRANCH  16  17
HETATM   17  C   UNK A   1      -8.012   8.977  66.193  1.00  0.00    -0.103 C  
BRANCH  17  18
HETATM   18  C   UNK A   1      -7.248   8.233  67.280  1.00  0.00    -0.084 C  
BRANCH  18  19
HETATM   19  S   UNK A   1      -7.186   6.478  66.758  1.00  0.00    -0.079 SA 
BRANCH  19  20
HETATM   20  C   UNK A   1      -8.415   6.517  65.411  1.00  0.00    -0.115 C  
BRANCH  20  21
HETATM   21  C   UNK A   1      -7.883   5.789  64.167  1.00  0.00    -0.118 C  
HETATM   22  N   UNK A   1      -6.723   4.891  64.478  1.00  0.00    -0.046 NA 
HETATM   23  C   UNK A   1      -7.410   6.854  63.176  1.00  0.00    -0.076 C  
HETATM   24  O   UNK A   1      -8.142   7.523  62.466  1.00  0.00    -0.138 OA 
HETATM   25  O   UNK A   1      -6.060   7.003  63.220  1.00  0.00    -0.042 OA 
HETATM   26  H1  UNK A   1      -6.369   4.408  63.652  1.00  0.00     0.000 HD 
HETATM   27  H2  UNK A   1      -6.960   4.229  65.216  1.00  0.00     0.000 HD 
ENDBRANCH  20  21
ENDBRANCH  19  20
ENDBRANCH  18  19
ENDBRANCH  17  18
ENDBRANCH  16  17
ENDBRANCH  15  16
ENDBRANCH  11  15
ENDBRANCH   7  10
ENDBRANCH   5   6
TORSDOF 9
ENDMDL
MODEL      262
REMARK 921   NORMALIZED FREE ENERGY PREDICTED BY IDOCK:   -3.65 KCAL/MOL
REMARK 922        TOTAL FREE ENERGY PREDICTED BY IDOCK:   -6.54 KCAL/MOL
REMARK 923 INTER-LIGAND FREE ENERGY PREDICTED BY IDOCK:   -5.79 KCAL/MOL
REMARK 924 INTRA-LIGAND FREE ENERGY PREDICTED BY IDOCK:   -0.75 KCAL/MOL
REMARK 927      BINDING AFFINITY PREDICTED BY RF-SCORE:    0.00 PKD
ROOT
HETATM    1  C   UNK A   0      -5.144  14.862  70.032  1.00  0.00    -0.095 C  
HETATM    2  C   UNK A   0      -6.241  15.699  69.417  1.00  0.00    -0.136 C  
HETATM    3  C   UNK A   0      -6.154  17.186  69.663  1.00  0.00    -0.241 C  
HETATM    4  C   UNK A   0      -7.590  15.021  69.441  1.00  0.00    -0.195 C  
HETATM    5  C   UNK A   0      -5.903  16.651  68.263  1.00  0.00    -0.118 C  
ENDROOT
BRANCH   5   6
HETATM    6  C   UNK A   0      -6.889  17.051  67.205  1.00  0.00    -0.179 C  
HETATM    7  N   UNK A   1      -8.087  17.567  67.642  1.00  0.00    -0.204 N  
HETATM    8  O   UNK A   0      -6.637  16.848  66.024  1.00  0.00    -0.087 OA 
HETATM    9  H   UNK A   1      -8.189  17.663  68.653  1.00  0.00     0.000 HD 
BRANCH   7  10
HETATM   10  C   UNK A   1      -9.178  17.974  66.877  1.00  0.00    -0.269 C  
HETATM   11  C   UNK A   1     -10.176  17.107  66.572  1.00  0.00    -0.322 C  
HETATM   12  C   UNK A   1      -9.379  19.342  66.254  1.00  0.00    -0.355 C  
HETATM   13  O   UNK A   1      -8.262  19.990  65.871  1.00  0.00    -0.334 OA 
HETATM   14  O   UNK A   1     -10.486  19.767  65.947  1.00  0.00    -0.504 OA 
BRANCH  11  15
HETATM   15  C   UNK A   1     -10.254  15.655  66.937  1.00  0.00    -0.281 C  
BRANCH  15  16
HETATM   16  C   UNK A   1     -11.595  14.947  66.660  1.00  0.00    -0.265 C  
BRANCH  16  17
HETATM   17  C   UNK A   1     -11.372  13.453  66.935  1.00  0.00    -0.351 C  
BRANCH  17  18
HETATM   18  C   UNK A   1      -9.917  13.016  67.061  1.00  0.00    -0.242 C  
BRANCH  18  19
HETATM   19  S   UNK A   1      -9.664  11.701  65.810  1.00  0.00    -0.239 SA 
BRANCH  19  20
HETATM   20  C   UNK A   1      -9.182  10.326  66.908  1.00  0.00    -0.150 C  
BRANCH  20  21
HETATM   21  C   UNK A   1      -9.949   9.045  66.545  1.00  0.00    -0.285 C  
HETATM   22  N   UNK A   1     -10.792   8.539  67.677  1.00  0.00    -0.494 NA 
HETATM   23  C   UNK A   1      -8.917   7.971  66.199  1.00  0.00    -0.175 C  
HETATM   24  O   UNK A   1      -8.308   7.899  65.145  1.00  0.00    -0.146 OA 
HETATM   25  O   UNK A   1      -8.720   7.123  67.243  1.00  0.00    -0.120 OA 
HETATM   26  H1  UNK A   1     -11.301   7.689  67.436  1.00  0.00     0.000 HD 
HETATM   27  H2  UNK A   1     -11.426   9.263  68.014  1.00  0.00     0.000 HD 
ENDBRANCH  20  21
ENDBRANCH  19  20
ENDBRANCH  18  19
ENDBRANCH  17  18
ENDBRANCH  16  17
ENDBRANCH  15  16
ENDBRANCH  11  15
ENDBRANCH   7  10
ENDBRANCH   5   6
TORSDOF 9
ENDMDL
MODEL      263
REMARK 921   NORMALIZED FREE ENERGY PREDICTED BY IDOCK:   -3.63 KCAL/MOL
REMARK 922        TOTAL FREE ENERGY PREDICTED BY IDOCK:   -6.51 KCAL/MOL
REMARK 923 INTER-LIGAND FREE ENERGY PREDICTED BY IDOCK:   -5.58 KCAL/MOL
REMARK 924 INTRA-LIGAND FREE ENERGY PREDICTED BY IDOCK:   -0.93 KCAL/MOL
REMARK 927      BINDING AFFINITY PREDICTED BY RF-SCORE:    0.00 PKD
ROOT
HETATM    1  C   UNK A   0      -6.420   6.065  72.322  1.00  0.00    -0.058 C  
HETATM    2  C   UNK A   0      -7.474   6.353  71.280  1.00  0.00    -0.089 C  
HETATM    3  C   UNK A   0      -7.745   5.245  70.291  1.00  0.00    -0.072 C  
HETATM    4  C   UNK A   0      -7.465   7.786  70.805  1.00  0.00    -0.070 C  
HETATM    5  C   UNK A   0      -8.804   5.588  71.326  1.00  0.00    -0.142 C  
ENDROOT
BRANCH   5   6
HETATM    6  C   UNK A   0     -10.096   6.145  70.804  1.00  0.00    -0.193 C  
HETATM    7  N   UNK A   1     -10.753   7.041  71.616  1.00  0.00    -0.219 N  
HETATM    8  O   UNK A   0     -10.550   5.747  69.739  1.00  0.00    -0.260 OA 
HETATM    9  H   UNK A   1     -10.287   7.273  72.493  1.00  0.00     0.000 HD 
BRANCH   7  10
HETATM   10  C   UNK A   1     -11.977   7.668  71.389  1.00  0.00    -0.310 C  
HETATM   11  C   UNK A   1     -12.031   8.971  71.012  1.00  0.00    -0.323 C  
HETATM   12  C   UNK A   1     -13.351   7.053  71.573  1.00  0.00    -0.294 C  
HETATM   13  O   UNK A   1     -13.463   6.134  72.550  1.00  0.00     0.242 OA 
HETATM   14  O   UNK A   1     -14.344   7.484  71.000  1.00  0.00    -0.283 OA 
BRANCH  11  15
HETATM   15  C   UNK A   1     -10.875   9.908  70.834  1.00  0.00    -0.357 C  
BRANCH  15  16
HETATM   16  C   UNK A   1     -10.391  10.138  69.389  1.00  0.00    -0.251 C  
BRANCH  16  17
HETATM   17  C   UNK A   1     -11.549  10.805  68.634  1.00  0.00    -0.342 C  
BRANCH  17  18
HETATM   18  C   UNK A   1     -11.180  11.457  67.306  1.00  0.00    -0.304 C  
BRANCH  18  19
HETATM   19  S   UNK A   1     -11.677  13.215  67.440  1.00  0.00    -0.368 SA 
BRANCH  19  20
HETATM   20  C   UNK A   1     -10.346  13.827  68.525  1.00  0.00    -0.244 C  
BRANCH  20  21
HETATM   21  C   UNK A   1     -10.773  15.123  69.233  1.00  0.00    -0.250 C  
HETATM   22  N   UNK A   1     -12.238  15.403  69.086  1.00  0.00    -0.596 NA 
HETATM   23  C   UNK A   1      -9.999  16.275  68.591  1.00  0.00    -0.233 C  
HETATM   24  O   UNK A   1      -8.830  16.544  68.815  1.00  0.00    -0.235 OA 
HETATM   25  O   UNK A   1     -10.767  16.943  67.691  1.00  0.00    -0.333 OA 
HETATM   26  H1  UNK A   1     -12.522  16.263  69.555  1.00  0.00     0.000 HD 
HETATM   27  H2  UNK A   1     -12.796  14.611  69.404  1.00  0.00     0.000 HD 
ENDBRANCH  20  21
ENDBRANCH  19  20
ENDBRANCH  18  19
ENDBRANCH  17  18
ENDBRANCH  16  17
ENDBRANCH  15  16
ENDBRANCH  11  15
ENDBRANCH   7  10
ENDBRANCH   5   6
TORSDOF 9
ENDMDL
MODEL      264
REMARK 921   NORMALIZED FREE ENERGY PREDICTED BY IDOCK:   -3.63 KCAL/MOL
REMARK 922        TOTAL FREE ENERGY PREDICTED BY IDOCK:   -6.51 KCAL/MOL
REMARK 923 INTER-LIGAND FREE ENERGY PREDICTED BY IDOCK:   -5.57 KCAL/MOL
REMARK 924 INTRA-LIGAND FREE ENERGY PREDICTED BY IDOCK:   -0.94 KCAL/MOL
REMARK 927      BINDING AFFINITY PREDICTED BY RF-SCORE:    0.00 PKD
ROOT
HETATM    1  C   UNK A   0      -8.447   8.094  63.748  1.00  0.00     0.105 C  
HETATM    2  C   UNK A   0      -8.220   9.085  64.865  1.00  0.00    -0.154 C  
HETATM    3  C   UNK A   0      -8.429  10.538  64.512  1.00  0.00    -0.133 C  
HETATM    4  C   UNK A   0      -7.080   8.700  65.779  1.00  0.00    -0.079 C  
HETATM    5  C   UNK A   0      -9.415   9.854  65.443  1.00  0.00    -0.319 C  
ENDROOT
BRANCH   5   6
HETATM    6  C   UNK A   0      -9.468  10.360  66.855  1.00  0.00    -0.168 C  
HETATM    7  N   UNK A   1     -10.496   9.892  67.639  1.00  0.00    -0.227 N  
HETATM    8  O   UNK A   0      -8.663  11.202  67.234  1.00  0.00    -0.136 OA 
HETATM    9  H   UNK A   1     -11.119   9.213  67.201  1.00  0.00     0.000 HD 
BRANCH   7  10
HETATM   10  C   UNK A   1     -10.793  10.231  68.958  1.00  0.00    -0.230 C  
HETATM   11  C   UNK A   1     -11.491  11.358  69.247  1.00  0.00    -0.370 C  
HETATM   12  C   UNK A   1     -10.360   9.475  70.201  1.00  0.00    -0.255 C  
HETATM   13  O   UNK A   1      -9.172   8.846  70.128  1.00  0.00    -0.161 OA 
HETATM   14  O   UNK A   1     -10.954   9.571  71.266  1.00  0.00    -0.337 OA 
BRANCH  11  15
HETATM   15  C   UNK A   1     -11.988  12.386  68.276  1.00  0.00    -0.270 C  
BRANCH  15  16
HETATM   16  C   UNK A   1     -11.081  13.609  68.042  1.00  0.00    -0.285 C  
BRANCH  16  17
HETATM   17  C   UNK A   1     -11.563  14.279  66.749  1.00  0.00    -0.407 C  
BRANCH  17  18
HETATM   18  C   UNK A   1     -10.532  14.373  65.631  1.00  0.00    -0.334 C  
BRANCH  18  19
HETATM   19  S   UNK A   1      -9.164  15.406  66.276  1.00  0.00    -0.322 SA 
BRANCH  19  20
HETATM   20  C   UNK A   1     -10.059  16.975  66.527  1.00  0.00    -0.314 C  
BRANCH  20  21
HETATM   21  C   UNK A   1      -9.559  17.689  67.793  1.00  0.00    -0.267 C  
HETATM   22  N   UNK A   1      -8.065  17.796  67.842  1.00  0.00    -0.230 NA 
HETATM   23  C   UNK A   1     -10.019  16.868  68.998  1.00  0.00    -0.265 C  
HETATM   24  O   UNK A   1     -11.152  16.865  69.452  1.00  0.00    -0.192 OA 
HETATM   25  O   UNK A   1      -9.013  16.091  69.478  1.00  0.00    -0.222 OA 
HETATM   26  H1  UNK A   1      -7.733  18.270  68.682  1.00  0.00     0.000 HD 
HETATM   27  H2  UNK A   1      -7.702  18.244  67.001  1.00  0.00     0.000 HD 
ENDBRANCH  20  21
ENDBRANCH  19  20
ENDBRANCH  18  19
ENDBRANCH  17  18
ENDBRANCH  16  17
ENDBRANCH  15  16
ENDBRANCH  11  15
ENDBRANCH   7  10
ENDBRANCH   5   6
TORSDOF 9
ENDMDL
MODEL      265
REMARK 921   NORMALIZED FREE ENERGY PREDICTED BY IDOCK:   -3.63 KCAL/MOL
REMARK 922        TOTAL FREE ENERGY PREDICTED BY IDOCK:   -6.51 KCAL/MOL
REMARK 923 INTER-LIGAND FREE ENERGY PREDICTED BY IDOCK:   -5.56 KCAL/MOL
REMARK 924 INTRA-LIGAND FREE ENERGY PREDICTED BY IDOCK:   -0.94 KCAL/MOL
REMARK 927      BINDING AFFINITY PREDICTED BY RF-SCORE:    0.00 PKD
ROOT
HETATM    1  C   UNK A   0      -9.471   4.634  66.187  1.00  0.00    -0.169 C  
HETATM    2  C   UNK A   0      -9.404   5.537  67.396  1.00  0.00    -0.115 C  
HETATM    3  C   UNK A   0      -9.810   6.973  67.172  1.00  0.00    -0.225 C  
HETATM    4  C   UNK A   0      -8.237   5.228  68.304  1.00  0.00    -0.094 C  
HETATM    5  C   UNK A   0     -10.705   6.073  68.006  1.00  0.00    -0.359 C  
ENDROOT
BRANCH   5   6
HETATM    6  C   UNK A   0     -10.853   6.431  69.456  1.00  0.00    -0.321 C  
HETATM    7  N   UNK A   1     -10.495   7.710  69.814  1.00  0.00    -0.227 N  
HETATM    8  O   UNK A   0     -11.208   5.582  70.264  1.00  0.00    -0.163 OA 
HETATM    9  H   UNK A   1     -10.188   8.317  69.054  1.00  0.00     0.000 HD 
BRANCH   7  10
HETATM   10  C   UNK A   1     -10.498   8.278  71.087  1.00  0.00    -0.209 C  
HETATM   11  C   UNK A   1     -11.208   9.406  71.342  1.00  0.00    -0.452 C  
HETATM   12  C   UNK A   1      -9.715   7.793  72.291  1.00  0.00    -0.186 C  
HETATM   13  O   UNK A   1      -8.525   7.217  72.032  1.00  0.00    -0.108 OA 
HETATM   14  O   UNK A   1     -10.044   8.061  73.439  1.00  0.00    -0.279 OA 
BRANCH  11  15
HETATM   15  C   UNK A   1     -12.014  10.207  70.366  1.00  0.00    -0.353 C  
BRANCH  15  16
HETATM   16  C   UNK A   1     -11.273  11.333  69.620  1.00  0.00    -0.321 C  
BRANCH  16  17
HETATM   17  C   UNK A   1     -11.744  11.285  68.160  1.00  0.00    -0.323 C  
BRANCH  17  18
HETATM   18  C   UNK A   1     -10.670  10.948  67.132  1.00  0.00    -0.270 C  
BRANCH  18  19
HETATM   19  S   UNK A   1      -9.091  11.587  67.807  1.00  0.00    -0.170 SA 
BRANCH  19  20
HETATM   20  C   UNK A   1      -9.179  13.308  67.210  1.00  0.00    -0.222 C  
BRANCH  20  21
HETATM   21  C   UNK A   1      -7.815  14.002  67.350  1.00  0.00    -0.170 C  
HETATM   22  N   UNK A   1      -6.667  13.068  67.115  1.00  0.00    -0.439 NA 
HETATM   23  C   UNK A   1      -7.713  14.535  68.780  1.00  0.00    -0.140 C  
HETATM   24  O   UNK A   1      -8.263  15.542  69.193  1.00  0.00    -0.209 OA 
HETATM   25  O   UNK A   1      -6.966  13.710  69.561  1.00  0.00    -0.038 OA 
HETATM   26  H1  UNK A   1      -5.762  13.528  67.208  1.00  0.00     0.000 HD 
HETATM   27  H2  UNK A   1      -6.751  12.604  66.211  1.00  0.00     0.000 HD 
ENDBRANCH  20  21
ENDBRANCH  19  20
ENDBRANCH  18  19
ENDBRANCH  17  18
ENDBRANCH  16  17
ENDBRANCH  15  16
ENDBRANCH  11  15
ENDBRANCH   7  10
ENDBRANCH   5   6
TORSDOF 9
ENDMDL
MODEL      266
REMARK 921   NORMALIZED FREE ENERGY PREDICTED BY IDOCK:   -3.62 KCAL/MOL
REMARK 922        TOTAL FREE ENERGY PREDICTED BY IDOCK:   -6.49 KCAL/MOL
REMARK 923 INTER-LIGAND FREE ENERGY PREDICTED BY IDOCK:   -5.45 KCAL/MOL
REMARK 924 INTRA-LIGAND FREE ENERGY PREDICTED BY IDOCK:   -1.04 KCAL/MOL
REMARK 927      BINDING AFFINITY PREDICTED BY RF-SCORE:    0.00 PKD
ROOT
HETATM    1  C   UNK A   0     -11.032   7.627  70.267  1.00  0.00    -0.261 C  
HETATM    2  C   UNK A   0     -10.185   7.412  69.035  1.00  0.00    -0.201 C  
HETATM    3  C   UNK A   0     -10.697   6.388  68.051  1.00  0.00    -0.362 C  
HETATM    4  C   UNK A   0      -8.703   7.501  69.310  1.00  0.00    -0.136 C  
HETATM    5  C   UNK A   0     -10.720   7.858  67.668  1.00  0.00    -0.215 C  
ENDROOT
BRANCH   5   6
HETATM    6  C   UNK A   0      -9.836   8.267  66.527  1.00  0.00    -0.253 C  
HETATM    7  N   UNK A   1      -9.816   9.607  66.213  1.00  0.00    -0.237 N  
HETATM    8  O   UNK A   0      -9.232   7.418  65.884  1.00  0.00    -0.099 OA 
HETATM    9  H   UNK A   1     -10.383  10.213  66.807  1.00  0.00     0.000 HD 
BRANCH   7  10
HETATM   10  C   UNK A   1      -9.117  10.237  65.185  1.00  0.00    -0.197 C  
HETATM   11  C   UNK A   1      -7.805  10.551  65.327  1.00  0.00    -0.100 C  
HETATM   12  C   UNK A   1      -9.690  10.696  63.858  1.00  0.00    -0.321 C  
HETATM   13  O   UNK A   1     -10.976  11.097  63.873  1.00  0.00    -0.374 OA 
HETATM   14  O   UNK A   1      -8.992  10.869  62.867  1.00  0.00    -0.234 OA 
BRANCH  11  15
HETATM   15  C   UNK A   1      -6.950  10.335  66.538  1.00  0.00    -0.107 C  
BRANCH  15  16
HETATM   16  C   UNK A   1      -6.094  11.530  67.001  1.00  0.00    -0.131 C  
BRANCH  16  17
HETATM   17  C   UNK A   1      -7.068  12.659  67.365  1.00  0.00    -0.138 C  
BRANCH  17  18
HETATM   18  C   UNK A   1      -8.084  12.328  68.451  1.00  0.00    -0.151 C  
BRANCH  18  19
HETATM   19  S   UNK A   1      -9.689  12.999  67.878  1.00  0.00    -0.224 SA 
BRANCH  19  20
HETATM   20  C   UNK A   1      -9.673  14.606  68.740  1.00  0.00    -0.217 C  
BRANCH  20  21
HETATM   21  C   UNK A   1     -11.087  15.206  68.799  1.00  0.00    -0.267 C  
HETATM   22  N   UNK A   1     -11.074  16.699  68.924  1.00  0.00    -0.287 NA 
HETATM   23  C   UNK A   1     -11.782  14.629  70.033  1.00  0.00    -0.294 C  
HETATM   24  O   UNK A   1     -12.259  13.508  70.108  1.00  0.00    -0.332 OA 
HETATM   25  O   UNK A   1     -11.759  15.509  71.068  1.00  0.00    -0.308 OA 
HETATM   26  H1  UNK A   1     -12.012  17.098  68.963  1.00  0.00     0.000 HD 
HETATM   27  H2  UNK A   1     -10.527  17.125  68.176  1.00  0.00     0.000 HD 
ENDBRANCH  20  21
ENDBRANCH  19  20
ENDBRANCH  18  19
ENDBRANCH  17  18
ENDBRANCH  16  17
ENDBRANCH  15  16
ENDBRANCH  11  15
ENDBRANCH   7  10
ENDBRANCH   5   6
TORSDOF 9
ENDMDL
MODEL      267
REMARK 921   NORMALIZED FREE ENERGY PREDICTED BY IDOCK:   -3.61 KCAL/MOL
REMARK 922        TOTAL FREE ENERGY PREDICTED BY IDOCK:   -6.48 KCAL/MOL
REMARK 923 INTER-LIGAND FREE ENERGY PREDICTED BY IDOCK:   -5.47 KCAL/MOL
REMARK 924 INTRA-LIGAND FREE ENERGY PREDICTED BY IDOCK:   -1.00 KCAL/MOL
REMARK 927      BINDING AFFINITY PREDICTED BY RF-SCORE:    0.00 PKD
ROOT
HETATM    1  C   UNK A   0      -7.988   6.745  73.609  1.00  0.00    -0.107 C  
HETATM    2  C   UNK A   0      -9.190   6.910  72.709  1.00  0.00    -0.152 C  
HETATM    3  C   UNK A   0     -10.517   7.090  73.405  1.00  0.00    -0.383 C  
HETATM    4  C   UNK A   0      -9.116   6.066  71.458  1.00  0.00    -0.148 C  
HETATM    5  C   UNK A   0      -9.909   8.264  72.656  1.00  0.00    -0.357 C  
ENDROOT
BRANCH   5   6
HETATM    6  C   UNK A   0     -10.661   8.754  71.453  1.00  0.00    -0.279 C  
HETATM    7  N   UNK A   1      -9.980   9.593  70.602  1.00  0.00    -0.301 N  
HETATM    8  O   UNK A   0     -11.841   8.462  71.307  1.00  0.00    -0.281 OA 
HETATM    9  H   UNK A   1      -9.008   9.785  70.846  1.00  0.00     0.000 HD 
BRANCH   7  10
HETATM   10  C   UNK A   1     -10.454  10.214  69.447  1.00  0.00    -0.233 C  
HETATM   11  C   UNK A   1      -9.811  10.061  68.262  1.00  0.00    -0.163 C  
HETATM   12  C   UNK A   1     -11.649  11.143  69.351  1.00  0.00    -0.318 C  
HETATM   13  O   UNK A   1     -11.898  11.903  70.435  1.00  0.00    -0.332 OA 
HETATM   14  O   UNK A   1     -12.249  11.334  68.301  1.00  0.00    -0.611 OA 
BRANCH  11  15
HETATM   15  C   UNK A   1      -8.547   9.297  68.012  1.00  0.00    -0.121 C  
BRANCH  15  16
HETATM   16  C   UNK A   1      -8.157   9.074  66.538  1.00  0.00    -0.111 C  
BRANCH  16  17
HETATM   17  C   UNK A   1      -8.027   7.558  66.337  1.00  0.00    -0.107 C  
BRANCH  17  18
HETATM   18  C   UNK A   1      -7.140   7.120  65.178  1.00  0.00    -0.060 C  
BRANCH  18  19
HETATM   19  S   UNK A   1      -8.027   5.756  64.337  1.00  0.00    -0.127 SA 
BRANCH  19  20
HETATM   20  C   UNK A   1      -8.162   4.578  65.723  1.00  0.00    -0.110 C  
BRANCH  20  21
HETATM   21  C   UNK A   1      -9.618   4.126  65.913  1.00  0.00    -0.191 C  
HETATM   22  N   UNK A   1     -10.561   4.808  64.967  1.00  0.00    -0.476 NA 
HETATM   23  C   UNK A   1     -10.031   4.487  67.341  1.00  0.00    -0.120 C  
HETATM   24  O   UNK A   1      -9.712   3.865  68.341  1.00  0.00    -0.136 OA 
HETATM   25  O   UNK A   1     -10.764   5.632  67.368  1.00  0.00    -0.248 OA 
HETATM   26  H1  UNK A   1     -11.527   4.508  65.093  1.00  0.00     0.000 HD 
HETATM   27  H2  UNK A   1     -10.262   4.684  64.000  1.00  0.00     0.000 HD 
ENDBRANCH  20  21
ENDBRANCH  19  20
ENDBRANCH  18  19
ENDBRANCH  17  18
ENDBRANCH  16  17
ENDBRANCH  15  16
ENDBRANCH  11  15
ENDBRANCH   7  10
ENDBRANCH   5   6
TORSDOF 9
ENDMDL
MODEL      268
REMARK 921   NORMALIZED FREE ENERGY PREDICTED BY IDOCK:   -3.59 KCAL/MOL
REMARK 922        TOTAL FREE ENERGY PREDICTED BY IDOCK:   -6.45 KCAL/MOL
REMARK 923 INTER-LIGAND FREE ENERGY PREDICTED BY IDOCK:   -5.36 KCAL/MOL
REMARK 924 INTRA-LIGAND FREE ENERGY PREDICTED BY IDOCK:   -1.09 KCAL/MOL
REMARK 927      BINDING AFFINITY PREDICTED BY RF-SCORE:    0.00 PKD
ROOT
HETATM    1  C   UNK A   0     -12.309  13.909  64.371  1.00  0.00    -0.400 C  
HETATM    2  C   UNK A   0     -11.377  13.568  65.509  1.00  0.00    -0.310 C  
HETATM    3  C   UNK A   0     -11.045  14.699  66.452  1.00  0.00    -0.334 C  
HETATM    4  C   UNK A   0     -10.299  12.585  65.120  1.00  0.00    -0.312 C  
HETATM    5  C   UNK A   0     -11.917  13.557  66.945  1.00  0.00    -0.447 C  
ENDROOT
BRANCH   5   6
HETATM    6  C   UNK A   0     -11.346  12.700  68.037  1.00  0.00    -0.290 C  
HETATM    7  N   UNK A   1     -11.795  11.400  68.097  1.00  0.00    -0.266 N  
HETATM    8  O   UNK A   0     -10.578  13.184  68.858  1.00  0.00    -0.216 OA 
HETATM    9  H   UNK A   1     -12.456  11.122  67.371  1.00  0.00     0.000 HD 
BRANCH   7  10
HETATM   10  C   UNK A   1     -11.458  10.418  69.026  1.00  0.00    -0.193 C  
HETATM   11  C   UNK A   1     -10.766   9.313  68.650  1.00  0.00    -0.180 C  
HETATM   12  C   UNK A   1     -11.837  10.401  70.495  1.00  0.00    -0.337 C  
HETATM   13  O   UNK A   1     -13.018  10.966  70.809  1.00  0.00    -0.314 OA 
HETATM   14  O   UNK A   1     -11.208   9.760  71.327  1.00  0.00    -0.361 OA 
BRANCH  11  15
HETATM   15  C   UNK A   1     -10.317   8.956  67.266  1.00  0.00    -0.350 C  
BRANCH  15  16
HETATM   16  C   UNK A   1      -8.885   9.372  66.876  1.00  0.00    -0.141 C  
BRANCH  16  17
HETATM   17  C   UNK A   1      -8.197   8.122  66.311  1.00  0.00    -0.114 C  
BRANCH  17  18
HETATM   18  C   UNK A   1      -6.674   8.140  66.335  1.00  0.00    -0.062 C  
BRANCH  18  19
HETATM   19  S   UNK A   1      -6.147   6.479  66.903  1.00  0.00    -0.030 SA 
BRANCH  19  20
HETATM   20  C   UNK A   1      -7.683   5.937  67.724  1.00  0.00    -0.097 C  
BRANCH  20  21
HETATM   21  C   UNK A   1      -8.036   4.497  67.319  1.00  0.00    -0.101 C  
HETATM   22  N   UNK A   1      -6.947   3.838  66.527  1.00  0.00    -0.058 NA 
HETATM   23  C   UNK A   1      -9.292   4.557  66.447  1.00  0.00    -0.151 C  
HETATM   24  O   UNK A   1     -10.427   4.713  66.865  1.00  0.00    -0.163 OA 
HETATM   25  O   UNK A   1      -8.980   4.465  65.127  1.00  0.00    -0.131 OA 
HETATM   26  H1  UNK A   1      -7.181   2.882  66.258  1.00  0.00     0.000 HD 
HETATM   27  H2  UNK A   1      -6.059   3.870  67.028  1.00  0.00     0.000 HD 
ENDBRANCH  20  21
ENDBRANCH  19  20
ENDBRANCH  18  19
ENDBRANCH  17  18
ENDBRANCH  16  17
ENDBRANCH  15  16
ENDBRANCH  11  15
ENDBRANCH   7  10
ENDBRANCH   5   6
TORSDOF 9
ENDMDL
MODEL      269
REMARK 921   NORMALIZED FREE ENERGY PREDICTED BY IDOCK:   -3.59 KCAL/MOL
REMARK 922        TOTAL FREE ENERGY PREDICTED BY IDOCK:   -6.45 KCAL/MOL
REMARK 923 INTER-LIGAND FREE ENERGY PREDICTED BY IDOCK:   -5.89 KCAL/MOL
REMARK 924 INTRA-LIGAND FREE ENERGY PREDICTED BY IDOCK:   -0.56 KCAL/MOL
REMARK 927      BINDING AFFINITY PREDICTED BY RF-SCORE:    0.00 PKD
ROOT
HETATM    1  C   UNK A   0     -11.318   9.203  71.483  1.00  0.00    -0.439 C  
HETATM    2  C   UNK A   0     -11.398  10.413  70.583  1.00  0.00    -0.411 C  
HETATM    3  C   UNK A   0     -12.630  10.513  69.717  1.00  0.00    -0.038 C  
HETATM    4  C   UNK A   0     -10.059  10.823  70.017  1.00  0.00     0.325 C  
HETATM    5  C   UNK A   0     -12.452  11.491  70.865  1.00  0.00    -0.464 C  
ENDROOT
BRANCH   5   6
HETATM    6  C   UNK A   0     -12.278  12.935  70.495  1.00  0.00    -0.314 C  
HETATM    7  N   UNK A   1     -11.863  13.196  69.210  1.00  0.00    -0.320 N  
HETATM    8  O   UNK A   0     -12.436  13.808  71.340  1.00  0.00    -0.351 OA 
HETATM    9  H   UNK A   1     -11.739  12.382  68.607  1.00  0.00     0.000 HD 
BRANCH   7  10
HETATM   10  C   UNK A   1     -11.590  14.434  68.630  1.00  0.00    -0.314 C  
HETATM   11  C   UNK A   1     -11.914  14.681  67.336  1.00  0.00    -0.309 C  
HETATM   12  C   UNK A   1     -10.882  15.601  69.291  1.00  0.00    -0.250 C  
HETATM   13  O   UNK A   1      -9.940  15.285  70.200  1.00  0.00    -0.216 OA 
HETATM   14  O   UNK A   1     -11.018  16.754  68.905  1.00  0.00    -0.314 OA 
BRANCH  11  15
HETATM   15  C   UNK A   1     -12.531  13.726  66.360  1.00  0.00    -0.404 C  
BRANCH  15  16
HETATM   16  C   UNK A   1     -11.685  13.358  65.126  1.00  0.00    -0.345 C  
BRANCH  16  17
HETATM   17  C   UNK A   1     -10.897  12.092  65.491  1.00  0.00    -0.324 C  
BRANCH  17  18
HETATM   18  C   UNK A   1     -10.515  11.194  64.321  1.00  0.00    -0.362 C  
BRANCH  18  19
HETATM   19  S   UNK A   1      -9.445   9.876  65.010  1.00  0.00    -0.278 SA 
BRANCH  19  20
HETATM   20  C   UNK A   1      -8.574  10.832  66.296  1.00  0.00    -0.162 C  
BRANCH  20  21
HETATM   21  C   UNK A   1      -7.287  10.114  66.731  1.00  0.00    -0.104 C  
HETATM   22  N   UNK A   1      -7.513   9.166  67.870  1.00  0.00    -0.084 NA 
HETATM   23  C   UNK A   1      -6.293  11.182  67.189  1.00  0.00    -0.083 C  
HETATM   24  O   UNK A   1      -5.639  11.895  66.445  1.00  0.00    -0.284 OA 
HETATM   25  O   UNK A   1      -6.264  11.280  68.544  1.00  0.00    -0.046 OA 
HETATM   26  H1  UNK A   1      -6.659   8.689  68.158  1.00  0.00     0.000 HD 
HETATM   27  H2  UNK A   1      -8.250   8.496  67.648  1.00  0.00     0.000 HD 
ENDBRANCH  20  21
ENDBRANCH  19  20
ENDBRANCH  18  19
ENDBRANCH  17  18
ENDBRANCH  16  17
ENDBRANCH  15  16
ENDBRANCH  11  15
ENDBRANCH   7  10
ENDBRANCH   5   6
TORSDOF 9
ENDMDL
MODEL      270
REMARK 921   NORMALIZED FREE ENERGY PREDICTED BY IDOCK:   -3.58 KCAL/MOL
REMARK 922        TOTAL FREE ENERGY PREDICTED BY IDOCK:   -6.43 KCAL/MOL
REMARK 923 INTER-LIGAND FREE ENERGY PREDICTED BY IDOCK:   -5.55 KCAL/MOL
REMARK 924 INTRA-LIGAND FREE ENERGY PREDICTED BY IDOCK:   -0.89 KCAL/MOL
REMARK 927      BINDING AFFINITY PREDICTED BY RF-SCORE:    0.00 PKD
ROOT
HETATM    1  C   UNK A   0      -7.533   6.286  63.639  1.00  0.00    -0.080 C  
HETATM    2  C   UNK A   0      -7.386   7.649  64.274  1.00  0.00    -0.093 C  
HETATM    3  C   UNK A   0      -8.279   8.734  63.723  1.00  0.00    -0.163 C  
HETATM    4  C   UNK A   0      -5.960   7.980  64.648  1.00  0.00    -0.048 C  
HETATM    5  C   UNK A   0      -8.532   8.209  65.126  1.00  0.00    -0.134 C  
ENDROOT
BRANCH   5   6
HETATM    6  C   UNK A   0      -8.328   9.179  66.252  1.00  0.00    -0.119 C  
HETATM    7  N   UNK A   1      -8.271  10.512  65.915  1.00  0.00    -0.148 N  
HETATM    8  O   UNK A   0      -8.151   8.766  67.392  1.00  0.00    -0.104 OA 
HETATM    9  H   UNK A   1      -8.405  10.728  64.927  1.00  0.00     0.000 HD 
BRANCH   7  10
HETATM   10  C   UNK A   1      -8.052  11.601  66.756  1.00  0.00    -0.150 C  
HETATM   11  C   UNK A   1      -9.084  12.385  67.161  1.00  0.00    -0.199 C  
HETATM   12  C   UNK A   1      -6.710  12.087  67.269  1.00  0.00    -0.144 C  
HETATM   13  O   UNK A   1      -5.660  11.904  66.447  1.00  0.00    -0.284 OA 
HETATM   14  O   UNK A   1      -6.602  12.765  68.282  1.00  0.00    -0.070 OA 
BRANCH  11  15
HETATM   15  C   UNK A   1     -10.524  12.256  66.768  1.00  0.00    -0.242 C  
BRANCH  15  16
HETATM   16  C   UNK A   1     -11.559  12.865  67.734  1.00  0.00    -0.391 C  
BRANCH  16  17
HETATM   17  C   UNK A   1     -11.976  14.218  67.143  1.00  0.00    -0.449 C  
BRANCH  17  18
HETATM   18  C   UNK A   1     -11.252  15.435  67.706  1.00  0.00    -0.321 C  
BRANCH  18  19
HETATM   19  S   UNK A   1     -10.234  16.107  66.339  1.00  0.00    -0.319 SA 
BRANCH  19  20
HETATM   20  C   UNK A   1     -10.189  17.864  66.827  1.00  0.00    -0.360 C  
BRANCH  20  21
HETATM   21  C   UNK A   1      -8.840  18.213  67.476  1.00  0.00    -0.256 C  
HETATM   22  N   UNK A   1      -8.969  19.253  68.548  1.00  0.00    -0.360 NA 
HETATM   23  C   UNK A   1      -7.930  18.768  66.379  1.00  0.00    -0.282 C  
HETATM   24  O   UNK A   1      -7.349  18.094  65.544  1.00  0.00    -0.543 OA 
HETATM   25  O   UNK A   1      -7.887  20.126  66.415  1.00  0.00    -0.289 OA 
HETATM   26  H1  UNK A   1      -8.074  19.485  68.979  1.00  0.00     0.000 HD 
HETATM   27  H2  UNK A   1      -9.652  18.972  69.251  1.00  0.00     0.000 HD 
ENDBRANCH  20  21
ENDBRANCH  19  20
ENDBRANCH  18  19
ENDBRANCH  17  18
ENDBRANCH  16  17
ENDBRANCH  15  16
ENDBRANCH  11  15
ENDBRANCH   7  10
ENDBRANCH   5   6
TORSDOF 9
ENDMDL
MODEL      271
REMARK 921   NORMALIZED FREE ENERGY PREDICTED BY IDOCK:   -3.57 KCAL/MOL
REMARK 922        TOTAL FREE ENERGY PREDICTED BY IDOCK:   -6.42 KCAL/MOL
REMARK 923 INTER-LIGAND FREE ENERGY PREDICTED BY IDOCK:   -5.12 KCAL/MOL
REMARK 924 INTRA-LIGAND FREE ENERGY PREDICTED BY IDOCK:   -1.30 KCAL/MOL
REMARK 927      BINDING AFFINITY PREDICTED BY RF-SCORE:    0.00 PKD
ROOT
HETATM    1  C   UNK A   0      -8.907  11.337  67.262  1.00  0.00    -0.150 C  
HETATM    2  C   UNK A   0      -9.871  10.174  67.258  1.00  0.00    -0.226 C  
HETATM    3  C   UNK A   0     -10.243   9.629  65.900  1.00  0.00    -0.219 C  
HETATM    4  C   UNK A   0     -10.927  10.274  68.333  1.00  0.00    -0.308 C  
HETATM    5  C   UNK A   0      -9.376   8.789  66.823  1.00  0.00    -0.229 C  
ENDROOT
BRANCH   5   6
HETATM    6  C   UNK A   0      -9.972   7.504  67.319  1.00  0.00    -0.210 C  
HETATM    7  N   UNK A   1      -9.363   6.922  68.406  1.00  0.00    -0.130 N  
HETATM    8  O   UNK A   0     -10.908   6.991  66.718  1.00  0.00    -0.318 OA 
HETATM    9  H   UNK A   1      -8.574   7.433  68.803  1.00  0.00     0.000 HD 
BRANCH   7  10
HETATM   10  C   UNK A   1      -9.690   5.721  69.032  1.00  0.00    -0.140 C  
HETATM   11  C   UNK A   1     -10.745   5.645  69.883  1.00  0.00    -0.399 C  
HETATM   12  C   UNK A   1      -8.935   4.410  68.917  1.00  0.00    -0.109 C  
HETATM   13  O   UNK A   1      -7.603   4.508  68.743  1.00  0.00    -0.063 OA 
HETATM   14  O   UNK A   1      -9.460   3.329  69.145  1.00  0.00    -0.162 OA 
BRANCH  11  15
HETATM   15  C   UNK A   1     -11.647   6.764  70.305  1.00  0.00    -0.417 C  
BRANCH  15  16
HETATM   16  C   UNK A   1     -12.224   6.684  71.732  1.00  0.00    -0.400 C  
BRANCH  16  17
HETATM   17  C   UNK A   1     -11.814   7.978  72.450  1.00  0.00    -0.429 C  
BRANCH  17  18
HETATM   18  C   UNK A   1     -10.345   8.077  72.842  1.00  0.00    -0.327 C  
BRANCH  18  19
HETATM   19  S   UNK A   1     -10.030   6.702  74.011  1.00  0.00    -0.349 SA 
BRANCH  19  20
HETATM   20  C   UNK A   1      -8.472   6.060  73.313  1.00  0.00    -0.117 C  
BRANCH  20  21
HETATM   21  C   UNK A   1      -8.196   4.635  73.819  1.00  0.00    -0.105 C  
HETATM   22  N   UNK A   1      -6.766   4.434  74.221  1.00  0.00    -0.061 NA 
HETATM   23  C   UNK A   1      -8.511   3.670  72.676  1.00  0.00    -0.090 C  
HETATM   24  O   UNK A   1      -9.632   3.327  72.337  1.00  0.00    -0.118 OA 
HETATM   25  O   UNK A   1      -7.378   3.273  72.039  1.00  0.00    -0.048 OA 
HETATM   26  H1  UNK A   1      -6.582   3.489  74.557  1.00  0.00     0.000 HD 
HETATM   27  H2  UNK A   1      -6.477   5.130  74.909  1.00  0.00     0.000 HD 
ENDBRANCH  20  21
ENDBRANCH  19  20
ENDBRANCH  18  19
ENDBRANCH  17  18
ENDBRANCH  16  17
ENDBRANCH  15  16
ENDBRANCH  11  15
ENDBRANCH   7  10
ENDBRANCH   5   6
TORSDOF 9
ENDMDL
MODEL      272
REMARK 921   NORMALIZED FREE ENERGY PREDICTED BY IDOCK:   -3.56 KCAL/MOL
REMARK 922        TOTAL FREE ENERGY PREDICTED BY IDOCK:   -6.41 KCAL/MOL
REMARK 923 INTER-LIGAND FREE ENERGY PREDICTED BY IDOCK:   -5.59 KCAL/MOL
REMARK 924 INTRA-LIGAND FREE ENERGY PREDICTED BY IDOCK:   -0.82 KCAL/MOL
REMARK 927      BINDING AFFINITY PREDICTED BY RF-SCORE:    0.00 PKD
ROOT
HETATM    1  C   UNK A   0      -8.473   7.329  73.036  1.00  0.00    -0.147 C  
HETATM    2  C   UNK A   0      -9.687   7.506  72.155  1.00  0.00    -0.204 C  
HETATM    3  C   UNK A   0     -11.000   7.707  72.872  1.00  0.00    -0.456 C  
HETATM    4  C   UNK A   0      -9.645   6.656  70.908  1.00  0.00    -0.183 C  
HETATM    5  C   UNK A   0     -10.389   8.869  72.108  1.00  0.00    -0.313 C  
ENDROOT
BRANCH   5   6
HETATM    6  C   UNK A   0     -11.154   9.365  70.916  1.00  0.00    -0.319 C  
HETATM    7  N   UNK A   1     -10.455  10.128  70.009  1.00  0.00    -0.305 N  
HETATM    8  O   UNK A   0     -12.355   9.143  70.823  1.00  0.00    -0.199 OA 
HETATM    9  H   UNK A   1      -9.464  10.265  70.211  1.00  0.00     0.000 HD 
BRANCH   7  10
HETATM   10  C   UNK A   1     -10.933  10.736  68.850  1.00  0.00    -0.241 C  
HETATM   11  C   UNK A   1     -10.725  10.173  67.633  1.00  0.00    -0.339 C  
HETATM   12  C   UNK A   1     -11.661  12.064  68.765  1.00  0.00    -0.321 C  
HETATM   13  O   UNK A   1     -11.312  12.991  69.679  1.00  0.00    -0.208 OA 
HETATM   14  O   UNK A   1     -12.389  12.355  67.825  1.00  0.00    -0.281 OA 
BRANCH  11  15
HETATM   15  C   UNK A   1      -9.962   8.919  67.336  1.00  0.00    -0.267 C  
BRANCH  15  16
HETATM   16  C   UNK A   1      -9.220   8.866  65.986  1.00  0.00    -0.287 C  
BRANCH  16  17
HETATM   17  C   UNK A   1      -8.747   7.418  65.796  1.00  0.00    -0.132 C  
BRANCH  17  18
HETATM   18  C   UNK A   1      -7.363   7.253  65.181  1.00  0.00    -0.081 C  
BRANCH  18  19
HETATM   19  S   UNK A   1      -7.546   6.044  63.816  1.00  0.00    -0.093 SA 
BRANCH  19  20
HETATM   20  C   UNK A   1      -8.362   4.686  64.719  1.00  0.00    -0.127 C  
BRANCH  20  21
HETATM   21  C   UNK A   1      -9.541   4.125  63.908  1.00  0.00    -0.141 C  
HETATM   22  N   UNK A   1     -10.824   4.123  64.684  1.00  0.00    -0.673 NA 
HETATM   23  C   UNK A   1      -9.202   2.680  63.541  1.00  0.00    -0.097 C  
HETATM   24  O   UNK A   1      -8.437   2.344  62.652  1.00  0.00    -0.072 OA 
HETATM   25  O   UNK A   1      -9.826   1.801  64.370  1.00  0.00    -0.099 OA 
HETATM   26  H1  UNK A   1     -11.607   3.751  64.146  1.00  0.00     0.000 HD 
HETATM   27  H2  UNK A   1     -11.036   5.054  65.043  1.00  0.00     0.000 HD 
ENDBRANCH  20  21
ENDBRANCH  19  20
ENDBRANCH  18  19
ENDBRANCH  17  18
ENDBRANCH  16  17
ENDBRANCH  15  16
ENDBRANCH  11  15
ENDBRANCH   7  10
ENDBRANCH   5   6
TORSDOF 9
ENDMDL
MODEL      273
REMARK 921   NORMALIZED FREE ENERGY PREDICTED BY IDOCK:   -3.55 KCAL/MOL
REMARK 922        TOTAL FREE ENERGY PREDICTED BY IDOCK:   -6.38 KCAL/MOL
REMARK 923 INTER-LIGAND FREE ENERGY PREDICTED BY IDOCK:   -5.55 KCAL/MOL
REMARK 924 INTRA-LIGAND FREE ENERGY PREDICTED BY IDOCK:   -0.83 KCAL/MOL
REMARK 927      BINDING AFFINITY PREDICTED BY RF-SCORE:    0.00 PKD
ROOT
HETATM    1  C   UNK A   0     -12.935  10.519  71.872  1.00  0.00    -0.553 C  
HETATM    2  C   UNK A   0     -12.121   9.498  71.112  1.00  0.00    -0.429 C  
HETATM    3  C   UNK A   0     -11.982   9.736  69.628  1.00  0.00     0.226 C  
HETATM    4  C   UNK A   0     -12.305   8.089  71.624  1.00  0.00    -0.344 C  
HETATM    5  C   UNK A   0     -10.765   9.908  70.521  1.00  0.00    -0.382 C  
ENDROOT
BRANCH   5   6
HETATM    6  C   UNK A   0      -9.633   8.947  70.305  1.00  0.00    -0.186 C  
HETATM    7  N   UNK A   1      -9.600   8.297  69.093  1.00  0.00    -0.159 N  
HETATM    8  O   UNK A   0      -8.839   8.722  71.210  1.00  0.00    -0.189 OA 
HETATM    9  H   UNK A   1     -10.334   8.550  68.430  1.00  0.00     0.000 HD 
BRANCH   7  10
HETATM   10  C   UNK A   1      -8.689   7.336  68.658  1.00  0.00    -0.127 C  
HETATM   11  C   UNK A   1      -7.622   7.685  67.896  1.00  0.00    -0.117 C  
HETATM   12  C   UNK A   1      -8.772   5.841  68.902  1.00  0.00    -0.111 C  
HETATM   13  O   UNK A   1     -10.012   5.321  68.974  1.00  0.00    -0.159 OA 
HETATM   14  O   UNK A   1      -7.789   5.114  68.857  1.00  0.00    -0.080 OA 
BRANCH  11  15
HETATM   15  C   UNK A   1      -7.285   9.053  67.385  1.00  0.00    -0.083 C  
BRANCH  15  16
HETATM   16  C   UNK A   1      -7.922   9.463  66.043  1.00  0.00    -0.110 C  
BRANCH  16  17
HETATM   17  C   UNK A   1      -9.172  10.287  66.379  1.00  0.00    -0.186 C  
BRANCH  17  18
HETATM   18  C   UNK A   1      -8.918  11.609  67.094  1.00  0.00    -0.173 C  
BRANCH  18  19
HETATM   19  S   UNK A   1     -10.564  12.343  67.422  1.00  0.00    -0.218 SA 
BRANCH  19  20
HETATM   20  C   UNK A   1     -10.049  13.928  68.163  1.00  0.00    -0.250 C  
BRANCH  20  21
HETATM   21  C   UNK A   1     -11.033  15.048  67.788  1.00  0.00    -0.298 C  
HETATM   22  N   UNK A   1     -12.389  14.849  68.394  1.00  0.00    -0.578 NA 
HETATM   23  C   UNK A   1     -11.184  15.039  66.266  1.00  0.00    -0.309 C  
HETATM   24  O   UNK A   1     -10.371  15.496  65.479  1.00  0.00    -0.336 OA 
HETATM   25  O   UNK A   1     -12.326  14.407  65.887  1.00  0.00    -0.395 OA 
HETATM   26  H1  UNK A   1     -13.043  15.592  68.145  1.00  0.00     0.000 HD 
HETATM   27  H2  UNK A   1     -12.326  14.741  69.406  1.00  0.00     0.000 HD 
ENDBRANCH  20  21
ENDBRANCH  19  20
ENDBRANCH  18  19
ENDBRANCH  17  18
ENDBRANCH  16  17
ENDBRANCH  15  16
ENDBRANCH  11  15
ENDBRANCH   7  10
ENDBRANCH   5   6
TORSDOF 9
ENDMDL
MODEL      274
REMARK 921   NORMALIZED FREE ENERGY PREDICTED BY IDOCK:   -3.54 KCAL/MOL
REMARK 922        TOTAL FREE ENERGY PREDICTED BY IDOCK:   -6.37 KCAL/MOL
REMARK 923 INTER-LIGAND FREE ENERGY PREDICTED BY IDOCK:   -5.08 KCAL/MOL
REMARK 924 INTRA-LIGAND FREE ENERGY PREDICTED BY IDOCK:   -1.29 KCAL/MOL
REMARK 927      BINDING AFFINITY PREDICTED BY RF-SCORE:    0.00 PKD
ROOT
HETATM    1  C   UNK A   0     -11.640   7.734  72.533  1.00  0.00    -0.422 C  
HETATM    2  C   UNK A   0     -10.776   8.586  71.634  1.00  0.00    -0.351 C  
HETATM    3  C   UNK A   0      -9.319   8.685  72.017  1.00  0.00    -0.362 C  
HETATM    4  C   UNK A   0     -11.490   9.809  71.109  1.00  0.00    -0.472 C  
HETATM    5  C   UNK A   0      -9.704   7.915  70.765  1.00  0.00    -0.179 C  
ENDROOT
BRANCH   5   6
HETATM    6  C   UNK A   0      -9.228   8.478  69.458  1.00  0.00    -0.150 C  
HETATM    7  N   UNK A   1     -10.007   8.218  68.355  1.00  0.00    -0.184 N  
HETATM    8  O   UNK A   0      -8.158   9.071  69.400  1.00  0.00    -0.102 OA 
HETATM    9  H   UNK A   1     -10.863   7.690  68.527  1.00  0.00     0.000 HD 
BRANCH   7  10
HETATM   10  C   UNK A   1      -9.773   8.587  67.032  1.00  0.00    -0.204 C  
HETATM   11  C   UNK A   1     -10.223   9.774  66.551  1.00  0.00    -0.289 C  
HETATM   12  C   UNK A   1      -9.076   7.752  65.974  1.00  0.00    -0.121 C  
HETATM   13  O   UNK A   1      -9.233   6.418  66.074  1.00  0.00    -0.143 OA 
HETATM   14  O   UNK A   1      -8.553   8.249  64.986  1.00  0.00    -0.154 OA 
BRANCH  11  15
HETATM   15  C   UNK A   1     -11.031  10.799  67.287  1.00  0.00    -0.359 C  
BRANCH  15  16
HETATM   16  C   UNK A   1     -10.243  11.852  68.090  1.00  0.00    -0.203 C  
BRANCH  16  17
HETATM   17  C   UNK A   1     -11.178  13.053  68.284  1.00  0.00    -0.309 C  
BRANCH  17  18
HETATM   18  C   UNK A   1     -10.503  14.353  68.701  1.00  0.00    -0.247 C  
BRANCH  18  19
HETATM   19  S   UNK A   1      -8.856  14.360  67.898  1.00  0.00    -0.189 SA 
BRANCH  19  20
HETATM   20  C   UNK A   1      -7.923  15.338  69.122  1.00  0.00    -0.214 C  
BRANCH  20  21
HETATM   21  C   UNK A   1      -6.470  14.846  69.217  1.00  0.00    -0.121 C  
HETATM   22  N   UNK A   1      -6.022  14.133  67.978  1.00  0.00    -0.132 NA 
HETATM   23  C   UNK A   1      -6.391  13.865  70.388  1.00  0.00    -0.041 C  
HETATM   24  O   UNK A   1      -6.356  14.182  71.566  1.00  0.00    -0.050 OA 
HETATM   25  O   UNK A   1      -6.415  12.577  69.955  1.00  0.00    -0.083 OA 
HETATM   26  H1  UNK A   1      -5.057  13.807  68.040  1.00  0.00     0.000 HD 
HETATM   27  H2  UNK A   1      -6.158  14.714  67.151  1.00  0.00     0.000 HD 
ENDBRANCH  20  21
ENDBRANCH  19  20
ENDBRANCH  18  19
ENDBRANCH  17  18
ENDBRANCH  16  17
ENDBRANCH  15  16
ENDBRANCH  11  15
ENDBRANCH   7  10
ENDBRANCH   5   6
TORSDOF 9
ENDMDL
MODEL      275
REMARK 921   NORMALIZED FREE ENERGY PREDICTED BY IDOCK:   -3.53 KCAL/MOL
REMARK 922        TOTAL FREE ENERGY PREDICTED BY IDOCK:   -6.36 KCAL/MOL
REMARK 923 INTER-LIGAND FREE ENERGY PREDICTED BY IDOCK:   -5.50 KCAL/MOL
REMARK 924 INTRA-LIGAND FREE ENERGY PREDICTED BY IDOCK:   -0.86 KCAL/MOL
REMARK 927      BINDING AFFINITY PREDICTED BY RF-SCORE:    0.00 PKD
ROOT
HETATM    1  C   UNK A   0      -5.450   6.666  73.167  1.00  0.00    -0.038 C  
HETATM    2  C   UNK A   0      -6.392   6.599  71.988  1.00  0.00    -0.049 C  
HETATM    3  C   UNK A   0      -6.485   5.264  71.291  1.00  0.00    -0.035 C  
HETATM    4  C   UNK A   0      -6.409   7.867  71.167  1.00  0.00    -0.034 C  
HETATM    5  C   UNK A   0      -7.673   5.762  72.097  1.00  0.00    -0.102 C  
ENDROOT
BRANCH   5   6
HETATM    6  C   UNK A   0      -8.926   6.063  71.328  1.00  0.00    -0.136 C  
HETATM    7  N   UNK A   1      -9.762   7.016  71.862  1.00  0.00    -0.158 N  
HETATM    8  O   UNK A   0      -9.194   5.424  70.319  1.00  0.00    -0.141 OA 
HETATM    9  H   UNK A   1      -9.441   7.460  72.723  1.00  0.00     0.000 HD 
BRANCH   7  10
HETATM   10  C   UNK A   1     -10.993   7.450  71.374  1.00  0.00    -0.235 C  
HETATM   11  C   UNK A   1     -11.106   8.639  70.731  1.00  0.00    -0.295 C  
HETATM   12  C   UNK A   1     -12.323   6.736  71.525  1.00  0.00    -0.358 C  
HETATM   13  O   UNK A   1     -12.486   6.019  72.653  1.00  0.00    -0.021 OA 
HETATM   14  O   UNK A   1     -13.264   6.935  70.767  1.00  0.00    -0.083 OA 
BRANCH  11  15
HETATM   15  C   UNK A   1     -10.021   9.644  70.493  1.00  0.00    -0.318 C  
BRANCH  15  16
HETATM   16  C   UNK A   1      -9.941  10.251  69.078  1.00  0.00    -0.223 C  
BRANCH  16  17
HETATM   17  C   UNK A   1     -11.349  10.757  68.733  1.00  0.00    -0.352 C  
BRANCH  17  18
HETATM   18  C   UNK A   1     -11.409  12.105  68.026  1.00  0.00    -0.295 C  
BRANCH  18  19
HETATM   19  S   UNK A   1      -9.886  12.227  67.015  1.00  0.00    -0.208 SA 
BRANCH  19  20
HETATM   20  C   UNK A   1     -10.629  12.310  65.352  1.00  0.00    -0.274 C  
BRANCH  20  21
HETATM   21  C   UNK A   1     -10.387  13.689  64.717  1.00  0.00    -0.392 C  
HETATM   22  N   UNK A   1      -9.437  14.531  65.514  1.00  0.00    -0.507 NA 
HETATM   23  C   UNK A   1     -11.733  14.413  64.659  1.00  0.00    -0.430 C  
HETATM   24  O   UNK A   1     -12.611  14.194  63.840  1.00  0.00    -0.752 OA 
HETATM   25  O   UNK A   1     -11.857  15.306  65.676  1.00  0.00    -0.060 OA 
HETATM   26  H1  UNK A   1      -9.276  15.446  65.093  1.00  0.00     0.000 HD 
HETATM   27  H2  UNK A   1      -8.556  14.040  65.671  1.00  0.00     0.000 HD 
ENDBRANCH  20  21
ENDBRANCH  19  20
ENDBRANCH  18  19
ENDBRANCH  17  18
ENDBRANCH  16  17
ENDBRANCH  15  16
ENDBRANCH  11  15
ENDBRANCH   7  10
ENDBRANCH   5   6
TORSDOF 9
ENDMDL
MODEL      276
REMARK 921   NORMALIZED FREE ENERGY PREDICTED BY IDOCK:   -3.53 KCAL/MOL
REMARK 922        TOTAL FREE ENERGY PREDICTED BY IDOCK:   -6.35 KCAL/MOL
REMARK 923 INTER-LIGAND FREE ENERGY PREDICTED BY IDOCK:   -5.32 KCAL/MOL
REMARK 924 INTRA-LIGAND FREE ENERGY PREDICTED BY IDOCK:   -1.03 KCAL/MOL
REMARK 927      BINDING AFFINITY PREDICTED BY RF-SCORE:    0.00 PKD
ROOT
HETATM    1  C   UNK A   0     -11.323  11.615  66.548  1.00  0.00    -0.331 C  
HETATM    2  C   UNK A   0     -10.493  10.683  67.399  1.00  0.00    -0.280 C  
HETATM    3  C   UNK A   0      -9.529  11.343  68.355  1.00  0.00    -0.194 C  
HETATM    4  C   UNK A   0     -10.074   9.428  66.671  1.00  0.00    -0.332 C  
HETATM    5  C   UNK A   0     -10.745  10.621  68.911  1.00  0.00    -0.254 C  
ENDROOT
BRANCH   5   6
HETATM    6  C   UNK A   0     -10.479   9.402  69.745  1.00  0.00    -0.226 C  
HETATM    7  N   UNK A   1     -11.379   8.368  69.629  1.00  0.00    -0.430 N  
HETATM    8  O   UNK A   0      -9.541   9.390  70.531  1.00  0.00    -0.239 OA 
HETATM    9  H   UNK A   1     -12.136   8.508  68.959  1.00  0.00     0.000 HD 
BRANCH   7  10
HETATM   10  C   UNK A   1     -11.385   7.154  70.313  1.00  0.00    -0.269 C  
HETATM   11  C   UNK A   1     -10.812   6.049  69.773  1.00  0.00    -0.433 C  
HETATM   12  C   UNK A   1     -12.042   6.879  71.652  1.00  0.00    -0.353 C  
HETATM   13  O   UNK A   1     -13.160   7.580  71.919  1.00  0.00    -0.311 OA 
HETATM   14  O   UNK A   1     -11.693   5.956  72.376  1.00  0.00    -0.309 OA 
BRANCH  11  15
HETATM   15  C   UNK A   1     -10.162   5.934  68.428  1.00  0.00    -0.236 C  
BRANCH  15  16
HETATM   16  C   UNK A   1      -9.864   4.508  67.925  1.00  0.00    -0.162 C  
BRANCH  16  17
HETATM   17  C   UNK A   1      -8.526   4.571  67.177  1.00  0.00    -0.104 C  
BRANCH  17  18
HETATM   18  C   UNK A   1      -8.446   5.600  66.055  1.00  0.00    -0.132 C  
BRANCH  18  19
HETATM   19  S   UNK A   1      -7.501   4.811  64.699  1.00  0.00    -0.073 SA 
BRANCH  19  20
HETATM   20  C   UNK A   1      -8.057   5.842  63.301  1.00  0.00    -0.101 C  
BRANCH  20  21
HETATM   21  C   UNK A   1      -7.092   7.017  63.074  1.00  0.00    -0.061 C  
HETATM   22  N   UNK A   1      -5.879   6.944  63.953  1.00  0.00    -0.032 NA 
HETATM   23  C   UNK A   1      -7.846   8.305  63.407  1.00  0.00    -0.152 C  
HETATM   24  O   UNK A   1      -8.666   8.844  62.682  1.00  0.00    -0.210 OA 
HETATM   25  O   UNK A   1      -7.527   8.756  64.649  1.00  0.00    -0.098 OA 
HETATM   26  H1  UNK A   1      -5.239   7.723  63.803  1.00  0.00     0.000 HD 
HETATM   27  H2  UNK A   1      -5.400   6.050  63.843  1.00  0.00     0.000 HD 
ENDBRANCH  20  21
ENDBRANCH  19  20
ENDBRANCH  18  19
ENDBRANCH  17  18
ENDBRANCH  16  17
ENDBRANCH  15  16
ENDBRANCH  11  15
ENDBRANCH   7  10
ENDBRANCH   5   6
TORSDOF 9
ENDMDL
MODEL      277
REMARK 921   NORMALIZED FREE ENERGY PREDICTED BY IDOCK:   -3.52 KCAL/MOL
REMARK 922        TOTAL FREE ENERGY PREDICTED BY IDOCK:   -6.34 KCAL/MOL
REMARK 923 INTER-LIGAND FREE ENERGY PREDICTED BY IDOCK:   -5.67 KCAL/MOL
REMARK 924 INTRA-LIGAND FREE ENERGY PREDICTED BY IDOCK:   -0.68 KCAL/MOL
REMARK 927      BINDING AFFINITY PREDICTED BY RF-SCORE:    0.00 PKD
ROOT
HETATM    1  C   UNK A   0     -10.610  15.146  66.412  1.00  0.00    -0.305 C  
HETATM    2  C   UNK A   0     -10.804  13.663  66.621  1.00  0.00    -0.283 C  
HETATM    3  C   UNK A   0      -9.547  12.827  66.634  1.00  0.00    -0.255 C  
HETATM    4  C   UNK A   0     -12.045  13.125  65.948  1.00  0.00    -0.501 C  
HETATM    5  C   UNK A   0     -10.322  13.018  67.927  1.00  0.00    -0.233 C  
ENDROOT
BRANCH   5   6
HETATM    6  C   UNK A   0     -10.946  11.791  68.523  1.00  0.00    -0.227 C  
HETATM    7  N   UNK A   1     -10.185  11.091  69.430  1.00  0.00    -0.418 N  
HETATM    8  O   UNK A   0     -12.050  11.419  68.144  1.00  0.00    -0.623 OA 
HETATM    9  H   UNK A   1      -9.269  11.488  69.645  1.00  0.00     0.000 HD 
BRANCH   7  10
HETATM   10  C   UNK A   1     -10.509   9.909  70.093  1.00  0.00    -0.285 C  
HETATM   11  C   UNK A   1     -10.050   8.713  69.645  1.00  0.00    -0.201 C  
HETATM   12  C   UNK A   1     -11.413   9.774  71.303  1.00  0.00    -0.385 C  
HETATM   13  O   UNK A   1     -12.426  10.659  71.388  1.00  0.00    -0.368 OA 
HETATM   14  O   UNK A   1     -11.351   8.819  72.066  1.00  0.00    -0.339 OA 
BRANCH  11  15
HETATM   15  C   UNK A   1      -9.217   8.464  68.425  1.00  0.00    -0.135 C  
BRANCH  15  16
HETATM   16  C   UNK A   1      -8.047   7.473  68.579  1.00  0.00    -0.125 C  
BRANCH  16  17
HETATM   17  C   UNK A   1      -6.881   8.030  67.751  1.00  0.00    -0.070 C  
BRANCH  17  18
HETATM   18  C   UNK A   1      -7.214   8.405  66.312  1.00  0.00    -0.078 C  
BRANCH  18  19
HETATM   19  S   UNK A   1      -6.307   9.957  65.960  1.00  0.00    -0.088 SA 
BRANCH  19  20
HETATM   20  C   UNK A   1      -5.794  10.401  67.653  1.00  0.00    -0.044 C  
BRANCH  20  21
HETATM   21  C   UNK A   1      -6.491  11.691  68.113  1.00  0.00    -0.054 C  
HETATM   22  N   UNK A   1      -5.984  12.906  67.396  1.00  0.00    -0.291 NA 
HETATM   23  C   UNK A   1      -6.207  11.863  69.606  1.00  0.00    -0.129 C  
HETATM   24  O   UNK A   1      -6.765  11.248  70.500  1.00  0.00    -0.154 OA 
HETATM   25  O   UNK A   1      -5.207  12.759  69.817  1.00  0.00    -0.077 OA 
HETATM   26  H1  UNK A   1      -6.447  13.762  67.701  1.00  0.00     0.000 HD 
HETATM   27  H2  UNK A   1      -6.054  12.792  66.385  1.00  0.00     0.000 HD 
ENDBRANCH  20  21
ENDBRANCH  19  20
ENDBRANCH  18  19
ENDBRANCH  17  18
ENDBRANCH  16  17
ENDBRANCH  15  16
ENDBRANCH  11  15
ENDBRANCH   7  10
ENDBRANCH   5   6
TORSDOF 9
ENDMDL
MODEL      278
REMARK 921   NORMALIZED FREE ENERGY PREDICTED BY IDOCK:   -3.52 KCAL/MOL
REMARK 922        TOTAL FREE ENERGY PREDICTED BY IDOCK:   -6.33 KCAL/MOL
REMARK 923 INTER-LIGAND FREE ENERGY PREDICTED BY IDOCK:   -5.21 KCAL/MOL
REMARK 924 INTRA-LIGAND FREE ENERGY PREDICTED BY IDOCK:   -1.13 KCAL/MOL
REMARK 927      BINDING AFFINITY PREDICTED BY RF-SCORE:    0.00 PKD
ROOT
HETATM    1  C   UNK A   0     -11.917   7.570  72.379  1.00  0.00    -0.264 C  
HETATM    2  C   UNK A   0     -11.255   8.759  71.724  1.00  0.00    -0.410 C  
HETATM    3  C   UNK A   0      -9.800   8.975  72.064  1.00  0.00    -0.198 C  
HETATM    4  C   UNK A   0     -12.171   9.952  71.593  1.00  0.00    -0.482 C  
HETATM    5  C   UNK A   0     -10.173   8.526  70.662  1.00  0.00    -0.230 C  
ENDROOT
BRANCH   5   6
HETATM    6  C   UNK A   0      -9.885   9.492  69.549  1.00  0.00    -0.193 C  
HETATM    7  N   UNK A   1     -10.599   9.322  68.386  1.00  0.00    -0.316 N  
HETATM    8  O   UNK A   0      -9.003  10.330  69.679  1.00  0.00    -0.190 OA 
HETATM    9  H   UNK A   1     -11.289   8.570  68.391  1.00  0.00     0.000 HD 
BRANCH   7  10
HETATM   10  C   UNK A   1     -10.497  10.049  67.202  1.00  0.00    -0.244 C  
HETATM   11  C   UNK A   1      -9.668   9.645  66.207  1.00  0.00    -0.303 C  
HETATM   12  C   UNK A   1     -11.204  11.353  66.882  1.00  0.00    -0.264 C  
HETATM   13  O   UNK A   1     -11.434  12.173  67.925  1.00  0.00    -0.283 OA 
HETATM   14  O   UNK A   1     -11.398  11.729  65.734  1.00  0.00    -0.318 OA 
BRANCH  11  15
HETATM   15  C   UNK A   1      -8.749   8.461  66.221  1.00  0.00    -0.164 C  
BRANCH  15  16
HETATM   16  C   UNK A   1      -9.411   7.075  66.347  1.00  0.00    -0.176 C  
BRANCH  16  17
HETATM   17  C   UNK A   1      -8.651   6.133  65.404  1.00  0.00    -0.111 C  
BRANCH  17  18
HETATM   18  C   UNK A   1      -8.127   4.850  66.036  1.00  0.00    -0.108 C  
BRANCH  18  19
HETATM   19  S   UNK A   1      -7.125   5.360  67.483  1.00  0.00    -0.068 SA 
BRANCH  19  20
HETATM   20  C   UNK A   1      -7.964   4.402  68.788  1.00  0.00    -0.073 C  
BRANCH  20  21
HETATM   21  C   UNK A   1      -8.537   5.336  69.865  1.00  0.00    -0.102 C  
HETATM   22  N   UNK A   1      -7.887   5.141  71.201  1.00  0.00    -0.099 NA 
HETATM   23  C   UNK A   1     -10.026   5.019  70.007  1.00  0.00    -0.254 C  
HETATM   24  O   UNK A   1     -10.897   5.383  69.234  1.00  0.00    -0.221 OA 
HETATM   25  O   UNK A   1     -10.260   4.226  71.087  1.00  0.00    -0.140 OA 
HETATM   26  H1  UNK A   1      -8.267   5.762  71.916  1.00  0.00     0.000 HD 
HETATM   27  H2  UNK A   1      -6.873   5.238  71.133  1.00  0.00     0.000 HD 
ENDBRANCH  20  21
ENDBRANCH  19  20
ENDBRANCH  18  19
ENDBRANCH  17  18
ENDBRANCH  16  17
ENDBRANCH  15  16
ENDBRANCH  11  15
ENDBRANCH   7  10
ENDBRANCH   5   6
TORSDOF 9
ENDMDL
MODEL      279
REMARK 921   NORMALIZED FREE ENERGY PREDICTED BY IDOCK:   -3.51 KCAL/MOL
REMARK 922        TOTAL FREE ENERGY PREDICTED BY IDOCK:   -6.32 KCAL/MOL
REMARK 923 INTER-LIGAND FREE ENERGY PREDICTED BY IDOCK:   -5.45 KCAL/MOL
REMARK 924 INTRA-LIGAND FREE ENERGY PREDICTED BY IDOCK:   -0.87 KCAL/MOL
REMARK 927      BINDING AFFINITY PREDICTED BY RF-SCORE:    0.00 PKD
ROOT
HETATM    1  C   UNK A   0      -8.430   7.986  62.790  1.00  0.00     0.030 C  
HETATM    2  C   UNK A   0      -8.205   8.545  64.174  1.00  0.00    -0.141 C  
HETATM    3  C   UNK A   0      -7.134   9.602  64.294  1.00  0.00    -0.119 C  
HETATM    4  C   UNK A   0      -8.352   7.511  65.265  1.00  0.00    -0.112 C  
HETATM    5  C   UNK A   0      -8.590  10.001  64.468  1.00  0.00    -0.197 C  
ENDROOT
BRANCH   5   6
HETATM    6  C   UNK A   0      -8.993  10.492  65.828  1.00  0.00    -0.180 C  
HETATM    7  N   UNK A   1     -10.189  10.024  66.322  1.00  0.00    -0.235 N  
HETATM    8  O   UNK A   0      -8.305  11.322  66.409  1.00  0.00    -0.165 OA 
HETATM    9  H   UNK A   1     -10.685   9.356  65.731  1.00  0.00     0.000 HD 
BRANCH   7  10
HETATM   10  C   UNK A   1     -10.806  10.350  67.528  1.00  0.00    -0.301 C  
HETATM   11  C   UNK A   1     -10.789   9.485  68.573  1.00  0.00    -0.175 C  
HETATM   12  C   UNK A   1     -11.592  11.613  67.824  1.00  0.00    -0.289 C  
HETATM   13  O   UNK A   1     -12.262  12.151  66.788  1.00  0.00    -0.553 OA 
HETATM   14  O   UNK A   1     -11.762  12.027  68.963  1.00  0.00    -0.282 OA 
BRANCH  11  15
HETATM   15  C   UNK A   1     -10.192   8.111  68.599  1.00  0.00    -0.226 C  
BRANCH  15  16
HETATM   16  C   UNK A   1     -11.120   6.964  69.046  1.00  0.00    -0.188 C  
BRANCH  16  17
HETATM   17  C   UNK A   1     -10.533   6.399  70.346  1.00  0.00    -0.269 C  
BRANCH  17  18
HETATM   18  C   UNK A   1     -11.467   6.407  71.550  1.00  0.00    -0.306 C  
BRANCH  18  19
HETATM   19  S   UNK A   1     -10.726   5.275  72.785  1.00  0.00    -0.260 SA 
BRANCH  19  20
HETATM   20  C   UNK A   1      -9.913   6.497  73.868  1.00  0.00    -0.277 C  
BRANCH  20  21
HETATM   21  C   UNK A   1      -8.475   6.767  73.399  1.00  0.00    -0.117 C  
HETATM   22  N   UNK A   1      -7.449   6.288  74.382  1.00  0.00    -0.093 NA 
HETATM   23  C   UNK A   1      -8.317   8.280  73.242  1.00  0.00    -0.184 C  
HETATM   24  O   UNK A   1      -8.741   8.934  72.304  1.00  0.00    -0.395 OA 
HETATM   25  O   UNK A   1      -7.682   8.823  74.314  1.00  0.00    -0.417 OA 
HETATM   26  H1  UNK A   1      -6.494   6.467  74.071  1.00  0.00     0.000 HD 
HETATM   27  H2  UNK A   1      -7.584   5.301  74.602  1.00  0.00     0.000 HD 
ENDBRANCH  20  21
ENDBRANCH  19  20
ENDBRANCH  18  19
ENDBRANCH  17  18
ENDBRANCH  16  17
ENDBRANCH  15  16
ENDBRANCH  11  15
ENDBRANCH   7  10
ENDBRANCH   5   6
TORSDOF 9
ENDMDL
MODEL      280
REMARK 921   NORMALIZED FREE ENERGY PREDICTED BY IDOCK:   -3.50 KCAL/MOL
REMARK 922        TOTAL FREE ENERGY PREDICTED BY IDOCK:   -6.32 KCAL/MOL
REMARK 923 INTER-LIGAND FREE ENERGY PREDICTED BY IDOCK:   -6.94 KCAL/MOL
REMARK 924 INTRA-LIGAND FREE ENERGY PREDICTED BY IDOCK:    0.62 KCAL/MOL
REMARK 927      BINDING AFFINITY PREDICTED BY RF-SCORE:    0.00 PKD
ROOT
HETATM    1  C   UNK A   0     -12.899  16.486  73.827  1.00  0.00    -0.270 C  
HETATM    2  C   UNK A   0     -12.859  15.412  72.765  1.00  0.00    -0.528 C  
HETATM    3  C   UNK A   0     -14.064  15.334  71.859  1.00  0.00    -0.656 C  
HETATM    4  C   UNK A   0     -12.199  14.137  73.233  1.00  0.00     0.247 C  
HETATM    5  C   UNK A   0     -12.741  15.818  71.290  1.00  0.00    -0.498 C  
ENDROOT
BRANCH   5   6
HETATM    6  C   UNK A   0     -12.103  14.953  70.243  1.00  0.00    -0.325 C  
HETATM    7  N   UNK A   1     -12.549  13.654  70.163  1.00  0.00    -0.215 N  
HETATM    8  O   UNK A   0     -11.186  15.391  69.561  1.00  0.00    -0.246 OA 
HETATM    9  H   UNK A   1     -13.301  13.399  70.805  1.00  0.00     0.000 HD 
BRANCH   7  10
HETATM   10  C   UNK A   1     -12.102  12.643  69.314  1.00  0.00    -0.166 C  
HETATM   11  C   UNK A   1     -11.963  11.370  69.762  1.00  0.00    -0.422 C  
HETATM   12  C   UNK A   1     -11.671  12.806  67.869  1.00  0.00    -0.357 C  
HETATM   13  O   UNK A   1     -11.096  13.982  67.551  1.00  0.00    -0.285 OA 
HETATM   14  O   UNK A   1     -11.673  11.875  67.075  1.00  0.00    -0.538 OA 
BRANCH  11  15
HETATM   15  C   UNK A   1     -12.202  10.871  71.155  1.00  0.00    -0.441 C  
BRANCH  15  16
HETATM   16  C   UNK A   1     -12.869   9.488  71.287  1.00  0.00    -0.414 C  
BRANCH  16  17
HETATM   17  C   UNK A   1     -11.948   8.633  72.168  1.00  0.00    -0.449 C  
BRANCH  17  18
HETATM   18  C   UNK A   1     -10.513   8.488  71.675  1.00  0.00    -0.275 C  
BRANCH  18  19
HETATM   19  S   UNK A   1     -10.489   7.018  70.582  1.00  0.00    -0.213 SA 
BRANCH  19  20
HETATM   20  C   UNK A   1     -10.792   5.713  71.819  1.00  0.00    -0.239 C  
BRANCH  20  21
HETATM   21  C   UNK A   1      -9.516   4.893  72.068  1.00  0.00    -0.143 C  
HETATM   22  N   UNK A   1      -9.718   3.428  71.828  1.00  0.00    -0.158 NA 
HETATM   23  C   UNK A   1      -9.121   5.088  73.532  1.00  0.00    -0.123 C  
HETATM   24  O   UNK A   1      -8.568   6.078  73.983  1.00  0.00    -0.119 OA 
HETATM   25  O   UNK A   1      -9.512   4.032  74.293  1.00  0.00    -0.104 OA 
HETATM   26  H1  UNK A   1      -8.871   2.883  71.993  1.00  0.00     0.000 HD 
HETATM   27  H2  UNK A   1     -10.087   3.257  70.892  1.00  0.00     0.000 HD 
ENDBRANCH  20  21
ENDBRANCH  19  20
ENDBRANCH  18  19
ENDBRANCH  17  18
ENDBRANCH  16  17
ENDBRANCH  15  16
ENDBRANCH  11  15
ENDBRANCH   7  10
ENDBRANCH   5   6
TORSDOF 9
ENDMDL
MODEL      281
REMARK 921   NORMALIZED FREE ENERGY PREDICTED BY IDOCK:   -3.49 KCAL/MOL
REMARK 922        TOTAL FREE ENERGY PREDICTED BY IDOCK:   -6.29 KCAL/MOL
REMARK 923 INTER-LIGAND FREE ENERGY PREDICTED BY IDOCK:   -5.34 KCAL/MOL
REMARK 924 INTRA-LIGAND FREE ENERGY PREDICTED BY IDOCK:   -0.94 KCAL/MOL
REMARK 927      BINDING AFFINITY PREDICTED BY RF-SCORE:    0.00 PKD
ROOT
HETATM    1  C   UNK A   0      -5.389  14.103  70.920  1.00  0.00    -0.144 C  
HETATM    2  C   UNK A   0      -6.134  15.102  70.066  1.00  0.00    -0.148 C  
HETATM    3  C   UNK A   0      -5.782  16.553  70.287  1.00  0.00    -0.160 C  
HETATM    4  C   UNK A   0      -7.573  14.716  69.818  1.00  0.00     0.087 C  
HETATM    5  C   UNK A   0      -5.372  15.882  68.987  1.00  0.00    -0.101 C  
ENDROOT
BRANCH   5   6
HETATM    6  C   UNK A   0      -6.014  16.400  67.733  1.00  0.00    -0.132 C  
HETATM    7  N   UNK A   1      -7.102  17.227  67.895  1.00  0.00    -0.165 N  
HETATM    8  O   UNK A   0      -5.610  16.029  66.639  1.00  0.00    -0.163 OA 
HETATM    9  H   UNK A   1      -7.360  17.443  68.858  1.00  0.00     0.000 HD 
BRANCH   7  10
HETATM   10  C   UNK A   1      -7.895  17.806  66.906  1.00  0.00    -0.224 C  
HETATM   11  C   UNK A   1      -9.022  17.189  66.469  1.00  0.00    -0.300 C  
HETATM   12  C   UNK A   1      -7.611  19.101  66.168  1.00  0.00    -0.280 C  
HETATM   13  O   UNK A   1      -6.312  19.397  65.969  1.00  0.00    -0.183 OA 
HETATM   14  O   UNK A   1      -8.493  19.752  65.624  1.00  0.00    -0.362 OA 
BRANCH  11  15
HETATM   15  C   UNK A   1      -9.549  15.856  66.904  1.00  0.00    -0.242 C  
BRANCH  15  16
HETATM   16  C   UNK A   1     -10.949  15.467  66.391  1.00  0.00    -0.238 C  
BRANCH  16  17
HETATM   17  C   UNK A   1     -11.289  14.107  67.015  1.00  0.00    -0.346 C  
BRANCH  17  18
HETATM   18  C   UNK A   1     -10.096  13.278  67.477  1.00  0.00    -0.223 C  
BRANCH  18  19
HETATM   19  S   UNK A   1     -10.343  11.595  66.794  1.00  0.00    -0.230 SA 
BRANCH  19  20
HETATM   20  C   UNK A   1     -11.352  10.870  68.128  1.00  0.00    -0.315 C  
BRANCH  20  21
HETATM   21  C   UNK A   1     -10.729  11.162  69.502  1.00  0.00    -0.143 C  
HETATM   22  N   UNK A   1      -9.585  10.247  69.822  1.00  0.00    -0.387 NA 
HETATM   23  C   UNK A   1     -11.817  10.954  70.557  1.00  0.00    -0.360 C  
HETATM   24  O   UNK A   1     -12.714  11.743  70.801  1.00  0.00    -0.262 OA 
HETATM   25  O   UNK A   1     -11.691   9.744  71.162  1.00  0.00    -0.323 OA 
HETATM   26  H1  UNK A   1      -9.171  10.440  70.733  1.00  0.00     0.000 HD 
HETATM   27  H2  UNK A   1      -8.879  10.271  69.086  1.00  0.00     0.000 HD 
ENDBRANCH  20  21
ENDBRANCH  19  20
ENDBRANCH  18  19
ENDBRANCH  17  18
ENDBRANCH  16  17
ENDBRANCH  15  16
ENDBRANCH  11  15
ENDBRANCH   7  10
ENDBRANCH   5   6
TORSDOF 9
ENDMDL
MODEL      282
REMARK 921   NORMALIZED FREE ENERGY PREDICTED BY IDOCK:   -3.48 KCAL/MOL
REMARK 922        TOTAL FREE ENERGY PREDICTED BY IDOCK:   -6.28 KCAL/MOL
REMARK 923 INTER-LIGAND FREE ENERGY PREDICTED BY IDOCK:   -5.92 KCAL/MOL
REMARK 924 INTRA-LIGAND FREE ENERGY PREDICTED BY IDOCK:   -0.36 KCAL/MOL
REMARK 927      BINDING AFFINITY PREDICTED BY RF-SCORE:    0.00 PKD
ROOT
HETATM    1  C   UNK A   0     -11.664  14.590  66.476  1.00  0.00    -0.380 C  
HETATM    2  C   UNK A   0     -11.189  13.302  67.107  1.00  0.00    -0.327 C  
HETATM    3  C   UNK A   0     -10.250  13.447  68.279  1.00  0.00    -0.250 C  
HETATM    4  C   UNK A   0     -10.957  12.198  66.102  1.00  0.00    -0.335 C  
HETATM    5  C   UNK A   0     -11.661  12.939  68.521  1.00  0.00    -0.358 C  
ENDROOT
BRANCH   5   6
HETATM    6  C   UNK A   0     -11.791  11.527  69.012  1.00  0.00    -0.343 C  
HETATM    7  N   UNK A   1     -11.369  11.282  70.299  1.00  0.00    -0.491 N  
HETATM    8  O   UNK A   0     -12.188  10.650  68.257  1.00  0.00    -0.345 OA 
HETATM    9  H   UNK A   1     -11.032  12.092  70.820  1.00  0.00     0.000 HD 
BRANCH   7  10
HETATM   10  C   UNK A   1     -11.345  10.065  70.977  1.00  0.00    -0.357 C  
HETATM   11  C   UNK A   1     -10.308   9.203  70.823  1.00  0.00    -0.323 C  
HETATM   12  C   UNK A   1     -12.429   9.520  71.887  1.00  0.00    -0.384 C  
HETATM   13  O   UNK A   1     -13.693   9.865  71.576  1.00  0.00    -0.272 OA 
HETATM   14  O   UNK A   1     -12.203   8.675  72.744  1.00  0.00    -0.312 OA 
BRANCH  11  15
HETATM   15  C   UNK A   1      -9.118   9.373  69.927  1.00  0.00    -0.221 C  
BRANCH  15  16
HETATM   16  C   UNK A   1      -8.131   8.192  69.862  1.00  0.00    -0.115 C  
BRANCH  16  17
HETATM   17  C   UNK A   1      -8.321   7.530  68.490  1.00  0.00    -0.126 C  
BRANCH  17  18
HETATM   18  C   UNK A   1      -9.766   7.296  68.066  1.00  0.00    -0.141 C  
BRANCH  18  19
HETATM   19  S   UNK A   1     -10.194   5.599  68.606  1.00  0.00    -0.206 SA 
BRANCH  19  20
HETATM   20  C   UNK A   1      -8.597   4.771  68.304  1.00  0.00    -0.101 C  
BRANCH  20  21
HETATM   21  C   UNK A   1      -8.794   3.497  67.467  1.00  0.00    -0.126 C  
HETATM   22  N   UNK A   1      -7.753   2.457  67.748  1.00  0.00    -0.059 NA 
HETATM   23  C   UNK A   1      -8.689   3.893  65.993  1.00  0.00    -0.115 C  
HETATM   24  O   UNK A   1      -9.567   4.445  65.351  1.00  0.00    -0.162 OA 
HETATM   25  O   UNK A   1      -7.461   3.596  65.490  1.00  0.00    -0.075 OA 
HETATM   26  H1  UNK A   1      -7.884   1.611  67.193  1.00  0.00     0.000 HD 
HETATM   27  H2  UNK A   1      -7.713   2.238  68.744  1.00  0.00     0.000 HD 
ENDBRANCH  20  21
ENDBRANCH  19  20
ENDBRANCH  18  19
ENDBRANCH  17  18
ENDBRANCH  16  17
ENDBRANCH  15  16
ENDBRANCH  11  15
ENDBRANCH   7  10
ENDBRANCH   5   6
TORSDOF 9
ENDMDL
MODEL      283
REMARK 921   NORMALIZED FREE ENERGY PREDICTED BY IDOCK:   -3.48 KCAL/MOL
REMARK 922        TOTAL FREE ENERGY PREDICTED BY IDOCK:   -6.28 KCAL/MOL
REMARK 923 INTER-LIGAND FREE ENERGY PREDICTED BY IDOCK:   -7.64 KCAL/MOL
REMARK 924 INTRA-LIGAND FREE ENERGY PREDICTED BY IDOCK:    1.36 KCAL/MOL
REMARK 927      BINDING AFFINITY PREDICTED BY RF-SCORE:    0.00 PKD
ROOT
HETATM    1  C   UNK A   0     -10.967   7.008  70.444  1.00  0.00    -0.301 C  
HETATM    2  C   UNK A   0     -11.517   8.316  70.962  1.00  0.00    -0.303 C  
HETATM    3  C   UNK A   0     -10.494   9.331  71.412  1.00  0.00    -0.408 C  
HETATM    4  C   UNK A   0     -12.796   8.153  71.747  1.00  0.00    -0.355 C  
HETATM    5  C   UNK A   0     -11.296   9.598  70.149  1.00  0.00    -0.275 C  
ENDROOT
BRANCH   5   6
HETATM    6  C   UNK A   0     -12.231  10.771  70.185  1.00  0.00    -0.346 C  
HETATM    7  N   UNK A   1     -11.701  11.970  70.601  1.00  0.00    -0.410 N  
HETATM    8  O   UNK A   0     -13.417  10.617  69.919  1.00  0.00     0.158 OA 
HETATM    9  H   UNK A   1     -10.704  11.965  70.821  1.00  0.00     0.000 HD 
BRANCH   7  10
HETATM   10  C   UNK A   1     -12.356  13.190  70.760  1.00  0.00    -0.321 C  
HETATM   11  C   UNK A   1     -12.052  14.251  69.971  1.00  0.00    -0.400 C  
HETATM   12  C   UNK A   1     -13.400  13.520  71.810  1.00  0.00    -0.397 C  
HETATM   13  O   UNK A   1     -13.268  12.894  72.995  1.00  0.00    -0.112 OA 
HETATM   14  O   UNK A   1     -14.208  14.429  71.668  1.00  0.00    -0.427 OA 
BRANCH  11  15
HETATM   15  C   UNK A   1     -11.004  14.309  68.901  1.00  0.00    -0.275 C  
BRANCH  15  16
HETATM   16  C   UNK A   1     -10.022  15.495  68.962  1.00  0.00    -0.233 C  
BRANCH  16  17
HETATM   17  C   UNK A   1      -8.673  14.982  68.440  1.00  0.00    -0.175 C  
BRANCH  17  18
HETATM   18  C   UNK A   1      -8.659  14.528  66.986  1.00  0.00    -0.217 C  
BRANCH  18  19
HETATM   19  S   UNK A   1     -10.356  13.949  66.609  1.00  0.00    -0.283 SA 
BRANCH  19  20
HETATM   20  C   UNK A   1     -10.460  14.434  64.854  1.00  0.00    -0.423 C  
BRANCH  20  21
HETATM   21  C   UNK A   1     -11.756  13.905  64.220  1.00  0.00    -0.380 C  
HETATM   22  N   UNK A   1     -12.986  14.427  64.900  1.00  0.00    -0.572 NA 
HETATM   23  C   UNK A   1     -11.747  12.381  64.355  1.00  0.00    -0.366 C  
HETATM   24  O   UNK A   1     -11.099  11.620  63.655  1.00  0.00    -0.395 OA 
HETATM   25  O   UNK A   1     -12.519  11.974  65.397  1.00  0.00    -0.421 OA 
HETATM   26  H1  UNK A   1     -13.846  14.076  64.479  1.00  0.00     0.000 HD 
HETATM   27  H2  UNK A   1     -12.982  15.447  64.929  1.00  0.00     0.000 HD 
ENDBRANCH  20  21
ENDBRANCH  19  20
ENDBRANCH  18  19
ENDBRANCH  17  18
ENDBRANCH  16  17
ENDBRANCH  15  16
ENDBRANCH  11  15
ENDBRANCH   7  10
ENDBRANCH   5   6
TORSDOF 9
ENDMDL
MODEL      284
REMARK 921   NORMALIZED FREE ENERGY PREDICTED BY IDOCK:   -3.48 KCAL/MOL
REMARK 922        TOTAL FREE ENERGY PREDICTED BY IDOCK:   -6.27 KCAL/MOL
REMARK 923 INTER-LIGAND FREE ENERGY PREDICTED BY IDOCK:   -5.71 KCAL/MOL
REMARK 924 INTRA-LIGAND FREE ENERGY PREDICTED BY IDOCK:   -0.57 KCAL/MOL
REMARK 927      BINDING AFFINITY PREDICTED BY RF-SCORE:    0.00 PKD
ROOT
HETATM    1  C   UNK A   0      -7.509  19.511  66.214  1.00  0.00    -0.291 C  
HETATM    2  C   UNK A   0      -8.697  18.743  66.743  1.00  0.00    -0.303 C  
HETATM    3  C   UNK A   0     -10.044  19.150  66.197  1.00  0.00    -0.492 C  
HETATM    4  C   UNK A   0      -8.567  18.379  68.203  1.00  0.00    -0.301 C  
HETATM    5  C   UNK A   0      -9.463  17.803  65.803  1.00  0.00     0.225 C  
ENDROOT
BRANCH   5   6
HETATM    6  C   UNK A   0     -10.206  16.587  66.275  1.00  0.00    -0.332 C  
HETATM    7  N   UNK A   1      -9.963  15.415  65.598  1.00  0.00    -0.351 N  
HETATM    8  O   UNK A   0     -11.034  16.685  67.172  1.00  0.00    -0.183 OA 
HETATM    9  H   UNK A   1      -9.271  15.467  64.850  1.00  0.00     0.000 HD 
BRANCH   7  10
HETATM   10  C   UNK A   1     -10.545  14.166  65.806  1.00  0.00    -0.300 C  
HETATM   11  C   UNK A   1     -10.024  13.298  66.710  1.00  0.00    -0.263 C  
HETATM   12  C   UNK A   1     -11.738  13.594  65.064  1.00  0.00    -0.339 C  
HETATM   13  O   UNK A   1     -11.874  13.972  63.779  1.00  0.00    -0.297 OA 
HETATM   14  O   UNK A   1     -12.437  12.705  65.533  1.00  0.00    -0.622 OA 
BRANCH  11  15
HETATM   15  C   UNK A   1      -8.796  13.494  67.545  1.00  0.00    -0.209 C  
BRANCH  15  16
HETATM   16  C   UNK A   1      -8.142  12.221  68.118  1.00  0.00    -0.158 C  
BRANCH  16  17
HETATM   17  C   UNK A   1      -8.068  11.205  66.971  1.00  0.00    -0.148 C  
BRANCH  17  18
HETATM   18  C   UNK A   1      -7.687   9.785  67.371  1.00  0.00    -0.095 C  
BRANCH  18  19
HETATM   19  S   UNK A   1      -9.202   8.771  67.183  1.00  0.00    -0.141 SA 
BRANCH  19  20
HETATM   20  C   UNK A   1      -9.194   7.910  68.790  1.00  0.00    -0.143 C  
BRANCH  20  21
HETATM   21  C   UNK A   1      -8.989   6.399  68.596  1.00  0.00    -0.125 C  
HETATM   22  N   UNK A   1      -8.350   6.069  67.281  1.00  0.00    -0.106 NA 
HETATM   23  C   UNK A   1     -10.367   5.737  68.638  1.00  0.00    -0.221 C  
HETATM   24  O   UNK A   1     -11.007   5.515  69.653  1.00  0.00    -0.306 OA 
HETATM   25  O   UNK A   1     -10.822   5.468  67.386  1.00  0.00    -0.205 OA 
HETATM   26  H1  UNK A   1      -8.214   5.067  67.152  1.00  0.00     0.000 HD 
HETATM   27  H2  UNK A   1      -7.473   6.577  67.162  1.00  0.00     0.000 HD 
ENDBRANCH  20  21
ENDBRANCH  19  20
ENDBRANCH  18  19
ENDBRANCH  17  18
ENDBRANCH  16  17
ENDBRANCH  15  16
ENDBRANCH  11  15
ENDBRANCH   7  10
ENDBRANCH   5   6
TORSDOF 9
ENDMDL
MODEL      285
REMARK 921   NORMALIZED FREE ENERGY PREDICTED BY IDOCK:   -3.47 KCAL/MOL
REMARK 922        TOTAL FREE ENERGY PREDICTED BY IDOCK:   -6.27 KCAL/MOL
REMARK 923 INTER-LIGAND FREE ENERGY PREDICTED BY IDOCK:   -5.61 KCAL/MOL
REMARK 924 INTRA-LIGAND FREE ENERGY PREDICTED BY IDOCK:   -0.66 KCAL/MOL
REMARK 927      BINDING AFFINITY PREDICTED BY RF-SCORE:    0.00 PKD
ROOT
HETATM    1  C   UNK A   0      -6.342   7.161  71.510  1.00  0.00    -0.037 C  
HETATM    2  C   UNK A   0      -7.468   7.555  70.583  1.00  0.00    -0.077 C  
HETATM    3  C   UNK A   0      -7.947   6.484  69.634  1.00  0.00    -0.120 C  
HETATM    4  C   UNK A   0      -7.369   8.983  70.102  1.00  0.00    -0.065 C  
HETATM    5  C   UNK A   0      -8.853   6.923  70.772  1.00  0.00    -0.150 C  
ENDROOT
BRANCH   5   6
HETATM    6  C   UNK A   0     -10.133   7.605  70.386  1.00  0.00    -0.190 C  
HETATM    7  N   UNK A   1     -10.493   8.705  71.130  1.00  0.00    -0.212 N  
HETATM    8  O   UNK A   0     -10.832   7.138  69.496  1.00  0.00    -0.239 OA 
HETATM    9  H   UNK A   1      -9.840   8.981  71.864  1.00  0.00     0.000 HD 
BRANCH   7  10
HETATM   10  C   UNK A   1     -11.640   9.487  71.006  1.00  0.00    -0.344 C  
HETATM   11  C   UNK A   1     -11.700  10.494  70.099  1.00  0.00    -0.410 C  
HETATM   12  C   UNK A   1     -12.896   9.382  71.850  1.00  0.00    -0.412 C  
HETATM   13  O   UNK A   1     -12.722   8.994  73.128  1.00  0.00    -0.062 OA 
HETATM   14  O   UNK A   1     -13.982   9.792  71.462  1.00  0.00    -0.154 OA 
BRANCH  11  15
HETATM   15  C   UNK A   1     -10.610  10.942  69.173  1.00  0.00    -0.253 C  
BRANCH  15  16
HETATM   16  C   UNK A   1     -11.031  11.852  68.003  1.00  0.00    -0.271 C  
BRANCH  16  17
HETATM   17  C   UNK A   1     -11.682  13.097  68.620  1.00  0.00    -0.362 C  
BRANCH  17  18
HETATM   18  C   UNK A   1     -11.878  14.276  67.674  1.00  0.00    -0.385 C  
BRANCH  18  19
HETATM   19  S   UNK A   1     -11.075  15.717  68.473  1.00  0.00    -0.341 SA 
BRANCH  19  20
HETATM   20  C   UNK A   1      -9.328  15.316  68.138  1.00  0.00    -0.198 C  
BRANCH  20  21
HETATM   21  C   UNK A   1      -8.462  16.585  68.181  1.00  0.00    -0.191 C  
HETATM   22  N   UNK A   1      -9.254  17.812  68.520  1.00  0.00    -0.280 NA 
HETATM   23  C   UNK A   1      -7.856  16.778  66.790  1.00  0.00    -0.246 C  
HETATM   24  O   UNK A   1      -6.908  16.151  66.346  1.00  0.00    -0.107 OA 
HETATM   25  O   UNK A   1      -8.543  17.710  66.078  1.00  0.00    -0.503 OA 
HETATM   26  H1  UNK A   1      -8.679  18.654  68.549  1.00  0.00     0.000 HD 
HETATM   27  H2  UNK A   1      -9.765  17.687  69.394  1.00  0.00     0.000 HD 
ENDBRANCH  20  21
ENDBRANCH  19  20
ENDBRANCH  18  19
ENDBRANCH  17  18
ENDBRANCH  16  17
ENDBRANCH  15  16
ENDBRANCH  11  15
ENDBRANCH   7  10
ENDBRANCH   5   6
TORSDOF 9
ENDMDL
MODEL      286
REMARK 921   NORMALIZED FREE ENERGY PREDICTED BY IDOCK:   -3.47 KCAL/MOL
REMARK 922        TOTAL FREE ENERGY PREDICTED BY IDOCK:   -6.26 KCAL/MOL
REMARK 923 INTER-LIGAND FREE ENERGY PREDICTED BY IDOCK:   -5.16 KCAL/MOL
REMARK 924 INTRA-LIGAND FREE ENERGY PREDICTED BY IDOCK:   -1.10 KCAL/MOL
REMARK 927      BINDING AFFINITY PREDICTED BY RF-SCORE:    0.00 PKD
ROOT
HETATM    1  C   UNK A   0     -14.095   7.106  71.881  1.00  0.00    -0.379 C  
HETATM    2  C   UNK A   0     -13.080   8.221  71.785  1.00  0.00    -0.366 C  
HETATM    3  C   UNK A   0     -11.749   7.962  72.449  1.00  0.00    -0.423 C  
HETATM    4  C   UNK A   0     -13.697   9.596  71.870  1.00  0.00    -0.376 C  
HETATM    5  C   UNK A   0     -11.820   8.018  70.933  1.00  0.00    -0.236 C  
ENDROOT
BRANCH   5   6
HETATM    6  C   UNK A   0     -11.082   9.143  70.268  1.00  0.00    -0.239 C  
HETATM    7  N   UNK A   1     -11.534   9.528  69.027  1.00  0.00    -0.417 N  
HETATM    8  O   UNK A   0     -10.088   9.622  70.799  1.00  0.00    -0.278 OA 
HETATM    9  H   UNK A   1     -12.356   9.034  68.678  1.00  0.00     0.000 HD 
BRANCH   7  10
HETATM   10  C   UNK A   1     -11.008  10.508  68.187  1.00  0.00    -0.277 C  
HETATM   11  C   UNK A   1      -9.975  10.229  67.353  1.00  0.00    -0.230 C  
HETATM   12  C   UNK A   1     -11.440  11.961  68.120  1.00  0.00    -0.320 C  
HETATM   13  O   UNK A   1     -11.871  12.505  69.274  1.00  0.00    -0.304 OA 
HETATM   14  O   UNK A   1     -11.245  12.658  67.133  1.00  0.00    -0.270 OA 
BRANCH  11  15
HETATM   15  C   UNK A   1      -9.240   8.929  67.230  1.00  0.00    -0.164 C  
BRANCH  15  16
HETATM   16  C   UNK A   1      -9.883   7.855  66.331  1.00  0.00    -0.217 C  
BRANCH  16  17
HETATM   17  C   UNK A   1      -8.915   6.665  66.299  1.00  0.00    -0.168 C  
BRANCH  17  18
HETATM   18  C   UNK A   1      -9.504   5.350  65.801  1.00  0.00    -0.087 C  
BRANCH  18  19
HETATM   19  S   UNK A   1      -9.899   4.364  67.294  1.00  0.00    -0.121 SA 
BRANCH  19  20
HETATM   20  C   UNK A   1      -8.800   5.180  68.499  1.00  0.00    -0.101 C  
BRANCH  20  21
HETATM   21  C   UNK A   1      -7.687   4.224  68.954  1.00  0.00    -0.058 C  
HETATM   22  N   UNK A   1      -7.323   4.409  70.396  1.00  0.00    -0.048 NA 
HETATM   23  C   UNK A   1      -6.448   4.522  68.107  1.00  0.00    -0.038 C  
HETATM   24  O   UNK A   1      -6.284   4.157  66.954  1.00  0.00    -0.033 OA 
HETATM   25  O   UNK A   1      -5.562   5.296  68.786  1.00  0.00    -0.013 OA 
HETATM   26  H1  UNK A   1      -6.584   3.774  70.699  1.00  0.00     0.000 HD 
HETATM   27  H2  UNK A   1      -8.145   4.326  70.995  1.00  0.00     0.000 HD 
ENDBRANCH  20  21
ENDBRANCH  19  20
ENDBRANCH  18  19
ENDBRANCH  17  18
ENDBRANCH  16  17
ENDBRANCH  15  16
ENDBRANCH  11  15
ENDBRANCH   7  10
ENDBRANCH   5   6
TORSDOF 9
ENDMDL
MODEL      287
REMARK 921   NORMALIZED FREE ENERGY PREDICTED BY IDOCK:   -3.46 KCAL/MOL
REMARK 922        TOTAL FREE ENERGY PREDICTED BY IDOCK:   -6.25 KCAL/MOL
REMARK 923 INTER-LIGAND FREE ENERGY PREDICTED BY IDOCK:   -5.50 KCAL/MOL
REMARK 924 INTRA-LIGAND FREE ENERGY PREDICTED BY IDOCK:   -0.76 KCAL/MOL
REMARK 927      BINDING AFFINITY PREDICTED BY RF-SCORE:    0.00 PKD
ROOT
HETATM    1  C   UNK A   0     -13.090   9.239  71.997  1.00  0.00    -0.512 C  
HETATM    2  C   UNK A   0     -11.758   8.592  71.697  1.00  0.00    -0.369 C  
HETATM    3  C   UNK A   0     -11.422   7.366  72.510  1.00  0.00    -0.346 C  
HETATM    4  C   UNK A   0     -10.672   9.590  71.374  1.00  0.00    -0.348 C  
HETATM    5  C   UNK A   0     -11.728   7.211  71.030  1.00  0.00    -0.358 C  
ENDROOT
BRANCH   5   6
HETATM    6  C   UNK A   0     -10.601   6.738  70.158  1.00  0.00    -0.218 C  
HETATM    7  N   UNK A   1     -10.790   6.840  68.799  1.00  0.00    -0.343 N  
HETATM    8  O   UNK A   0      -9.609   6.228  70.662  1.00  0.00    -0.170 OA 
HETATM    9  H   UNK A   1     -11.672   7.259  68.501  1.00  0.00     0.000 HD 
BRANCH   7  10
HETATM   10  C   UNK A   1      -9.928   6.441  67.780  1.00  0.00    -0.128 C  
HETATM   11  C   UNK A   1      -9.577   7.300  66.790  1.00  0.00    -0.240 C  
HETATM   12  C   UNK A   1      -9.331   5.058  67.595  1.00  0.00    -0.126 C  
HETATM   13  O   UNK A   1     -10.092   4.025  68.005  1.00  0.00     0.022 OA 
HETATM   14  O   UNK A   1      -8.306   4.867  66.954  1.00  0.00    -0.107 OA 
BRANCH  11  15
HETATM   15  C   UNK A   1     -10.055   8.708  66.604  1.00  0.00    -0.364 C  
BRANCH  15  16
HETATM   16  C   UNK A   1      -9.020   9.825  66.836  1.00  0.00    -0.154 C  
BRANCH  16  17
HETATM   17  C   UNK A   1      -9.806  11.133  66.993  1.00  0.00    -0.212 C  
BRANCH  17  18
HETATM   18  C   UNK A   1     -10.184  11.507  68.421  1.00  0.00    -0.205 C  
BRANCH  18  19
HETATM   19  S   UNK A   1     -10.548  13.303  68.405  1.00  0.00    -0.254 SA 
BRANCH  19  20
HETATM   20  C   UNK A   1      -9.156  13.887  67.381  1.00  0.00    -0.217 C  
BRANCH  20  21
HETATM   21  C   UNK A   1      -8.352  14.966  68.123  1.00  0.00    -0.144 C  
HETATM   22  N   UNK A   1      -8.170  16.210  67.307  1.00  0.00    -0.165 NA 
HETATM   23  C   UNK A   1      -6.969  14.386  68.424  1.00  0.00    -0.109 C  
HETATM   24  O   UNK A   1      -6.722  13.594  69.318  1.00  0.00    -0.111 OA 
HETATM   25  O   UNK A   1      -6.045  14.826  67.530  1.00  0.00    -0.317 OA 
HETATM   26  H1  UNK A   1      -7.636  16.927  67.798  1.00  0.00     0.000 HD 
HETATM   27  H2  UNK A   1      -9.068  16.576  66.990  1.00  0.00     0.000 HD 
ENDBRANCH  20  21
ENDBRANCH  19  20
ENDBRANCH  18  19
ENDBRANCH  17  18
ENDBRANCH  16  17
ENDBRANCH  15  16
ENDBRANCH  11  15
ENDBRANCH   7  10
ENDBRANCH   5   6
TORSDOF 9
ENDMDL
MODEL      288
REMARK 921   NORMALIZED FREE ENERGY PREDICTED BY IDOCK:   -3.45 KCAL/MOL
REMARK 922        TOTAL FREE ENERGY PREDICTED BY IDOCK:   -6.24 KCAL/MOL
REMARK 923 INTER-LIGAND FREE ENERGY PREDICTED BY IDOCK:   -5.34 KCAL/MOL
REMARK 924 INTRA-LIGAND FREE ENERGY PREDICTED BY IDOCK:   -0.90 KCAL/MOL
REMARK 927      BINDING AFFINITY PREDICTED BY RF-SCORE:    0.00 PKD
ROOT
HETATM    1  C   UNK A   0     -13.117  10.672  71.710  1.00  0.00    -0.571 C  
HETATM    2  C   UNK A   0     -12.328   9.437  71.344  1.00  0.00    -0.439 C  
HETATM    3  C   UNK A   0     -11.849   9.359  69.915  1.00  0.00     0.201 C  
HETATM    4  C   UNK A   0     -12.829   8.187  72.028  1.00  0.00    -0.346 C  
HETATM    5  C   UNK A   0     -10.833   9.567  71.025  1.00  0.00    -0.423 C  
ENDROOT
BRANCH   5   6
HETATM    6  C   UNK A   0      -9.842   8.462  71.244  1.00  0.00    -0.198 C  
HETATM    7  N   UNK A   1      -9.932   7.378  70.401  1.00  0.00    -0.188 N  
HETATM    8  O   UNK A   0      -9.054   8.521  72.180  1.00  0.00    -0.217 OA 
HETATM    9  H   UNK A   1     -10.648   7.435  69.676  1.00  0.00     0.000 HD 
BRANCH   7  10
HETATM   10  C   UNK A   1      -9.166   6.214  70.415  1.00  0.00    -0.153 C  
HETATM   11  C   UNK A   1      -8.306   5.935  69.403  1.00  0.00    -0.114 C  
HETATM   12  C   UNK A   1      -9.213   5.118  71.463  1.00  0.00    -0.146 C  
HETATM   13  O   UNK A   1     -10.408   4.908  72.047  1.00  0.00    -0.198 OA 
HETATM   14  O   UNK A   1      -8.281   4.347  71.647  1.00  0.00    -0.093 OA 
BRANCH  11  15
HETATM   15  C   UNK A   1      -8.079   6.744  68.162  1.00  0.00    -0.115 C  
BRANCH  15  16
HETATM   16  C   UNK A   1      -8.979   6.420  66.954  1.00  0.00    -0.126 C  
BRANCH  16  17
HETATM   17  C   UNK A   1      -9.657   7.733  66.541  1.00  0.00    -0.270 C  
BRANCH  17  18
HETATM   18  C   UNK A   1      -8.795   8.695  65.732  1.00  0.00    -0.193 C  
BRANCH  18  19
HETATM   19  S   UNK A   1      -9.945   9.900  64.968  1.00  0.00    -0.005 SA 
BRANCH  19  20
HETATM   20  C   UNK A   1      -9.219  11.451  65.594  1.00  0.00    -0.193 C  
BRANCH  20  21
HETATM   21  C   UNK A   1     -10.314  12.384  66.134  1.00  0.00    -0.247 C  
HETATM   22  N   UNK A   1     -11.286  11.675  67.029  1.00  0.00    -0.305 NA 
HETATM   23  C   UNK A   1     -11.085  12.936  64.934  1.00  0.00    -0.297 C  
HETATM   24  O   UNK A   1     -10.694  13.828  64.200  1.00  0.00    -0.289 OA 
HETATM   25  O   UNK A   1     -12.254  12.267  64.749  1.00  0.00    -0.413 OA 
HETATM   26  H1  UNK A   1     -12.013  12.293  67.387  1.00  0.00     0.000 HD 
HETATM   27  H2  UNK A   1     -10.802  11.198  67.790  1.00  0.00     0.000 HD 
ENDBRANCH  20  21
ENDBRANCH  19  20
ENDBRANCH  18  19
ENDBRANCH  17  18
ENDBRANCH  16  17
ENDBRANCH  15  16
ENDBRANCH  11  15
ENDBRANCH   7  10
ENDBRANCH   5   6
TORSDOF 9
ENDMDL
MODEL      289
REMARK 921   NORMALIZED FREE ENERGY PREDICTED BY IDOCK:   -3.42 KCAL/MOL
REMARK 922        TOTAL FREE ENERGY PREDICTED BY IDOCK:   -6.18 KCAL/MOL
REMARK 923 INTER-LIGAND FREE ENERGY PREDICTED BY IDOCK:   -5.53 KCAL/MOL
REMARK 924 INTRA-LIGAND FREE ENERGY PREDICTED BY IDOCK:   -0.66 KCAL/MOL
REMARK 927      BINDING AFFINITY PREDICTED BY RF-SCORE:    0.00 PKD
ROOT
HETATM    1  C   UNK A   0     -13.881   7.209  71.807  1.00  0.00    -0.375 C  
HETATM    2  C   UNK A   0     -12.913   8.348  71.585  1.00  0.00    -0.355 C  
HETATM    3  C   UNK A   0     -11.590   8.240  72.304  1.00  0.00    -0.449 C  
HETATM    4  C   UNK A   0     -13.592   9.692  71.477  1.00  0.00    -0.376 C  
HETATM    5  C   UNK A   0     -11.625   8.095  70.792  1.00  0.00    -0.249 C  
ENDROOT
BRANCH   5   6
HETATM    6  C   UNK A   0     -10.920   9.157  69.999  1.00  0.00    -0.220 C  
HETATM    7  N   UNK A   1     -10.980   9.045  68.630  1.00  0.00    -0.448 N  
HETATM    8  O   UNK A   0     -10.273  10.022  70.575  1.00  0.00    -0.251 OA 
HETATM    9  H   UNK A   1     -11.529   8.264  68.269  1.00  0.00     0.000 HD 
BRANCH   7  10
HETATM   10  C   UNK A   1     -10.385   9.867  67.674  1.00  0.00    -0.225 C  
HETATM   11  C   UNK A   1      -9.044   9.836  67.469  1.00  0.00    -0.142 C  
HETATM   12  C   UNK A   1     -11.087  10.899  66.812  1.00  0.00    -0.126 C  
HETATM   13  O   UNK A   1     -12.152  11.509  67.366  1.00  0.00    -0.593 OA 
HETATM   14  O   UNK A   1     -10.622  11.292  65.750  1.00  0.00    -0.258 OA 
BRANCH  11  15
HETATM   15  C   UNK A   1      -8.036   9.012  68.209  1.00  0.00    -0.104 C  
BRANCH  15  16
HETATM   16  C   UNK A   1      -8.052   7.495  67.938  1.00  0.00    -0.119 C  
BRANCH  16  17
HETATM   17  C   UNK A   1      -6.927   6.881  68.782  1.00  0.00    -0.075 C  
BRANCH  17  18
HETATM   18  C   UNK A   1      -7.056   5.390  69.068  1.00  0.00    -0.057 C  
BRANCH  18  19
HETATM   19  S   UNK A   1      -7.861   5.247  70.708  1.00  0.00    -0.095 SA 
BRANCH  19  20
HETATM   20  C   UNK A   1      -7.149   6.714  71.526  1.00  0.00    -0.080 C  
BRANCH  20  21
HETATM   21  C   UNK A   1      -7.192   6.558  73.054  1.00  0.00    -0.081 C  
HETATM   22  N   UNK A   1      -8.243   5.589  73.504  1.00  0.00    -0.113 NA 
HETATM   23  C   UNK A   1      -7.521   7.929  73.648  1.00  0.00    -0.141 C  
HETATM   24  O   UNK A   1      -6.727   8.848  73.769  1.00  0.00    -0.330 OA 
HETATM   25  O   UNK A   1      -8.835   8.018  73.984  1.00  0.00    -0.263 OA 
HETATM   26  H1  UNK A   1      -8.272   5.485  74.519  1.00  0.00     0.000 HD 
HETATM   27  H2  UNK A   1      -8.127   4.684  73.047  1.00  0.00     0.000 HD 
ENDBRANCH  20  21
ENDBRANCH  19  20
ENDBRANCH  18  19
ENDBRANCH  17  18
ENDBRANCH  16  17
ENDBRANCH  15  16
ENDBRANCH  11  15
ENDBRANCH   7  10
ENDBRANCH   5   6
TORSDOF 9
ENDMDL
MODEL      290
REMARK 921   NORMALIZED FREE ENERGY PREDICTED BY IDOCK:   -3.36 KCAL/MOL
REMARK 922        TOTAL FREE ENERGY PREDICTED BY IDOCK:   -6.10 KCAL/MOL
REMARK 923 INTER-LIGAND FREE ENERGY PREDICTED BY IDOCK:   -5.12 KCAL/MOL
REMARK 924 INTRA-LIGAND FREE ENERGY PREDICTED BY IDOCK:   -0.99 KCAL/MOL
REMARK 927      BINDING AFFINITY PREDICTED BY RF-SCORE:    0.00 PKD
ROOT
HETATM    1  C   UNK A   0      -8.996   5.840  65.927  1.00  0.00    -0.158 C  
HETATM    2  C   UNK A   0      -8.695   5.692  67.399  1.00  0.00    -0.107 C  
HETATM    3  C   UNK A   0      -9.247   6.771  68.298  1.00  0.00    -0.122 C  
HETATM    4  C   UNK A   0      -7.319   5.131  67.672  1.00  0.00    -0.075 C  
HETATM    5  C   UNK A   0      -9.838   5.374  68.371  1.00  0.00    -0.197 C  
ENDROOT
BRANCH   5   6
HETATM    6  C   UNK A   0      -9.645   4.630  69.660  1.00  0.00    -0.192 C  
HETATM    7  N   UNK A   1      -9.332   5.385  70.767  1.00  0.00    -0.155 N  
HETATM    8  O   UNK A   0      -9.698   3.407  69.676  1.00  0.00    -0.144 OA 
HETATM    9  H   UNK A   1      -9.290   6.395  70.621  1.00  0.00     0.000 HD 
BRANCH   7  10
HETATM   10  C   UNK A   1      -9.066   4.943  72.061  1.00  0.00    -0.135 C  
HETATM   11  C   UNK A   1      -9.982   5.097  73.050  1.00  0.00    -0.190 C  
HETATM   12  C   UNK A   1      -7.774   4.317  72.550  1.00  0.00    -0.080 C  
HETATM   13  O   UNK A   1      -6.645   4.744  71.953  1.00  0.00    -0.029 OA 
HETATM   14  O   UNK A   1      -7.726   3.604  73.544  1.00  0.00    -0.068 OA 
BRANCH  11  15
HETATM   15  C   UNK A   1     -11.321   5.761  72.947  1.00  0.00    -0.298 C  
BRANCH  15  16
HETATM   16  C   UNK A   1     -11.320   7.272  72.644  1.00  0.00    -0.333 C  
BRANCH  16  17
HETATM   17  C   UNK A   1     -12.220   7.480  71.418  1.00  0.00    -0.363 C  
BRANCH  17  18
HETATM   18  C   UNK A   1     -12.618   8.922  71.130  1.00  0.00    -0.185 C  
BRANCH  18  19
HETATM   19  S   UNK A   1     -11.099   9.773  70.561  1.00  0.00    -0.344 SA 
BRANCH  19  20
HETATM   20  C   UNK A   1     -11.820  11.364  70.036  1.00  0.00    -0.359 C  
BRANCH  20  21
HETATM   21  C   UNK A   1     -12.004  11.401  68.511  1.00  0.00    -0.225 C  
HETATM   22  N   UNK A   1     -11.241  10.316  67.813  1.00  0.00    -0.461 NA 
HETATM   23  C   UNK A   1     -11.480  12.749  68.015  1.00  0.00    -0.318 C  
HETATM   24  O   UNK A   1     -12.076  13.810  68.108  1.00  0.00    -0.364 OA 
HETATM   25  O   UNK A   1     -10.229  12.631  67.496  1.00  0.00    -0.211 OA 
HETATM   26  H1  UNK A   1     -11.363  10.340  66.800  1.00  0.00     0.000 HD 
HETATM   27  H2  UNK A   1     -11.481   9.399  68.189  1.00  0.00     0.000 HD 
ENDBRANCH  20  21
ENDBRANCH  19  20
ENDBRANCH  18  19
ENDBRANCH  17  18
ENDBRANCH  16  17
ENDBRANCH  15  16
ENDBRANCH  11  15
ENDBRANCH   7  10
ENDBRANCH   5   6
TORSDOF 9
ENDMDL
MODEL      291
REMARK 921   NORMALIZED FREE ENERGY PREDICTED BY IDOCK:   -3.36 KCAL/MOL
REMARK 922        TOTAL FREE ENERGY PREDICTED BY IDOCK:   -6.09 KCAL/MOL
REMARK 923 INTER-LIGAND FREE ENERGY PREDICTED BY IDOCK:   -5.33 KCAL/MOL
REMARK 924 INTRA-LIGAND FREE ENERGY PREDICTED BY IDOCK:   -0.76 KCAL/MOL
REMARK 927      BINDING AFFINITY PREDICTED BY RF-SCORE:    0.00 PKD
ROOT
HETATM    1  C   UNK A   0     -11.599   5.313  72.914  1.00  0.00    -0.292 C  
HETATM    2  C   UNK A   0     -11.575   6.676  72.263  1.00  0.00    -0.313 C  
HETATM    3  C   UNK A   0     -11.454   6.687  70.758  1.00  0.00    -0.407 C  
HETATM    4  C   UNK A   0     -10.830   7.709  73.075  1.00  0.00    -0.457 C  
HETATM    5  C   UNK A   0     -12.763   7.117  71.399  1.00  0.00    -0.433 C  
ENDROOT
BRANCH   5   6
HETATM    6  C   UNK A   0     -13.162   8.552  71.212  1.00  0.00    -0.132 C  
HETATM    7  N   UNK A   1     -12.258   9.363  70.567  1.00  0.00    -0.477 N  
HETATM    8  O   UNK A   0     -14.214   8.962  71.686  1.00  0.00    -0.361 OA 
HETATM    9  H   UNK A   1     -11.404   8.910  70.241  1.00  0.00     0.000 HD 
BRANCH   7  10
HETATM   10  C   UNK A   1     -12.365  10.728  70.303  1.00  0.00    -0.341 C  
HETATM   11  C   UNK A   1     -11.910  11.248  69.135  1.00  0.00    -0.423 C  
HETATM   12  C   UNK A   1     -12.915  11.786  71.241  1.00  0.00    -0.254 C  
HETATM   13  O   UNK A   1     -12.720  11.570  72.556  1.00  0.00     0.327 OA 
HETATM   14  O   UNK A   1     -13.348  12.857  70.839  1.00  0.00     0.108 OA 
BRANCH  11  15
HETATM   15  C   UNK A   1     -11.222  10.512  68.026  1.00  0.00    -0.361 C  
BRANCH  15  16
HETATM   16  C   UNK A   1     -10.069  11.251  67.320  1.00  0.00    -0.214 C  
BRANCH  16  17
HETATM   17  C   UNK A   1      -9.105  11.723  68.417  1.00  0.00    -0.176 C  
BRANCH  17  18
HETATM   18  C   UNK A   1      -7.623  11.525  68.123  1.00  0.00    -0.113 C  
BRANCH  18  19
HETATM   19  S   UNK A   1      -6.912  10.697  69.595  1.00  0.00    -0.136 SA 
BRANCH  19  20
HETATM   20  C   UNK A   1      -8.335   9.663  70.080  1.00  0.00    -0.198 C  
BRANCH  20  21
HETATM   21  C   UNK A   1      -7.935   8.673  71.185  1.00  0.00    -0.138 C  
HETATM   22  N   UNK A   1      -6.851   9.207  72.073  1.00  0.00    -0.310 NA 
HETATM   23  C   UNK A   1      -7.414   7.406  70.504  1.00  0.00    -0.082 C  
HETATM   24  O   UNK A   1      -8.114   6.548  69.993  1.00  0.00    -0.117 OA 
HETATM   25  O   UNK A   1      -6.055   7.378  70.490  1.00  0.00    -0.030 OA 
HETATM   26  H1  UNK A   1      -6.586   8.550  72.806  1.00  0.00     0.000 HD 
HETATM   27  H2  UNK A   1      -7.113  10.110  72.468  1.00  0.00     0.000 HD 
ENDBRANCH  20  21
ENDBRANCH  19  20
ENDBRANCH  18  19
ENDBRANCH  17  18
ENDBRANCH  16  17
ENDBRANCH  15  16
ENDBRANCH  11  15
ENDBRANCH   7  10
ENDBRANCH   5   6
TORSDOF 9
ENDMDL
MODEL      292
REMARK 921   NORMALIZED FREE ENERGY PREDICTED BY IDOCK:   -3.36 KCAL/MOL
REMARK 922        TOTAL FREE ENERGY PREDICTED BY IDOCK:   -6.09 KCAL/MOL
REMARK 923 INTER-LIGAND FREE ENERGY PREDICTED BY IDOCK:   -4.45 KCAL/MOL
REMARK 924 INTRA-LIGAND FREE ENERGY PREDICTED BY IDOCK:   -1.64 KCAL/MOL
REMARK 927      BINDING AFFINITY PREDICTED BY RF-SCORE:    0.00 PKD
ROOT
HETATM    1  C   UNK A   0      -9.976  14.147  66.130  1.00  0.00    -0.328 C  
HETATM    2  C   UNK A   0     -10.599  12.919  66.750  1.00  0.00    -0.268 C  
HETATM    3  C   UNK A   0     -11.031  11.840  65.788  1.00  0.00    -0.353 C  
HETATM    4  C   UNK A   0     -11.461  13.232  67.950  1.00  0.00    -0.341 C  
HETATM    5  C   UNK A   0      -9.842  11.586  66.699  1.00  0.00    -0.228 C  
ENDROOT
BRANCH   5   6
HETATM    6  C   UNK A   0     -10.004  10.504  67.727  1.00  0.00    -0.171 C  
HETATM    7  N   UNK A   1      -9.248  10.622  68.870  1.00  0.00    -0.179 N  
HETATM    8  O   UNK A   0     -10.726   9.542  67.496  1.00  0.00    -0.282 OA 
HETATM    9  H   UNK A   1      -8.663  11.456  68.935  1.00  0.00     0.000 HD 
BRANCH   7  10
HETATM   10  C   UNK A   1      -9.181   9.745  69.951  1.00  0.00    -0.234 C  
HETATM   11  C   UNK A   1      -8.079   8.980  70.159  1.00  0.00    -0.128 C  
HETATM   12  C   UNK A   1     -10.279   9.479  70.963  1.00  0.00    -0.262 C  
HETATM   13  O   UNK A   1     -11.542   9.574  70.506  1.00  0.00    -0.265 OA 
HETATM   14  O   UNK A   1     -10.048   9.029  72.078  1.00  0.00    -0.327 OA 
BRANCH  11  15
HETATM   15  C   UNK A   1      -6.852   8.913  69.302  1.00  0.00    -0.050 C  
BRANCH  15  16
HETATM   16  C   UNK A   1      -6.193   7.529  69.148  1.00  0.00    -0.035 C  
BRANCH  16  17
HETATM   17  C   UNK A   1      -7.237   6.490  69.580  1.00  0.00    -0.082 C  
BRANCH  17  18
HETATM   18  C   UNK A   1      -7.595   5.441  68.533  1.00  0.00    -0.083 C  
BRANCH  18  19
HETATM   19  S   UNK A   1      -6.381   5.634  67.175  1.00  0.00    -0.044 SA 
BRANCH  19  20
HETATM   20  C   UNK A   1      -7.513   6.083  65.817  1.00  0.00    -0.082 C  
BRANCH  20  21
HETATM   21  C   UNK A   1      -8.425   7.247  66.232  1.00  0.00    -0.134 C  
HETATM   22  N   UNK A   1      -9.860   7.013  65.866  1.00  0.00    -0.250 NA 
HETATM   23  C   UNK A   1      -7.942   8.498  65.496  1.00  0.00    -0.110 C  
HETATM   24  O   UNK A   1      -6.965   9.159  65.806  1.00  0.00    -0.082 OA 
HETATM   25  O   UNK A   1      -8.714   8.758  64.408  1.00  0.00    -0.136 OA 
HETATM   26  H1  UNK A   1     -10.466   7.786  66.141  1.00  0.00     0.000 HD 
HETATM   27  H2  UNK A   1     -10.196   6.130  66.249  1.00  0.00     0.000 HD 
ENDBRANCH  20  21
ENDBRANCH  19  20
ENDBRANCH  18  19
ENDBRANCH  17  18
ENDBRANCH  16  17
ENDBRANCH  15  16
ENDBRANCH  11  15
ENDBRANCH   7  10
ENDBRANCH   5   6
TORSDOF 9
ENDMDL
MODEL      293
REMARK 921   NORMALIZED FREE ENERGY PREDICTED BY IDOCK:   -3.35 KCAL/MOL
REMARK 922        TOTAL FREE ENERGY PREDICTED BY IDOCK:   -6.08 KCAL/MOL
REMARK 923 INTER-LIGAND FREE ENERGY PREDICTED BY IDOCK:   -5.22 KCAL/MOL
REMARK 924 INTRA-LIGAND FREE ENERGY PREDICTED BY IDOCK:   -0.86 KCAL/MOL
REMARK 927      BINDING AFFINITY PREDICTED BY RF-SCORE:    0.00 PKD
ROOT
HETATM    1  C   UNK A   0      -6.390   6.779  70.625  1.00  0.00    -0.043 C  
HETATM    2  C   UNK A   0      -6.829   8.177  70.257  1.00  0.00    -0.037 C  
HETATM    3  C   UNK A   0      -5.726   9.196  70.100  1.00  0.00    -0.031 C  
HETATM    4  C   UNK A   0      -8.128   8.584  70.911  1.00  0.00    -0.140 C  
HETATM    5  C   UNK A   0      -6.485   8.731  68.869  1.00  0.00    -0.049 C  
ENDROOT
BRANCH   5   6
HETATM    6  C   UNK A   0      -7.314   9.763  68.162  1.00  0.00    -0.080 C  
HETATM    7  N   UNK A   1      -8.208   9.299  67.225  1.00  0.00    -0.120 N  
HETATM    8  O   UNK A   0      -7.126  10.954  68.379  1.00  0.00    -0.068 OA 
HETATM    9  H   UNK A   1      -8.254   8.286  67.115  1.00  0.00     0.000 HD 
BRANCH   7  10
HETATM   10  C   UNK A   1      -9.060  10.042  66.410  1.00  0.00    -0.149 C  
HETATM   11  C   UNK A   1     -10.379  10.162  66.708  1.00  0.00    -0.285 C  
HETATM   12  C   UNK A   1      -8.686  10.737  65.114  1.00  0.00    -0.164 C  
HETATM   13  O   UNK A   1      -7.722  10.147  64.382  1.00  0.00    -0.143 OA 
HETATM   14  O   UNK A   1      -9.332  11.673  64.662  1.00  0.00    -0.110 OA 
BRANCH  11  15
HETATM   15  C   UNK A   1     -11.108   9.527  67.852  1.00  0.00    -0.053 C  
BRANCH  15  16
HETATM   16  C   UNK A   1     -10.900  10.164  69.240  1.00  0.00    -0.269 C  
BRANCH  16  17
HETATM   17  C   UNK A   1     -11.892  11.330  69.346  1.00  0.00    -0.424 C  
BRANCH  17  18
HETATM   18  C   UNK A   1     -12.243  11.771  70.762  1.00  0.00    -0.326 C  
BRANCH  18  19
HETATM   19  S   UNK A   1     -13.284  13.268  70.593  1.00  0.00     0.449 SA 
BRANCH  19  20
HETATM   20  C   UNK A   1     -13.420  13.745  72.348  1.00  0.00    -0.571 C  
BRANCH  20  21
HETATM   21  C   UNK A   1     -13.715  15.247  72.482  1.00  0.00    -0.526 C  
HETATM   22  N   UNK A   1     -13.802  15.938  71.155  1.00  0.00    -0.420 NA 
HETATM   23  C   UNK A   1     -12.566  15.875  73.273  1.00  0.00    -0.527 C  
HETATM   24  O   UNK A   1     -12.425  15.799  74.483  1.00  0.00    -0.625 OA 
HETATM   25  O   UNK A   1     -11.680  16.493  72.448  1.00  0.00    -0.507 OA 
HETATM   26  H1  UNK A   1     -13.998  16.935  71.243  1.00  0.00     0.000 HD 
HETATM   27  H2  UNK A   1     -14.485  15.483  70.549  1.00  0.00     0.000 HD 
ENDBRANCH  20  21
ENDBRANCH  19  20
ENDBRANCH  18  19
ENDBRANCH  17  18
ENDBRANCH  16  17
ENDBRANCH  15  16
ENDBRANCH  11  15
ENDBRANCH   7  10
ENDBRANCH   5   6
TORSDOF 9
ENDMDL
MODEL      294
REMARK 921   NORMALIZED FREE ENERGY PREDICTED BY IDOCK:   -3.34 KCAL/MOL
REMARK 922        TOTAL FREE ENERGY PREDICTED BY IDOCK:   -6.06 KCAL/MOL
REMARK 923 INTER-LIGAND FREE ENERGY PREDICTED BY IDOCK:   -5.19 KCAL/MOL
REMARK 924 INTRA-LIGAND FREE ENERGY PREDICTED BY IDOCK:   -0.87 KCAL/MOL
REMARK 927      BINDING AFFINITY PREDICTED BY RF-SCORE:    0.00 PKD
ROOT
HETATM    1  C   UNK A   0     -10.308   6.219  73.717  1.00  0.00    -0.301 C  
HETATM    2  C   UNK A   0      -9.435   6.319  72.488  1.00  0.00    -0.143 C  
HETATM    3  C   UNK A   0      -8.082   5.657  72.583  1.00  0.00    -0.102 C  
HETATM    4  C   UNK A   0      -9.565   7.643  71.772  1.00  0.00    -0.183 C  
HETATM    5  C   UNK A   0      -9.138   5.054  71.672  1.00  0.00    -0.166 C  
ENDROOT
BRANCH   5   6
HETATM    6  C   UNK A   0      -8.843   5.069  70.201  1.00  0.00    -0.110 C  
HETATM    7  N   UNK A   1      -9.902   4.822  69.358  1.00  0.00    -0.203 N  
HETATM    8  O   UNK A   0      -7.694   5.225  69.808  1.00  0.00    -0.070 OA 
HETATM    9  H   UNK A   1     -10.807   4.680  69.808  1.00  0.00     0.000 HD 
BRANCH   7  10
HETATM   10  C   UNK A   1      -9.891   4.740  67.967  1.00  0.00    -0.126 C  
HETATM   11  C   UNK A   1     -10.430   5.728  67.209  1.00  0.00    -0.330 C  
HETATM   12  C   UNK A   1      -9.364   3.585  67.137  1.00  0.00    -0.200 C  
HETATM   13  O   UNK A   1      -9.483   2.360  67.683  1.00  0.00    -0.176 OA 
HETATM   14  O   UNK A   1      -9.016   3.721  65.971  1.00  0.00    -0.124 OA 
BRANCH  11  15
HETATM   15  C   UNK A   1     -11.123   6.964  67.695  1.00  0.00    -0.251 C  
BRANCH  15  16
HETATM   16  C   UNK A   1     -10.238   8.204  67.930  1.00  0.00    -0.274 C  
BRANCH  16  17
HETATM   17  C   UNK A   1     -10.438   9.128  66.721  1.00  0.00    -0.266 C  
BRANCH  17  18
HETATM   18  C   UNK A   1      -9.772  10.495  66.818  1.00  0.00    -0.179 C  
BRANCH  18  19
HETATM   19  S   UNK A   1     -10.543  11.343  68.248  1.00  0.00    -0.207 SA 
BRANCH  19  20
HETATM   20  C   UNK A   1     -10.849  12.979  67.503  1.00  0.00    -0.247 C  
BRANCH  20  21
HETATM   21  C   UNK A   1     -10.885  14.071  68.584  1.00  0.00    -0.258 C  
HETATM   22  N   UNK A   1     -12.266  14.605  68.818  1.00  0.00    -0.578 NA 
HETATM   23  C   UNK A   1     -10.001  15.224  68.105  1.00  0.00    -0.221 C  
HETATM   24  O   UNK A   1      -8.782  15.233  68.142  1.00  0.00    -0.157 OA 
HETATM   25  O   UNK A   1     -10.747  16.230  67.579  1.00  0.00    -0.316 OA 
HETATM   26  H1  UNK A   1     -12.290  15.329  69.535  1.00  0.00     0.000 HD 
HETATM   27  H2  UNK A   1     -12.918  13.852  69.036  1.00  0.00     0.000 HD 
ENDBRANCH  20  21
ENDBRANCH  19  20
ENDBRANCH  18  19
ENDBRANCH  17  18
ENDBRANCH  16  17
ENDBRANCH  15  16
ENDBRANCH  11  15
ENDBRANCH   7  10
ENDBRANCH   5   6
TORSDOF 9
ENDMDL
MODEL      295
REMARK 921   NORMALIZED FREE ENERGY PREDICTED BY IDOCK:   -3.32 KCAL/MOL
REMARK 922        TOTAL FREE ENERGY PREDICTED BY IDOCK:   -6.03 KCAL/MOL
REMARK 923 INTER-LIGAND FREE ENERGY PREDICTED BY IDOCK:   -5.55 KCAL/MOL
REMARK 924 INTRA-LIGAND FREE ENERGY PREDICTED BY IDOCK:   -0.48 KCAL/MOL
REMARK 927      BINDING AFFINITY PREDICTED BY RF-SCORE:    0.00 PKD
ROOT
HETATM    1  C   UNK A   0      -6.574   5.895  70.919  1.00  0.00    -0.045 C  
HETATM    2  C   UNK A   0      -7.413   6.597  69.877  1.00  0.00    -0.095 C  
HETATM    3  C   UNK A   0      -8.355   5.722  69.087  1.00  0.00    -0.105 C  
HETATM    4  C   UNK A   0      -6.678   7.717  69.178  1.00  0.00    -0.048 C  
HETATM    5  C   UNK A   0      -8.928   6.713  70.085  1.00  0.00    -0.152 C  
ENDROOT
BRANCH   5   6
HETATM    6  C   UNK A   0      -9.757   7.829  69.522  1.00  0.00    -0.165 C  
HETATM    7  N   UNK A   1      -9.725   9.025  70.202  1.00  0.00    -0.178 N  
HETATM    8  O   UNK A   0     -10.471   7.631  68.547  1.00  0.00    -0.200 OA 
HETATM    9  H   UNK A   1      -9.111   9.058  71.017  1.00  0.00     0.000 HD 
BRANCH   7  10
HETATM   10  C   UNK A   1     -10.425  10.195  69.916  1.00  0.00    -0.275 C  
HETATM   11  C   UNK A   1      -9.886  11.151  69.118  1.00  0.00    -0.074 C  
HETATM   12  C   UNK A   1     -11.786  10.586  70.461  1.00  0.00    -0.350 C  
HETATM   13  O   UNK A   1     -12.073  10.152  71.703  1.00  0.00    -0.375 OA 
HETATM   14  O   UNK A   1     -12.512  11.392  69.895  1.00  0.00    -0.221 OA 
BRANCH  11  15
HETATM   15  C   UNK A   1      -8.525  11.142  68.491  1.00  0.00    -0.156 C  
BRANCH  15  16
HETATM   16  C   UNK A   1      -8.333  12.032  67.247  1.00  0.00    -0.176 C  
BRANCH  16  17
HETATM   17  C   UNK A   1      -9.483  13.049  67.247  1.00  0.00    -0.224 C  
BRANCH  17  18
HETATM   18  C   UNK A   1      -9.964  13.499  65.874  1.00  0.00    -0.283 C  
BRANCH  18  19
HETATM   19  S   UNK A   1     -10.961  15.012  66.147  1.00  0.00    -0.326 SA 
BRANCH  19  20
HETATM   20  C   UNK A   1     -10.090  15.693  67.598  1.00  0.00    -0.248 C  
BRANCH  20  21
HETATM   21  C   UNK A   1      -9.254  16.920  67.203  1.00  0.00    -0.229 C  
HETATM   22  N   UNK A   1      -8.525  17.519  68.367  1.00  0.00    -0.268 NA 
HETATM   23  C   UNK A   1     -10.213  17.973  66.647  1.00  0.00    -0.373 C  
HETATM   24  O   UNK A   1     -10.704  17.954  65.530  1.00  0.00    -0.585 OA 
HETATM   25  O   UNK A   1     -10.498  18.921  67.578  1.00  0.00    -0.400 OA 
HETATM   26  H1  UNK A   1      -7.969  18.333  68.106  1.00  0.00     0.000 HD 
HETATM   27  H2  UNK A   1      -7.950  16.820  68.839  1.00  0.00     0.000 HD 
ENDBRANCH  20  21
ENDBRANCH  19  20
ENDBRANCH  18  19
ENDBRANCH  17  18
ENDBRANCH  16  17
ENDBRANCH  15  16
ENDBRANCH  11  15
ENDBRANCH   7  10
ENDBRANCH   5   6
TORSDOF 9
ENDMDL
MODEL      296
REMARK 921   NORMALIZED FREE ENERGY PREDICTED BY IDOCK:   -3.31 KCAL/MOL
REMARK 922        TOTAL FREE ENERGY PREDICTED BY IDOCK:   -6.02 KCAL/MOL
REMARK 923 INTER-LIGAND FREE ENERGY PREDICTED BY IDOCK:   -5.32 KCAL/MOL
REMARK 924 INTRA-LIGAND FREE ENERGY PREDICTED BY IDOCK:   -0.70 KCAL/MOL
REMARK 927      BINDING AFFINITY PREDICTED BY RF-SCORE:    0.00 PKD
ROOT
HETATM    1  C   UNK A   0     -10.645  20.912  68.538  1.00  0.00     0.643 C  
HETATM    2  C   UNK A   0      -9.919  19.747  67.907  1.00  0.00    -0.539 C  
HETATM    3  C   UNK A   0      -8.735  19.213  68.676  1.00  0.00    -0.394 C  
HETATM    4  C   UNK A   0      -9.848  19.836  66.401  1.00  0.00    -0.556 C  
HETATM    5  C   UNK A   0      -9.993  18.367  68.573  1.00  0.00    -0.415 C  
ENDROOT
BRANCH   5   6
HETATM    6  C   UNK A   0      -9.873  17.077  67.815  1.00  0.00    -0.271 C  
HETATM    7  N   UNK A   1     -11.046  16.514  67.368  1.00  0.00    -0.113 N  
HETATM    8  O   UNK A   0      -8.779  16.542  67.684  1.00  0.00    -0.188 OA 
HETATM    9  H   UNK A   1     -11.898  17.042  67.563  1.00  0.00     0.000 HD 
BRANCH   7  10
HETATM   10  C   UNK A   1     -11.216  15.314  66.681  1.00  0.00    -0.232 C  
HETATM   11  C   UNK A   1     -11.741  14.226  67.301  1.00  0.00    -0.422 C  
HETATM   12  C   UNK A   1     -10.813  15.033  65.246  1.00  0.00    -0.386 C  
HETATM   13  O   UNK A   1      -9.724  15.686  64.798  1.00  0.00    -0.037 OA 
HETATM   14  O   UNK A   1     -11.324  14.139  64.584  1.00  0.00    -0.359 OA 
BRANCH  11  15
HETATM   15  C   UNK A   1     -12.155  14.117  68.737  1.00  0.00    -0.326 C  
BRANCH  15  16
HETATM   16  C   UNK A   1     -11.444  13.041  69.580  1.00  0.00    -0.253 C  
BRANCH  16  17
HETATM   17  C   UNK A   1     -10.960  11.960  68.604  1.00  0.00    -0.271 C  
BRANCH  17  18
HETATM   18  C   UNK A   1      -9.449  11.852  68.437  1.00  0.00    -0.189 C  
BRANCH  18  19
HETATM   19  S   UNK A   1      -9.120  11.963  66.638  1.00  0.00    -0.204 SA 
BRANCH  19  20
HETATM   20  C   UNK A   1      -9.506  10.249  66.151  1.00  0.00    -0.181 C  
BRANCH  20  21
HETATM   21  C   UNK A   1      -8.216   9.441  65.935  1.00  0.00    -0.115 C  
HETATM   22  N   UNK A   1      -7.986   9.098  64.495  1.00  0.00    -0.120 NA 
HETATM   23  C   UNK A   1      -8.352   8.137  66.722  1.00  0.00    -0.115 C  
HETATM   24  O   UNK A   1      -8.212   8.029  67.929  1.00  0.00    -0.126 OA 
HETATM   25  O   UNK A   1      -8.702   7.105  65.909  1.00  0.00    -0.149 OA 
HETATM   26  H1  UNK A   1      -7.130   8.562  64.351  1.00  0.00     0.000 HD 
HETATM   27  H2  UNK A   1      -7.996   9.935  63.912  1.00  0.00     0.000 HD 
ENDBRANCH  20  21
ENDBRANCH  19  20
ENDBRANCH  18  19
ENDBRANCH  17  18
ENDBRANCH  16  17
ENDBRANCH  15  16
ENDBRANCH  11  15
ENDBRANCH   7  10
ENDBRANCH   5   6
TORSDOF 9
ENDMDL
MODEL      297
REMARK 921   NORMALIZED FREE ENERGY PREDICTED BY IDOCK:   -3.27 KCAL/MOL
REMARK 922        TOTAL FREE ENERGY PREDICTED BY IDOCK:   -5.96 KCAL/MOL
REMARK 923 INTER-LIGAND FREE ENERGY PREDICTED BY IDOCK:   -5.24 KCAL/MOL
REMARK 924 INTRA-LIGAND FREE ENERGY PREDICTED BY IDOCK:   -0.72 KCAL/MOL
REMARK 927      BINDING AFFINITY PREDICTED BY RF-SCORE:    0.00 PKD
ROOT
HETATM    1  C   UNK A   0     -13.286  11.565  71.890  1.00  0.00    -0.479 C  
HETATM    2  C   UNK A   0     -12.693  10.213  71.571  1.00  0.00    -0.541 C  
HETATM    3  C   UNK A   0     -12.064  10.071  70.206  1.00  0.00    -0.226 C  
HETATM    4  C   UNK A   0     -13.491   9.065  72.143  1.00  0.00    -0.514 C  
HETATM    5  C   UNK A   0     -11.172  10.072  71.436  1.00  0.00    -0.162 C  
ENDROOT
BRANCH   5   6
HETATM    6  C   UNK A   0     -10.429   8.800  71.726  1.00  0.00    -0.346 C  
HETATM    7  N   UNK A   1      -9.866   8.156  70.649  1.00  0.00    -0.181 N  
HETATM    8  O   UNK A   0     -10.408   8.350  72.865  1.00  0.00    -0.258 OA 
HETATM    9  H   UNK A   1      -9.975   8.618  69.746  1.00  0.00     0.000 HD 
BRANCH   7  10
HETATM   10  C   UNK A   1      -9.165   6.952  70.640  1.00  0.00    -0.158 C  
HETATM   11  C   UNK A   1      -7.809   6.935  70.690  1.00  0.00    -0.101 C  
HETATM   12  C   UNK A   1      -9.764   5.563  70.520  1.00  0.00    -0.183 C  
HETATM   13  O   UNK A   1     -10.888   5.464  69.785  1.00  0.00    -0.297 OA 
HETATM   14  O   UNK A   1      -9.178   4.561  70.907  1.00  0.00    -0.124 OA 
BRANCH  11  15
HETATM   15  C   UNK A   1      -6.892   8.120  70.714  1.00  0.00    -0.038 C  
BRANCH  15  16
HETATM   16  C   UNK A   1      -6.065   8.378  69.440  1.00  0.00    -0.037 C  
BRANCH  16  17
HETATM   17  C   UNK A   1      -7.008   8.165  68.248  1.00  0.00    -0.076 C  
BRANCH  17  18
HETATM   18  C   UNK A   1      -8.027   9.273  68.008  1.00  0.00    -0.100 C  
BRANCH  18  19
HETATM   19  S   UNK A   1      -7.067  10.770  67.566  1.00  0.00    -0.092 SA 
BRANCH  19  20
HETATM   20  C   UNK A   1      -8.331  11.668  66.605  1.00  0.00    -0.154 C  
BRANCH  20  21
HETATM   21  C   UNK A   1      -9.628  11.815  67.416  1.00  0.00    -0.168 C  
HETATM   22  N   UNK A   1     -10.726  10.930  66.911  1.00  0.00    -0.265 NA 
HETATM   23  C   UNK A   1     -10.089  13.268  67.289  1.00  0.00    -0.234 C  
HETATM   24  O   UNK A   1      -9.608  14.211  67.896  1.00  0.00    -0.211 OA 
HETATM   25  O   UNK A   1     -11.080  13.392  66.368  1.00  0.00    -0.294 OA 
HETATM   26  H1  UNK A   1     -11.587  11.027  67.449  1.00  0.00     0.000 HD 
HETATM   27  H2  UNK A   1     -10.425   9.956  66.875  1.00  0.00     0.000 HD 
ENDBRANCH  20  21
ENDBRANCH  19  20
ENDBRANCH  18  19
ENDBRANCH  17  18
ENDBRANCH  16  17
ENDBRANCH  15  16
ENDBRANCH  11  15
ENDBRANCH   7  10
ENDBRANCH   5   6
TORSDOF 9
ENDMDL
MODEL      298
REMARK 921   NORMALIZED FREE ENERGY PREDICTED BY IDOCK:   -3.26 KCAL/MOL
REMARK 922        TOTAL FREE ENERGY PREDICTED BY IDOCK:   -5.95 KCAL/MOL
REMARK 923 INTER-LIGAND FREE ENERGY PREDICTED BY IDOCK:   -5.48 KCAL/MOL
REMARK 924 INTRA-LIGAND FREE ENERGY PREDICTED BY IDOCK:   -0.46 KCAL/MOL
REMARK 927      BINDING AFFINITY PREDICTED BY RF-SCORE:    0.00 PKD
ROOT
HETATM    1  C   UNK A   0      -8.217  19.699  66.154  1.00  0.00    -0.355 C  
HETATM    2  C   UNK A   0      -8.965  19.073  67.308  1.00  0.00    -0.308 C  
HETATM    3  C   UNK A   0     -10.446  19.359  67.368  1.00  0.00    -0.581 C  
HETATM    4  C   UNK A   0      -8.163  19.040  68.588  1.00  0.00    -0.399 C  
HETATM    5  C   UNK A   0      -9.976  17.954  67.029  1.00  0.00    -0.324 C  
ENDROOT
BRANCH   5   6
HETATM    6  C   UNK A   0     -10.312  16.877  68.019  1.00  0.00    -0.334 C  
HETATM    7  N   UNK A   1     -10.282  15.583  67.555  1.00  0.00    -0.250 N  
HETATM    8  O   UNK A   0     -10.659  17.176  69.155  1.00  0.00    -0.324 OA 
HETATM    9  H   UNK A   1     -10.003  15.464  66.581  1.00  0.00     0.000 HD 
BRANCH   7  10
HETATM   10  C   UNK A   1     -10.588  14.414  68.250  1.00  0.00    -0.243 C  
HETATM   11  C   UNK A   1      -9.731  13.361  68.250  1.00  0.00    -0.226 C  
HETATM   12  C   UNK A   1     -11.866  14.130  69.017  1.00  0.00    -0.348 C  
HETATM   13  O   UNK A   1     -12.986  14.702  68.534  1.00  0.00     0.843 OA 
HETATM   14  O   UNK A   1     -11.923  13.295  69.909  1.00  0.00    -0.318 OA 
BRANCH  11  15
HETATM   15  C   UNK A   1      -8.428  13.257  67.519  1.00  0.00    -0.202 C  
BRANCH  15  16
HETATM   16  C   UNK A   1      -7.594  11.986  67.773  1.00  0.00    -0.130 C  
BRANCH  16  17
HETATM   17  C   UNK A   1      -6.247  12.190  67.066  1.00  0.00    -0.098 C  
BRANCH  17  18
HETATM   18  C   UNK A   1      -5.877  11.130  66.035  1.00  0.00    -0.087 C  
BRANCH  18  19
HETATM   19  S   UNK A   1      -7.349  10.055  65.849  1.00  0.00    -0.121 SA 
BRANCH  19  20
HETATM   20  C   UNK A   1      -8.041  10.748  64.311  1.00  0.00     0.162 C  
BRANCH  20  21
HETATM   21  C   UNK A   1      -9.479  10.254  64.091  1.00  0.00    -0.301 C  
HETATM   22  N   UNK A   1     -10.068  10.752  62.805  1.00  0.00    -0.750 NA 
HETATM   23  C   UNK A   1     -10.332  10.784  65.244  1.00  0.00    -0.258 C  
HETATM   24  O   UNK A   1     -10.350  10.320  66.372  1.00  0.00    -0.228 OA 
HETATM   25  O   UNK A   1     -11.039  11.883  64.870  1.00  0.00    -0.303 OA 
HETATM   26  H1  UNK A   1     -11.023  10.424  62.659  1.00  0.00     0.000 HD 
HETATM   27  H2  UNK A   1      -9.473  10.513  62.012  1.00  0.00     0.000 HD 
ENDBRANCH  20  21
ENDBRANCH  19  20
ENDBRANCH  18  19
ENDBRANCH  17  18
ENDBRANCH  16  17
ENDBRANCH  15  16
ENDBRANCH  11  15
ENDBRANCH   7  10
ENDBRANCH   5   6
TORSDOF 9
ENDMDL
MODEL      299
REMARK 921   NORMALIZED FREE ENERGY PREDICTED BY IDOCK:   -3.23 KCAL/MOL
REMARK 922        TOTAL FREE ENERGY PREDICTED BY IDOCK:   -5.90 KCAL/MOL
REMARK 923 INTER-LIGAND FREE ENERGY PREDICTED BY IDOCK:   -5.05 KCAL/MOL
REMARK 924 INTRA-LIGAND FREE ENERGY PREDICTED BY IDOCK:   -0.86 KCAL/MOL
REMARK 927      BINDING AFFINITY PREDICTED BY RF-SCORE:    0.00 PKD
ROOT
HETATM    1  C   UNK A   0      -8.154   7.784  62.635  1.00  0.00    -0.124 C  
HETATM    2  C   UNK A   0      -7.814   8.059  64.081  1.00  0.00    -0.141 C  
HETATM    3  C   UNK A   0      -6.549   8.845  64.324  1.00  0.00    -0.078 C  
HETATM    4  C   UNK A   0      -8.166   6.915  65.003  1.00  0.00    -0.096 C  
HETATM    5  C   UNK A   0      -7.891   9.497  64.610  1.00  0.00    -0.122 C  
ENDROOT
BRANCH   5   6
HETATM    6  C   UNK A   0      -8.181   9.836  66.043  1.00  0.00    -0.117 C  
HETATM    7  N   UNK A   1      -9.501  10.040  66.373  1.00  0.00    -0.177 N  
HETATM    8  O   UNK A   0      -7.259   9.987  66.835  1.00  0.00    -0.089 OA 
HETATM    9  H   UNK A   1     -10.175   9.911  65.618  1.00  0.00     0.000 HD 
BRANCH   7  10
HETATM   10  C   UNK A   1     -10.030  10.401  67.611  1.00  0.00    -0.174 C  
HETATM   11  C   UNK A   1     -10.127  11.706  67.972  1.00  0.00    -0.198 C  
HETATM   12  C   UNK A   1     -10.497   9.455  68.701  1.00  0.00    -0.209 C  
HETATM   13  O   UNK A   1      -9.839   8.283  68.789  1.00  0.00    -0.165 OA 
HETATM   14  O   UNK A   1     -11.295   9.793  69.565  1.00  0.00    -0.190 OA 
BRANCH  11  15
HETATM   15  C   UNK A   1      -9.671  12.897  67.186  1.00  0.00    -0.221 C  
BRANCH  15  16
HETATM   16  C   UNK A   1      -8.234  13.388  67.448  1.00  0.00    -0.188 C  
BRANCH  16  17
HETATM   17  C   UNK A   1      -8.168  14.844  66.967  1.00  0.00    -0.228 C  
BRANCH  17  18
HETATM   18  C   UNK A   1      -7.545  15.833  67.944  1.00  0.00    -0.131 C  
BRANCH  18  19
HETATM   19  S   UNK A   1      -6.889  17.213  66.934  1.00  0.00    -0.231 SA 
BRANCH  19  20
HETATM   20  C   UNK A   1      -7.699  18.616  67.771  1.00  0.00    -0.237 C  
BRANCH  20  21
HETATM   21  C   UNK A   1      -9.069  18.909  67.139  1.00  0.00    -0.287 C  
HETATM   22  N   UNK A   1      -9.111  20.239  66.449  1.00  0.00    -0.573 NA 
HETATM   23  C   UNK A   1     -10.103  18.922  68.265  1.00  0.00    -0.388 C  
HETATM   24  O   UNK A   1     -10.568  17.929  68.801  1.00  0.00    -0.274 OA 
HETATM   25  O   UNK A   1     -10.409  20.193  68.639  1.00  0.00    -0.407 OA 
HETATM   26  H1  UNK A   1     -10.020  20.434  66.029  1.00  0.00     0.000 HD 
HETATM   27  H2  UNK A   1      -8.365  20.318  65.758  1.00  0.00     0.000 HD 
ENDBRANCH  20  21
ENDBRANCH  19  20
ENDBRANCH  18  19
ENDBRANCH  17  18
ENDBRANCH  16  17
ENDBRANCH  15  16
ENDBRANCH  11  15
ENDBRANCH   7  10
ENDBRANCH   5   6
TORSDOF 9
ENDMDL
MODEL      300
REMARK 921   NORMALIZED FREE ENERGY PREDICTED BY IDOCK:   -3.23 KCAL/MOL
REMARK 922        TOTAL FREE ENERGY PREDICTED BY IDOCK:   -5.89 KCAL/MOL
REMARK 923 INTER-LIGAND FREE ENERGY PREDICTED BY IDOCK:   -4.62 KCAL/MOL
REMARK 924 INTRA-LIGAND FREE ENERGY PREDICTED BY IDOCK:   -1.27 KCAL/MOL
REMARK 927      BINDING AFFINITY PREDICTED BY RF-SCORE:    0.00 PKD
ROOT
HETATM    1  C   UNK A   0      -6.441  11.632  69.702  1.00  0.00    -0.124 C  
HETATM    2  C   UNK A   0      -7.277  11.501  68.450  1.00  0.00    -0.089 C  
HETATM    3  C   UNK A   0      -8.463  10.572  68.543  1.00  0.00    -0.131 C  
HETATM    4  C   UNK A   0      -6.457  11.534  67.182  1.00  0.00    -0.123 C  
HETATM    5  C   UNK A   0      -8.702  12.068  68.436  1.00  0.00    -0.147 C  
ENDROOT
BRANCH   5   6
HETATM    6  C   UNK A   0      -9.387  12.551  67.190  1.00  0.00    -0.201 C  
HETATM    7  N   UNK A   1     -10.450  11.802  66.742  1.00  0.00    -0.219 N  
HETATM    8  O   UNK A   0      -8.950  13.524  66.589  1.00  0.00    -0.210 OA 
HETATM    9  H   UNK A   1     -10.702  10.996  67.316  1.00  0.00     0.000 HD 
BRANCH   7  10
HETATM   10  C   UNK A   1     -11.225  12.006  65.602  1.00  0.00    -0.327 C  
HETATM   11  C   UNK A   1     -10.995  11.296  64.469  1.00  0.00    -0.301 C  
HETATM   12  C   UNK A   1     -12.333  13.028  65.439  1.00  0.00    -0.486 C  
HETATM   13  O   UNK A   1     -12.185  14.178  66.125  1.00  0.00    -0.424 OA 
HETATM   14  O   UNK A   1     -13.219  12.907  64.603  1.00  0.00    -0.700 OA 
BRANCH  11  15
HETATM   15  C   UNK A   1      -9.920  10.277  64.243  1.00  0.00    -0.293 C  
BRANCH  15  16
HETATM   16  C   UNK A   1      -8.497  10.818  64.005  1.00  0.00     0.021 C  
BRANCH  16  17
HETATM   17  C   UNK A   1      -7.529   9.659  64.282  1.00  0.00    -0.125 C  
BRANCH  17  18
HETATM   18  C   UNK A   1      -8.160   8.273  64.342  1.00  0.00    -0.145 C  
BRANCH  18  19
HETATM   19  S   UNK A   1      -7.682   7.558  65.960  1.00  0.00    -0.098 SA 
BRANCH  19  20
HETATM   20  C   UNK A   1      -8.648   6.012  65.906  1.00  0.00    -0.150 C  
BRANCH  20  21
HETATM   21  C   UNK A   1      -7.736   4.812  65.608  1.00  0.00    -0.090 C  
HETATM   22  N   UNK A   1      -6.307   5.068  65.980  1.00  0.00    -0.038 NA 
HETATM   23  C   UNK A   1      -7.798   4.548  64.103  1.00  0.00    -0.086 C  
HETATM   24  O   UNK A   1      -8.716   3.988  63.527  1.00  0.00    -0.098 OA 
HETATM   25  O   UNK A   1      -6.714   5.066  63.466  1.00  0.00    -0.036 OA 
HETATM   26  H1  UNK A   1      -5.701   4.272  65.782  1.00  0.00     0.000 HD 
HETATM   27  H2  UNK A   1      -6.227   5.355  66.956  1.00  0.00     0.000 HD 
ENDBRANCH  20  21
ENDBRANCH  19  20
ENDBRANCH  18  19
ENDBRANCH  17  18
ENDBRANCH  16  17
ENDBRANCH  15  16
ENDBRANCH  11  15
ENDBRANCH   7  10
ENDBRANCH   5   6
TORSDOF 9
ENDMDL
MODEL      301
REMARK 921   NORMALIZED FREE ENERGY PREDICTED BY IDOCK:   -3.22 KCAL/MOL
REMARK 922        TOTAL FREE ENERGY PREDICTED BY IDOCK:   -5.89 KCAL/MOL
REMARK 923 INTER-LIGAND FREE ENERGY PREDICTED BY IDOCK:   -4.95 KCAL/MOL
REMARK 924 INTRA-LIGAND FREE ENERGY PREDICTED BY IDOCK:   -0.93 KCAL/MOL
REMARK 927      BINDING AFFINITY PREDICTED BY RF-SCORE:    0.00 PKD
ROOT
HETATM    1  C   UNK A   0     -13.300  12.030  71.928  1.00  0.00    -0.408 C  
HETATM    2  C   UNK A   0     -12.870  10.651  71.485  1.00  0.00    -0.567 C  
HETATM    3  C   UNK A   0     -12.524  10.505  70.023  1.00  0.00    -0.243 C  
HETATM    4  C   UNK A   0     -13.617   9.542  72.185  1.00  0.00    -0.500 C  
HETATM    5  C   UNK A   0     -11.415  10.420  71.057  1.00  0.00    -0.304 C  
ENDROOT
BRANCH   5   6
HETATM    6  C   UNK A   0     -10.716   9.097  71.184  1.00  0.00    -0.310 C  
HETATM    7  N   UNK A   1     -10.385   8.460  70.011  1.00  0.00    -0.206 N  
HETATM    8  O   UNK A   0     -10.531   8.606  72.291  1.00  0.00    -0.330 OA 
HETATM    9  H   UNK A   1     -10.616   8.960  69.151  1.00  0.00     0.000 HD 
BRANCH   7  10
HETATM   10  C   UNK A   1      -9.774   7.218  69.851  1.00  0.00    -0.174 C  
HETATM   11  C   UNK A   1      -8.437   7.072  70.032  1.00  0.00    -0.140 C  
HETATM   12  C   UNK A   1     -10.451   5.931  69.419  1.00  0.00    -0.275 C  
HETATM   13  O   UNK A   1     -11.489   6.063  68.570  1.00  0.00    -0.091 OA 
HETATM   14  O   UNK A   1      -9.985   4.828  69.673  1.00  0.00    -0.210 OA 
BRANCH  11  15
HETATM   15  C   UNK A   1      -7.448   8.147  70.365  1.00  0.00    -0.067 C  
BRANCH  15  16
HETATM   16  C   UNK A   1      -6.536   8.624  69.218  1.00  0.00    -0.049 C  
BRANCH  16  17
HETATM   17  C   UNK A   1      -7.439   8.846  67.996  1.00  0.00    -0.092 C  
BRANCH  17  18
HETATM   18  C   UNK A   1      -6.989   8.160  66.712  1.00  0.00    -0.073 C  
BRANCH  18  19
HETATM   19  S   UNK A   1      -6.179   6.596  67.218  1.00  0.00    -0.037 SA 
BRANCH  19  20
HETATM   20  C   UNK A   1      -7.229   5.405  66.323  1.00  0.00    -0.077 C  
BRANCH  20  21
HETATM   21  C   UNK A   1      -8.311   6.136  65.512  1.00  0.00    -0.147 C  
HETATM   22  N   UNK A   1      -9.696   5.681  65.858  1.00  0.00    -0.350 NA 
HETATM   23  C   UNK A   1      -8.064   5.831  64.033  1.00  0.00    -0.116 C  
HETATM   24  O   UNK A   1      -7.202   6.353  63.346  1.00  0.00    -0.050 OA 
HETATM   25  O   UNK A   1      -8.899   4.858  63.584  1.00  0.00    -0.136 OA 
HETATM   26  H1  UNK A   1     -10.414   6.165  65.320  1.00  0.00     0.000 HD 
HETATM   27  H2  UNK A   1      -9.870   5.765  66.860  1.00  0.00     0.000 HD 
ENDBRANCH  20  21
ENDBRANCH  19  20
ENDBRANCH  18  19
ENDBRANCH  17  18
ENDBRANCH  16  17
ENDBRANCH  15  16
ENDBRANCH  11  15
ENDBRANCH   7  10
ENDBRANCH   5   6
TORSDOF 9
ENDMDL
MODEL      302
REMARK 921   NORMALIZED FREE ENERGY PREDICTED BY IDOCK:   -3.19 KCAL/MOL
REMARK 922        TOTAL FREE ENERGY PREDICTED BY IDOCK:   -5.84 KCAL/MOL
REMARK 923 INTER-LIGAND FREE ENERGY PREDICTED BY IDOCK:   -5.12 KCAL/MOL
REMARK 924 INTRA-LIGAND FREE ENERGY PREDICTED BY IDOCK:   -0.72 KCAL/MOL
REMARK 927      BINDING AFFINITY PREDICTED BY RF-SCORE:    0.00 PKD
ROOT
HETATM    1  C   UNK A   0     -11.566  12.056  67.018  1.00  0.00    -0.387 C  
HETATM    2  C   UNK A   0     -10.787  10.996  67.760  1.00  0.00    -0.297 C  
HETATM    3  C   UNK A   0      -9.719  11.498  68.701  1.00  0.00    -0.172 C  
HETATM    4  C   UNK A   0     -10.526   9.760  66.932  1.00  0.00    -0.281 C  
HETATM    5  C   UNK A   0     -10.969  10.854  69.277  1.00  0.00    -0.295 C  
ENDROOT
BRANCH   5   6
HETATM    6  C   UNK A   0     -10.778   9.562  70.016  1.00  0.00    -0.243 C  
HETATM    7  N   UNK A   1     -11.785   8.632  69.899  1.00  0.00    -0.326 N  
HETATM    8  O   UNK A   0      -9.799   9.406  70.735  1.00  0.00    -0.264 OA 
HETATM    9  H   UNK A   1     -12.563   8.890  69.291  1.00  0.00     0.000 HD 
BRANCH   7  10
HETATM   10  C   UNK A   1     -11.873   7.381  70.507  1.00  0.00    -0.157 C  
HETATM   11  C   UNK A   1     -11.167   6.325  70.031  1.00  0.00    -0.480 C  
HETATM   12  C   UNK A   1     -12.758   7.013  71.683  1.00  0.00    -0.377 C  
HETATM   13  O   UNK A   1     -13.933   7.666  71.768  1.00  0.00    -0.371 OA 
HETATM   14  O   UNK A   1     -12.517   6.060  72.412  1.00  0.00    -0.177 OA 
BRANCH  11  15
HETATM   15  C   UNK A   1     -10.273   6.304  68.829  1.00  0.00    -0.213 C  
BRANCH  15  16
HETATM   16  C   UNK A   1     -10.909   5.843  67.504  1.00  0.00    -0.335 C  
BRANCH  16  17
HETATM   17  C   UNK A   1     -10.065   4.668  66.991  1.00  0.00    -0.207 C  
BRANCH  17  18
HETATM   18  C   UNK A   1      -9.124   4.038  68.010  1.00  0.00    -0.140 C  
BRANCH  18  19
HETATM   19  S   UNK A   1      -9.216   2.227  67.748  1.00  0.00    -0.163 SA 
BRANCH  19  20
HETATM   20  C   UNK A   1      -7.606   1.735  68.449  1.00  0.00    -0.046 C  
BRANCH  20  21
HETATM   21  C   UNK A   1      -7.680   1.665  69.983  1.00  0.00    -0.042 C  
HETATM   22  N   UNK A   1      -9.036   2.026  70.511  1.00  0.00    -0.071 NA 
HETATM   23  C   UNK A   1      -6.667   2.666  70.540  1.00  0.00    -0.033 C  
HETATM   24  O   UNK A   1      -5.462   2.486  70.594  1.00  0.00    -0.011 OA 
HETATM   25  O   UNK A   1      -7.275   3.819  70.926  1.00  0.00    -0.033 OA 
HETATM   26  H1  UNK A   1      -9.085   1.980  71.529  1.00  0.00     0.000 HD 
HETATM   27  H2  UNK A   1      -9.761   1.452  70.082  1.00  0.00     0.000 HD 
ENDBRANCH  20  21
ENDBRANCH  19  20
ENDBRANCH  18  19
ENDBRANCH  17  18
ENDBRANCH  16  17
ENDBRANCH  15  16
ENDBRANCH  11  15
ENDBRANCH   7  10
ENDBRANCH   5   6
TORSDOF 9
ENDMDL
MODEL      303
REMARK 921   NORMALIZED FREE ENERGY PREDICTED BY IDOCK:   -3.19 KCAL/MOL
REMARK 922        TOTAL FREE ENERGY PREDICTED BY IDOCK:   -5.83 KCAL/MOL
REMARK 923 INTER-LIGAND FREE ENERGY PREDICTED BY IDOCK:   -4.85 KCAL/MOL
REMARK 924 INTRA-LIGAND FREE ENERGY PREDICTED BY IDOCK:   -0.98 KCAL/MOL
REMARK 927      BINDING AFFINITY PREDICTED BY RF-SCORE:    0.00 PKD
ROOT
HETATM    1  C   UNK A   0      -9.030  12.638  66.801  1.00  0.00    -0.197 C  
HETATM    2  C   UNK A   0     -10.009  11.533  67.120  1.00  0.00    -0.222 C  
HETATM    3  C   UNK A   0      -9.774  10.219  66.417  1.00  0.00    -0.252 C  
HETATM    4  C   UNK A   0     -11.423  12.029  67.313  1.00  0.00    -0.403 C  
HETATM    5  C   UNK A   0      -9.530  10.311  67.914  1.00  0.00    -0.154 C  
ENDROOT
BRANCH   5   6
HETATM    6  C   UNK A   0     -10.429   9.491  68.792  1.00  0.00    -0.219 C  
HETATM    7  N   UNK A   1     -10.486   9.848  70.119  1.00  0.00    -0.269 N  
HETATM    8  O   UNK A   0     -11.011   8.517  68.333  1.00  0.00     0.008 OA 
HETATM    9  H   UNK A   1      -9.934  10.663  70.387  1.00  0.00     0.000 HD 
BRANCH   7  10
HETATM   10  C   UNK A   1     -11.205   9.234  71.143  1.00  0.00    -0.343 C  
HETATM   11  C   UNK A   1     -10.731   8.119  71.754  1.00  0.00    -0.313 C  
HETATM   12  C   UNK A   1     -12.567   9.652  71.663  1.00  0.00    -0.402 C  
HETATM   13  O   UNK A   1     -13.402  10.202  70.761  1.00  0.00    -0.361 OA 
HETATM   14  O   UNK A   1     -12.963   9.352  72.782  1.00  0.00    -0.254 OA 
BRANCH  11  15
HETATM   15  C   UNK A   1      -9.470   7.378  71.428  1.00  0.00    -0.160 C  
BRANCH  15  16
HETATM   16  C   UNK A   1      -9.564   5.840  71.388  1.00  0.00    -0.188 C  
BRANCH  16  17
HETATM   17  C   UNK A   1     -10.441   5.480  70.181  1.00  0.00    -0.370 C  
BRANCH  17  18
HETATM   18  C   UNK A   1      -9.854   4.450  69.224  1.00  0.00    -0.148 C  
BRANCH  18  19
HETATM   19  S   UNK A   1      -9.540   5.331  67.648  1.00  0.00    -0.139 SA 
BRANCH  19  20
HETATM   20  C   UNK A   1      -7.801   4.853  67.373  1.00  0.00    -0.095 C  
BRANCH  20  21
HETATM   21  C   UNK A   1      -7.715   3.624  66.455  1.00  0.00    -0.085 C  
HETATM   22  N   UNK A   1      -9.047   3.230  65.892  1.00  0.00    -0.147 NA 
HETATM   23  C   UNK A   1      -7.187   2.458  67.293  1.00  0.00    -0.056 C  
HETATM   24  O   UNK A   1      -6.021   2.297  67.611  1.00  0.00    -0.022 OA 
HETATM   25  O   UNK A   1      -8.197   1.639  67.688  1.00  0.00    -0.063 OA 
HETATM   26  H1  UNK A   1      -8.990   2.414  65.282  1.00  0.00     0.000 HD 
HETATM   27  H2  UNK A   1      -9.489   4.015  65.413  1.00  0.00     0.000 HD 
ENDBRANCH  20  21
ENDBRANCH  19  20
ENDBRANCH  18  19
ENDBRANCH  17  18
ENDBRANCH  16  17
ENDBRANCH  15  16
ENDBRANCH  11  15
ENDBRANCH   7  10
ENDBRANCH   5   6
TORSDOF 9
ENDMDL
MODEL      304
REMARK 921   NORMALIZED FREE ENERGY PREDICTED BY IDOCK:   -3.18 KCAL/MOL
REMARK 922        TOTAL FREE ENERGY PREDICTED BY IDOCK:   -5.82 KCAL/MOL
REMARK 923 INTER-LIGAND FREE ENERGY PREDICTED BY IDOCK:   -7.11 KCAL/MOL
REMARK 924 INTRA-LIGAND FREE ENERGY PREDICTED BY IDOCK:    1.30 KCAL/MOL
REMARK 927      BINDING AFFINITY PREDICTED BY RF-SCORE:    0.00 PKD
ROOT
HETATM    1  C   UNK A   0     -11.912   5.440  72.786  1.00  0.00    -0.083 C  
HETATM    2  C   UNK A   0     -11.747   6.798  72.146  1.00  0.00    -0.332 C  
HETATM    3  C   UNK A   0     -12.011   6.866  70.662  1.00  0.00    -0.400 C  
HETATM    4  C   UNK A   0     -10.609   7.598  72.735  1.00  0.00    -0.381 C  
HETATM    5  C   UNK A   0     -12.984   7.535  71.617  1.00  0.00    -0.397 C  
ENDROOT
BRANCH   5   6
HETATM    6  C   UNK A   0     -13.084   9.030  71.536  1.00  0.00    -0.335 C  
HETATM    7  N   UNK A   1     -12.380   9.640  70.523  1.00  0.00    -0.481 N  
HETATM    8  O   UNK A   0     -13.709   9.650  72.387  1.00  0.00    -0.414 OA 
HETATM    9  H   UNK A   1     -11.874   9.017  69.893  1.00  0.00     0.000 HD 
BRANCH   7  10
HETATM   10  C   UNK A   1     -12.273  11.003  70.252  1.00  0.00    -0.363 C  
HETATM   11  C   UNK A   1     -11.556  11.446  69.188  1.00  0.00    -0.381 C  
HETATM   12  C   UNK A   1     -12.850  12.134  71.082  1.00  0.00    -0.217 C  
HETATM   13  O   UNK A   1     -12.923  11.918  72.409  1.00  0.00    -0.183 OA 
HETATM   14  O   UNK A   1     -13.072  13.243  70.614  1.00  0.00    -0.029 OA 
BRANCH  11  15
HETATM   15  C   UNK A   1     -10.774  10.615  68.217  1.00  0.00    -0.260 C  
BRANCH  15  16
HETATM   16  C   UNK A   1     -10.889  11.002  66.730  1.00  0.00    -0.307 C  
BRANCH  16  17
HETATM   17  C   UNK A   1     -11.748  12.272  66.666  1.00  0.00    -0.417 C  
BRANCH  17  18
HETATM   18  C   UNK A   1     -11.608  13.100  65.394  1.00  0.00    -0.333 C  
BRANCH  18  19
HETATM   19  S   UNK A   1     -10.372  14.402  65.760  1.00  0.00    -0.344 SA 
BRANCH  19  20
HETATM   20  C   UNK A   1     -10.705  14.649  67.536  1.00  0.00    -0.268 C  
BRANCH  20  21
HETATM   21  C   UNK A   1      -9.755  15.704  68.125  1.00  0.00    -0.204 C  
HETATM   22  N   UNK A   1     -10.421  17.033  68.318  1.00  0.00    -0.344 NA 
HETATM   23  C   UNK A   1      -8.600  15.887  67.140  1.00  0.00    -0.196 C  
HETATM   24  O   UNK A   1      -7.660  15.119  67.013  1.00  0.00    -0.199 OA 
HETATM   25  O   UNK A   1      -8.774  16.997  66.377  1.00  0.00    -0.247 OA 
HETATM   26  H1  UNK A   1      -9.791  17.734  68.709  1.00  0.00     0.000 HD 
HETATM   27  H2  UNK A   1     -11.264  16.942  68.884  1.00  0.00     0.000 HD 
ENDBRANCH  20  21
ENDBRANCH  19  20
ENDBRANCH  18  19
ENDBRANCH  17  18
ENDBRANCH  16  17
ENDBRANCH  15  16
ENDBRANCH  11  15
ENDBRANCH   7  10
ENDBRANCH   5   6
TORSDOF 9
ENDMDL
MODEL      305
REMARK 921   NORMALIZED FREE ENERGY PREDICTED BY IDOCK:   -3.14 KCAL/MOL
REMARK 922        TOTAL FREE ENERGY PREDICTED BY IDOCK:   -5.76 KCAL/MOL
REMARK 923 INTER-LIGAND FREE ENERGY PREDICTED BY IDOCK:   -5.16 KCAL/MOL
REMARK 924 INTRA-LIGAND FREE ENERGY PREDICTED BY IDOCK:   -0.60 KCAL/MOL
REMARK 927      BINDING AFFINITY PREDICTED BY RF-SCORE:    0.00 PKD
ROOT
HETATM    1  C   UNK A   0      -9.531   5.143  66.224  1.00  0.00    -0.164 C  
HETATM    2  C   UNK A   0      -9.664   5.974  67.478  1.00  0.00    -0.122 C  
HETATM    3  C   UNK A   0     -11.065   6.405  67.840  1.00  0.00    -0.370 C  
HETATM    4  C   UNK A   0      -8.517   6.935  67.679  1.00  0.00    -0.122 C  
HETATM    5  C   UNK A   0     -10.361   5.374  68.706  1.00  0.00    -0.240 C  
ENDROOT
BRANCH   5   6
HETATM    6  C   UNK A   0     -10.049   5.782  70.116  1.00  0.00    -0.212 C  
HETATM    7  N   UNK A   1      -8.785   6.270  70.350  1.00  0.00    -0.145 N  
HETATM    8  O   UNK A   0     -10.877   5.610  71.001  1.00  0.00    -0.260 OA 
HETATM    9  H   UNK A   1      -8.175   6.342  69.535  1.00  0.00     0.000 HD 
BRANCH   7  10
HETATM   10  C   UNK A   1      -8.233   6.678  71.563  1.00  0.00    -0.112 C  
HETATM   11  C   UNK A   1      -8.392   7.951  72.007  1.00  0.00    -0.161 C  
HETATM   12  C   UNK A   1      -7.374   5.838  72.489  1.00  0.00    -0.095 C  
HETATM   13  O   UNK A   1      -6.590   4.916  71.897  1.00  0.00    -0.035 OA 
HETATM   14  O   UNK A   1      -7.254   6.090  73.681  1.00  0.00    -0.087 OA 
BRANCH  11  15
HETATM   15  C   UNK A   1      -9.095   9.071  71.303  1.00  0.00    -0.302 C  
BRANCH  15  16
HETATM   16  C   UNK A   1     -10.635   9.062  71.360  1.00  0.00    -0.393 C  
BRANCH  16  17
HETATM   17  C   UNK A   1     -11.132   9.589  70.006  1.00  0.00    -0.268 C  
BRANCH  17  18
HETATM   18  C   UNK A   1     -10.920  11.078  69.760  1.00  0.00    -0.193 C  
BRANCH  18  19
HETATM   19  S   UNK A   1     -11.307  11.369  67.993  1.00  0.00    -0.312 SA 
BRANCH  19  20
HETATM   20  C   UNK A   1      -9.904  10.491  67.226  1.00  0.00    -0.177 C  
BRANCH  20  21
HETATM   21  C   UNK A   1      -9.367  11.275  66.019  1.00  0.00    -0.214 C  
HETATM   22  N   UNK A   1      -9.734  12.728  66.066  1.00  0.00    -0.338 NA 
HETATM   23  C   UNK A   1      -9.986  10.666  64.760  1.00  0.00    -0.327 C  
HETATM   24  O   UNK A   1      -9.628   9.624  64.237  1.00  0.00    -0.160 OA 
HETATM   25  O   UNK A   1     -11.034  11.411  64.317  1.00  0.00    -0.350 OA 
HETATM   26  H1  UNK A   1      -9.378  13.249  65.265  1.00  0.00     0.000 HD 
HETATM   27  H2  UNK A   1      -9.433  13.154  66.943  1.00  0.00     0.000 HD 
ENDBRANCH  20  21
ENDBRANCH  19  20
ENDBRANCH  18  19
ENDBRANCH  17  18
ENDBRANCH  16  17
ENDBRANCH  15  16
ENDBRANCH  11  15
ENDBRANCH   7  10
ENDBRANCH   5   6
TORSDOF 9
ENDMDL
MODEL      306
REMARK 921   NORMALIZED FREE ENERGY PREDICTED BY IDOCK:   -3.12 KCAL/MOL
REMARK 922        TOTAL FREE ENERGY PREDICTED BY IDOCK:   -5.74 KCAL/MOL
REMARK 923 INTER-LIGAND FREE ENERGY PREDICTED BY IDOCK:   -5.00 KCAL/MOL
REMARK 924 INTRA-LIGAND FREE ENERGY PREDICTED BY IDOCK:   -0.74 KCAL/MOL
REMARK 927      BINDING AFFINITY PREDICTED BY RF-SCORE:    0.00 PKD
ROOT
HETATM    1  C   UNK A   0     -11.050   7.480  72.958  1.00  0.00    -0.413 C  
HETATM    2  C   UNK A   0     -11.378   8.078  71.611  1.00  0.00    -0.306 C  
HETATM    3  C   UNK A   0     -11.884   9.500  71.625  1.00  0.00    -0.468 C  
HETATM    4  C   UNK A   0     -11.987   7.084  70.651  1.00  0.00    -0.361 C  
HETATM    5  C   UNK A   0     -10.504   9.212  71.059  1.00  0.00    -0.368 C  
ENDROOT
BRANCH   5   6
HETATM    6  C   UNK A   0     -10.312   9.470  69.594  1.00  0.00    -0.221 C  
HETATM    7  N   UNK A   1      -9.155   8.987  69.029  1.00  0.00    -0.142 N  
HETATM    8  O   UNK A   0     -11.130  10.142  68.978  1.00  0.00    -0.223 OA 
HETATM    9  H   UNK A   1      -8.538   8.465  69.652  1.00  0.00     0.000 HD 
BRANCH   7  10
HETATM   10  C   UNK A   1      -8.720   9.123  67.712  1.00  0.00    -0.121 C  
HETATM   11  C   UNK A   1      -8.103  10.258  67.297  1.00  0.00    -0.120 C  
HETATM   12  C   UNK A   1      -8.908   8.115  66.594  1.00  0.00    -0.143 C  
HETATM   13  O   UNK A   1     -10.028   7.370  66.649  1.00  0.00    -0.221 OA 
HETATM   14  O   UNK A   1      -8.189   8.094  65.603  1.00  0.00    -0.117 OA 
BRANCH  11  15
HETATM   15  C   UNK A   1      -7.842  11.492  68.106  1.00  0.00    -0.128 C  
BRANCH  15  16
HETATM   16  C   UNK A   1      -7.512  12.775  67.319  1.00  0.00    -0.101 C  
BRANCH  16  17
HETATM   17  C   UNK A   1      -7.637  13.945  68.305  1.00  0.00    -0.130 C  
BRANCH  17  18
HETATM   18  C   UNK A   1      -8.682  14.996  67.951  1.00  0.00    -0.155 C  
BRANCH  18  19
HETATM   19  S   UNK A   1      -9.489  15.471  69.526  1.00  0.00    -0.230 SA 
BRANCH  19  20
HETATM   20  C   UNK A   1     -11.069  14.579  69.340  1.00  0.00    -0.268 C  
BRANCH  20  21
HETATM   21  C   UNK A   1     -12.253  15.490  69.700  1.00  0.00    -0.270 C  
HETATM   22  N   UNK A   1     -12.139  16.852  69.085  1.00  0.00     0.417 NA 
HETATM   23  C   UNK A   1     -12.265  15.652  71.221  1.00  0.00    -0.415 C  
HETATM   24  O   UNK A   1     -12.674  14.817  72.011  1.00  0.00    -0.308 OA 
HETATM   25  O   UNK A   1     -11.711  16.835  71.595  1.00  0.00    -0.183 OA 
HETATM   26  H1  UNK A   1     -12.925  17.457  69.324  1.00  0.00     0.000 HD 
HETATM   27  H2  UNK A   1     -12.019  16.789  68.074  1.00  0.00     0.000 HD 
ENDBRANCH  20  21
ENDBRANCH  19  20
ENDBRANCH  18  19
ENDBRANCH  17  18
ENDBRANCH  16  17
ENDBRANCH  15  16
ENDBRANCH  11  15
ENDBRANCH   7  10
ENDBRANCH   5   6
TORSDOF 9
ENDMDL
MODEL      307
REMARK 921   NORMALIZED FREE ENERGY PREDICTED BY IDOCK:   -3.10 KCAL/MOL
REMARK 922        TOTAL FREE ENERGY PREDICTED BY IDOCK:   -5.70 KCAL/MOL
REMARK 923 INTER-LIGAND FREE ENERGY PREDICTED BY IDOCK:   -5.01 KCAL/MOL
REMARK 924 INTRA-LIGAND FREE ENERGY PREDICTED BY IDOCK:   -0.69 KCAL/MOL
REMARK 927      BINDING AFFINITY PREDICTED BY RF-SCORE:    0.00 PKD
ROOT
HETATM    1  C   UNK A   0     -10.269   3.256  64.186  1.00  0.00    -0.170 C  
HETATM    2  C   UNK A   0      -9.633   3.934  65.376  1.00  0.00    -0.185 C  
HETATM    3  C   UNK A   0      -8.571   4.959  65.063  1.00  0.00    -0.147 C  
HETATM    4  C   UNK A   0      -9.447   3.011  66.557  1.00  0.00    -0.029 C  
HETATM    5  C   UNK A   0      -9.903   5.423  65.626  1.00  0.00     0.064 C  
ENDROOT
BRANCH   5   6
HETATM    6  C   UNK A   0      -9.873   6.051  66.989  1.00  0.00    -0.152 C  
HETATM    7  N   UNK A   1      -8.783   6.838  67.281  1.00  0.00    -0.119 N  
HETATM    8  O   UNK A   0     -10.755   5.798  67.800  1.00  0.00    -0.250 OA 
HETATM    9  H   UNK A   1      -8.101   6.952  66.530  1.00  0.00     0.000 HD 
BRANCH   7  10
HETATM   10  C   UNK A   1      -8.494   7.497  68.474  1.00  0.00    -0.129 C  
HETATM   11  C   UNK A   1      -8.586   8.849  68.561  1.00  0.00    -0.133 C  
HETATM   12  C   UNK A   1      -8.008   6.858  69.761  1.00  0.00    -0.124 C  
HETATM   13  O   UNK A   1      -7.233   5.765  69.623  1.00  0.00    -0.066 OA 
HETATM   14  O   UNK A   1      -8.150   7.392  70.853  1.00  0.00    -0.103 OA 
BRANCH  11  15
HETATM   15  C   UNK A   1      -8.940   9.803  67.462  1.00  0.00    -0.138 C  
BRANCH  15  16
HETATM   16  C   UNK A   1      -9.445  11.194  67.892  1.00  0.00    -0.178 C  
BRANCH  16  17
HETATM   17  C   UNK A   1      -9.142  12.154  66.733  1.00  0.00    -0.205 C  
BRANCH  17  18
HETATM   18  C   UNK A   1      -9.580  13.598  66.943  1.00  0.00    -0.262 C  
BRANCH  18  19
HETATM   19  S   UNK A   1     -11.337  13.685  66.432  1.00  0.00    -0.326 SA 
BRANCH  19  20
HETATM   20  C   UNK A   1     -11.127  14.254  64.713  1.00  0.00    -0.391 C  
BRANCH  20  21
HETATM   21  C   UNK A   1     -11.788  13.273  63.731  1.00  0.00    -0.467 C  
HETATM   22  N   UNK A   1     -13.117  12.780  64.217  1.00  0.00    -0.600 NA 
HETATM   23  C   UNK A   1     -10.856  12.069  63.583  1.00  0.00    -0.446 C  
HETATM   24  O   UNK A   1      -9.839  12.050  62.911  1.00  0.00    -0.307 OA 
HETATM   25  O   UNK A   1     -11.277  11.024  64.344  1.00  0.00    -0.145 OA 
HETATM   26  H1  UNK A   1     -13.556  12.129  63.566  1.00  0.00     0.000 HD 
HETATM   27  H2  UNK A   1     -13.741  13.558  64.433  1.00  0.00     0.000 HD 
ENDBRANCH  20  21
ENDBRANCH  19  20
ENDBRANCH  18  19
ENDBRANCH  17  18
ENDBRANCH  16  17
ENDBRANCH  15  16
ENDBRANCH  11  15
ENDBRANCH   7  10
ENDBRANCH   5   6
TORSDOF 9
ENDMDL
MODEL      308
REMARK 921   NORMALIZED FREE ENERGY PREDICTED BY IDOCK:   -3.08 KCAL/MOL
REMARK 922        TOTAL FREE ENERGY PREDICTED BY IDOCK:   -5.67 KCAL/MOL
REMARK 923 INTER-LIGAND FREE ENERGY PREDICTED BY IDOCK:   -4.61 KCAL/MOL
REMARK 924 INTRA-LIGAND FREE ENERGY PREDICTED BY IDOCK:   -1.05 KCAL/MOL
REMARK 927      BINDING AFFINITY PREDICTED BY RF-SCORE:    0.00 PKD
ROOT
HETATM    1  C   UNK A   0     -12.569  14.628  65.965  1.00  0.00     0.034 C  
HETATM    2  C   UNK A   0     -11.783  13.420  66.417  1.00  0.00    -0.409 C  
HETATM    3  C   UNK A   0     -10.542  13.704  67.228  1.00  0.00    -0.267 C  
HETATM    4  C   UNK A   0     -11.764  12.307  65.396  1.00  0.00    -0.424 C  
HETATM    5  C   UNK A   0     -11.741  13.066  67.910  1.00  0.00    -0.402 C  
ENDROOT
BRANCH   5   6
HETATM    6  C   UNK A   0     -11.556  11.668  68.423  1.00  0.00    -0.312 C  
HETATM    7  N   UNK A   1     -10.480  11.454  69.253  1.00  0.00    -0.406 N  
HETATM    8  O   UNK A   0     -12.300  10.772  68.045  1.00  0.00    -0.034 OA 
HETATM    9  H   UNK A   1      -9.916  12.276  69.475  1.00  0.00     0.000 HD 
BRANCH   7  10
HETATM   10  C   UNK A   1     -10.064  10.255  69.829  1.00  0.00    -0.203 C  
HETATM   11  C   UNK A   1      -9.053   9.534  69.281  1.00  0.00    -0.161 C  
HETATM   12  C   UNK A   1     -10.674   9.581  71.044  1.00  0.00    -0.340 C  
HETATM   13  O   UNK A   1     -11.998   9.758  71.217  1.00  0.00    -0.329 OA 
HETATM   14  O   UNK A   1     -10.053   8.779  71.729  1.00  0.00    -0.277 OA 
BRANCH  11  15
HETATM   15  C   UNK A   1      -8.294   9.850  68.028  1.00  0.00    -0.113 C  
BRANCH  15  16
HETATM   16  C   UNK A   1      -7.791   8.648  67.206  1.00  0.00    -0.097 C  
BRANCH  16  17
HETATM   17  C   UNK A   1      -8.924   7.613  67.193  1.00  0.00    -0.137 C  
BRANCH  17  18
HETATM   18  C   UNK A   1      -8.524   6.204  66.774  1.00  0.00    -0.111 C  
BRANCH  18  19
HETATM   19  S   UNK A   1      -9.329   5.065  67.962  1.00  0.00    -0.131 SA 
BRANCH  19  20
HETATM   20  C   UNK A   1      -9.226   6.080  69.474  1.00  0.00    -0.136 C  
BRANCH  20  21
HETATM   21  C   UNK A   1      -8.237   5.463  70.476  1.00  0.00    -0.110 C  
HETATM   22  N   UNK A   1      -8.500   5.899  71.886  1.00  0.00    -0.126 NA 
HETATM   23  C   UNK A   1      -6.834   5.929  70.085  1.00  0.00    -0.053 C  
HETATM   24  O   UNK A   1      -6.177   5.473  69.164  1.00  0.00    -0.026 OA 
HETATM   25  O   UNK A   1      -6.421   6.961  70.868  1.00  0.00    -0.046 OA 
HETATM   26  H1  UNK A   1      -7.844   5.491  72.552  1.00  0.00     0.000 HD 
HETATM   27  H2  UNK A   1      -9.464   5.705  72.156  1.00  0.00     0.000 HD 
ENDBRANCH  20  21
ENDBRANCH  19  20
ENDBRANCH  18  19
ENDBRANCH  17  18
ENDBRANCH  16  17
ENDBRANCH  15  16
ENDBRANCH  11  15
ENDBRANCH   7  10
ENDBRANCH   5   6
TORSDOF 9
ENDMDL
MODEL      309
REMARK 921   NORMALIZED FREE ENERGY PREDICTED BY IDOCK:   -3.03 KCAL/MOL
REMARK 922        TOTAL FREE ENERGY PREDICTED BY IDOCK:   -5.59 KCAL/MOL
REMARK 923 INTER-LIGAND FREE ENERGY PREDICTED BY IDOCK:   -5.30 KCAL/MOL
REMARK 924 INTRA-LIGAND FREE ENERGY PREDICTED BY IDOCK:   -0.29 KCAL/MOL
REMARK 927      BINDING AFFINITY PREDICTED BY RF-SCORE:    0.00 PKD
ROOT
HETATM    1  C   UNK A   0      -5.716   9.861  67.770  1.00  0.00    -0.039 C  
HETATM    2  C   UNK A   0      -6.583  11.067  67.497  1.00  0.00    -0.068 C  
HETATM    3  C   UNK A   0      -7.518  10.955  66.317  1.00  0.00    -0.129 C  
HETATM    4  C   UNK A   0      -5.882  12.377  67.766  1.00  0.00    -0.110 C  
HETATM    5  C   UNK A   0      -8.098  10.969  67.721  1.00  0.00    -0.116 C  
ENDROOT
BRANCH   5   6
HETATM    6  C   UNK A   0      -8.958  12.146  68.080  1.00  0.00    -0.189 C  
HETATM    7  N   UNK A   1      -8.651  13.341  67.472  1.00  0.00    -0.188 N  
HETATM    8  O   UNK A   0      -9.833  12.029  68.928  1.00  0.00    -0.095 OA 
HETATM    9  H   UNK A   1      -7.881  13.317  66.803  1.00  0.00     0.000 HD 
BRANCH   7  10
HETATM   10  C   UNK A   1      -9.261  14.580  67.657  1.00  0.00    -0.195 C  
HETATM   11  C   UNK A   1      -8.744  15.487  68.525  1.00  0.00    -0.184 C  
HETATM   12  C   UNK A   1     -10.546  15.057  67.007  1.00  0.00    -0.293 C  
HETATM   13  O   UNK A   1     -11.467  14.109  66.748  1.00  0.00    -0.337 OA 
HETATM   14  O   UNK A   1     -10.818  16.244  66.886  1.00  0.00    -0.271 OA 
BRANCH  11  15
HETATM   15  C   UNK A   1      -7.545  15.312  69.406  1.00  0.00    -0.219 C  
BRANCH  15  16
HETATM   16  C   UNK A   1      -6.180  15.684  68.795  1.00  0.00    -0.103 C  
BRANCH  16  17
HETATM   17  C   UNK A   1      -6.269  17.156  68.372  1.00  0.00    -0.147 C  
BRANCH  17  18
HETATM   18  C   UNK A   1      -6.765  18.120  69.442  1.00  0.00    -0.167 C  
BRANCH  18  19
HETATM   19  S   UNK A   1      -6.390  19.807  68.832  1.00  0.00    -0.310 SA 
BRANCH  19  20
HETATM   20  C   UNK A   1      -7.070  19.678  67.144  1.00  0.00    -0.204 C  
BRANCH  20  21
HETATM   21  C   UNK A   1      -8.353  18.832  67.138  1.00  0.00    -0.271 C  
HETATM   22  N   UNK A   1      -8.428  17.908  65.960  1.00  0.00    -0.521 NA 
HETATM   23  C   UNK A   1      -9.540  19.794  67.067  1.00  0.00    -0.369 C  
HETATM   24  O   UNK A   1      -9.975  20.439  68.006  1.00  0.00    -0.368 OA 
HETATM   25  O   UNK A   1     -10.026  19.884  65.801  1.00  0.00    -0.408 OA 
HETATM   26  H1  UNK A   1      -9.279  17.347  65.955  1.00  0.00     0.000 HD 
HETATM   27  H2  UNK A   1      -7.599  17.317  65.905  1.00  0.00     0.000 HD 
ENDBRANCH  20  21
ENDBRANCH  19  20
ENDBRANCH  18  19
ENDBRANCH  17  18
ENDBRANCH  16  17
ENDBRANCH  15  16
ENDBRANCH  11  15
ENDBRANCH   7  10
ENDBRANCH   5   6
TORSDOF 9
ENDMDL
MODEL      310
REMARK 921   NORMALIZED FREE ENERGY PREDICTED BY IDOCK:   -3.01 KCAL/MOL
REMARK 922        TOTAL FREE ENERGY PREDICTED BY IDOCK:   -5.57 KCAL/MOL
REMARK 923 INTER-LIGAND FREE ENERGY PREDICTED BY IDOCK:   -5.03 KCAL/MOL
REMARK 924 INTRA-LIGAND FREE ENERGY PREDICTED BY IDOCK:   -0.54 KCAL/MOL
REMARK 927      BINDING AFFINITY PREDICTED BY RF-SCORE:    0.00 PKD
ROOT
HETATM    1  C   UNK A   0      -8.517  12.083  66.022  1.00  0.00     0.271 C  
HETATM    2  C   UNK A   0      -9.610  11.114  66.407  1.00  0.00    -0.227 C  
HETATM    3  C   UNK A   0      -9.284   9.650  66.240  1.00  0.00    -0.213 C  
HETATM    4  C   UNK A   0     -10.994  11.611  66.062  1.00  0.00    -0.338 C  
HETATM    5  C   UNK A   0      -9.422  10.222  67.641  1.00  0.00    -0.169 C  
ENDROOT
BRANCH   5   6
HETATM    6  C   UNK A   0     -10.562   9.703  68.468  1.00  0.00    -0.220 C  
HETATM    7  N   UNK A   1     -10.237   8.863  69.508  1.00  0.00    -0.199 N  
HETATM    8  O   UNK A   0     -11.716   9.976  68.160  1.00  0.00    -0.096 OA 
HETATM    9  H   UNK A   1      -9.241   8.690  69.647  1.00  0.00     0.000 HD 
BRANCH   7  10
HETATM   10  C   UNK A   1     -11.098   8.220  70.394  1.00  0.00    -0.235 C  
HETATM   11  C   UNK A   1     -11.521   6.953  70.157  1.00  0.00    -0.354 C  
HETATM   12  C   UNK A   1     -11.707   8.816  71.649  1.00  0.00    -0.332 C  
HETATM   13  O   UNK A   1     -11.962  10.138  71.614  1.00  0.00    -0.361 OA 
HETATM   14  O   UNK A   1     -12.114   8.124  72.573  1.00  0.00    -0.365 OA 
BRANCH  11  15
HETATM   15  C   UNK A   1     -11.199   6.101  68.967  1.00  0.00    -0.375 C  
BRANCH  15  16
HETATM   16  C   UNK A   1     -10.306   4.871  69.220  1.00  0.00    -0.120 C  
BRANCH  16  17
HETATM   17  C   UNK A   1      -9.751   5.011  70.644  1.00  0.00    -0.266 C  
BRANCH  17  18
HETATM   18  C   UNK A   1      -9.057   3.776  71.206  1.00  0.00    -0.116 C  
BRANCH  18  19
HETATM   19  S   UNK A   1      -8.774   4.108  72.985  1.00  0.00    -0.099 SA 
BRANCH  19  20
HETATM   20  C   UNK A   1      -8.083   5.792  72.875  1.00  0.00    -0.115 C  
BRANCH  20  21
HETATM   21  C   UNK A   1      -8.367   6.582  74.162  1.00  0.00    -0.126 C  
HETATM   22  N   UNK A   1      -9.759   7.136  74.202  1.00  0.00    -0.394 NA 
HETATM   23  C   UNK A   1      -7.385   7.753  74.212  1.00  0.00    -0.143 C  
HETATM   24  O   UNK A   1      -6.210   7.668  74.529  1.00  0.00    -0.087 OA 
HETATM   25  O   UNK A   1      -7.974   8.908  73.805  1.00  0.00    -0.354 OA 
HETATM   26  H1  UNK A   1      -9.949   7.660  75.056  1.00  0.00     0.000 HD 
HETATM   27  H2  UNK A   1     -10.451   6.399  74.063  1.00  0.00     0.000 HD 
ENDBRANCH  20  21
ENDBRANCH  19  20
ENDBRANCH  18  19
ENDBRANCH  17  18
ENDBRANCH  16  17
ENDBRANCH  15  16
ENDBRANCH  11  15
ENDBRANCH   7  10
ENDBRANCH   5   6
TORSDOF 9
ENDMDL
MODEL      311
REMARK 921   NORMALIZED FREE ENERGY PREDICTED BY IDOCK:   -2.97 KCAL/MOL
REMARK 922        TOTAL FREE ENERGY PREDICTED BY IDOCK:   -5.49 KCAL/MOL
REMARK 923 INTER-LIGAND FREE ENERGY PREDICTED BY IDOCK:   -5.40 KCAL/MOL
REMARK 924 INTRA-LIGAND FREE ENERGY PREDICTED BY IDOCK:   -0.09 KCAL/MOL
REMARK 927      BINDING AFFINITY PREDICTED BY RF-SCORE:    0.00 PKD
ROOT
HETATM    1  C   UNK A   0     -10.216  13.631  64.560  1.00  0.00    -0.253 C  
HETATM    2  C   UNK A   0     -10.938  12.519  65.283  1.00  0.00    -0.329 C  
HETATM    3  C   UNK A   0     -10.419  11.124  65.036  1.00  0.00    -0.357 C  
HETATM    4  C   UNK A   0     -12.427  12.749  65.390  1.00  0.00    -0.478 C  
HETATM    5  C   UNK A   0     -10.217  11.758  66.402  1.00  0.00    -0.248 C  
ENDROOT
BRANCH   5   6
HETATM    6  C   UNK A   0     -10.928  11.111  67.554  1.00  0.00    -0.275 C  
HETATM    7  N   UNK A   1     -10.176  10.284  68.357  1.00  0.00    -0.160 N  
HETATM    8  O   UNK A   0     -12.133  11.274  67.700  1.00  0.00    -0.600 OA 
HETATM    9  H   UNK A   1      -9.188  10.207  68.116  1.00  0.00     0.000 HD 
BRANCH   7  10
HETATM   10  C   UNK A   1     -10.598   9.539  69.456  1.00  0.00    -0.221 C  
HETATM   11  C   UNK A   1     -10.690   8.187  69.386  1.00  0.00    -0.164 C  
HETATM   12  C   UNK A   1     -11.047  10.089  70.797  1.00  0.00    -0.334 C  
HETATM   13  O   UNK A   1     -11.664  11.286  70.770  1.00  0.00    -0.276 OA 
HETATM   14  O   UNK A   1     -11.022   9.420  71.821  1.00  0.00    -0.363 OA 
BRANCH  11  15
HETATM   15  C   UNK A   1     -10.422   7.324  68.191  1.00  0.00    -0.244 C  
BRANCH  15  16
HETATM   16  C   UNK A   1      -9.939   5.888  68.472  1.00  0.00    -0.185 C  
BRANCH  16  17
HETATM   17  C   UNK A   1      -9.548   5.833  69.955  1.00  0.00    -0.206 C  
BRANCH  17  18
HETATM   18  C   UNK A   1      -9.941   4.559  70.694  1.00  0.00    -0.203 C  
BRANCH  18  19
HETATM   19  S   UNK A   1      -8.392   3.863  71.381  1.00  0.00    -0.077 SA 
BRANCH  19  20
HETATM   20  C   UNK A   1      -7.451   3.631  69.836  1.00  0.00    -0.045 C  
BRANCH  20  21
HETATM   21  C   UNK A   1      -7.507   2.165  69.379  1.00  0.00    -0.043 C  
HETATM   22  N   UNK A   1      -6.146   1.580  69.151  1.00  0.00    -0.024 NA 
HETATM   23  C   UNK A   1      -8.273   2.123  68.056  1.00  0.00    -0.059 C  
HETATM   24  O   UNK A   1      -9.486   2.199  67.946  1.00  0.00    -0.198 OA 
HETATM   25  O   UNK A   1      -7.424   2.040  66.998  1.00  0.00    -0.059 OA 
HETATM   26  H1  UNK A   1      -6.183   0.607  68.848  1.00  0.00     0.000 HD 
HETATM   27  H2  UNK A   1      -5.559   1.684  69.979  1.00  0.00     0.000 HD 
ENDBRANCH  20  21
ENDBRANCH  19  20
ENDBRANCH  18  19
ENDBRANCH  17  18
ENDBRANCH  16  17
ENDBRANCH  15  16
ENDBRANCH  11  15
ENDBRANCH   7  10
ENDBRANCH   5   6
TORSDOF 9
ENDMDL
MODEL      312
REMARK 921   NORMALIZED FREE ENERGY PREDICTED BY IDOCK:   -2.96 KCAL/MOL
REMARK 922        TOTAL FREE ENERGY PREDICTED BY IDOCK:   -5.48 KCAL/MOL
REMARK 923 INTER-LIGAND FREE ENERGY PREDICTED BY IDOCK:   -4.57 KCAL/MOL
REMARK 924 INTRA-LIGAND FREE ENERGY PREDICTED BY IDOCK:   -0.91 KCAL/MOL
REMARK 927      BINDING AFFINITY PREDICTED BY RF-SCORE:    0.00 PKD
ROOT
HETATM    1  C   UNK A   0      -6.344   6.812  71.654  1.00  0.00    -0.042 C  
HETATM    2  C   UNK A   0      -6.597   8.055  70.833  1.00  0.00    -0.037 C  
HETATM    3  C   UNK A   0      -5.374   8.845  70.436  1.00  0.00    -0.020 C  
HETATM    4  C   UNK A   0      -7.855   8.788  71.235  1.00  0.00    -0.167 C  
HETATM    5  C   UNK A   0      -6.147   8.091  69.367  1.00  0.00    -0.034 C  
ENDROOT
BRANCH   5   6
HETATM    6  C   UNK A   0      -6.821   8.922  68.315  1.00  0.00    -0.065 C  
HETATM    7  N   UNK A   1      -7.523   8.241  67.348  1.00  0.00    -0.092 N  
HETATM    8  O   UNK A   0      -6.674  10.138  68.307  1.00  0.00    -0.054 OA 
HETATM    9  H   UNK A   1      -7.551   7.226  67.448  1.00  0.00     0.000 HD 
BRANCH   7  10
HETATM   10  C   UNK A   1      -8.200   8.765  66.248  1.00  0.00    -0.115 C  
HETATM   11  C   UNK A   1      -9.552   8.680  66.159  1.00  0.00    -0.305 C  
HETATM   12  C   UNK A   1      -7.572   9.418  65.032  1.00  0.00    -0.109 C  
HETATM   13  O   UNK A   1      -6.364   8.949  64.665  1.00  0.00    -0.066 OA 
HETATM   14  O   UNK A   1      -8.188  10.194  64.312  1.00  0.00    -0.156 OA 
BRANCH  11  15
HETATM   15  C   UNK A   1     -10.481   8.015  67.128  1.00  0.00    -0.408 C  
BRANCH  15  16
HETATM   16  C   UNK A   1     -10.524   8.600  68.553  1.00  0.00    -0.209 C  
BRANCH  16  17
HETATM   17  C   UNK A   1     -11.303   9.920  68.469  1.00  0.00    -0.049 C  
BRANCH  17  18
HETATM   18  C   UNK A   1     -10.455  11.175  68.301  1.00  0.00    -0.191 C  
BRANCH  18  19
HETATM   19  S   UNK A   1     -11.603  12.596  68.451  1.00  0.00    -0.347 SA 
BRANCH  19  20
HETATM   20  C   UNK A   1     -10.462  13.954  68.029  1.00  0.00    -0.243 C  
BRANCH  20  21
HETATM   21  C   UNK A   1     -11.076  14.866  66.954  1.00  0.00    -0.337 C  
HETATM   22  N   UNK A   1     -12.404  14.368  66.468  1.00  0.00    -0.484 NA 
HETATM   23  C   UNK A   1     -10.113  14.894  65.767  1.00  0.00    -0.341 C  
HETATM   24  O   UNK A   1      -9.080  15.541  65.718  1.00  0.00    -0.286 OA 
HETATM   25  O   UNK A   1     -10.526  14.058  64.777  1.00  0.00    -0.413 OA 
HETATM   26  H1  UNK A   1     -12.812  14.973  65.755  1.00  0.00     0.000 HD 
HETATM   27  H2  UNK A   1     -13.051  14.231  67.245  1.00  0.00     0.000 HD 
ENDBRANCH  20  21
ENDBRANCH  19  20
ENDBRANCH  18  19
ENDBRANCH  17  18
ENDBRANCH  16  17
ENDBRANCH  15  16
ENDBRANCH  11  15
ENDBRANCH   7  10
ENDBRANCH   5   6
TORSDOF 9
ENDMDL
MODEL      313
REMARK 921   NORMALIZED FREE ENERGY PREDICTED BY IDOCK:   -2.95 KCAL/MOL
REMARK 922        TOTAL FREE ENERGY PREDICTED BY IDOCK:   -5.46 KCAL/MOL
REMARK 923 INTER-LIGAND FREE ENERGY PREDICTED BY IDOCK:   -4.96 KCAL/MOL
REMARK 924 INTRA-LIGAND FREE ENERGY PREDICTED BY IDOCK:   -0.51 KCAL/MOL
REMARK 927      BINDING AFFINITY PREDICTED BY RF-SCORE:    0.00 PKD
ROOT
HETATM    1  C   UNK A   0      -7.577  14.775  69.845  1.00  0.00     0.113 C  
HETATM    2  C   UNK A   0      -8.305  14.723  68.523  1.00  0.00    -0.160 C  
HETATM    3  C   UNK A   0      -8.532  13.346  67.947  1.00  0.00    -0.173 C  
HETATM    4  C   UNK A   0      -7.945  15.863  67.600  1.00  0.00    -0.163 C  
HETATM    5  C   UNK A   0      -9.721  14.135  68.468  1.00  0.00    -0.219 C  
ENDROOT
BRANCH   5   6
HETATM    6  C   UNK A   0     -10.749  14.547  67.454  1.00  0.00    -0.282 C  
HETATM    7  N   UNK A   1     -10.647  13.976  66.207  1.00  0.00    -0.279 N  
HETATM    8  O   UNK A   0     -11.577  15.404  67.735  1.00  0.00    -0.322 OA 
HETATM    9  H   UNK A   1      -9.897  13.294  66.088  1.00  0.00     0.000 HD 
BRANCH   7  10
HETATM   10  C   UNK A   1     -11.441  14.213  65.087  1.00  0.00    -0.336 C  
HETATM   11  C   UNK A   1     -11.972  13.183  64.380  1.00  0.00    -0.454 C  
HETATM   12  C   UNK A   1     -11.766  15.566  64.484  1.00  0.00    -0.253 C  
HETATM   13  O   UNK A   1     -10.813  16.511  64.600  1.00  0.00    -0.741 OA 
HETATM   14  O   UNK A   1     -12.750  15.751  63.780  1.00  0.00    -0.582 OA 
BRANCH  11  15
HETATM   15  C   UNK A   1     -11.775  11.719  64.631  1.00  0.00    -0.241 C  
BRANCH  15  16
HETATM   16  C   UNK A   1     -10.581  11.052  63.921  1.00  0.00    -0.382 C  
BRANCH  16  17
HETATM   17  C   UNK A   1      -9.308  11.670  64.517  1.00  0.00     0.036 C  
BRANCH  17  18
HETATM   18  C   UNK A   1      -8.308  10.682  65.103  1.00  0.00    -0.117 C  
BRANCH  18  19
HETATM   19  S   UNK A   1      -9.098   9.032  65.011  1.00  0.00    -0.028 SA 
BRANCH  19  20
HETATM   20  C   UNK A   1      -8.072   8.275  63.706  1.00  0.00    -0.126 C  
BRANCH  20  21
HETATM   21  C   UNK A   1      -6.766   7.719  64.295  1.00  0.00    -0.056 C  
HETATM   22  N   UNK A   1      -5.563   8.096  63.485  1.00  0.00    -0.057 NA 
HETATM   23  C   UNK A   1      -6.877   6.194  64.305  1.00  0.00    -0.042 C  
HETATM   24  O   UNK A   1      -7.515   5.543  65.116  1.00  0.00    -0.070 OA 
HETATM   25  O   UNK A   1      -6.211   5.645  63.254  1.00  0.00    -0.024 OA 
HETATM   26  H1  UNK A   1      -4.696   7.727  63.875  1.00  0.00     0.000 HD 
HETATM   27  H2  UNK A   1      -5.507   9.107  63.359  1.00  0.00     0.000 HD 
ENDBRANCH  20  21
ENDBRANCH  19  20
ENDBRANCH  18  19
ENDBRANCH  17  18
ENDBRANCH  16  17
ENDBRANCH  15  16
ENDBRANCH  11  15
ENDBRANCH   7  10
ENDBRANCH   5   6
TORSDOF 9
ENDMDL
MODEL      314
REMARK 921   NORMALIZED FREE ENERGY PREDICTED BY IDOCK:   -2.93 KCAL/MOL
REMARK 922        TOTAL FREE ENERGY PREDICTED BY IDOCK:   -5.43 KCAL/MOL
REMARK 923 INTER-LIGAND FREE ENERGY PREDICTED BY IDOCK:   -3.90 KCAL/MOL
REMARK 924 INTRA-LIGAND FREE ENERGY PREDICTED BY IDOCK:   -1.53 KCAL/MOL
REMARK 927      BINDING AFFINITY PREDICTED BY RF-SCORE:    0.00 PKD
ROOT
HETATM    1  C   UNK A   0     -10.625   3.794  64.190  1.00  0.00    -0.263 C  
HETATM    2  C   UNK A   0      -9.673   4.111  65.319  1.00  0.00    -0.200 C  
HETATM    3  C   UNK A   0      -8.952   5.433  65.223  1.00  0.00    -0.104 C  
HETATM    4  C   UNK A   0      -8.933   2.898  65.831  1.00  0.00    -0.145 C  
HETATM    5  C   UNK A   0     -10.014   5.246  66.293  1.00  0.00    -0.216 C  
ENDROOT
BRANCH   5   6
HETATM    6  C   UNK A   0      -9.544   5.281  67.718  1.00  0.00    -0.133 C  
HETATM    7  N   UNK A   1      -8.299   5.821  67.943  1.00  0.00    -0.104 N  
HETATM    8  O   UNK A   0     -10.229   4.780  68.601  1.00  0.00    -0.106 OA 
HETATM    9  H   UNK A   1      -7.814   6.182  67.121  1.00  0.00     0.000 HD 
BRANCH   7  10
HETATM   10  C   UNK A   1      -7.620   5.936  69.154  1.00  0.00    -0.090 C  
HETATM   11  C   UNK A   1      -7.556   7.125  69.805  1.00  0.00    -0.103 C  
HETATM   12  C   UNK A   1      -6.845   4.839  69.859  1.00  0.00    -0.048 C  
HETATM   13  O   UNK A   1      -6.248   3.931  69.064  1.00  0.00    -0.027 OA 
HETATM   14  O   UNK A   1      -6.616   4.867  71.061  1.00  0.00    -0.029 OA 
BRANCH  11  15
HETATM   15  C   UNK A   1      -8.121   8.436  69.350  1.00  0.00    -0.114 C  
BRANCH  15  16
HETATM   16  C   UNK A   1      -9.230   9.050  70.226  1.00  0.00    -0.229 C  
BRANCH  16  17
HETATM   17  C   UNK A   1     -10.536   8.334  69.856  1.00  0.00    -0.232 C  
BRANCH  17  18
HETATM   18  C   UNK A   1     -11.730   8.636  70.753  1.00  0.00    -0.210 C  
BRANCH  18  19
HETATM   19  S   UNK A   1     -11.235   8.153  72.450  1.00  0.00    -0.397 SA 
BRANCH  19  20
HETATM   20  C   UNK A   1     -11.421   6.343  72.318  1.00  0.00    -0.298 C  
BRANCH  20  21
HETATM   21  C   UNK A   1     -10.347   5.624  73.149  1.00  0.00    -0.203 C  
HETATM   22  N   UNK A   1      -8.955   5.991  72.730  1.00  0.00    -0.124 NA 
HETATM   23  C   UNK A   1     -10.529   4.121  72.936  1.00  0.00    -0.172 C  
HETATM   24  O   UNK A   1     -11.389   3.438  73.467  1.00  0.00    -0.230 OA 
HETATM   25  O   UNK A   1      -9.635   3.639  72.033  1.00  0.00    -0.126 OA 
HETATM   26  H1  UNK A   1      -8.241   5.514  73.281  1.00  0.00     0.000 HD 
HETATM   27  H2  UNK A   1      -8.820   7.002  72.753  1.00  0.00     0.000 HD 
ENDBRANCH  20  21
ENDBRANCH  19  20
ENDBRANCH  18  19
ENDBRANCH  17  18
ENDBRANCH  16  17
ENDBRANCH  15  16
ENDBRANCH  11  15
ENDBRANCH   7  10
ENDBRANCH   5   6
TORSDOF 9
ENDMDL
MODEL      315
REMARK 921   NORMALIZED FREE ENERGY PREDICTED BY IDOCK:   -2.90 KCAL/MOL
REMARK 922        TOTAL FREE ENERGY PREDICTED BY IDOCK:   -5.40 KCAL/MOL
REMARK 923 INTER-LIGAND FREE ENERGY PREDICTED BY IDOCK:   -7.00 KCAL/MOL
REMARK 924 INTRA-LIGAND FREE ENERGY PREDICTED BY IDOCK:    1.60 KCAL/MOL
REMARK 927      BINDING AFFINITY PREDICTED BY RF-SCORE:    0.00 PKD
ROOT
HETATM    1  C   UNK A   0     -14.400  15.309  71.229  1.00  0.00    -0.488 C  
HETATM    2  C   UNK A   0     -13.209  14.383  71.304  1.00  0.00    -0.416 C  
HETATM    3  C   UNK A   0     -12.770  13.983  72.691  1.00  0.00    -0.324 C  
HETATM    4  C   UNK A   0     -12.167  14.669  70.249  1.00  0.00    -0.389 C  
HETATM    5  C   UNK A   0     -13.408  12.941  71.788  1.00  0.00    -0.451 C  
ENDROOT
BRANCH   5   6
HETATM    6  C   UNK A   0     -12.535  11.798  71.361  1.00  0.00    -0.175 C  
HETATM    7  N   UNK A   1     -11.732  12.012  70.264  1.00  0.00    -0.530 N  
HETATM    8  O   UNK A   0     -12.612  10.720  71.936  1.00  0.00    -0.331 OA 
HETATM    9  H   UNK A   1     -11.777  12.946  69.854  1.00  0.00     0.000 HD 
BRANCH   7  10
HETATM   10  C   UNK A   1     -10.866  11.113  69.645  1.00  0.00    -0.142 C  
HETATM   11  C   UNK A   1     -10.144  11.481  68.557  1.00  0.00    -0.211 C  
HETATM   12  C   UNK A   1     -10.652   9.661  70.028  1.00  0.00    -0.260 C  
HETATM   13  O   UNK A   1     -11.721   9.018  70.534  1.00  0.00    -0.234 OA 
HETATM   14  O   UNK A   1      -9.634   9.049  69.734  1.00  0.00    -0.165 OA 
BRANCH  11  15
HETATM   15  C   UNK A   1     -10.182  12.802  67.851  1.00  0.00    -0.229 C  
BRANCH  15  16
HETATM   16  C   UNK A   1      -8.854  13.300  67.247  1.00  0.00    -0.216 C  
BRANCH  16  17
HETATM   17  C   UNK A   1      -8.561  14.665  67.883  1.00  0.00    -0.165 C  
BRANCH  17  18
HETATM   18  C   UNK A   1      -7.699  15.608  67.052  1.00  0.00    -0.222 C  
BRANCH  18  19
HETATM   19  S   UNK A   1      -8.834  16.451  65.887  1.00  0.00     0.027 SA 
BRANCH  19  20
HETATM   20  C   UNK A   1      -8.559  18.182  66.393  1.00  0.00    -0.229 C  
BRANCH  20  21
HETATM   21  C   UNK A   1      -9.861  18.807  66.919  1.00  0.00    -0.334 C  
HETATM   22  N   UNK A   1     -10.628  19.524  65.849  1.00  0.00    -0.510 NA 
HETATM   23  C   UNK A   1      -9.482  19.823  67.997  1.00  0.00    -0.365 C  
HETATM   24  O   UNK A   1      -9.160  19.544  69.141  1.00  0.00    -0.312 OA 
HETATM   25  O   UNK A   1      -9.498  21.091  67.508  1.00  0.00    -0.324 OA 
HETATM   26  H1  UNK A   1     -11.492  19.940  66.197  1.00  0.00     0.000 HD 
HETATM   27  H2  UNK A   1     -10.811  18.910  65.055  1.00  0.00     0.000 HD 
ENDBRANCH  20  21
ENDBRANCH  19  20
ENDBRANCH  18  19
ENDBRANCH  17  18
ENDBRANCH  16  17
ENDBRANCH  15  16
ENDBRANCH  11  15
ENDBRANCH   7  10
ENDBRANCH   5   6
TORSDOF 9
ENDMDL
MODEL      316
REMARK 921   NORMALIZED FREE ENERGY PREDICTED BY IDOCK:   -2.89 KCAL/MOL
REMARK 922        TOTAL FREE ENERGY PREDICTED BY IDOCK:   -5.37 KCAL/MOL
REMARK 923 INTER-LIGAND FREE ENERGY PREDICTED BY IDOCK:   -4.76 KCAL/MOL
REMARK 924 INTRA-LIGAND FREE ENERGY PREDICTED BY IDOCK:   -0.61 KCAL/MOL
REMARK 927      BINDING AFFINITY PREDICTED BY RF-SCORE:    0.00 PKD
ROOT
HETATM    1  C   UNK A   0     -11.638  14.890  67.614  1.00  0.00    -0.357 C  
HETATM    2  C   UNK A   0     -10.901  13.715  68.211  1.00  0.00    -0.268 C  
HETATM    3  C   UNK A   0     -11.200  13.414  69.660  1.00  0.00    -0.115 C  
HETATM    4  C   UNK A   0      -9.485  13.579  67.702  1.00  0.00    -0.222 C  
HETATM    5  C   UNK A   0     -11.684  12.451  68.590  1.00  0.00    -0.372 C  
ENDROOT
BRANCH   5   6
HETATM    6  C   UNK A   0     -11.080  11.077  68.601  1.00  0.00    -0.240 C  
HETATM    7  N   UNK A   1     -10.271  10.768  69.670  1.00  0.00    -0.436 N  
HETATM    8  O   UNK A   0     -11.262  10.320  67.656  1.00  0.00    -0.307 OA 
HETATM    9  H   UNK A   1     -10.176  11.493  70.382  1.00  0.00     0.000 HD 
BRANCH   7  10
HETATM   10  C   UNK A   1      -9.565   9.589  69.900  1.00  0.00    -0.223 C  
HETATM   11  C   UNK A   1      -8.210   9.565  69.830  1.00  0.00    -0.156 C  
HETATM   12  C   UNK A   1     -10.161   8.224  70.188  1.00  0.00    -0.199 C  
HETATM   13  O   UNK A   1     -11.348   7.962  69.607  1.00  0.00    -0.019 OA 
HETATM   14  O   UNK A   1      -9.535   7.342  70.760  1.00  0.00    -0.166 OA 
BRANCH  11  15
HETATM   15  C   UNK A   1      -7.303  10.703  69.472  1.00  0.00    -0.141 C  
BRANCH  15  16
HETATM   16  C   UNK A   1      -6.263  10.435  68.367  1.00  0.00    -0.047 C  
BRANCH  16  17
HETATM   17  C   UNK A   1      -6.432   8.970  67.944  1.00  0.00    -0.057 C  
BRANCH  17  18
HETATM   18  C   UNK A   1      -6.814   8.744  66.487  1.00  0.00    -0.072 C  
BRANCH  18  19
HETATM   19  S   UNK A   1      -6.423  10.302  65.604  1.00  0.00    -0.125 SA 
BRANCH  19  20
HETATM   20  C   UNK A   1      -8.104  10.988  65.436  1.00  0.00     0.103 C  
BRANCH  20  21
HETATM   21  C   UNK A   1      -9.021  10.004  64.692  1.00  0.00    -0.214 C  
HETATM   22  N   UNK A   1      -8.253   8.956  63.943  1.00  0.00    -0.167 NA 
HETATM   23  C   UNK A   1      -9.840  10.809  63.682  1.00  0.00    -0.350 C  
HETATM   24  O   UNK A   1     -10.809  11.497  63.956  1.00  0.00    -0.340 OA 
HETATM   25  O   UNK A   1      -9.319  10.705  62.431  1.00  0.00    -0.269 OA 
HETATM   26  H1  UNK A   1      -8.862   8.302  63.449  1.00  0.00     0.000 HD 
HETATM   27  H2  UNK A   1      -7.610   8.461  64.561  1.00  0.00     0.000 HD 
ENDBRANCH  20  21
ENDBRANCH  19  20
ENDBRANCH  18  19
ENDBRANCH  17  18
ENDBRANCH  16  17
ENDBRANCH  15  16
ENDBRANCH  11  15
ENDBRANCH   7  10
ENDBRANCH   5   6
TORSDOF 9
ENDMDL
MODEL      317
REMARK 921   NORMALIZED FREE ENERGY PREDICTED BY IDOCK:   -2.86 KCAL/MOL
REMARK 922        TOTAL FREE ENERGY PREDICTED BY IDOCK:   -5.33 KCAL/MOL
REMARK 923 INTER-LIGAND FREE ENERGY PREDICTED BY IDOCK:   -5.70 KCAL/MOL
REMARK 924 INTRA-LIGAND FREE ENERGY PREDICTED BY IDOCK:    0.37 KCAL/MOL
REMARK 927      BINDING AFFINITY PREDICTED BY RF-SCORE:    0.00 PKD
ROOT
HETATM    1  C   UNK A   0     -13.535  15.630  72.474  1.00  0.00    -0.630 C  
HETATM    2  C   UNK A   0     -12.513  15.088  71.503  1.00  0.00    -0.400 C  
HETATM    3  C   UNK A   0     -12.794  13.713  70.947  1.00  0.00    -0.321 C  
HETATM    4  C   UNK A   0     -11.095  15.469  71.857  1.00  0.00    -0.205 C  
HETATM    5  C   UNK A   0     -12.896  14.918  70.027  1.00  0.00    -0.113 C  
ENDROOT
BRANCH   5   6
HETATM    6  C   UNK A   0     -11.905  14.989  68.902  1.00  0.00    -0.307 C  
HETATM    7  N   UNK A   1     -11.171  16.148  68.800  1.00  0.00    -0.352 N  
HETATM    8  O   UNK A   0     -11.830  14.074  68.092  1.00  0.00    -0.338 OA 
HETATM    9  H   UNK A   1     -11.342  16.850  69.521  1.00  0.00     0.000 HD 
BRANCH   7  10
HETATM   10  C   UNK A   1     -10.223  16.482  67.835  1.00  0.00    -0.273 C  
HETATM   11  C   UNK A   1      -9.046  15.810  67.754  1.00  0.00    -0.188 C  
HETATM   12  C   UNK A   1     -10.323  17.612  66.827  1.00  0.00    -0.331 C  
HETATM   13  O   UNK A   1     -10.997  18.706  67.230  1.00  0.00    -0.387 OA 
HETATM   14  O   UNK A   1      -9.687  17.617  65.782  1.00  0.00    -0.537 OA 
BRANCH  11  15
HETATM   15  C   UNK A   1      -8.573  14.707  68.650  1.00  0.00    -0.172 C  
BRANCH  15  16
HETATM   16  C   UNK A   1      -7.131  14.209  68.428  1.00  0.00    -0.104 C  
BRANCH  16  17
HETATM   17  C   UNK A   1      -7.198  12.678  68.344  1.00  0.00    -0.111 C  
BRANCH  17  18
HETATM   18  C   UNK A   1      -6.022  12.004  67.647  1.00  0.00    -0.093 C  
BRANCH  18  19
HETATM   19  S   UNK A   1      -6.581  10.315  67.210  1.00  0.00    -0.069 SA 
BRANCH  19  20
HETATM   20  C   UNK A   1      -7.341   9.826  68.794  1.00  0.00    -0.074 C  
BRANCH  20  21
HETATM   21  C   UNK A   1      -8.805   9.407  68.588  1.00  0.00    -0.132 C  
HETATM   22  N   UNK A   1      -9.144   8.130  69.296  1.00  0.00    -0.151 NA 
HETATM   23  C   UNK A   1      -9.018   9.194  67.089  1.00  0.00    -0.123 C  
HETATM   24  O   UNK A   1      -9.162  10.085  66.268  1.00  0.00    -0.153 OA 
HETATM   25  O   UNK A   1      -8.975   7.874  66.768  1.00  0.00    -0.132 OA 
HETATM   26  H1  UNK A   1     -10.116   7.852  69.160  1.00  0.00     0.000 HD 
HETATM   27  H2  UNK A   1      -8.916   8.189  70.288  1.00  0.00     0.000 HD 
ENDBRANCH  20  21
ENDBRANCH  19  20
ENDBRANCH  18  19
ENDBRANCH  17  18
ENDBRANCH  16  17
ENDBRANCH  15  16
ENDBRANCH  11  15
ENDBRANCH   7  10
ENDBRANCH   5   6
TORSDOF 9
ENDMDL
MODEL      318
REMARK 921   NORMALIZED FREE ENERGY PREDICTED BY IDOCK:   -2.85 KCAL/MOL
REMARK 922        TOTAL FREE ENERGY PREDICTED BY IDOCK:   -5.31 KCAL/MOL
REMARK 923 INTER-LIGAND FREE ENERGY PREDICTED BY IDOCK:   -4.26 KCAL/MOL
REMARK 924 INTRA-LIGAND FREE ENERGY PREDICTED BY IDOCK:   -1.06 KCAL/MOL
REMARK 927      BINDING AFFINITY PREDICTED BY RF-SCORE:    0.00 PKD
ROOT
HETATM    1  C   UNK A   0      -8.151   6.593  64.178  1.00  0.00    -0.031 C  
HETATM    2  C   UNK A   0      -7.912   7.972  64.745  1.00  0.00    -0.143 C  
HETATM    3  C   UNK A   0      -8.283   9.128  63.848  1.00  0.00    -0.172 C  
HETATM    4  C   UNK A   0      -6.665   8.060  65.592  1.00  0.00    -0.048 C  
HETATM    5  C   UNK A   0      -9.115   8.860  65.090  1.00  0.00    -0.157 C  
ENDROOT
BRANCH   5   6
HETATM    6  C   UNK A   0      -9.085   9.914  66.158  1.00  0.00    -0.158 C  
HETATM    7  N   UNK A   1      -9.765   9.634  67.320  1.00  0.00    -0.160 N  
HETATM    8  O   UNK A   0      -8.534  10.987  65.945  1.00  0.00    -0.167 OA 
HETATM    9  H   UNK A   1     -10.208   8.715  67.368  1.00  0.00     0.000 HD 
BRANCH   7  10
HETATM   10  C   UNK A   1      -9.926  10.448  68.439  1.00  0.00    -0.162 C  
HETATM   11  C   UNK A   1      -9.054  10.383  69.477  1.00  0.00    -0.129 C  
HETATM   12  C   UNK A   1     -11.058  11.428  68.685  1.00  0.00    -0.236 C  
HETATM   13  O   UNK A   1     -12.254  11.093  68.166  1.00  0.00    -0.612 OA 
HETATM   14  O   UNK A   1     -10.951  12.374  69.454  1.00  0.00    -0.144 OA 
BRANCH  11  15
HETATM   15  C   UNK A   1      -7.881   9.461  69.616  1.00  0.00    -0.105 C  
BRANCH  15  16
HETATM   16  C   UNK A   1      -8.172   7.952  69.492  1.00  0.00    -0.130 C  
BRANCH  16  17
HETATM   17  C   UNK A   1      -6.868   7.220  69.835  1.00  0.00    -0.056 C  
BRANCH  17  18
HETATM   18  C   UNK A   1      -6.751   6.719  71.270  1.00  0.00    -0.057 C  
BRANCH  18  19
HETATM   19  S   UNK A   1      -7.685   5.145  71.344  1.00  0.00    -0.108 SA 
BRANCH  19  20
HETATM   20  C   UNK A   1      -9.242   5.749  72.077  1.00  0.00    -0.147 C  
BRANCH  20  21
HETATM   21  C   UNK A   1     -10.453   5.224  71.291  1.00  0.00    -0.204 C  
HETATM   22  N   UNK A   1     -10.104   4.842  69.884  1.00  0.00    -0.246 NA 
HETATM   23  C   UNK A   1     -11.491   6.346  71.238  1.00  0.00    -0.314 C  
HETATM   24  O   UNK A   1     -12.230   6.660  72.156  1.00  0.00    -0.299 OA 
HETATM   25  O   UNK A   1     -11.455   6.994  70.043  1.00  0.00    -0.269 OA 
HETATM   26  H1  UNK A   1     -10.908   4.493  69.361  1.00  0.00     0.000 HD 
HETATM   27  H2  UNK A   1      -9.337   4.170  69.866  1.00  0.00     0.000 HD 
ENDBRANCH  20  21
ENDBRANCH  19  20
ENDBRANCH  18  19
ENDBRANCH  17  18
ENDBRANCH  16  17
ENDBRANCH  15  16
ENDBRANCH  11  15
ENDBRANCH   7  10
ENDBRANCH   5   6
TORSDOF 9
ENDMDL
MODEL      319
REMARK 921   NORMALIZED FREE ENERGY PREDICTED BY IDOCK:   -2.83 KCAL/MOL
REMARK 922        TOTAL FREE ENERGY PREDICTED BY IDOCK:   -5.29 KCAL/MOL
REMARK 923 INTER-LIGAND FREE ENERGY PREDICTED BY IDOCK:   -4.23 KCAL/MOL
REMARK 924 INTRA-LIGAND FREE ENERGY PREDICTED BY IDOCK:   -1.06 KCAL/MOL
REMARK 927      BINDING AFFINITY PREDICTED BY RF-SCORE:    0.00 PKD
ROOT
HETATM    1  C   UNK A   0      -7.211   6.801  64.072  1.00  0.00    -0.071 C  
HETATM    2  C   UNK A   0      -7.662   7.052  65.492  1.00  0.00    -0.105 C  
HETATM    3  C   UNK A   0      -9.021   6.508  65.859  1.00  0.00    -0.103 C  
HETATM    4  C   UNK A   0      -7.233   8.399  66.023  1.00  0.00    -0.073 C  
HETATM    5  C   UNK A   0      -7.781   5.869  66.462  1.00  0.00    -0.100 C  
ENDROOT
BRANCH   5   6
HETATM    6  C   UNK A   0      -7.615   5.999  67.948  1.00  0.00    -0.097 C  
HETATM    7  N   UNK A   1      -8.762   6.198  68.681  1.00  0.00    -0.112 N  
HETATM    8  O   UNK A   0      -6.495   5.994  68.441  1.00  0.00    -0.044 OA 
HETATM    9  H   UNK A   1      -9.634   6.210  68.151  1.00  0.00     0.000 HD 
BRANCH   7  10
HETATM   10  C   UNK A   1      -8.880   6.387  70.056  1.00  0.00    -0.143 C  
HETATM   11  C   UNK A   1      -8.890   7.636  70.588  1.00  0.00    -0.145 C  
HETATM   12  C   UNK A   1      -8.951   5.300  71.111  1.00  0.00    -0.139 C  
HETATM   13  O   UNK A   1      -8.269   4.169  70.844  1.00  0.00    -0.069 OA 
HETATM   14  O   UNK A   1      -9.441   5.489  72.217  1.00  0.00    -0.145 OA 
BRANCH  11  15
HETATM   15  C   UNK A   1      -8.740   8.932  69.853  1.00  0.00    -0.140 C  
BRANCH  15  16
HETATM   16  C   UNK A   1      -9.884   9.318  68.895  1.00  0.00    -0.170 C  
BRANCH  16  17
HETATM   17  C   UNK A   1     -10.257  10.773  69.211  1.00  0.00    -0.217 C  
BRANCH  17  18
HETATM   18  C   UNK A   1     -11.669  11.191  68.821  1.00  0.00    -0.326 C  
BRANCH  18  19
HETATM   19  S   UNK A   1     -11.608  12.998  68.522  1.00  0.00    -0.350 SA 
BRANCH  19  20
HETATM   20  C   UNK A   1     -10.006  13.110  67.658  1.00  0.00    -0.219 C  
BRANCH  20  21
HETATM   21  C   UNK A   1      -9.224  14.349  68.121  1.00  0.00    -0.199 C  
HETATM   22  N   UNK A   1      -9.534  14.730  69.537  1.00  0.00    -0.424 NA 
HETATM   23  C   UNK A   1      -9.626  15.514  67.214  1.00  0.00    -0.213 C  
HETATM   24  O   UNK A   1      -9.221  15.688  66.077  1.00  0.00    -0.329 OA 
HETATM   25  O   UNK A   1     -10.543  16.315  67.819  1.00  0.00    -0.298 OA 
HETATM   26  H1  UNK A   1      -9.016  15.553  69.845  1.00  0.00     0.000 HD 
HETATM   27  H2  UNK A   1      -9.383  13.944  70.170  1.00  0.00     0.000 HD 
ENDBRANCH  20  21
ENDBRANCH  19  20
ENDBRANCH  18  19
ENDBRANCH  17  18
ENDBRANCH  16  17
ENDBRANCH  15  16
ENDBRANCH  11  15
ENDBRANCH   7  10
ENDBRANCH   5   6
TORSDOF 9
ENDMDL
MODEL      320
REMARK 921   NORMALIZED FREE ENERGY PREDICTED BY IDOCK:   -2.79 KCAL/MOL
REMARK 922        TOTAL FREE ENERGY PREDICTED BY IDOCK:   -5.23 KCAL/MOL
REMARK 923 INTER-LIGAND FREE ENERGY PREDICTED BY IDOCK:   -4.91 KCAL/MOL
REMARK 924 INTRA-LIGAND FREE ENERGY PREDICTED BY IDOCK:   -0.33 KCAL/MOL
REMARK 927      BINDING AFFINITY PREDICTED BY RF-SCORE:    0.00 PKD
ROOT
HETATM    1  C   UNK A   0     -10.967   5.011  72.750  1.00  0.00    -0.312 C  
HETATM    2  C   UNK A   0     -11.033   6.436  72.253  1.00  0.00    -0.289 C  
HETATM    3  C   UNK A   0     -10.619   6.655  70.818  1.00  0.00    -0.265 C  
HETATM    4  C   UNK A   0     -10.640   7.450  73.302  1.00  0.00    -0.442 C  
HETATM    5  C   UNK A   0     -12.081   6.817  71.200  1.00  0.00    -0.422 C  
ENDROOT
BRANCH   5   6
HETATM    6  C   UNK A   0     -12.660   8.196  71.070  1.00  0.00    -0.057 C  
HETATM    7  N   UNK A   1     -11.830   9.166  70.557  1.00  0.00    -0.451 N  
HETATM    8  O   UNK A   0     -13.791   8.426  71.477  1.00  0.00    -0.360 OA 
HETATM    9  H   UNK A   1     -10.899   8.855  70.278  1.00  0.00     0.000 HD 
BRANCH   7  10
HETATM   10  C   UNK A   1     -12.104  10.519  70.371  1.00  0.00    -0.329 C  
HETATM   11  C   UNK A   1     -11.513  11.218  69.369  1.00  0.00    -0.370 C  
HETATM   12  C   UNK A   1     -13.002  11.383  71.237  1.00  0.00    -0.316 C  
HETATM   13  O   UNK A   1     -13.048  11.065  72.545  1.00  0.00    -0.016 OA 
HETATM   14  O   UNK A   1     -13.514  12.415  70.825  1.00  0.00     0.482 OA 
BRANCH  11  15
HETATM   15  C   UNK A   1     -10.500  10.709  68.389  1.00  0.00    -0.212 C  
BRANCH  15  16
HETATM   16  C   UNK A   1      -9.026  11.047  68.682  1.00  0.00    -0.167 C  
BRANCH  16  17
HETATM   17  C   UNK A   1      -8.191  10.390  67.574  1.00  0.00    -0.114 C  
BRANCH  17  18
HETATM   18  C   UNK A   1      -7.023  11.218  67.051  1.00  0.00    -0.126 C  
BRANCH  18  19
HETATM   19  S   UNK A   1      -7.072  11.082  65.225  1.00  0.00     0.523 SA 
BRANCH  19  20
HETATM   20  C   UNK A   1      -8.623  10.142  65.031  1.00  0.00    -0.167 C  
BRANCH  20  21
HETATM   21  C   UNK A   1      -9.356  10.561  63.746  1.00  0.00    -0.281 C  
HETATM   22  N   UNK A   1      -8.428  11.121  62.711  1.00  0.00    -0.457 NA 
HETATM   23  C   UNK A   1     -10.363  11.649  64.124  1.00  0.00    -0.337 C  
HETATM   24  O   UNK A   1     -11.437  11.451  64.667  1.00  0.00    -0.175 OA 
HETATM   25  O   UNK A   1      -9.887  12.887  63.823  1.00  0.00    -0.245 OA 
HETATM   26  H1  UNK A   1      -8.914  11.400  61.858  1.00  0.00     0.000 HD 
HETATM   27  H2  UNK A   1      -7.672  10.468  62.505  1.00  0.00     0.000 HD 
ENDBRANCH  20  21
ENDBRANCH  19  20
ENDBRANCH  18  19
ENDBRANCH  17  18
ENDBRANCH  16  17
ENDBRANCH  15  16
ENDBRANCH  11  15
ENDBRANCH   7  10
ENDBRANCH   5   6
TORSDOF 9
ENDMDL
MODEL      321
REMARK 921   NORMALIZED FREE ENERGY PREDICTED BY IDOCK:   -2.78 KCAL/MOL
REMARK 922        TOTAL FREE ENERGY PREDICTED BY IDOCK:   -5.21 KCAL/MOL
REMARK 923 INTER-LIGAND FREE ENERGY PREDICTED BY IDOCK:   -4.26 KCAL/MOL
REMARK 924 INTRA-LIGAND FREE ENERGY PREDICTED BY IDOCK:   -0.95 KCAL/MOL
REMARK 927      BINDING AFFINITY PREDICTED BY RF-SCORE:    0.00 PKD
ROOT
HETATM    1  C   UNK A   0     -10.640   4.048  64.099  1.00  0.00    -0.197 C  
HETATM    2  C   UNK A   0      -9.670   4.285  65.233  1.00  0.00    -0.201 C  
HETATM    3  C   UNK A   0      -9.095   5.677  65.331  1.00  0.00    -0.027 C  
HETATM    4  C   UNK A   0      -8.785   3.095  65.518  1.00  0.00    -0.121 C  
HETATM    5  C   UNK A   0     -10.078   5.207  66.390  1.00  0.00    -0.268 C  
ENDROOT
BRANCH   5   6
HETATM    6  C   UNK A   0      -9.545   5.068  67.786  1.00  0.00    -0.146 C  
HETATM    7  N   UNK A   1      -8.266   5.525  68.005  1.00  0.00    -0.100 N  
HETATM    8  O   UNK A   0     -10.213   4.505  68.644  1.00  0.00    -0.040 OA 
HETATM    9  H   UNK A   1      -7.801   5.951  67.203  1.00  0.00     0.000 HD 
BRANCH   7  10
HETATM   10  C   UNK A   1      -7.529   5.480  69.187  1.00  0.00    -0.078 C  
HETATM   11  C   UNK A   1      -7.286   6.609  69.899  1.00  0.00    -0.080 C  
HETATM   12  C   UNK A   1      -6.874   4.252  69.792  1.00  0.00    -0.041 C  
HETATM   13  O   UNK A   1      -6.432   3.326  68.920  1.00  0.00    -0.029 OA 
HETATM   14  O   UNK A   1      -6.595   4.177  70.981  1.00  0.00    -0.025 OA 
BRANCH  11  15
HETATM   15  C   UNK A   1      -7.695   8.006  69.544  1.00  0.00    -0.103 C  
BRANCH  15  16
HETATM   16  C   UNK A   1      -8.439   8.804  70.633  1.00  0.00    -0.193 C  
BRANCH  16  17
HETATM   17  C   UNK A   1      -9.916   8.394  70.552  1.00  0.00    -0.205 C  
BRANCH  17  18
HETATM   18  C   UNK A   1     -10.809   8.927  71.666  1.00  0.00    -0.349 C  
BRANCH  18  19
HETATM   19  S   UNK A   1     -12.269   9.670  70.846  1.00  0.00    -0.258 SA 
BRANCH  19  20
HETATM   20  C   UNK A   1     -11.485  11.140  70.103  1.00  0.00    -0.272 C  
BRANCH  20  21
HETATM   21  C   UNK A   1     -11.791  11.218  68.599  1.00  0.00    -0.300 C  
HETATM   22  N   UNK A   1     -11.350   9.991  67.858  1.00  0.00    -0.559 NA 
HETATM   23  C   UNK A   1     -11.028  12.417  68.034  1.00  0.00    -0.225 C  
HETATM   24  O   UNK A   1     -11.365  13.583  68.158  1.00  0.00    -0.255 OA 
HETATM   25  O   UNK A   1      -9.885  12.025  67.412  1.00  0.00    -0.183 OA 
HETATM   26  H1  UNK A   1     -11.553  10.042  66.859  1.00  0.00     0.000 HD 
HETATM   27  H2  UNK A   1     -11.752   9.150  68.271  1.00  0.00     0.000 HD 
ENDBRANCH  20  21
ENDBRANCH  19  20
ENDBRANCH  18  19
ENDBRANCH  17  18
ENDBRANCH  16  17
ENDBRANCH  15  16
ENDBRANCH  11  15
ENDBRANCH   7  10
ENDBRANCH   5   6
TORSDOF 9
ENDMDL
MODEL      322
REMARK 921   NORMALIZED FREE ENERGY PREDICTED BY IDOCK:   -2.77 KCAL/MOL
REMARK 922        TOTAL FREE ENERGY PREDICTED BY IDOCK:   -5.20 KCAL/MOL
REMARK 923 INTER-LIGAND FREE ENERGY PREDICTED BY IDOCK:   -4.94 KCAL/MOL
REMARK 924 INTRA-LIGAND FREE ENERGY PREDICTED BY IDOCK:   -0.26 KCAL/MOL
REMARK 927      BINDING AFFINITY PREDICTED BY RF-SCORE:    0.00 PKD
ROOT
HETATM    1  C   UNK A   0     -11.297  11.669  66.831  1.00  0.00    -0.364 C  
HETATM    2  C   UNK A   0     -10.596  10.624  67.666  1.00  0.00    -0.288 C  
HETATM    3  C   UNK A   0      -9.454  11.118  68.521  1.00  0.00    -0.193 C  
HETATM    4  C   UNK A   0     -10.478   9.288  66.972  1.00  0.00    -0.303 C  
HETATM    5  C   UNK A   0     -10.738  10.663  69.193  1.00  0.00    -0.264 C  
ENDROOT
BRANCH   5   6
HETATM    6  C   UNK A   0     -10.644   9.445  70.064  1.00  0.00    -0.235 C  
HETATM    7  N   UNK A   1     -11.459   8.387  69.733  1.00  0.00    -0.431 N  
HETATM    8  O   UNK A   0      -9.922   9.452  71.053  1.00  0.00    -0.285 OA 
HETATM    9  H   UNK A   1     -12.037   8.511  68.901  1.00  0.00     0.000 HD 
BRANCH   7  10
HETATM   10  C   UNK A   1     -11.594   7.167  70.393  1.00  0.00    -0.258 C  
HETATM   11  C   UNK A   1     -10.857   6.090  70.021  1.00  0.00    -0.429 C  
HETATM   12  C   UNK A   1     -12.562   6.854  71.518  1.00  0.00    -0.367 C  
HETATM   13  O   UNK A   1     -13.739   7.509  71.486  1.00  0.00    -0.378 OA 
HETATM   14  O   UNK A   1     -12.376   5.938  72.308  1.00  0.00    -0.206 OA 
BRANCH  11  15
HETATM   15  C   UNK A   1      -9.877   6.013  68.889  1.00  0.00    -0.173 C  
BRANCH  15  16
HETATM   16  C   UNK A   1      -9.781   4.663  68.151  1.00  0.00    -0.197 C  
BRANCH  16  17
HETATM   17  C   UNK A   1      -8.667   4.808  67.106  1.00  0.00    -0.103 C  
BRANCH  17  18
HETATM   18  C   UNK A   1      -8.983   5.720  65.927  1.00  0.00    -0.151 C  
BRANCH  18  19
HETATM   19  S   UNK A   1      -7.378   6.122  65.141  1.00  0.00    -0.077 SA 
BRANCH  19  20
HETATM   20  C   UNK A   1      -6.244   5.481  66.418  1.00  0.00    -0.034 C  
BRANCH  20  21
HETATM   21  C   UNK A   1      -5.541   6.635  67.149  1.00  0.00    -0.013 C  
HETATM   22  N   UNK A   1      -5.476   6.423  68.631  1.00  0.00    -0.011 NA 
HETATM   23  C   UNK A   1      -6.345   7.909  66.883  1.00  0.00    -0.055 C  
HETATM   24  O   UNK A   1      -6.315   8.552  65.847  1.00  0.00    -0.051 OA 
HETATM   25  O   UNK A   1      -7.148   8.213  67.937  1.00  0.00    -0.079 OA 
HETATM   26  H1  UNK A   1      -5.009   7.189  69.117  1.00  0.00     0.000 HD 
HETATM   27  H2  UNK A   1      -5.040   5.528  68.855  1.00  0.00     0.000 HD 
ENDBRANCH  20  21
ENDBRANCH  19  20
ENDBRANCH  18  19
ENDBRANCH  17  18
ENDBRANCH  16  17
ENDBRANCH  15  16
ENDBRANCH  11  15
ENDBRANCH   7  10
ENDBRANCH   5   6
TORSDOF 9
ENDMDL
MODEL      323
REMARK 921   NORMALIZED FREE ENERGY PREDICTED BY IDOCK:   -2.68 KCAL/MOL
REMARK 922        TOTAL FREE ENERGY PREDICTED BY IDOCK:   -5.05 KCAL/MOL
REMARK 923 INTER-LIGAND FREE ENERGY PREDICTED BY IDOCK:   -4.49 KCAL/MOL
REMARK 924 INTRA-LIGAND FREE ENERGY PREDICTED BY IDOCK:   -0.57 KCAL/MOL
REMARK 927      BINDING AFFINITY PREDICTED BY RF-SCORE:    0.00 PKD
ROOT
HETATM    1  C   UNK A   0      -6.405   6.828  71.624  1.00  0.00    -0.042 C  
HETATM    2  C   UNK A   0      -6.681   8.033  70.756  1.00  0.00    -0.037 C  
HETATM    3  C   UNK A   0      -5.468   8.724  70.182  1.00  0.00    -0.027 C  
HETATM    4  C   UNK A   0      -7.847   8.861  71.241  1.00  0.00    -0.163 C  
HETATM    5  C   UNK A   0      -6.392   7.957  69.252  1.00  0.00    -0.035 C  
ENDROOT
BRANCH   5   6
HETATM    6  C   UNK A   0      -7.132   8.764  68.226  1.00  0.00    -0.078 C  
HETATM    7  N   UNK A   1      -8.104   8.106  67.508  1.00  0.00    -0.121 N  
HETATM    8  O   UNK A   0      -6.813   9.927  68.013  1.00  0.00    -0.070 OA 
HETATM    9  H   UNK A   1      -8.260   7.129  67.759  1.00  0.00     0.000 HD 
BRANCH   7  10
HETATM   10  C   UNK A   1      -8.902   8.607  66.482  1.00  0.00    -0.138 C  
HETATM   11  C   UNK A   1     -10.210   8.899  66.696  1.00  0.00    -0.338 C  
HETATM   12  C   UNK A   1      -8.479   8.836  65.043  1.00  0.00    -0.175 C  
HETATM   13  O   UNK A   1      -7.555   7.986  64.554  1.00  0.00    -0.099 OA 
HETATM   14  O   UNK A   1      -9.059   9.622  64.306  1.00  0.00    -0.238 OA 
BRANCH  11  15
HETATM   15  C   UNK A   1     -10.982   8.703  67.965  1.00  0.00     0.091 C  
BRANCH  15  16
HETATM   16  C   UNK A   1     -10.438   9.413  69.220  1.00  0.00    -0.230 C  
BRANCH  16  17
HETATM   17  C   UNK A   1     -11.368  10.603  69.495  1.00  0.00    -0.342 C  
BRANCH  17  18
HETATM   18  C   UNK A   1     -10.916  11.938  68.916  1.00  0.00    -0.238 C  
BRANCH  18  19
HETATM   19  S   UNK A   1     -11.977  13.219  69.687  1.00  0.00    -0.285 SA 
BRANCH  19  20
HETATM   20  C   UNK A   1     -11.283  14.707  68.894  1.00  0.00    -0.267 C  
BRANCH  20  21
HETATM   21  C   UNK A   1     -10.555  15.584  69.925  1.00  0.00    -0.313 C  
HETATM   22  N   UNK A   1     -11.499  16.408  70.747  1.00  0.00    -0.548 NA 
HETATM   23  C   UNK A   1      -9.636  16.534  69.157  1.00  0.00    -0.228 C  
HETATM   24  O   UNK A   1      -8.561  16.226  68.667  1.00  0.00    -0.199 OA 
HETATM   25  O   UNK A   1     -10.191  17.769  69.038  1.00  0.00    -0.367 OA 
HETATM   26  H1  UNK A   1     -11.017  16.991  71.432  1.00  0.00     0.000 HD 
HETATM   27  H2  UNK A   1     -12.203  15.822  71.196  1.00  0.00     0.000 HD 
ENDBRANCH  20  21
ENDBRANCH  19  20
ENDBRANCH  18  19
ENDBRANCH  17  18
ENDBRANCH  16  17
ENDBRANCH  15  16
ENDBRANCH  11  15
ENDBRANCH   7  10
ENDBRANCH   5   6
TORSDOF 9
ENDMDL
MODEL      324
REMARK 921   NORMALIZED FREE ENERGY PREDICTED BY IDOCK:   -2.64 KCAL/MOL
REMARK 922        TOTAL FREE ENERGY PREDICTED BY IDOCK:   -5.00 KCAL/MOL
REMARK 923 INTER-LIGAND FREE ENERGY PREDICTED BY IDOCK:   -5.50 KCAL/MOL
REMARK 924 INTRA-LIGAND FREE ENERGY PREDICTED BY IDOCK:    0.50 KCAL/MOL
REMARK 927      BINDING AFFINITY PREDICTED BY RF-SCORE:    0.00 PKD
ROOT
HETATM    1  C   UNK A   0     -11.000   6.005  71.879  1.00  0.00    -0.316 C  
HETATM    2  C   UNK A   0     -10.593   7.430  71.587  1.00  0.00    -0.229 C  
HETATM    3  C   UNK A   0     -10.063   7.695  70.199  1.00  0.00    -0.199 C  
HETATM    4  C   UNK A   0      -9.954   8.120  72.769  1.00  0.00    -0.361 C  
HETATM    5  C   UNK A   0     -11.417   8.258  70.593  1.00  0.00    -0.236 C  
ENDROOT
BRANCH   5   6
HETATM    6  C   UNK A   0     -11.529   9.754  70.656  1.00  0.00    -0.324 C  
HETATM    7  N   UNK A   1     -11.228  10.443  69.503  1.00  0.00    -0.253 N  
HETATM    8  O   UNK A   0     -11.806  10.304  71.714  1.00  0.00    -0.215 OA 
HETATM    9  H   UNK A   1     -10.985   9.873  68.693  1.00  0.00     0.000 HD 
BRANCH   7  10
HETATM   10  C   UNK A   1     -11.215  11.822  69.307  1.00  0.00    -0.256 C  
HETATM   11  C   UNK A   1     -10.170  12.426  68.685  1.00  0.00    -0.169 C  
HETATM   12  C   UNK A   1     -12.267  12.809  69.776  1.00  0.00    -0.147 C  
HETATM   13  O   UNK A   1     -12.899  12.499  70.925  1.00  0.00    -0.219 OA 
HETATM   14  O   UNK A   1     -12.417  13.906  69.255  1.00  0.00    -0.255 OA 
BRANCH  11  15
HETATM   15  C   UNK A   1      -8.919  11.773  68.182  1.00  0.00    -0.181 C  
BRANCH  15  16
HETATM   16  C   UNK A   1      -8.666  11.846  66.664  1.00  0.00    -0.185 C  
BRANCH  16  17
HETATM   17  C   UNK A   1      -9.742  12.771  66.078  1.00  0.00    -0.226 C  
BRANCH  17  18
HETATM   18  C   UNK A   1     -10.613  12.160  64.987  1.00  0.00    -0.291 C  
BRANCH  18  19
HETATM   19  S   UNK A   1      -9.941  10.486  64.667  1.00  0.00    -0.337 SA 
BRANCH  19  20
HETATM   20  C   UNK A   1      -9.329  10.723  62.966  1.00  0.00    -0.330 C  
BRANCH  20  21
HETATM   21  C   UNK A   1      -8.327   9.620  62.590  1.00  0.00    -0.159 C  
HETATM   22  N   UNK A   1      -8.917   8.246  62.699  1.00  0.00    -0.297 NA 
HETATM   23  C   UNK A   1      -7.150   9.713  63.563  1.00  0.00    -0.108 C  
HETATM   24  O   UNK A   1      -6.255  10.540  63.502  1.00  0.00    -0.119 OA 
HETATM   25  O   UNK A   1      -7.251   8.782  64.548  1.00  0.00    -0.093 OA 
HETATM   26  H1  UNK A   1      -8.252   7.513  62.449  1.00  0.00     0.000 HD 
HETATM   27  H2  UNK A   1      -9.771   8.169  62.147  1.00  0.00     0.000 HD 
ENDBRANCH  20  21
ENDBRANCH  19  20
ENDBRANCH  18  19
ENDBRANCH  17  18
ENDBRANCH  16  17
ENDBRANCH  15  16
ENDBRANCH  11  15
ENDBRANCH   7  10
ENDBRANCH   5   6
TORSDOF 9
ENDMDL
MODEL      325
REMARK 921   NORMALIZED FREE ENERGY PREDICTED BY IDOCK:   -2.61 KCAL/MOL
REMARK 922        TOTAL FREE ENERGY PREDICTED BY IDOCK:   -4.95 KCAL/MOL
REMARK 923 INTER-LIGAND FREE ENERGY PREDICTED BY IDOCK:   -4.55 KCAL/MOL
REMARK 924 INTRA-LIGAND FREE ENERGY PREDICTED BY IDOCK:   -0.40 KCAL/MOL
REMARK 927      BINDING AFFINITY PREDICTED BY RF-SCORE:    0.00 PKD
ROOT
HETATM    1  C   UNK A   0     -10.960  20.152  65.383  1.00  0.00     0.089 C  
HETATM    2  C   UNK A   0     -10.180  19.267  66.326  1.00  0.00    -0.546 C  
HETATM    3  C   UNK A   0      -9.428  19.974  67.427  1.00  0.00    -0.508 C  
HETATM    4  C   UNK A   0      -9.547  18.079  65.640  1.00  0.00     0.484 C  
HETATM    5  C   UNK A   0     -10.640  19.131  67.783  1.00  0.00    -0.498 C  
ENDROOT
BRANCH   5   6
HETATM    6  C   UNK A   0     -10.387  17.912  68.621  1.00  0.00    -0.337 C  
HETATM    7  N   UNK A   1     -11.140  16.798  68.330  1.00  0.00    -0.330 N  
HETATM    8  O   UNK A   0      -9.595  17.962  69.553  1.00  0.00     0.145 OA 
HETATM    9  H   UNK A   1     -11.787  16.888  67.546  1.00  0.00     0.000 HD 
BRANCH   7  10
HETATM   10  C   UNK A   1     -11.130  15.562  68.975  1.00  0.00    -0.267 C  
HETATM   11  C   UNK A   1     -10.986  14.411  68.270  1.00  0.00    -0.259 C  
HETATM   12  C   UNK A   1     -11.324  15.319  70.460  1.00  0.00    -0.309 C  
HETATM   13  O   UNK A   1     -12.137  16.182  71.099  1.00  0.00    -0.399 OA 
HETATM   14  O   UNK A   1     -10.921  14.307  71.017  1.00  0.00     0.401 OA 
BRANCH  11  15
HETATM   15  C   UNK A   1     -10.870  14.272  66.782  1.00  0.00    -0.298 C  
BRANCH  15  16
HETATM   16  C   UNK A   1      -9.931  13.165  66.265  1.00  0.00    -0.285 C  
BRANCH  16  17
HETATM   17  C   UNK A   1      -8.577  13.370  66.958  1.00  0.00    -0.168 C  
BRANCH  17  18
HETATM   18  C   UNK A   1      -8.056  12.178  67.752  1.00  0.00    -0.152 C  
BRANCH  18  19
HETATM   19  S   UNK A   1      -9.128  10.758  67.314  1.00  0.00    -0.143 SA 
BRANCH  19  20
HETATM   20  C   UNK A   1      -8.499  10.408  65.638  1.00  0.00    -0.165 C  
BRANCH  20  21
HETATM   21  C   UNK A   1      -9.382   9.367  64.933  1.00  0.00    -0.150 C  
HETATM   22  N   UNK A   1      -9.373   8.039  65.628  1.00  0.00    -0.413 NA 
HETATM   23  C   UNK A   1      -8.827   9.171  63.521  1.00  0.00    -0.057 C  
HETATM   24  O   UNK A   1      -8.997   9.940  62.589  1.00  0.00    -0.225 OA 
HETATM   25  O   UNK A   1      -8.068   8.046  63.442  1.00  0.00    -0.154 OA 
HETATM   26  H1  UNK A   1      -9.959   7.347  65.160  1.00  0.00     0.000 HD 
HETATM   27  H2  UNK A   1      -9.635   8.137  66.609  1.00  0.00     0.000 HD 
ENDBRANCH  20  21
ENDBRANCH  19  20
ENDBRANCH  18  19
ENDBRANCH  17  18
ENDBRANCH  16  17
ENDBRANCH  15  16
ENDBRANCH  11  15
ENDBRANCH   7  10
ENDBRANCH   5   6
TORSDOF 9
ENDMDL
MODEL      326
REMARK 921   NORMALIZED FREE ENERGY PREDICTED BY IDOCK:   -2.59 KCAL/MOL
REMARK 922        TOTAL FREE ENERGY PREDICTED BY IDOCK:   -4.93 KCAL/MOL
REMARK 923 INTER-LIGAND FREE ENERGY PREDICTED BY IDOCK:   -4.04 KCAL/MOL
REMARK 924 INTRA-LIGAND FREE ENERGY PREDICTED BY IDOCK:   -0.89 KCAL/MOL
REMARK 927      BINDING AFFINITY PREDICTED BY RF-SCORE:    0.00 PKD
ROOT
HETATM    1  C   UNK A   0      -6.893   6.999  74.115  1.00  0.00    -0.081 C  
HETATM    2  C   UNK A   0      -7.806   6.639  72.967  1.00  0.00    -0.099 C  
HETATM    3  C   UNK A   0      -8.061   5.165  72.763  1.00  0.00    -0.109 C  
HETATM    4  C   UNK A   0      -7.630   7.536  71.765  1.00  0.00    -0.084 C  
HETATM    5  C   UNK A   0      -9.190   6.049  73.265  1.00  0.00    -0.132 C  
ENDROOT
BRANCH   5   6
HETATM    6  C   UNK A   0     -10.371   6.210  72.354  1.00  0.00    -0.192 C  
HETATM    7  N   UNK A   1     -11.151   7.327  72.549  1.00  0.00    -0.274 N  
HETATM    8  O   UNK A   0     -10.639   5.338  71.537  1.00  0.00    -0.225 OA 
HETATM    9  H   UNK A   1     -10.840   7.967  73.279  1.00  0.00     0.000 HD 
BRANCH   7  10
HETATM   10  C   UNK A   1     -12.314   7.690  71.872  1.00  0.00    -0.306 C  
HETATM   11  C   UNK A   1     -12.431   8.914  71.297  1.00  0.00    -0.321 C  
HETATM   12  C   UNK A   1     -13.573   6.855  71.733  1.00  0.00    -0.145 C  
HETATM   13  O   UNK A   1     -13.859   6.037  72.764  1.00  0.00     0.284 OA 
HETATM   14  O   UNK A   1     -14.381   7.032  70.831  1.00  0.00     0.040 OA 
BRANCH  11  15
HETATM   15  C   UNK A   1     -11.425  10.024  71.325  1.00  0.00    -0.390 C  
BRANCH  15  16
HETATM   16  C   UNK A   1     -10.843  10.462  69.967  1.00  0.00    -0.348 C  
BRANCH  16  17
HETATM   17  C   UNK A   1     -12.027  10.915  69.102  1.00  0.00    -0.359 C  
BRANCH  17  18
HETATM   18  C   UNK A   1     -11.864  12.267  68.418  1.00  0.00    -0.304 C  
BRANCH  18  19
HETATM   19  S   UNK A   1     -10.067  12.491  68.139  1.00  0.00    -0.228 SA 
BRANCH  19  20
HETATM   20  C   UNK A   1      -9.884  11.569  66.576  1.00  0.00    -0.202 C  
BRANCH  20  21
HETATM   21  C   UNK A   1      -8.856  10.437  66.730  1.00  0.00    -0.130 C  
HETATM   22  N   UNK A   1      -8.028  10.576  67.972  1.00  0.00    -0.105 NA 
HETATM   23  C   UNK A   1      -7.920  10.497  65.522  1.00  0.00    -0.145 C  
HETATM   24  O   UNK A   1      -8.192  10.091  64.404  1.00  0.00    -0.150 OA 
HETATM   25  O   UNK A   1      -6.749  11.112  65.836  1.00  0.00    -0.035 OA 
HETATM   26  H1  UNK A   1      -7.345   9.826  68.074  1.00  0.00     0.000 HD 
HETATM   27  H2  UNK A   1      -8.619  10.650  68.800  1.00  0.00     0.000 HD 
ENDBRANCH  20  21
ENDBRANCH  19  20
ENDBRANCH  18  19
ENDBRANCH  17  18
ENDBRANCH  16  17
ENDBRANCH  15  16
ENDBRANCH  11  15
ENDBRANCH   7  10
ENDBRANCH   5   6
TORSDOF 9
ENDMDL
MODEL      327
REMARK 921   NORMALIZED FREE ENERGY PREDICTED BY IDOCK:   -2.53 KCAL/MOL
REMARK 922        TOTAL FREE ENERGY PREDICTED BY IDOCK:   -4.82 KCAL/MOL
REMARK 923 INTER-LIGAND FREE ENERGY PREDICTED BY IDOCK:   -3.42 KCAL/MOL
REMARK 924 INTRA-LIGAND FREE ENERGY PREDICTED BY IDOCK:   -1.40 KCAL/MOL
REMARK 927      BINDING AFFINITY PREDICTED BY RF-SCORE:    0.00 PKD
ROOT
HETATM    1  C   UNK A   0      -5.125  14.802  68.179  1.00  0.00    -0.117 C  
HETATM    2  C   UNK A   0      -6.158  13.707  68.307  1.00  0.00    -0.108 C  
HETATM    3  C   UNK A   0      -6.031  12.562  67.332  1.00  0.00    -0.147 C  
HETATM    4  C   UNK A   0      -7.530  14.223  68.671  1.00  0.00    -0.127 C  
HETATM    5  C   UNK A   0      -5.726  12.320  68.800  1.00  0.00    -0.054 C  
ENDROOT
BRANCH   5   6
HETATM    6  C   UNK A   0      -6.640  11.380  69.530  1.00  0.00    -0.129 C  
HETATM    7  N   UNK A   1      -7.647  10.802  68.791  1.00  0.00    -0.105 N  
HETATM    8  O   UNK A   0      -6.514  11.214  70.736  1.00  0.00    -0.282 OA 
HETATM    9  H   UNK A   1      -7.665  11.039  67.798  1.00  0.00     0.000 HD 
BRANCH   7  10
HETATM   10  C   UNK A   1      -8.644   9.933  69.229  1.00  0.00    -0.167 C  
HETATM   11  C   UNK A   1      -8.436   8.592  69.255  1.00  0.00    -0.123 C  
HETATM   12  C   UNK A   1     -10.046  10.318  69.662  1.00  0.00    -0.224 C  
HETATM   13  O   UNK A   1     -10.585  11.386  69.044  1.00  0.00    -0.209 OA 
HETATM   14  O   UNK A   1     -10.725   9.607  70.392  1.00  0.00    -0.251 OA 
BRANCH  11  15
HETATM   15  C   UNK A   1      -7.209   7.860  68.806  1.00  0.00    -0.081 C  
BRANCH  15  16
HETATM   16  C   UNK A   1      -7.378   6.898  67.614  1.00  0.00    -0.096 C  
BRANCH  16  17
HETATM   17  C   UNK A   1      -6.056   6.920  66.834  1.00  0.00    -0.036 C  
BRANCH  17  18
HETATM   18  C   UNK A   1      -6.185   6.872  65.317  1.00  0.00    -0.036 C  
BRANCH  18  19
HETATM   19  S   UNK A   1      -6.549   8.584  64.775  1.00  0.00    -0.065 SA 
BRANCH  19  20
HETATM   20  C   UNK A   1      -8.365   8.483  64.648  1.00  0.00    -0.146 C  
BRANCH  20  21
HETATM   21  C   UNK A   1      -8.958   9.841  64.239  1.00  0.00    -0.237 C  
HETATM   22  N   UNK A   1      -7.905  10.835  63.851  1.00  0.00    -0.353 NA 
HETATM   23  C   UNK A   1      -9.717  10.396  65.445  1.00  0.00    -0.265 C  
HETATM   24  O   UNK A   1     -10.822  10.027  65.807  1.00  0.00     0.130 OA 
HETATM   25  O   UNK A   1      -8.979  11.326  66.107  1.00  0.00    -0.194 OA 
HETATM   26  H1  UNK A   1      -8.298  11.737  63.580  1.00  0.00     0.000 HD 
HETATM   27  H2  UNK A   1      -7.302  10.463  63.117  1.00  0.00     0.000 HD 
ENDBRANCH  20  21
ENDBRANCH  19  20
ENDBRANCH  18  19
ENDBRANCH  17  18
ENDBRANCH  16  17
ENDBRANCH  15  16
ENDBRANCH  11  15
ENDBRANCH   7  10
ENDBRANCH   5   6
TORSDOF 9
ENDMDL
MODEL      328
REMARK 921   NORMALIZED FREE ENERGY PREDICTED BY IDOCK:   -2.52 KCAL/MOL
REMARK 922        TOTAL FREE ENERGY PREDICTED BY IDOCK:   -4.82 KCAL/MOL
REMARK 923 INTER-LIGAND FREE ENERGY PREDICTED BY IDOCK:   -3.53 KCAL/MOL
REMARK 924 INTRA-LIGAND FREE ENERGY PREDICTED BY IDOCK:   -1.28 KCAL/MOL
REMARK 927      BINDING AFFINITY PREDICTED BY RF-SCORE:    0.00 PKD
ROOT
HETATM    1  C   UNK A   0     -10.802   3.480  63.522  1.00  0.00    -0.205 C  
HETATM    2  C   UNK A   0      -9.705   3.440  64.559  1.00  0.00    -0.167 C  
HETATM    3  C   UNK A   0      -8.903   4.709  64.722  1.00  0.00    -0.152 C  
HETATM    4  C   UNK A   0      -9.003   2.105  64.631  1.00  0.00    -0.121 C  
HETATM    5  C   UNK A   0      -9.845   4.281  65.835  1.00  0.00    -0.230 C  
ENDROOT
BRANCH   5   6
HETATM    6  C   UNK A   0      -9.213   3.909  67.144  1.00  0.00    -0.176 C  
HETATM    7  N   UNK A   1      -7.890   4.251  67.308  1.00  0.00    -0.095 N  
HETATM    8  O   UNK A   0      -9.850   3.271  67.972  1.00  0.00    -0.061 OA 
HETATM    9  H   UNK A   1      -7.461   4.758  66.534  1.00  0.00     0.000 HD 
BRANCH   7  10
HETATM   10  C   UNK A   1      -7.065   3.989  68.400  1.00  0.00    -0.055 C  
HETATM   11  C   UNK A   1      -6.701   4.983  69.250  1.00  0.00    -0.052 C  
HETATM   12  C   UNK A   1      -6.437   2.655  68.755  1.00  0.00    -0.029 C  
HETATM   13  O   UNK A   1      -6.121   1.854  67.719  1.00  0.00    -0.023 OA 
HETATM   14  O   UNK A   1      -6.070   2.384  69.891  1.00  0.00    -0.022 OA 
BRANCH  11  15
HETATM   15  C   UNK A   1      -7.055   6.435  69.146  1.00  0.00    -0.084 C  
BRANCH  15  16
HETATM   16  C   UNK A   1      -8.108   6.961  70.140  1.00  0.00    -0.127 C  
BRANCH  16  17
HETATM   17  C   UNK A   1      -8.188   8.481  69.941  1.00  0.00    -0.121 C  
BRANCH  17  18
HETATM   18  C   UNK A   1      -9.292   9.190  70.714  1.00  0.00    -0.264 C  
BRANCH  18  19
HETATM   19  S   UNK A   1     -10.858   8.811  69.842  1.00  0.00    -0.167 SA 
BRANCH  19  20
HETATM   20  C   UNK A   1     -10.562   9.705  68.281  1.00  0.00    -0.225 C  
BRANCH  20  21
HETATM   21  C   UNK A   1     -10.859   8.803  67.073  1.00  0.00     0.039 C  
HETATM   22  N   UNK A   1     -10.864   7.347  67.429  1.00  0.00    -0.510 NA 
HETATM   23  C   UNK A   1      -9.758   9.038  66.038  1.00  0.00    -0.269 C  
HETATM   24  O   UNK A   1      -9.690  10.004  65.295  1.00  0.00    -0.267 OA 
HETATM   25  O   UNK A   1      -8.822   8.054  66.082  1.00  0.00    -0.151 OA 
HETATM   26  H1  UNK A   1     -11.061   6.748  66.627  1.00  0.00     0.000 HD 
HETATM   27  H2  UNK A   1     -11.511   7.159  68.194  1.00  0.00     0.000 HD 
ENDBRANCH  20  21
ENDBRANCH  19  20
ENDBRANCH  18  19
ENDBRANCH  17  18
ENDBRANCH  16  17
ENDBRANCH  15  16
ENDBRANCH  11  15
ENDBRANCH   7  10
ENDBRANCH   5   6
TORSDOF 9
ENDMDL
MODEL      329
REMARK 921   NORMALIZED FREE ENERGY PREDICTED BY IDOCK:   -2.51 KCAL/MOL
REMARK 922        TOTAL FREE ENERGY PREDICTED BY IDOCK:   -4.79 KCAL/MOL
REMARK 923 INTER-LIGAND FREE ENERGY PREDICTED BY IDOCK:   -4.55 KCAL/MOL
REMARK 924 INTRA-LIGAND FREE ENERGY PREDICTED BY IDOCK:   -0.25 KCAL/MOL
REMARK 927      BINDING AFFINITY PREDICTED BY RF-SCORE:    0.00 PKD
ROOT
HETATM    1  C   UNK A   0      -7.172  14.935  69.496  1.00  0.00    -0.184 C  
HETATM    2  C   UNK A   0      -7.902  15.045  68.178  1.00  0.00    -0.121 C  
HETATM    3  C   UNK A   0      -7.758  13.868  67.243  1.00  0.00    -0.104 C  
HETATM    4  C   UNK A   0      -7.902  16.445  67.613  1.00  0.00    -0.160 C  
HETATM    5  C   UNK A   0      -9.101  14.128  67.905  1.00  0.00    -0.189 C  
ENDROOT
BRANCH   5   6
HETATM    6  C   UNK A   0     -10.236  14.499  66.996  1.00  0.00    -0.262 C  
HETATM    7  N   UNK A   1     -10.012  14.368  65.645  1.00  0.00    -0.408 N  
HETATM    8  O   UNK A   0     -11.269  14.961  67.463  1.00  0.00    -0.307 OA 
HETATM    9  H   UNK A   1      -9.099  13.997  65.378  1.00  0.00     0.000 HD 
BRANCH   7  10
HETATM   10  C   UNK A   1     -10.876  14.679  64.597  1.00  0.00    -0.313 C  
HETATM   11  C   UNK A   1     -11.134  13.775  63.617  1.00  0.00     0.520 C  
HETATM   12  C   UNK A   1     -11.572  16.007  64.368  1.00  0.00    -0.212 C  
HETATM   13  O   UNK A   1     -10.903  17.104  64.773  1.00  0.00    -0.834 OA 
HETATM   14  O   UNK A   1     -12.591  16.106  63.697  1.00  0.00    -0.456 OA 
BRANCH  11  15
HETATM   15  C   UNK A   1     -10.544  12.406  63.473  1.00  0.00    -0.451 C  
BRANCH  15  16
HETATM   16  C   UNK A   1      -9.949  11.774  64.747  1.00  0.00    -0.275 C  
BRANCH  16  17
HETATM   17  C   UNK A   1     -10.542  10.363  64.861  1.00  0.00     0.031 C  
BRANCH  17  18
HETATM   18  C   UNK A   1      -9.531   9.233  65.010  1.00  0.00    -0.049 C  
BRANCH  18  19
HETATM   19  S   UNK A   1      -7.941  10.021  65.469  1.00  0.00    -0.145 SA 
BRANCH  19  20
HETATM   20  C   UNK A   1      -7.286   8.748  66.599  1.00  0.00    -0.081 C  
BRANCH  20  21
HETATM   21  C   UNK A   1      -8.421   7.864  67.140  1.00  0.00    -0.117 C  
HETATM   22  N   UNK A   1      -8.614   8.016  68.618  1.00  0.00    -0.128 NA 
HETATM   23  C   UNK A   1      -8.049   6.409  66.854  1.00  0.00    -0.109 C  
HETATM   24  O   UNK A   1      -8.146   5.861  65.768  1.00  0.00    -0.110 OA 
HETATM   25  O   UNK A   1      -7.541   5.803  67.960  1.00  0.00    -0.083 OA 
HETATM   26  H1  UNK A   1      -9.368   7.430  68.978  1.00  0.00     0.000 HD 
HETATM   27  H2  UNK A   1      -8.759   8.994  68.871  1.00  0.00     0.000 HD 
ENDBRANCH  20  21
ENDBRANCH  19  20
ENDBRANCH  18  19
ENDBRANCH  17  18
ENDBRANCH  16  17
ENDBRANCH  15  16
ENDBRANCH  11  15
ENDBRANCH   7  10
ENDBRANCH   5   6
TORSDOF 9
ENDMDL
MODEL      330
REMARK 921   NORMALIZED FREE ENERGY PREDICTED BY IDOCK:   -2.45 KCAL/MOL
REMARK 922        TOTAL FREE ENERGY PREDICTED BY IDOCK:   -4.70 KCAL/MOL
REMARK 923 INTER-LIGAND FREE ENERGY PREDICTED BY IDOCK:   -4.19 KCAL/MOL
REMARK 924 INTRA-LIGAND FREE ENERGY PREDICTED BY IDOCK:   -0.52 KCAL/MOL
REMARK 927      BINDING AFFINITY PREDICTED BY RF-SCORE:    0.00 PKD
ROOT
HETATM    1  C   UNK A   0      -5.557  14.892  68.049  1.00  0.00    -0.142 C  
HETATM    2  C   UNK A   0      -6.158  13.520  68.242  1.00  0.00    -0.102 C  
HETATM    3  C   UNK A   0      -5.680  12.449  67.292  1.00  0.00    -0.114 C  
HETATM    4  C   UNK A   0      -7.614  13.559  68.644  1.00  0.00    -0.108 C  
HETATM    5  C   UNK A   0      -5.272  12.377  68.753  1.00  0.00    -0.054 C  
ENDROOT
BRANCH   5   6
HETATM    6  C   UNK A   0      -5.797  11.211  69.540  1.00  0.00    -0.061 C  
HETATM    7  N   UNK A   1      -6.095  10.072  68.828  1.00  0.00    -0.041 N  
HETATM    8  O   UNK A   0      -6.006  11.327  70.741  1.00  0.00    -0.317 OA 
HETATM    9  H   UNK A   1      -5.902  10.108  67.827  1.00  0.00     0.000 HD 
BRANCH   7  10
HETATM   10  C   UNK A   1      -6.627   8.876  69.306  1.00  0.00    -0.049 C  
HETATM   11  C   UNK A   1      -7.848   8.446  68.896  1.00  0.00    -0.113 C  
HETATM   12  C   UNK A   1      -5.996   7.957  70.335  1.00  0.00    -0.029 C  
HETATM   13  O   UNK A   1      -5.245   8.554  71.280  1.00  0.00    -0.029 OA 
HETATM   14  O   UNK A   1      -6.287   6.772  70.421  1.00  0.00    -0.040 OA 
BRANCH  11  15
HETATM   15  C   UNK A   1      -8.788   9.149  67.966  1.00  0.00    -0.129 C  
BRANCH  15  16
HETATM   16  C   UNK A   1      -9.791  10.127  68.609  1.00  0.00    -0.170 C  
BRANCH  16  17
HETATM   17  C   UNK A   1     -10.130  11.179  67.544  1.00  0.00    -0.210 C  
BRANCH  17  18
HETATM   18  C   UNK A   1      -8.986  11.570  66.616  1.00  0.00    -0.185 C  
BRANCH  18  19
HETATM   19  S   UNK A   1      -9.661  11.509  64.914  1.00  0.00    -0.139 SA 
BRANCH  19  20
HETATM   20  C   UNK A   1     -11.386  11.994  65.252  1.00  0.00    -0.312 C  
BRANCH  20  21
HETATM   21  C   UNK A   1     -11.955  12.825  64.091  1.00  0.00    -0.427 C  
HETATM   22  N   UNK A   1     -11.004  12.928  62.937  1.00  0.00    -0.256 NA 
HETATM   23  C   UNK A   1     -12.221  14.235  64.619  1.00  0.00    -0.454 C  
HETATM   24  O   UNK A   1     -13.174  14.556  65.310  1.00  0.00    -0.512 OA 
HETATM   25  O   UNK A   1     -11.225  15.090  64.265  1.00  0.00    -0.193 OA 
HETATM   26  H1  UNK A   1     -11.381  13.480  62.166  1.00  0.00     0.000 HD 
HETATM   27  H2  UNK A   1     -10.712  12.005  62.618  1.00  0.00     0.000 HD 
ENDBRANCH  20  21
ENDBRANCH  19  20
ENDBRANCH  18  19
ENDBRANCH  17  18
ENDBRANCH  16  17
ENDBRANCH  15  16
ENDBRANCH  11  15
ENDBRANCH   7  10
ENDBRANCH   5   6
TORSDOF 9
ENDMDL
MODEL      331
REMARK 921   NORMALIZED FREE ENERGY PREDICTED BY IDOCK:   -2.40 KCAL/MOL
REMARK 922        TOTAL FREE ENERGY PREDICTED BY IDOCK:   -4.64 KCAL/MOL
REMARK 923 INTER-LIGAND FREE ENERGY PREDICTED BY IDOCK:   -3.65 KCAL/MOL
REMARK 924 INTRA-LIGAND FREE ENERGY PREDICTED BY IDOCK:   -0.99 KCAL/MOL
REMARK 927      BINDING AFFINITY PREDICTED BY RF-SCORE:    0.00 PKD
ROOT
HETATM    1  C   UNK A   0     -10.328   5.287  66.257  1.00  0.00    -0.287 C  
HETATM    2  C   UNK A   0      -9.984   5.704  67.667  1.00  0.00    -0.177 C  
HETATM    3  C   UNK A   0     -11.128   6.233  68.498  1.00  0.00    -0.397 C  
HETATM    4  C   UNK A   0      -8.624   6.351  67.780  1.00  0.00    -0.116 C  
HETATM    5  C   UNK A   0     -10.523   4.884  68.846  1.00  0.00     0.035 C  
ENDROOT
BRANCH   5   6
HETATM    6  C   UNK A   0      -9.825   4.783  70.171  1.00  0.00    -0.238 C  
HETATM    7  N   UNK A   1      -8.456   4.646  70.138  1.00  0.00    -0.074 N  
HETATM    8  O   UNK A   0     -10.477   4.755  71.207  1.00  0.00    -0.159 OA 
HETATM    9  H   UNK A   1      -8.029   4.657  69.211  1.00  0.00     0.000 HD 
BRANCH   7  10
HETATM   10  C   UNK A   1      -7.582   4.495  71.212  1.00  0.00    -0.075 C  
HETATM   11  C   UNK A   1      -6.984   5.573  71.779  1.00  0.00    -0.075 C  
HETATM   12  C   UNK A   1      -7.144   3.184  71.838  1.00  0.00    -0.038 C  
HETATM   13  O   UNK A   1      -7.061   2.129  71.006  1.00  0.00    -0.032 OA 
HETATM   14  O   UNK A   1      -6.716   3.115  72.983  1.00  0.00    -0.027 OA 
BRANCH  11  15
HETATM   15  C   UNK A   1      -7.110   7.004  71.353  1.00  0.00    -0.070 C  
BRANCH  15  16
HETATM   16  C   UNK A   1      -8.106   7.874  72.144  1.00  0.00    -0.154 C  
BRANCH  16  17
HETATM   17  C   UNK A   1      -9.361   8.016  71.272  1.00  0.00    -0.182 C  
BRANCH  17  18
HETATM   18  C   UNK A   1      -9.901   9.433  71.122  1.00  0.00    -0.216 C  
BRANCH  18  19
HETATM   19  S   UNK A   1      -9.848   9.818  69.331  1.00  0.00    -0.219 SA 
BRANCH  19  20
HETATM   20  C   UNK A   1      -8.093  10.287  69.173  1.00  0.00    -0.138 C  
BRANCH  20  21
HETATM   21  C   UNK A   1      -7.955  11.650  68.475  1.00  0.00    -0.144 C  
HETATM   22  N   UNK A   1      -9.177  12.503  68.633  1.00  0.00    -0.397 NA 
HETATM   23  C   UNK A   1      -7.746  11.385  66.983  1.00  0.00    -0.154 C  
HETATM   24  O   UNK A   1      -6.696  11.025  66.477  1.00  0.00    -0.122 OA 
HETATM   25  O   UNK A   1      -8.900  11.553  66.286  1.00  0.00    -0.194 OA 
HETATM   26  H1  UNK A   1      -9.087  13.407  68.169  1.00  0.00     0.000 HD 
HETATM   27  H2  UNK A   1      -9.420  12.618  69.617  1.00  0.00     0.000 HD 
ENDBRANCH  20  21
ENDBRANCH  19  20
ENDBRANCH  18  19
ENDBRANCH  17  18
ENDBRANCH  16  17
ENDBRANCH  15  16
ENDBRANCH  11  15
ENDBRANCH   7  10
ENDBRANCH   5   6
TORSDOF 9
ENDMDL
MODEL      332
REMARK 921   NORMALIZED FREE ENERGY PREDICTED BY IDOCK:   -2.37 KCAL/MOL
REMARK 922        TOTAL FREE ENERGY PREDICTED BY IDOCK:   -4.59 KCAL/MOL
REMARK 923 INTER-LIGAND FREE ENERGY PREDICTED BY IDOCK:   -3.64 KCAL/MOL
REMARK 924 INTRA-LIGAND FREE ENERGY PREDICTED BY IDOCK:   -0.95 KCAL/MOL
REMARK 927      BINDING AFFINITY PREDICTED BY RF-SCORE:    0.00 PKD
ROOT
HETATM    1  C   UNK A   0      -5.169  14.793  68.168  1.00  0.00    -0.119 C  
HETATM    2  C   UNK A   0      -6.306  13.800  68.166  1.00  0.00    -0.125 C  
HETATM    3  C   UNK A   0      -6.198  12.674  67.166  1.00  0.00     0.020 C  
HETATM    4  C   UNK A   0      -7.652  14.435  68.424  1.00  0.00    -0.122 C  
HETATM    5  C   UNK A   0      -6.052  12.365  68.647  1.00  0.00    -0.065 C  
ENDROOT
BRANCH   5   6
HETATM    6  C   UNK A   0      -7.113  11.498  69.259  1.00  0.00    -0.077 C  
HETATM    7  N   UNK A   1      -8.356  11.537  68.670  1.00  0.00    -0.247 N  
HETATM    8  O   UNK A   0      -6.870  10.858  70.274  1.00  0.00    -0.233 OA 
HETATM    9  H   UNK A   1      -8.440  12.130  67.844  1.00  0.00     0.000 HD 
BRANCH   7  10
HETATM   10  C   UNK A   1      -9.513  10.866  69.062  1.00  0.00    -0.146 C  
HETATM   11  C   UNK A   1      -9.760   9.601  68.637  1.00  0.00    -0.162 C  
HETATM   12  C   UNK A   1     -10.632  11.427  69.918  1.00  0.00     0.422 C  
HETATM   13  O   UNK A   1     -10.867  12.747  69.795  1.00  0.00     0.189 OA 
HETATM   14  O   UNK A   1     -11.398  10.709  70.547  1.00  0.00    -0.314 OA 
BRANCH  11  15
HETATM   15  C   UNK A   1      -8.922   8.780  67.705  1.00  0.00    -0.140 C  
BRANCH  15  16
HETATM   16  C   UNK A   1      -9.592   8.325  66.394  1.00  0.00    -0.300 C  
BRANCH  16  17
HETATM   17  C   UNK A   1      -8.509   8.361  65.307  1.00  0.00    -0.189 C  
BRANCH  17  18
HETATM   18  C   UNK A   1      -8.975   8.812  63.928  1.00  0.00     0.334 C  
BRANCH  18  19
HETATM   19  S   UNK A   1      -9.053  10.641  63.982  1.00  0.00    -0.224 SA 
BRANCH  19  20
HETATM   20  C   UNK A   1     -10.819  10.860  64.381  1.00  0.00    -0.066 C  
BRANCH  20  21
HETATM   21  C   UNK A   1     -11.168  12.351  64.506  1.00  0.00    -0.323 C  
HETATM   22  N   UNK A   1     -10.062  13.243  64.029  1.00  0.00    -0.776 NA 
HETATM   23  C   UNK A   1     -11.414  12.645  65.987  1.00  0.00    -0.368 C  
HETATM   24  O   UNK A   1     -12.431  12.361  66.598  1.00  0.00    -0.329 OA 
HETATM   25  O   UNK A   1     -10.326  13.224  66.561  1.00  0.00    -0.275 OA 
HETATM   26  H1  UNK A   1     -10.293  14.233  64.112  1.00  0.00     0.000 HD 
HETATM   27  H2  UNK A   1      -9.788  13.009  63.074  1.00  0.00     0.000 HD 
ENDBRANCH  20  21
ENDBRANCH  19  20
ENDBRANCH  18  19
ENDBRANCH  17  18
ENDBRANCH  16  17
ENDBRANCH  15  16
ENDBRANCH  11  15
ENDBRANCH   7  10
ENDBRANCH   5   6
TORSDOF 9
ENDMDL
MODEL      333
REMARK 921   NORMALIZED FREE ENERGY PREDICTED BY IDOCK:   -2.28 KCAL/MOL
REMARK 922        TOTAL FREE ENERGY PREDICTED BY IDOCK:   -4.45 KCAL/MOL
REMARK 923 INTER-LIGAND FREE ENERGY PREDICTED BY IDOCK:   -3.93 KCAL/MOL
REMARK 924 INTRA-LIGAND FREE ENERGY PREDICTED BY IDOCK:   -0.53 KCAL/MOL
REMARK 927      BINDING AFFINITY PREDICTED BY RF-SCORE:    0.00 PKD
ROOT
HETATM    1  C   UNK A   0      -8.972  12.744  67.030  1.00  0.00    -0.221 C  
HETATM    2  C   UNK A   0      -8.567  11.295  67.162  1.00  0.00    -0.147 C  
HETATM    3  C   UNK A   0      -7.091  11.008  67.036  1.00  0.00    -0.118 C  
HETATM    4  C   UNK A   0      -9.564  10.341  66.549  1.00  0.00    -0.228 C  
HETATM    5  C   UNK A   0      -7.762  10.849  68.389  1.00  0.00    -0.116 C  
ENDROOT
BRANCH   5   6
HETATM    6  C   UNK A   0      -7.816   9.459  68.953  1.00  0.00    -0.083 C  
HETATM    7  N   UNK A   1      -6.771   8.623  68.632  1.00  0.00    -0.058 N  
HETATM    8  O   UNK A   0      -8.790   9.098  69.601  1.00  0.00    -0.135 OA 
HETATM    9  H   UNK A   1      -6.031   9.033  68.062  1.00  0.00     0.000 HD 
BRANCH   7  10
HETATM   10  C   UNK A   1      -6.599   7.287  68.989  1.00  0.00    -0.037 C  
HETATM   11  C   UNK A   1      -7.383   6.318  68.452  1.00  0.00    -0.086 C  
HETATM   12  C   UNK A   1      -5.615   6.748  70.009  1.00  0.00    -0.019 C  
HETATM   13  O   UNK A   1      -5.338   7.557  71.050  1.00  0.00    -0.027 OA 
HETATM   14  O   UNK A   1      -5.230   5.586  69.998  1.00  0.00    -0.004 OA 
BRANCH  11  15
HETATM   15  C   UNK A   1      -8.517   6.502  67.490  1.00  0.00    -0.120 C  
BRANCH  15  16
HETATM   16  C   UNK A   1      -9.666   5.479  67.575  1.00  0.00    -0.140 C  
BRANCH  16  17
HETATM   17  C   UNK A   1     -10.477   5.826  68.831  1.00  0.00    -0.326 C  
BRANCH  17  18
HETATM   18  C   UNK A   1     -10.271   4.901  70.024  1.00  0.00    -0.243 C  
BRANCH  18  19
HETATM   19  S   UNK A   1      -9.268   5.839  71.237  1.00  0.00    -0.146 SA 
BRANCH  19  20
HETATM   20  C   UNK A   1      -9.973   5.185  72.787  1.00  0.00    -0.161 C  
BRANCH  20  21
HETATM   21  C   UNK A   1     -10.518   6.326  73.660  1.00  0.00    -0.284 C  
HETATM   22  N   UNK A   1     -11.736   6.972  73.070  1.00  0.00    -0.502 NA 
HETATM   23  C   UNK A   1      -9.421   7.387  73.770  1.00  0.00    -0.279 C  
HETATM   24  O   UNK A   1      -8.441   7.307  74.493  1.00  0.00    -0.182 OA 
HETATM   25  O   UNK A   1      -9.647   8.420  72.916  1.00  0.00    -0.264 OA 
HETATM   26  H1  UNK A   1     -12.097   7.729  73.650  1.00  0.00     0.000 HD 
HETATM   27  H2  UNK A   1     -12.460   6.280  72.878  1.00  0.00     0.000 HD 
ENDBRANCH  20  21
ENDBRANCH  19  20
ENDBRANCH  18  19
ENDBRANCH  17  18
ENDBRANCH  16  17
ENDBRANCH  15  16
ENDBRANCH  11  15
ENDBRANCH   7  10
ENDBRANCH   5   6
TORSDOF 9
ENDMDL
MODEL      334
REMARK 921   NORMALIZED FREE ENERGY PREDICTED BY IDOCK:   -2.20 KCAL/MOL
REMARK 922        TOTAL FREE ENERGY PREDICTED BY IDOCK:   -4.32 KCAL/MOL
REMARK 923 INTER-LIGAND FREE ENERGY PREDICTED BY IDOCK:   -3.75 KCAL/MOL
REMARK 924 INTRA-LIGAND FREE ENERGY PREDICTED BY IDOCK:   -0.57 KCAL/MOL
REMARK 927      BINDING AFFINITY PREDICTED BY RF-SCORE:    0.00 PKD
ROOT
HETATM    1  C   UNK A   0     -11.495  10.061  70.685  1.00  0.00    -0.425 C  
HETATM    2  C   UNK A   0     -10.154   9.530  70.235  1.00  0.00    -0.314 C  
HETATM    3  C   UNK A   0      -9.348   8.799  71.281  1.00  0.00    -0.319 C  
HETATM    4  C   UNK A   0      -9.451  10.443  69.259  1.00  0.00    -0.214 C  
HETATM    5  C   UNK A   0      -9.945   8.014  70.125  1.00  0.00    -0.191 C  
ENDROOT
BRANCH   5   6
HETATM    6  C   UNK A   0      -8.974   7.381  69.172  1.00  0.00    -0.135 C  
HETATM    7  N   UNK A   1      -8.558   6.105  69.474  1.00  0.00    -0.126 N  
HETATM    8  O   UNK A   0      -8.540   8.022  68.223  1.00  0.00    -0.129 OA 
HETATM    9  H   UNK A   1      -8.972   5.685  70.307  1.00  0.00     0.000 HD 
BRANCH   7  10
HETATM   10  C   UNK A   1      -7.642   5.314  68.783  1.00  0.00    -0.082 C  
HETATM   11  C   UNK A   1      -8.062   4.361  67.913  1.00  0.00    -0.094 C  
HETATM   12  C   UNK A   1      -6.132   5.351  68.928  1.00  0.00    -0.025 C  
HETATM   13  O   UNK A   1      -5.662   5.665  70.151  1.00  0.00    -0.015 OA 
HETATM   14  O   UNK A   1      -5.379   4.948  68.052  1.00  0.00    -0.010 OA 
BRANCH  11  15
HETATM   15  C   UNK A   1      -9.478   3.985  67.600  1.00  0.00    -0.231 C  
BRANCH  15  16
HETATM   16  C   UNK A   1     -10.258   4.941  66.677  1.00  0.00    -0.291 C  
BRANCH  16  17
HETATM   17  C   UNK A   1      -9.252   5.490  65.656  1.00  0.00    -0.100 C  
BRANCH  17  18
HETATM   18  C   UNK A   1      -9.048   4.640  64.408  1.00  0.00    -0.122 C  
BRANCH  18  19
HETATM   19  S   UNK A   1      -7.528   5.266  63.600  1.00  0.00    -0.059 SA 
BRANCH  19  20
HETATM   20  C   UNK A   1      -7.423   6.911  64.381  1.00  0.00    -0.100 C  
BRANCH  20  21
HETATM   21  C   UNK A   1      -7.880   8.006  63.406  1.00  0.00    -0.147 C  
HETATM   22  N   UNK A   1      -6.802   8.410  62.447  1.00  0.00    -0.094 NA 
HETATM   23  C   UNK A   1      -8.265   9.232  64.236  1.00  0.00    -0.153 C  
HETATM   24  O   UNK A   1      -9.307   9.358  64.858  1.00  0.00    -0.242 OA 
HETATM   25  O   UNK A   1      -7.269  10.158  64.238  1.00  0.00    -0.135 OA 
HETATM   26  H1  UNK A   1      -7.105   9.137  61.799  1.00  0.00     0.000 HD 
HETATM   27  H2  UNK A   1      -6.437   7.601  61.944  1.00  0.00     0.000 HD 
ENDBRANCH  20  21
ENDBRANCH  19  20
ENDBRANCH  18  19
ENDBRANCH  17  18
ENDBRANCH  16  17
ENDBRANCH  15  16
ENDBRANCH  11  15
ENDBRANCH   7  10
ENDBRANCH   5   6
TORSDOF 9
ENDMDL
MODEL      335
REMARK 921   NORMALIZED FREE ENERGY PREDICTED BY IDOCK:   -2.20 KCAL/MOL
REMARK 922        TOTAL FREE ENERGY PREDICTED BY IDOCK:   -4.32 KCAL/MOL
REMARK 923 INTER-LIGAND FREE ENERGY PREDICTED BY IDOCK:   -5.43 KCAL/MOL
REMARK 924 INTRA-LIGAND FREE ENERGY PREDICTED BY IDOCK:    1.11 KCAL/MOL
REMARK 927      BINDING AFFINITY PREDICTED BY RF-SCORE:    0.00 PKD
ROOT
HETATM    1  C   UNK A   0     -14.247  15.264  71.183  1.00  0.00    -0.410 C  
HETATM    2  C   UNK A   0     -13.146  14.237  71.298  1.00  0.00    -0.425 C  
HETATM    3  C   UNK A   0     -12.693  13.907  72.699  1.00  0.00    -0.259 C  
HETATM    4  C   UNK A   0     -12.123  14.335  70.191  1.00  0.00    -0.403 C  
HETATM    5  C   UNK A   0     -13.461  12.864  71.906  1.00  0.00    -0.478 C  
ENDROOT
BRANCH   5   6
HETATM    6  C   UNK A   0     -12.715  11.611  71.548  1.00  0.00    -0.318 C  
HETATM    7  N   UNK A   1     -11.849  11.692  70.483  1.00  0.00    -0.488 N  
HETATM    8  O   UNK A   0     -12.945  10.569  72.149  1.00  0.00    -0.435 OA 
HETATM    9  H   UNK A   1     -11.764  12.610  70.045  1.00  0.00     0.000 HD 
BRANCH   7  10
HETATM   10  C   UNK A   1     -11.074  10.677  69.927  1.00  0.00    -0.298 C  
HETATM   11  C   UNK A   1     -10.178  10.945  68.943  1.00  0.00    -0.213 C  
HETATM   12  C   UNK A   1     -11.146   9.200  70.268  1.00  0.00    -0.239 C  
HETATM   13  O   UNK A   1     -12.358   8.732  70.622  1.00  0.00    -0.063 OA 
HETATM   14  O   UNK A   1     -10.213   8.434  70.065  1.00  0.00    -0.193 OA 
BRANCH  11  15
HETATM   15  C   UNK A   1      -9.917  12.270  68.296  1.00  0.00    -0.216 C  
BRANCH  15  16
HETATM   16  C   UNK A   1      -8.445  12.610  67.990  1.00  0.00    -0.177 C  
BRANCH  16  17
HETATM   17  C   UNK A   1      -7.995  11.662  66.870  1.00  0.00    -0.161 C  
BRANCH  17  18
HETATM   18  C   UNK A   1      -6.499  11.376  66.811  1.00  0.00    -0.140 C  
BRANCH  18  19
HETATM   19  S   UNK A   1      -6.158  10.138  68.117  1.00  0.00    -0.048 SA 
BRANCH  19  20
HETATM   20  C   UNK A   1      -5.985   8.645  67.084  1.00  0.00    -0.054 C  
BRANCH  20  21
HETATM   21  C   UNK A   1      -7.342   7.948  66.904  1.00  0.00    -0.090 C  
HETATM   22  N   UNK A   1      -8.253   8.149  68.077  1.00  0.00    -0.128 NA 
HETATM   23  C   UNK A   1      -7.076   6.449  66.758  1.00  0.00    -0.073 C  
HETATM   24  O   UNK A   1      -6.668   5.906  65.744  1.00  0.00    -0.046 OA 
HETATM   25  O   UNK A   1      -7.303   5.791  67.926  1.00  0.00    -0.074 OA 
HETATM   26  H1  UNK A   1      -9.154   7.686  67.958  1.00  0.00     0.000 HD 
HETATM   27  H2  UNK A   1      -8.375   9.141  68.281  1.00  0.00     0.000 HD 
ENDBRANCH  20  21
ENDBRANCH  19  20
ENDBRANCH  18  19
ENDBRANCH  17  18
ENDBRANCH  16  17
ENDBRANCH  15  16
ENDBRANCH  11  15
ENDBRANCH   7  10
ENDBRANCH   5   6
TORSDOF 9
ENDMDL
MODEL      336
REMARK 921   NORMALIZED FREE ENERGY PREDICTED BY IDOCK:   -2.17 KCAL/MOL
REMARK 922        TOTAL FREE ENERGY PREDICTED BY IDOCK:   -4.28 KCAL/MOL
REMARK 923 INTER-LIGAND FREE ENERGY PREDICTED BY IDOCK:   -3.95 KCAL/MOL
REMARK 924 INTRA-LIGAND FREE ENERGY PREDICTED BY IDOCK:   -0.33 KCAL/MOL
REMARK 927      BINDING AFFINITY PREDICTED BY RF-SCORE:    0.00 PKD
ROOT
HETATM    1  C   UNK A   0      -5.550  13.677  72.004  1.00  0.00    -0.074 C  
HETATM    2  C   UNK A   0      -6.039  14.522  70.851  1.00  0.00    -0.115 C  
HETATM    3  C   UNK A   0      -5.194  15.726  70.509  1.00  0.00    -0.163 C  
HETATM    4  C   UNK A   0      -7.544  14.629  70.788  1.00  0.00     1.504 C  
HETATM    5  C   UNK A   0      -5.232  14.551  69.547  1.00  0.00    -0.090 C  
ENDROOT
BRANCH   5   6
HETATM    6  C   UNK A   0      -5.845  14.806  68.201  1.00  0.00    -0.138 C  
HETATM    7  N   UNK A   1      -6.956  15.616  68.174  1.00  0.00    -0.113 N  
HETATM    8  O   UNK A   0      -5.397  14.247  67.207  1.00  0.00    -0.289 OA 
HETATM    9  H   UNK A   1      -7.250  16.001  69.072  1.00  0.00     0.000 HD 
BRANCH   7  10
HETATM   10  C   UNK A   1      -7.730  15.976  67.072  1.00  0.00    -0.229 C  
HETATM   11  C   UNK A   1      -8.625  15.107  66.537  1.00  0.00    -0.226 C  
HETATM   12  C   UNK A   1      -7.658  17.286  66.310  1.00  0.00    -0.325 C  
HETATM   13  O   UNK A   1      -6.446  17.871  66.251  1.00  0.00    -0.195 OA 
HETATM   14  O   UNK A   1      -8.589  17.705  65.636  1.00  0.00    -0.410 OA 
BRANCH  11  15
HETATM   15  C   UNK A   1      -8.886  13.697  66.972  1.00  0.00    -0.233 C  
BRANCH  15  16
HETATM   16  C   UNK A   1      -9.623  12.791  65.967  1.00  0.00    -0.182 C  
BRANCH  16  17
HETATM   17  C   UNK A   1     -10.672  12.005  66.765  1.00  0.00    -0.280 C  
BRANCH  17  18
HETATM   18  C   UNK A   1     -10.372  11.823  68.248  1.00  0.00    -0.206 C  
BRANCH  18  19
HETATM   19  S   UNK A   1     -11.951  11.333  69.038  1.00  0.00    -0.261 SA 
BRANCH  19  20
HETATM   20  C   UNK A   1     -11.915  12.428  70.496  1.00  0.00    -0.195 C  
BRANCH  20  21
HETATM   21  C   UNK A   1     -12.704  13.719  70.225  1.00  0.00    -0.144 C  
HETATM   22  N   UNK A   1     -12.335  14.355  68.919  1.00  0.00    -0.576 NA 
HETATM   23  C   UNK A   1     -12.374  14.705  71.347  1.00  0.00    -0.348 C  
HETATM   24  O   UNK A   1     -12.838  14.663  72.475  1.00  0.00    -0.346 OA 
HETATM   25  O   UNK A   1     -11.449  15.616  70.946  1.00  0.00    -0.321 OA 
HETATM   26  H1  UNK A   1     -12.858  15.212  68.739  1.00  0.00     0.000 HD 
HETATM   27  H2  UNK A   1     -12.437  13.695  68.148  1.00  0.00     0.000 HD 
ENDBRANCH  20  21
ENDBRANCH  19  20
ENDBRANCH  18  19
ENDBRANCH  17  18
ENDBRANCH  16  17
ENDBRANCH  15  16
ENDBRANCH  11  15
ENDBRANCH   7  10
ENDBRANCH   5   6
TORSDOF 9
ENDMDL
MODEL      337
REMARK 921   NORMALIZED FREE ENERGY PREDICTED BY IDOCK:   -2.17 KCAL/MOL
REMARK 922        TOTAL FREE ENERGY PREDICTED BY IDOCK:   -4.28 KCAL/MOL
REMARK 923 INTER-LIGAND FREE ENERGY PREDICTED BY IDOCK:   -3.91 KCAL/MOL
REMARK 924 INTRA-LIGAND FREE ENERGY PREDICTED BY IDOCK:   -0.37 KCAL/MOL
REMARK 927      BINDING AFFINITY PREDICTED BY RF-SCORE:    0.00 PKD
ROOT
HETATM    1  C   UNK A   0      -5.546  14.855  68.067  1.00  0.00    -0.142 C  
HETATM    2  C   UNK A   0      -6.124  13.539  68.529  1.00  0.00    -0.090 C  
HETATM    3  C   UNK A   0      -5.749  12.328  67.710  1.00  0.00    -0.097 C  
HETATM    4  C   UNK A   0      -7.530  13.663  69.068  1.00  0.00     0.021 C  
HETATM    5  C   UNK A   0      -5.190  12.472  69.115  1.00  0.00    -0.068 C  
ENDROOT
BRANCH   5   6
HETATM    6  C   UNK A   0      -5.631  11.449  70.121  1.00  0.00    -0.118 C  
HETATM    7  N   UNK A   1      -5.968  10.209  69.630  1.00  0.00    -0.042 N  
HETATM    8  O   UNK A   0      -5.743  11.758  71.300  1.00  0.00    -0.381 OA 
HETATM    9  H   UNK A   1      -5.858  10.082  68.623  1.00  0.00     0.000 HD 
BRANCH   7  10
HETATM   10  C   UNK A   1      -6.441   9.105  70.337  1.00  0.00    -0.051 C  
HETATM   11  C   UNK A   1      -7.588   8.482  69.967  1.00  0.00    -0.064 C  
HETATM   12  C   UNK A   1      -5.823   8.503  71.584  1.00  0.00    -0.045 C  
HETATM   13  O   UNK A   1      -5.197   9.363  72.410  1.00  0.00    -0.072 OA 
HETATM   14  O   UNK A   1      -6.026   7.345  71.923  1.00  0.00    -0.037 OA 
BRANCH  11  15
HETATM   15  C   UNK A   1      -8.506   8.868  68.847  1.00  0.00    -0.131 C  
BRANCH  15  16
HETATM   16  C   UNK A   1      -9.673   9.809  69.205  1.00  0.00    -0.204 C  
BRANCH  16  17
HETATM   17  C   UNK A   1     -10.193  10.393  67.885  1.00  0.00    -0.211 C  
BRANCH  17  18
HETATM   18  C   UNK A   1     -11.392  11.326  68.004  1.00  0.00    -0.304 C  
BRANCH  18  19
HETATM   19  S   UNK A   1     -10.976  12.826  67.037  1.00  0.00    -0.273 SA 
BRANCH  19  20
HETATM   20  C   UNK A   1     -12.140  14.009  67.793  1.00  0.00    -0.290 C  
BRANCH  20  21
HETATM   21  C   UNK A   1     -11.523  15.415  67.855  1.00  0.00    -0.299 C  
HETATM   22  N   UNK A   1     -10.146  15.466  67.264  1.00  0.00    -0.236 NA 
HETATM   23  C   UNK A   1     -11.426  15.812  69.329  1.00  0.00    -0.365 C  
HETATM   24  O   UNK A   1     -12.359  16.197  70.014  1.00  0.00    -0.136 OA 
HETATM   25  O   UNK A   1     -10.165  15.634  69.805  1.00  0.00    -0.273 OA 
HETATM   26  H1  UNK A   1      -9.736  16.399  67.305  1.00  0.00     0.000 HD 
HETATM   27  H2  UNK A   1     -10.143  15.106  66.310  1.00  0.00     0.000 HD 
ENDBRANCH  20  21
ENDBRANCH  19  20
ENDBRANCH  18  19
ENDBRANCH  17  18
ENDBRANCH  16  17
ENDBRANCH  15  16
ENDBRANCH  11  15
ENDBRANCH   7  10
ENDBRANCH   5   6
TORSDOF 9
ENDMDL
MODEL      338
REMARK 921   NORMALIZED FREE ENERGY PREDICTED BY IDOCK:   -2.13 KCAL/MOL
REMARK 922        TOTAL FREE ENERGY PREDICTED BY IDOCK:   -4.22 KCAL/MOL
REMARK 923 INTER-LIGAND FREE ENERGY PREDICTED BY IDOCK:   -3.50 KCAL/MOL
REMARK 924 INTRA-LIGAND FREE ENERGY PREDICTED BY IDOCK:   -0.73 KCAL/MOL
REMARK 927      BINDING AFFINITY PREDICTED BY RF-SCORE:    0.00 PKD
ROOT
HETATM    1  C   UNK A   0      -5.534  14.748  68.161  1.00  0.00    -0.124 C  
HETATM    2  C   UNK A   0      -6.483  13.573  68.188  1.00  0.00    -0.123 C  
HETATM    3  C   UNK A   0      -6.166  12.446  67.235  1.00  0.00    -0.144 C  
HETATM    4  C   UNK A   0      -7.922  13.976  68.408  1.00  0.00    -0.143 C  
HETATM    5  C   UNK A   0      -5.993  12.223  68.727  1.00  0.00    -0.065 C  
ENDROOT
BRANCH   5   6
HETATM    6  C   UNK A   0      -6.898  11.209  69.364  1.00  0.00    -0.125 C  
HETATM    7  N   UNK A   1      -7.916  10.715  68.581  1.00  0.00    -0.120 N  
HETATM    8  O   UNK A   0      -6.754  10.914  70.543  1.00  0.00    -0.292 OA 
HETATM    9  H   UNK A   1      -7.948  11.058  67.621  1.00  0.00     0.000 HD 
BRANCH   7  10
HETATM   10  C   UNK A   1      -8.908   9.803  68.938  1.00  0.00    -0.140 C  
HETATM   11  C   UNK A   1      -8.756   8.478  68.689  1.00  0.00    -0.139 C  
HETATM   12  C   UNK A   1     -10.250  10.133  69.564  1.00  0.00    -0.236 C  
HETATM   13  O   UNK A   1     -10.794  11.313  69.213  1.00  0.00    -0.225 OA 
HETATM   14  O   UNK A   1     -10.893   9.312  70.206  1.00  0.00    -0.223 OA 
BRANCH  11  15
HETATM   15  C   UNK A   1      -7.605   7.815  67.997  1.00  0.00    -0.120 C  
BRANCH  15  16
HETATM   16  C   UNK A   1      -7.871   7.278  66.577  1.00  0.00    -0.109 C  
BRANCH  16  17
HETATM   17  C   UNK A   1      -6.507   7.164  65.882  1.00  0.00    -0.048 C  
BRANCH  17  18
HETATM   18  C   UNK A   1      -6.507   6.431  64.547  1.00  0.00    -0.034 C  
BRANCH  18  19
HETATM   19  S   UNK A   1      -8.229   5.873  64.264  1.00  0.00    -0.040 SA 
BRANCH  19  20
HETATM   20  C   UNK A   1      -7.969   4.068  64.273  1.00  0.00    -0.086 C  
BRANCH  20  21
HETATM   21  C   UNK A   1      -9.261   3.335  64.669  1.00  0.00    -0.141 C  
HETATM   22  N   UNK A   1     -10.491   4.147  64.395  1.00  0.00    -0.428 NA 
HETATM   23  C   UNK A   1      -9.194   3.061  66.172  1.00  0.00    -0.110 C  
HETATM   24  O   UNK A   1      -8.536   2.176  66.694  1.00  0.00    -0.099 OA 
HETATM   25  O   UNK A   1      -9.925   3.969  66.871  1.00  0.00    -0.187 OA 
HETATM   26  H1  UNK A   1     -11.348   3.661  64.658  1.00  0.00     0.000 HD 
HETATM   27  H2  UNK A   1     -10.523   4.445  63.420  1.00  0.00     0.000 HD 
ENDBRANCH  20  21
ENDBRANCH  19  20
ENDBRANCH  18  19
ENDBRANCH  17  18
ENDBRANCH  16  17
ENDBRANCH  15  16
ENDBRANCH  11  15
ENDBRANCH   7  10
ENDBRANCH   5   6
TORSDOF 9
ENDMDL
MODEL      339
REMARK 921   NORMALIZED FREE ENERGY PREDICTED BY IDOCK:   -2.09 KCAL/MOL
REMARK 922        TOTAL FREE ENERGY PREDICTED BY IDOCK:   -4.16 KCAL/MOL
REMARK 923 INTER-LIGAND FREE ENERGY PREDICTED BY IDOCK:   -4.19 KCAL/MOL
REMARK 924 INTRA-LIGAND FREE ENERGY PREDICTED BY IDOCK:    0.03 KCAL/MOL
REMARK 927      BINDING AFFINITY PREDICTED BY RF-SCORE:    0.00 PKD
ROOT
HETATM    1  C   UNK A   0      -5.462  13.658  71.939  1.00  0.00    -0.150 C  
HETATM    2  C   UNK A   0      -5.997  14.477  70.788  1.00  0.00    -0.173 C  
HETATM    3  C   UNK A   0      -5.148  15.651  70.362  1.00  0.00    -0.134 C  
HETATM    4  C   UNK A   0      -7.501  14.616  70.805  1.00  0.00     1.320 C  
HETATM    5  C   UNK A   0      -5.263  14.448  69.441  1.00  0.00    -0.089 C  
ENDROOT
BRANCH   5   6
HETATM    6  C   UNK A   0      -5.945  14.674  68.123  1.00  0.00    -0.139 C  
HETATM    7  N   UNK A   1      -7.025  15.526  68.127  1.00  0.00    -0.114 N  
HETATM    8  O   UNK A   0      -5.578  14.060  67.129  1.00  0.00    -0.162 OA 
HETATM    9  H   UNK A   1      -7.251  15.957  69.024  1.00  0.00     0.000 HD 
BRANCH   7  10
HETATM   10  C   UNK A   1      -7.849  15.873  67.058  1.00  0.00    -0.232 C  
HETATM   11  C   UNK A   1      -8.751  14.990  66.560  1.00  0.00    -0.244 C  
HETATM   12  C   UNK A   1      -7.828  17.183  66.293  1.00  0.00    -0.316 C  
HETATM   13  O   UNK A   1      -6.628  17.786  66.184  1.00  0.00    -0.224 OA 
HETATM   14  O   UNK A   1      -8.793  17.587  65.658  1.00  0.00    -0.416 OA 
BRANCH  11  15
HETATM   15  C   UNK A   1      -8.973  13.577  67.006  1.00  0.00    -0.237 C  
BRANCH  15  16
HETATM   16  C   UNK A   1      -9.865  12.701  66.105  1.00  0.00    -0.265 C  
BRANCH  16  17
HETATM   17  C   UNK A   1     -10.628  11.744  67.030  1.00  0.00    -0.267 C  
BRANCH  17  18
HETATM   18  C   UNK A   1     -10.022  11.542  68.414  1.00  0.00    -0.206 C  
BRANCH  18  19
HETATM   19  S   UNK A   1      -9.829   9.733  68.632  1.00  0.00    -0.163 SA 
BRANCH  19  20
HETATM   20  C   UNK A   1     -10.424   9.569  70.349  1.00  0.00    -0.278 C  
BRANCH  20  21
HETATM   21  C   UNK A   1     -11.929   9.257  70.375  1.00  0.00     0.016 C  
HETATM   22  N   UNK A   1     -12.737  10.256  69.603  1.00  0.00    -0.520 NA 
HETATM   23  C   UNK A   1     -12.383   9.301  71.835  1.00  0.00    -0.382 C  
HETATM   24  O   UNK A   1     -12.191   8.418  72.655  1.00  0.00    -0.380 OA 
HETATM   25  O   UNK A   1     -12.992  10.481  72.126  1.00  0.00    -0.435 OA 
HETATM   26  H1  UNK A   1     -13.736  10.050  69.620  1.00  0.00     0.000 HD 
HETATM   27  H2  UNK A   1     -12.397  10.340  68.645  1.00  0.00     0.000 HD 
ENDBRANCH  20  21
ENDBRANCH  19  20
ENDBRANCH  18  19
ENDBRANCH  17  18
ENDBRANCH  16  17
ENDBRANCH  15  16
ENDBRANCH  11  15
ENDBRANCH   7  10
ENDBRANCH   5   6
TORSDOF 9
ENDMDL
MODEL      340
REMARK 921   NORMALIZED FREE ENERGY PREDICTED BY IDOCK:   -2.02 KCAL/MOL
REMARK 922        TOTAL FREE ENERGY PREDICTED BY IDOCK:   -4.06 KCAL/MOL
REMARK 923 INTER-LIGAND FREE ENERGY PREDICTED BY IDOCK:   -3.51 KCAL/MOL
REMARK 924 INTRA-LIGAND FREE ENERGY PREDICTED BY IDOCK:   -0.55 KCAL/MOL
REMARK 927      BINDING AFFINITY PREDICTED BY RF-SCORE:    0.00 PKD
ROOT
HETATM    1  C   UNK A   0     -12.192  14.600  68.242  1.00  0.00    -0.112 C  
HETATM    2  C   UNK A   0     -11.676  13.368  68.947  1.00  0.00    -0.369 C  
HETATM    3  C   UNK A   0     -11.566  13.464  70.450  1.00  0.00    -0.048 C  
HETATM    4  C   UNK A   0     -10.603  12.644  68.169  1.00  0.00    -0.241 C  
HETATM    5  C   UNK A   0     -12.625  12.561  69.842  1.00  0.00     0.171 C  
ENDROOT
BRANCH   5   6
HETATM    6  C   UNK A   0     -12.475  11.088  70.091  1.00  0.00    -0.269 C  
HETATM    7  N   UNK A   1     -11.200  10.632  70.336  1.00  0.00    -0.417 N  
HETATM    8  O   UNK A   0     -13.447  10.349  70.001  1.00  0.00     0.102 OA 
HETATM    9  H   UNK A   1     -10.468  11.343  70.359  1.00  0.00     0.000 HD 
BRANCH   7  10
HETATM   10  C   UNK A   1     -10.785   9.320  70.557  1.00  0.00    -0.257 C  
HETATM   11  C   UNK A   1     -10.253   8.581  69.551  1.00  0.00    -0.206 C  
HETATM   12  C   UNK A   1     -10.908   8.544  71.854  1.00  0.00    -0.322 C  
HETATM   13  O   UNK A   1     -11.972   8.841  72.624  1.00  0.00    -0.298 OA 
HETATM   14  O   UNK A   1     -10.197   7.582  72.112  1.00  0.00    -0.187 OA 
BRANCH  11  15
HETATM   15  C   UNK A   1     -10.076   8.994  68.122  1.00  0.00    -0.229 C  
BRANCH  15  16
HETATM   16  C   UNK A   1      -9.992   7.861  67.081  1.00  0.00    -0.298 C  
BRANCH  16  17
HETATM   17  C   UNK A   1      -8.506   7.677  66.744  1.00  0.00    -0.127 C  
BRANCH  17  18
HETATM   18  C   UNK A   1      -8.055   6.240  66.514  1.00  0.00    -0.110 C  
BRANCH  18  19
HETATM   19  S   UNK A   1      -9.278   5.493  65.372  1.00  0.00     0.085 SA 
BRANCH  19  20
HETATM   20  C   UNK A   1      -8.179   5.075  63.978  1.00  0.00    -0.125 C  
BRANCH  20  21
HETATM   21  C   UNK A   1      -7.790   3.589  64.019  1.00  0.00    -0.081 C  
HETATM   22  N   UNK A   1      -8.698   2.780  64.895  1.00  0.00    -0.108 NA 
HETATM   23  C   UNK A   1      -6.372   3.498  64.587  1.00  0.00    -0.024 C  
HETATM   24  O   UNK A   1      -5.352   3.744  63.965  1.00  0.00    -0.008 OA 
HETATM   25  O   UNK A   1      -6.390   3.155  65.902  1.00  0.00    -0.030 OA 
HETATM   26  H1  UNK A   1      -8.440   1.794  64.922  1.00  0.00     0.000 HD 
HETATM   27  H2  UNK A   1      -9.673   2.896  64.618  1.00  0.00     0.000 HD 
ENDBRANCH  20  21
ENDBRANCH  19  20
ENDBRANCH  18  19
ENDBRANCH  17  18
ENDBRANCH  16  17
ENDBRANCH  15  16
ENDBRANCH  11  15
ENDBRANCH   7  10
ENDBRANCH   5   6
TORSDOF 9
ENDMDL
MODEL      341
REMARK 921   NORMALIZED FREE ENERGY PREDICTED BY IDOCK:   -1.86 KCAL/MOL
REMARK 922        TOTAL FREE ENERGY PREDICTED BY IDOCK:   -3.81 KCAL/MOL
REMARK 923 INTER-LIGAND FREE ENERGY PREDICTED BY IDOCK:   -4.72 KCAL/MOL
REMARK 924 INTRA-LIGAND FREE ENERGY PREDICTED BY IDOCK:    0.90 KCAL/MOL
REMARK 927      BINDING AFFINITY PREDICTED BY RF-SCORE:    0.00 PKD
ROOT
HETATM    1  C   UNK A   0      -5.632  14.426  68.322  1.00  0.00    -0.118 C  
HETATM    2  C   UNK A   0      -6.310  13.157  67.862  1.00  0.00    -0.139 C  
HETATM    3  C   UNK A   0      -5.416  12.126  67.217  1.00  0.00    -0.124 C  
HETATM    4  C   UNK A   0      -7.694  13.392  67.304  1.00  0.00    -0.092 C  
HETATM    5  C   UNK A   0      -6.009  11.839  68.586  1.00  0.00    -0.050 C  
ENDROOT
BRANCH   5   6
HETATM    6  C   UNK A   0      -6.983  10.700  68.669  1.00  0.00    -0.072 C  
HETATM    7  N   UNK A   1      -7.494  10.238  67.478  1.00  0.00    -0.089 N  
HETATM    8  O   UNK A   0      -7.338  10.276  69.762  1.00  0.00    -0.134 OA 
HETATM    9  H   UNK A   1      -7.140  10.690  66.635  1.00  0.00     0.000 HD 
BRANCH   7  10
HETATM   10  C   UNK A   1      -8.434   9.228  67.281  1.00  0.00    -0.125 C  
HETATM   11  C   UNK A   1      -9.161   9.169  66.137  1.00  0.00    -0.259 C  
HETATM   12  C   UNK A   1      -8.811   8.144  68.273  1.00  0.00    -0.133 C  
HETATM   13  O   UNK A   1      -8.743   8.481  69.575  1.00  0.00    -0.133 OA 
HETATM   14  O   UNK A   1      -9.320   7.086  67.926  1.00  0.00    -0.125 OA 
BRANCH  11  15
HETATM   15  C   UNK A   1      -9.120  10.131  64.989  1.00  0.00    -0.245 C  
BRANCH  15  16
HETATM   16  C   UNK A   1     -10.429  10.878  64.669  1.00  0.00    -0.384 C  
BRANCH  16  17
HETATM   17  C   UNK A   1     -10.038  12.152  63.907  1.00  0.00    -0.387 C  
BRANCH  17  18
HETATM   18  C   UNK A   1     -11.173  13.131  63.634  1.00  0.00    -0.194 C  
BRANCH  18  19
HETATM   19  S   UNK A   1     -11.282  14.218  65.105  1.00  0.00    -0.365 SA 
BRANCH  19  20
HETATM   20  C   UNK A   1     -12.614  13.367  66.015  1.00  0.00    -0.296 C  
BRANCH  20  21
HETATM   21  C   UNK A   1     -12.261  13.241  67.505  1.00  0.00    -0.164 C  
HETATM   22  N   UNK A   1     -11.357  14.340  67.977  1.00  0.00    -0.280 NA 
HETATM   23  C   UNK A   1     -11.534  11.909  67.697  1.00  0.00    -0.317 C  
HETATM   24  O   UNK A   1     -12.075  10.816  67.737  1.00  0.00    -0.295 OA 
HETATM   25  O   UNK A   1     -10.188  12.087  67.765  1.00  0.00    -0.195 OA 
HETATM   26  H1  UNK A   1     -11.121  14.257  68.966  1.00  0.00     0.000 HD 
HETATM   27  H2  UNK A   1     -11.755  15.256  67.771  1.00  0.00     0.000 HD 
ENDBRANCH  20  21
ENDBRANCH  19  20
ENDBRANCH  18  19
ENDBRANCH  17  18
ENDBRANCH  16  17
ENDBRANCH  15  16
ENDBRANCH  11  15
ENDBRANCH   7  10
ENDBRANCH   5   6
TORSDOF 9
ENDMDL
MODEL      342
REMARK 921   NORMALIZED FREE ENERGY PREDICTED BY IDOCK:   -1.82 KCAL/MOL
REMARK 922        TOTAL FREE ENERGY PREDICTED BY IDOCK:   -3.74 KCAL/MOL
REMARK 923 INTER-LIGAND FREE ENERGY PREDICTED BY IDOCK:   -3.67 KCAL/MOL
REMARK 924 INTRA-LIGAND FREE ENERGY PREDICTED BY IDOCK:   -0.07 KCAL/MOL
REMARK 927      BINDING AFFINITY PREDICTED BY RF-SCORE:    0.00 PKD
ROOT
HETATM    1  C   UNK A   0      -5.173  14.429  68.571  1.00  0.00    -0.100 C  
HETATM    2  C   UNK A   0      -6.462  13.648  68.471  1.00  0.00    -0.090 C  
HETATM    3  C   UNK A   0      -6.543  12.649  67.342  1.00  0.00    -0.145 C  
HETATM    4  C   UNK A   0      -7.681  14.464  68.828  1.00  0.00    -0.139 C  
HETATM    5  C   UNK A   0      -6.454  12.144  68.772  1.00  0.00    -0.078 C  
ENDROOT
BRANCH   5   6
HETATM    6  C   UNK A   0      -7.647  11.399  69.296  1.00  0.00     0.027 C  
HETATM    7  N   UNK A   1      -8.854  11.665  68.691  1.00  0.00    -0.316 N  
HETATM    8  O   UNK A   0      -7.530  10.656  70.262  1.00  0.00    -0.118 OA 
HETATM    9  H   UNK A   1      -8.827  12.325  67.913  1.00  0.00     0.000 HD 
BRANCH   7  10
HETATM   10  C   UNK A   1     -10.107  11.144  69.008  1.00  0.00    -0.155 C  
HETATM   11  C   UNK A   1     -10.379   9.827  68.827  1.00  0.00    -0.227 C  
HETATM   12  C   UNK A   1     -11.303  11.926  69.517  1.00  0.00    -0.236 C  
HETATM   13  O   UNK A   1     -11.414  13.194  69.076  1.00  0.00    -0.260 OA 
HETATM   14  O   UNK A   1     -12.214  11.398  70.141  1.00  0.00    -0.317 OA 
BRANCH  11  15
HETATM   15  C   UNK A   1      -9.466   8.787  68.252  1.00  0.00    -0.150 C  
BRANCH  15  16
HETATM   16  C   UNK A   1      -9.931   8.105  66.951  1.00  0.00    -0.343 C  
BRANCH  16  17
HETATM   17  C   UNK A   1      -8.928   8.503  65.859  1.00  0.00    -0.235 C  
BRANCH  17  18
HETATM   18  C   UNK A   1      -8.074   7.369  65.304  1.00  0.00    -0.131 C  
BRANCH  18  19
HETATM   19  S   UNK A   1      -8.526   5.870  66.256  1.00  0.00    -0.133 SA 
BRANCH  19  20
HETATM   20  C   UNK A   1      -9.122   4.812  64.894  1.00  0.00    -0.141 C  
BRANCH  20  21
HETATM   21  C   UNK A   1      -8.325   3.500  64.837  1.00  0.00    -0.097 C  
HETATM   22  N   UNK A   1      -6.843   3.724  64.864  1.00  0.00    -0.048 NA 
HETATM   23  C   UNK A   1      -8.679   2.801  63.523  1.00  0.00    -0.085 C  
HETATM   24  O   UNK A   1      -9.708   2.180  63.316  1.00  0.00    -0.094 OA 
HETATM   25  O   UNK A   1      -7.717   3.002  62.584  1.00  0.00    -0.059 OA 
HETATM   26  H1  UNK A   1      -6.314   2.853  64.826  1.00  0.00     0.000 HD 
HETATM   27  H2  UNK A   1      -6.571   4.283  65.673  1.00  0.00     0.000 HD 
ENDBRANCH  20  21
ENDBRANCH  19  20
ENDBRANCH  18  19
ENDBRANCH  17  18
ENDBRANCH  16  17
ENDBRANCH  15  16
ENDBRANCH  11  15
ENDBRANCH   7  10
ENDBRANCH   5   6
TORSDOF 9
ENDMDL
MODEL      343
REMARK 921   NORMALIZED FREE ENERGY PREDICTED BY IDOCK:   -1.81 KCAL/MOL
REMARK 922        TOTAL FREE ENERGY PREDICTED BY IDOCK:   -3.73 KCAL/MOL
REMARK 923 INTER-LIGAND FREE ENERGY PREDICTED BY IDOCK:   -3.27 KCAL/MOL
REMARK 924 INTRA-LIGAND FREE ENERGY PREDICTED BY IDOCK:   -0.46 KCAL/MOL
REMARK 927      BINDING AFFINITY PREDICTED BY RF-SCORE:    0.00 PKD
ROOT
HETATM    1  C   UNK A   0     -10.876   5.758  66.162  1.00  0.00     0.109 C  
HETATM    2  C   UNK A   0     -10.053   5.810  67.428  1.00  0.00    -0.207 C  
HETATM    3  C   UNK A   0     -10.745   6.379  68.642  1.00  0.00    -0.341 C  
HETATM    4  C   UNK A   0      -8.600   6.139  67.179  1.00  0.00    -0.103 C  
HETATM    5  C   UNK A   0     -10.423   4.895  68.602  1.00  0.00     0.062 C  
ENDROOT
BRANCH   5   6
HETATM    6  C   UNK A   0      -9.426   4.397  69.608  1.00  0.00    -0.182 C  
HETATM    7  N   UNK A   1      -8.106   4.400  69.220  1.00  0.00    -0.068 N  
HETATM    8  O   UNK A   0      -9.810   3.951  70.682  1.00  0.00    -0.189 OA 
HETATM    9  H   UNK A   1      -7.915   4.772  68.290  1.00  0.00     0.000 HD 
BRANCH   7  10
HETATM   10  C   UNK A   1      -6.999   3.957  69.941  1.00  0.00    -0.041 C  
HETATM   11  C   UNK A   1      -6.165   4.841  70.546  1.00  0.00    -0.022 C  
HETATM   12  C   UNK A   1      -6.547   2.518  70.104  1.00  0.00    -0.033 C  
HETATM   13  O   UNK A   1      -6.795   1.698  69.065  1.00  0.00    -0.032 OA 
HETATM   14  O   UNK A   1      -5.841   2.154  71.035  1.00  0.00    -0.012 OA 
BRANCH  11  15
HETATM   15  C   UNK A   1      -6.252   6.336  70.510  1.00  0.00    -0.035 C  
BRANCH  15  16
HETATM   16  C   UNK A   1      -6.678   7.034  71.816  1.00  0.00    -0.053 C  
BRANCH  16  17
HETATM   17  C   UNK A   1      -8.174   6.748  72.004  1.00  0.00    -0.104 C  
BRANCH  17  18
HETATM   18  C   UNK A   1      -8.928   7.735  72.887  1.00  0.00    -0.188 C  
BRANCH  18  19
HETATM   19  S   UNK A   1      -9.692   8.958  71.756  1.00  0.00    -0.240 SA 
BRANCH  19  20
HETATM   20  C   UNK A   1     -11.427   8.401  71.833  1.00  0.00    -0.318 C  
BRANCH  20  21
HETATM   21  C   UNK A   1     -12.372   9.596  72.039  1.00  0.00    -0.298 C  
HETATM   22  N   UNK A   1     -13.524   9.269  72.942  1.00  0.00    -0.770 NA 
HETATM   23  C   UNK A   1     -12.933   9.982  70.670  1.00  0.00    -0.184 C  
HETATM   24  O   UNK A   1     -12.329  10.614  69.819  1.00  0.00    -0.299 OA 
HETATM   25  O   UNK A   1     -14.187   9.487  70.493  1.00  0.00     0.279 OA 
HETATM   26  H1  UNK A   1     -14.152  10.061  73.079  1.00  0.00     0.000 HD 
HETATM   27  H2  UNK A   1     -13.197   8.902  73.835  1.00  0.00     0.000 HD 
ENDBRANCH  20  21
ENDBRANCH  19  20
ENDBRANCH  18  19
ENDBRANCH  17  18
ENDBRANCH  16  17
ENDBRANCH  15  16
ENDBRANCH  11  15
ENDBRANCH   7  10
ENDBRANCH   5   6
TORSDOF 9
ENDMDL
MODEL      344
REMARK 921   NORMALIZED FREE ENERGY PREDICTED BY IDOCK:   -1.79 KCAL/MOL
REMARK 922        TOTAL FREE ENERGY PREDICTED BY IDOCK:   -3.70 KCAL/MOL
REMARK 923 INTER-LIGAND FREE ENERGY PREDICTED BY IDOCK:   -4.24 KCAL/MOL
REMARK 924 INTRA-LIGAND FREE ENERGY PREDICTED BY IDOCK:    0.55 KCAL/MOL
REMARK 927      BINDING AFFINITY PREDICTED BY RF-SCORE:    0.00 PKD
ROOT
HETATM    1  C   UNK A   0     -10.992   7.528  70.355  1.00  0.00    -0.264 C  
HETATM    2  C   UNK A   0     -11.091   8.999  70.682  1.00  0.00    -0.314 C  
HETATM    3  C   UNK A   0      -9.910   9.848  70.278  1.00  0.00    -0.236 C  
HETATM    4  C   UNK A   0     -11.784   9.270  71.997  1.00  0.00    -0.336 C  
HETATM    5  C   UNK A   0     -11.228  10.015  69.541  1.00  0.00    -0.254 C  
ENDROOT
BRANCH   5   6
HETATM    6  C   UNK A   0     -11.917  11.340  69.692  1.00  0.00    -0.353 C  
HETATM    7  N   UNK A   1     -11.374  12.399  69.001  1.00  0.00    -0.266 N  
HETATM    8  O   UNK A   0     -12.868  11.453  70.455  1.00  0.00    -0.171 OA 
HETATM    9  H   UNK A   1     -10.565  12.183  68.417  1.00  0.00     0.000 HD 
BRANCH   7  10
HETATM   10  C   UNK A   1     -11.793  13.728  68.999  1.00  0.00    -0.357 C  
HETATM   11  C   UNK A   1     -12.065  14.370  67.834  1.00  0.00    -0.280 C  
HETATM   12  C   UNK A   1     -11.944  14.626  70.212  1.00  0.00    -0.308 C  
HETATM   13  O   UNK A   1     -11.088  14.399  71.227  1.00  0.00     0.255 OA 
HETATM   14  O   UNK A   1     -12.669  15.612  70.212  1.00  0.00    -0.385 OA 
BRANCH  11  15
HETATM   15  C   UNK A   1     -11.928  13.820  66.447  1.00  0.00    -0.473 C  
BRANCH  15  16
HETATM   16  C   UNK A   1     -11.023  14.608  65.479  1.00  0.00    -0.344 C  
BRANCH  16  17
HETATM   17  C   UNK A   1     -10.834  16.005  66.087  1.00  0.00    -0.179 C  
BRANCH  17  18
HETATM   18  C   UNK A   1      -9.420  16.568  66.017  1.00  0.00    -0.282 C  
BRANCH  18  19
HETATM   19  S   UNK A   1      -9.589  18.328  65.535  1.00  0.00     1.134 SA 
BRANCH  19  20
HETATM   20  C   UNK A   1     -10.040  19.044  67.150  1.00  0.00    -0.364 C  
BRANCH  20  21
HETATM   21  C   UNK A   1      -8.834  19.038  68.103  1.00  0.00    -0.316 C  
HETATM   22  N   UNK A   1      -7.527  19.159  67.379  1.00  0.00    -0.232 NA 
HETATM   23  C   UNK A   1      -8.845  17.704  68.852  1.00  0.00    -0.124 C  
HETATM   24  O   UNK A   1      -9.580  17.432  69.787  1.00  0.00     0.388 OA 
HETATM   25  O   UNK A   1      -7.959  16.828  68.309  1.00  0.00    -0.184 OA 
HETATM   26  H1  UNK A   1      -6.727  19.155  68.012  1.00  0.00     0.000 HD 
HETATM   27  H2  UNK A   1      -7.515  19.983  66.779  1.00  0.00     0.000 HD 
ENDBRANCH  20  21
ENDBRANCH  19  20
ENDBRANCH  18  19
ENDBRANCH  17  18
ENDBRANCH  16  17
ENDBRANCH  15  16
ENDBRANCH  11  15
ENDBRANCH   7  10
ENDBRANCH   5   6
TORSDOF 9
ENDMDL
MODEL      345
REMARK 921   NORMALIZED FREE ENERGY PREDICTED BY IDOCK:   -1.77 KCAL/MOL
REMARK 922        TOTAL FREE ENERGY PREDICTED BY IDOCK:   -3.66 KCAL/MOL
REMARK 923 INTER-LIGAND FREE ENERGY PREDICTED BY IDOCK:   -3.13 KCAL/MOL
REMARK 924 INTRA-LIGAND FREE ENERGY PREDICTED BY IDOCK:   -0.53 KCAL/MOL
REMARK 927      BINDING AFFINITY PREDICTED BY RF-SCORE:    0.00 PKD
ROOT
HETATM    1  C   UNK A   0      -9.127  13.397  66.821  1.00  0.00    -0.221 C  
HETATM    2  C   UNK A   0      -8.655  11.974  67.006  1.00  0.00    -0.185 C  
HETATM    3  C   UNK A   0      -7.165  11.754  66.901  1.00  0.00    -0.103 C  
HETATM    4  C   UNK A   0      -9.600  10.953  66.419  1.00  0.00    -0.229 C  
HETATM    5  C   UNK A   0      -7.840  11.610  68.254  1.00  0.00    -0.136 C  
ENDROOT
BRANCH   5   6
HETATM    6  C   UNK A   0      -7.833  10.239  68.865  1.00  0.00    -0.106 C  
HETATM    7  N   UNK A   1      -6.733   9.454  68.604  1.00  0.00    -0.053 N  
HETATM    8  O   UNK A   0      -8.804   9.845  69.498  1.00  0.00    -0.168 OA 
HETATM    9  H   UNK A   1      -6.000   9.886  68.041  1.00  0.00     0.000 HD 
BRANCH   7  10
HETATM   10  C   UNK A   1      -6.498   8.143  69.014  1.00  0.00    -0.040 C  
HETATM   11  C   UNK A   1      -7.127   7.103  68.412  1.00  0.00    -0.085 C  
HETATM   12  C   UNK A   1      -5.605   7.705  70.159  1.00  0.00    -0.023 C  
HETATM   13  O   UNK A   1      -5.524   8.550  71.205  1.00  0.00    -0.032 OA 
HETATM   14  O   UNK A   1      -5.127   6.580  70.225  1.00  0.00    -0.013 OA 
BRANCH  11  15
HETATM   15  C   UNK A   1      -8.146   7.176  67.315  1.00  0.00    -0.115 C  
BRANCH  15  16
HETATM   16  C   UNK A   1      -9.164   6.021  67.243  1.00  0.00    -0.114 C  
BRANCH  16  17
HETATM   17  C   UNK A   1     -10.560   6.653  67.342  1.00  0.00    -0.370 C  
BRANCH  17  18
HETATM   18  C   UNK A   1     -11.336   6.339  68.615  1.00  0.00    -0.085 C  
BRANCH  18  19
HETATM   19  S   UNK A   1     -11.707   7.951  69.403  1.00  0.00     1.118 SA 
BRANCH  19  20
HETATM   20  C   UNK A   1     -10.762   7.758  70.951  1.00  0.00    -0.221 C  
BRANCH  20  21
HETATM   21  C   UNK A   1     -11.684   7.898  72.172  1.00  0.00    -0.333 C  
HETATM   22  N   UNK A   1     -12.428   6.634  72.480  1.00  0.00    -0.492 NA 
HETATM   23  C   UNK A   1     -12.708   8.989  71.854  1.00  0.00    -0.382 C  
HETATM   24  O   UNK A   1     -12.487  10.188  71.889  1.00  0.00    -0.382 OA 
HETATM   25  O   UNK A   1     -13.897   8.453  71.473  1.00  0.00    -0.360 OA 
HETATM   26  H1  UNK A   1     -13.040   6.726  73.291  1.00  0.00     0.000 HD 
HETATM   27  H2  UNK A   1     -11.785   5.849  72.594  1.00  0.00     0.000 HD 
ENDBRANCH  20  21
ENDBRANCH  19  20
ENDBRANCH  18  19
ENDBRANCH  17  18
ENDBRANCH  16  17
ENDBRANCH  15  16
ENDBRANCH  11  15
ENDBRANCH   7  10
ENDBRANCH   5   6
TORSDOF 9
ENDMDL
MODEL      346
REMARK 921   NORMALIZED FREE ENERGY PREDICTED BY IDOCK:   -1.76 KCAL/MOL
REMARK 922        TOTAL FREE ENERGY PREDICTED BY IDOCK:   -3.65 KCAL/MOL
REMARK 923 INTER-LIGAND FREE ENERGY PREDICTED BY IDOCK:   -2.98 KCAL/MOL
REMARK 924 INTRA-LIGAND FREE ENERGY PREDICTED BY IDOCK:   -0.66 KCAL/MOL
REMARK 927      BINDING AFFINITY PREDICTED BY RF-SCORE:    0.00 PKD
ROOT
HETATM    1  C   UNK A   0     -11.307  13.968  67.004  1.00  0.00    -0.346 C  
HETATM    2  C   UNK A   0     -10.324  12.827  66.886  1.00  0.00    -0.245 C  
HETATM    3  C   UNK A   0      -8.902  13.136  67.286  1.00  0.00    -0.208 C  
HETATM    4  C   UNK A   0     -10.583  11.941  65.691  1.00  0.00    -0.311 C  
HETATM    5  C   UNK A   0      -9.732  12.211  68.160  1.00  0.00    -0.208 C  
ENDROOT
BRANCH   5   6
HETATM    6  C   UNK A   0      -9.273  10.785  68.252  1.00  0.00    -0.157 C  
HETATM    7  N   UNK A   1      -8.031  10.572  68.805  1.00  0.00    -0.118 N  
HETATM    8  O   UNK A   0      -9.962   9.887  67.784  1.00  0.00    -0.154 OA 
HETATM    9  H   UNK A   1      -7.540  11.404  69.134  1.00  0.00     0.000 HD 
BRANCH   7  10
HETATM   10  C   UNK A   1      -7.360   9.362  68.970  1.00  0.00    -0.072 C  
HETATM   11  C   UNK A   1      -6.715   8.777  67.929  1.00  0.00    -0.066 C  
HETATM   12  C   UNK A   1      -7.299   8.532  70.238  1.00  0.00    -0.052 C  
HETATM   13  O   UNK A   1      -8.384   8.586  71.034  1.00  0.00    -0.119 OA 
HETATM   14  O   UNK A   1      -6.406   7.722  70.449  1.00  0.00    -0.037 OA 
BRANCH  11  15
HETATM   15  C   UNK A   1      -6.653   9.267  66.514  1.00  0.00    -0.067 C  
BRANCH  15  16
HETATM   16  C   UNK A   1      -6.911   8.222  65.411  1.00  0.00    -0.063 C  
BRANCH  16  17
HETATM   17  C   UNK A   1      -8.367   7.762  65.567  1.00  0.00    -0.151 C  
BRANCH  17  18
HETATM   18  C   UNK A   1      -8.651   6.322  65.156  1.00  0.00    -0.023 C  
BRANCH  18  19
HETATM   19  S   UNK A   1      -9.667   5.595  66.496  1.00  0.00    -0.163 SA 
BRANCH  19  20
HETATM   20  C   UNK A   1      -8.449   4.439  67.209  1.00  0.00    -0.104 C  
BRANCH  20  21
HETATM   21  C   UNK A   1      -8.288   3.200  66.314  1.00  0.00    -0.101 C  
HETATM   22  N   UNK A   1      -8.883   1.967  66.926  1.00  0.00    -0.124 NA 
HETATM   23  C   UNK A   1      -6.789   2.962  66.121  1.00  0.00    -0.048 C  
HETATM   24  O   UNK A   1      -6.071   3.595  65.365  1.00  0.00    -0.022 OA 
HETATM   25  O   UNK A   1      -6.337   1.979  66.943  1.00  0.00    -0.023 OA 
HETATM   26  H1  UNK A   1      -8.776   1.144  66.332  1.00  0.00     0.000 HD 
HETATM   27  H2  UNK A   1      -9.861   2.116  67.172  1.00  0.00     0.000 HD 
ENDBRANCH  20  21
ENDBRANCH  19  20
ENDBRANCH  18  19
ENDBRANCH  17  18
ENDBRANCH  16  17
ENDBRANCH  15  16
ENDBRANCH  11  15
ENDBRANCH   7  10
ENDBRANCH   5   6
TORSDOF 9
ENDMDL
MODEL      347
REMARK 921   NORMALIZED FREE ENERGY PREDICTED BY IDOCK:   -1.69 KCAL/MOL
REMARK 922        TOTAL FREE ENERGY PREDICTED BY IDOCK:   -3.55 KCAL/MOL
REMARK 923 INTER-LIGAND FREE ENERGY PREDICTED BY IDOCK:   -3.10 KCAL/MOL
REMARK 924 INTRA-LIGAND FREE ENERGY PREDICTED BY IDOCK:   -0.45 KCAL/MOL
REMARK 927      BINDING AFFINITY PREDICTED BY RF-SCORE:    0.00 PKD
ROOT
HETATM    1  C   UNK A   0      -7.097   6.467  64.785  1.00  0.00    -0.053 C  
HETATM    2  C   UNK A   0      -7.073   6.822  66.253  1.00  0.00    -0.067 C  
HETATM    3  C   UNK A   0      -8.418   7.040  66.902  1.00  0.00    -0.119 C  
HETATM    4  C   UNK A   0      -5.914   7.715  66.629  1.00  0.00    -0.040 C  
HETATM    5  C   UNK A   0      -7.604   5.813  67.279  1.00  0.00    -0.096 C  
ENDROOT
BRANCH   5   6
HETATM    6  C   UNK A   0      -7.116   5.741  68.696  1.00  0.00    -0.077 C  
HETATM    7  N   UNK A   1      -8.073   5.565  69.669  1.00  0.00    -0.099 N  
HETATM    8  O   UNK A   0      -5.929   5.907  68.945  1.00  0.00    -0.018 OA 
HETATM    9  H   UNK A   1      -9.033   5.467  69.338  1.00  0.00     0.000 HD 
BRANCH   7  10
HETATM   10  C   UNK A   1      -7.894   5.505  71.049  1.00  0.00    -0.105 C  
HETATM   11  C   UNK A   1      -8.079   6.604  71.823  1.00  0.00    -0.103 C  
HETATM   12  C   UNK A   1      -7.436   4.297  71.846  1.00  0.00    -0.070 C  
HETATM   13  O   UNK A   1      -6.585   3.462  71.219  1.00  0.00    -0.025 OA 
HETATM   14  O   UNK A   1      -7.672   4.172  73.040  1.00  0.00    -0.077 OA 
BRANCH  11  15
HETATM   15  C   UNK A   1      -8.435   7.984  71.361  1.00  0.00    -0.142 C  
BRANCH  15  16
HETATM   16  C   UNK A   1      -9.651   8.105  70.423  1.00  0.00    -0.171 C  
BRANCH  16  17
HETATM   17  C   UNK A   1      -9.861   9.602  70.159  1.00  0.00    -0.310 C  
BRANCH  17  18
HETATM   18  C   UNK A   1     -11.124   9.965  69.387  1.00  0.00    -0.199 C  
BRANCH  18  19
HETATM   19  S   UNK A   1     -10.753  11.520  68.492  1.00  0.00    -0.221 SA 
BRANCH  19  20
HETATM   20  C   UNK A   1      -8.968  11.285  68.200  1.00  0.00    -0.166 C  
BRANCH  20  21
HETATM   21  C   UNK A   1      -8.431  12.350  67.231  1.00  0.00    -0.183 C  
HETATM   22  N   UNK A   1      -7.366  11.816  66.322  1.00  0.00    -0.357 NA 
HETATM   23  C   UNK A   1      -7.822  13.474  68.072  1.00  0.00    -0.147 C  
HETATM   24  O   UNK A   1      -8.459  14.334  68.657  1.00  0.00    -0.163 OA 
HETATM   25  O   UNK A   1      -6.469  13.367  68.131  1.00  0.00    -0.091 OA 
HETATM   26  H1  UNK A   1      -7.009  12.522  65.678  1.00  0.00     0.000 HD 
HETATM   27  H2  UNK A   1      -7.694  10.993  65.816  1.00  0.00     0.000 HD 
ENDBRANCH  20  21
ENDBRANCH  19  20
ENDBRANCH  18  19
ENDBRANCH  17  18
ENDBRANCH  16  17
ENDBRANCH  15  16
ENDBRANCH  11  15
ENDBRANCH   7  10
ENDBRANCH   5   6
TORSDOF 9
ENDMDL
MODEL      348
REMARK 921   NORMALIZED FREE ENERGY PREDICTED BY IDOCK:   -1.68 KCAL/MOL
REMARK 922        TOTAL FREE ENERGY PREDICTED BY IDOCK:   -3.53 KCAL/MOL
REMARK 923 INTER-LIGAND FREE ENERGY PREDICTED BY IDOCK:   -2.74 KCAL/MOL
REMARK 924 INTRA-LIGAND FREE ENERGY PREDICTED BY IDOCK:   -0.80 KCAL/MOL
REMARK 927      BINDING AFFINITY PREDICTED BY RF-SCORE:    0.00 PKD
ROOT
HETATM    1  C   UNK A   0      -5.355  14.800  67.840  1.00  0.00    -0.092 C  
HETATM    2  C   UNK A   0      -6.374  13.721  68.116  1.00  0.00    -0.125 C  
HETATM    3  C   UNK A   0      -6.294  12.496  67.237  1.00  0.00    -0.126 C  
HETATM    4  C   UNK A   0      -7.728  14.266  68.506  1.00  0.00    -0.137 C  
HETATM    5  C   UNK A   0      -5.910  12.382  68.703  1.00  0.00    -0.054 C  
ENDROOT
BRANCH   5   6
HETATM    6  C   UNK A   0      -6.780  11.508  69.558  1.00  0.00    -0.106 C  
HETATM    7  N   UNK A   1      -7.761  10.792  68.911  1.00  0.00    -0.120 N  
HETATM    8  O   UNK A   0      -6.644  11.511  70.775  1.00  0.00     0.007 OA 
HETATM    9  H   UNK A   1      -7.791  10.894  67.896  1.00  0.00     0.000 HD 
BRANCH   7  10
HETATM   10  C   UNK A   1      -8.717   9.947  69.469  1.00  0.00    -0.190 C  
HETATM   11  C   UNK A   1      -8.458   8.627  69.650  1.00  0.00    -0.129 C  
HETATM   12  C   UNK A   1     -10.127  10.329  69.881  1.00  0.00    -0.171 C  
HETATM   13  O   UNK A   1     -10.715  11.296  69.151  1.00  0.00    -0.215 OA 
HETATM   14  O   UNK A   1     -10.766   9.687  70.703  1.00  0.00    -0.276 OA 
BRANCH  11  15
HETATM   15  C   UNK A   1      -7.211   7.891  69.266  1.00  0.00    -0.080 C  
BRANCH  15  16
HETATM   16  C   UNK A   1      -7.332   6.887  68.103  1.00  0.00    -0.097 C  
BRANCH  16  17
HETATM   17  C   UNK A   1      -5.927   6.726  67.508  1.00  0.00    -0.024 C  
BRANCH  17  18
HETATM   18  C   UNK A   1      -5.257   5.380  67.755  1.00  0.00    -0.004 C  
BRANCH  18  19
HETATM   19  S   UNK A   1      -6.286   4.127  66.902  1.00  0.00    -0.041 SA 
BRANCH  19  20
HETATM   20  C   UNK A   1      -7.127   3.389  68.343  1.00  0.00    -0.050 C  
BRANCH  20  21
HETATM   21  C   UNK A   1      -8.508   2.845  67.946  1.00  0.00    -0.085 C  
HETATM   22  N   UNK A   1      -8.563   2.400  66.516  1.00  0.00    -0.108 NA 
HETATM   23  C   UNK A   1      -9.521   3.975  68.134  1.00  0.00    -0.158 C  
HETATM   24  O   UNK A   1      -9.976   4.336  69.207  1.00  0.00    -0.167 OA 
HETATM   25  O   UNK A   1      -9.819   4.572  66.950  1.00  0.00    -0.193 OA 
HETATM   26  H1  UNK A   1      -9.479   2.038  66.252  1.00  0.00     0.000 HD 
HETATM   27  H2  UNK A   1      -7.829   1.720  66.315  1.00  0.00     0.000 HD 
ENDBRANCH  20  21
ENDBRANCH  19  20
ENDBRANCH  18  19
ENDBRANCH  17  18
ENDBRANCH  16  17
ENDBRANCH  15  16
ENDBRANCH  11  15
ENDBRANCH   7  10
ENDBRANCH   5   6
TORSDOF 9
ENDMDL
MODEL      349
REMARK 921   NORMALIZED FREE ENERGY PREDICTED BY IDOCK:   -1.53 KCAL/MOL
REMARK 922        TOTAL FREE ENERGY PREDICTED BY IDOCK:   -3.30 KCAL/MOL
REMARK 923 INTER-LIGAND FREE ENERGY PREDICTED BY IDOCK:   -2.89 KCAL/MOL
REMARK 924 INTRA-LIGAND FREE ENERGY PREDICTED BY IDOCK:   -0.40 KCAL/MOL
REMARK 927      BINDING AFFINITY PREDICTED BY RF-SCORE:    0.00 PKD
ROOT
HETATM    1  C   UNK A   0     -11.500   9.217  71.059  1.00  0.00    -0.372 C  
HETATM    2  C   UNK A   0     -10.085   8.716  70.897  1.00  0.00    -0.262 C  
HETATM    3  C   UNK A   0      -9.364   8.347  72.171  1.00  0.00    -0.339 C  
HETATM    4  C   UNK A   0      -9.329   9.417  69.793  1.00  0.00    -0.217 C  
HETATM    5  C   UNK A   0      -9.768   7.247  71.204  1.00  0.00    -0.171 C  
ENDROOT
BRANCH   5   6
HETATM    6  C   UNK A   0      -8.652   6.487  70.549  1.00  0.00    -0.143 C  
HETATM    7  N   UNK A   1      -8.444   5.199  70.985  1.00  0.00    -0.118 N  
HETATM    8  O   UNK A   0      -7.936   7.040  69.723  1.00  0.00    -0.119 OA 
HETATM    9  H   UNK A   1      -9.091   4.859  71.697  1.00  0.00     0.000 HD 
BRANCH   7  10
HETATM   10  C   UNK A   1      -7.461   4.301  70.574  1.00  0.00    -0.049 C  
HETATM   11  C   UNK A   1      -7.764   3.268  69.747  1.00  0.00    -0.044 C  
HETATM   12  C   UNK A   1      -6.006   4.301  71.003  1.00  0.00    -0.014 C  
HETATM   13  O   UNK A   1      -5.757   4.739  72.252  1.00  0.00    -0.011 OA 
HETATM   14  O   UNK A   1      -5.126   3.772  70.337  1.00  0.00     0.000 OA 
BRANCH  11  15
HETATM   15  C   UNK A   1      -9.115   2.908  69.209  1.00  0.00    -0.198 C  
BRANCH  15  16
HETATM   16  C   UNK A   1      -9.548   3.609  67.907  1.00  0.00    -0.180 C  
BRANCH  16  17
HETATM   17  C   UNK A   1      -8.305   3.684  67.009  1.00  0.00    -0.099 C  
BRANCH  17  18
HETATM   18  C   UNK A   1      -8.352   2.833  65.746  1.00  0.00    -0.093 C  
BRANCH  18  19
HETATM   19  S   UNK A   1      -6.689   2.947  64.986  1.00  0.00    -0.041 SA 
BRANCH  19  20
HETATM   20  C   UNK A   1      -6.485   4.759  64.971  1.00  0.00    -0.036 C  
BRANCH  20  21
HETATM   21  C   UNK A   1      -7.405   5.402  63.921  1.00  0.00    -0.053 C  
HETATM   22  N   UNK A   1      -6.812   5.379  62.545  1.00  0.00    -0.029 NA 
HETATM   23  C   UNK A   1      -7.619   6.861  64.326  1.00  0.00    -0.108 C  
HETATM   24  O   UNK A   1      -8.370   7.240  65.209  1.00  0.00    -0.142 OA 
HETATM   25  O   UNK A   1      -6.821   7.694  63.606  1.00  0.00    -0.056 OA 
HETATM   26  H1  UNK A   1      -7.423   5.805  61.848  1.00  0.00     0.000 HD 
HETATM   27  H2  UNK A   1      -6.553   4.431  62.273  1.00  0.00     0.000 HD 
ENDBRANCH  20  21
ENDBRANCH  19  20
ENDBRANCH  18  19
ENDBRANCH  17  18
ENDBRANCH  16  17
ENDBRANCH  15  16
ENDBRANCH  11  15
ENDBRANCH   7  10
ENDBRANCH   5   6
TORSDOF 9
ENDMDL
MODEL      350
REMARK 921   NORMALIZED FREE ENERGY PREDICTED BY IDOCK:   -1.12 KCAL/MOL
REMARK 922        TOTAL FREE ENERGY PREDICTED BY IDOCK:   -2.67 KCAL/MOL
REMARK 923 INTER-LIGAND FREE ENERGY PREDICTED BY IDOCK:   -3.43 KCAL/MOL
REMARK 924 INTRA-LIGAND FREE ENERGY PREDICTED BY IDOCK:    0.76 KCAL/MOL
REMARK 927      BINDING AFFINITY PREDICTED BY RF-SCORE:    0.00 PKD
ROOT
HETATM    1  C   UNK A   0     -13.322  12.316  71.761  1.00  0.00    -0.353 C  
HETATM    2  C   UNK A   0     -12.733  11.137  71.025  1.00  0.00    -0.476 C  
HETATM    3  C   UNK A   0     -13.125  10.999  69.574  1.00  0.00     0.939 C  
HETATM    4  C   UNK A   0     -12.616   9.899  71.882  1.00  0.00    -0.471 C  
HETATM    5  C   UNK A   0     -11.696  11.382  69.920  1.00  0.00    -0.424 C  
ENDROOT
BRANCH   5   6
HETATM    6  C   UNK A   0     -10.629  10.392  69.553  1.00  0.00    -0.246 C  
HETATM    7  N   UNK A   1     -11.030   9.297  68.823  1.00  0.00    -0.443 N  
HETATM    8  O   UNK A   0      -9.485  10.545  69.961  1.00  0.00     0.069 OA 
HETATM    9  H   UNK A   1     -12.017   9.268  68.566  1.00  0.00     0.000 HD 
BRANCH   7  10
HETATM   10  C   UNK A   1     -10.254   8.222  68.392  1.00  0.00    -0.209 C  
HETATM   11  C   UNK A   1      -9.434   7.568  69.252  1.00  0.00    -0.154 C  
HETATM   12  C   UNK A   1     -10.166   7.688  66.975  1.00  0.00    -0.300 C  
HETATM   13  O   UNK A   1     -10.311   8.594  65.989  1.00  0.00     0.011 OA 
HETATM   14  O   UNK A   1      -9.807   6.544  66.727  1.00  0.00    -0.155 OA 
BRANCH  11  15
HETATM   15  C   UNK A   1      -9.197   7.889  70.696  1.00  0.00    -0.157 C  
BRANCH  15  16
HETATM   16  C   UNK A   1      -7.731   7.882  71.172  1.00  0.00    -0.085 C  
BRANCH  16  17
HETATM   17  C   UNK A   1      -7.214   6.448  70.996  1.00  0.00    -0.078 C  
BRANCH  17  18
HETATM   18  C   UNK A   1      -7.209   5.589  72.255  1.00  0.00    -0.089 C  
BRANCH  18  19
HETATM   19  S   UNK A   1      -8.649   6.129  73.252  1.00  0.00    -0.122 SA 
BRANCH  19  20
HETATM   20  C   UNK A   1      -9.812   4.779  72.862  1.00  0.00    -0.151 C  
BRANCH  20  21
HETATM   21  C   UNK A   1      -9.059   3.546  72.339  1.00  0.00    -0.097 C  
HETATM   22  N   UNK A   1      -9.252   3.336  70.867  1.00  0.00    -0.118 NA 
HETATM   23  C   UNK A   1      -9.610   2.323  73.072  1.00  0.00    -0.086 C  
HETATM   24  O   UNK A   1      -9.326   2.005  74.216  1.00  0.00    -0.074 OA 
HETATM   25  O   UNK A   1     -10.507   1.650  72.304  1.00  0.00    -0.160 OA 
HETATM   26  H1  UNK A   1      -8.752   2.518  70.519  1.00  0.00     0.000 HD 
HETATM   27  H2  UNK A   1      -8.997   4.172  70.341  1.00  0.00     0.000 HD 
ENDBRANCH  20  21
ENDBRANCH  19  20
ENDBRANCH  18  19
ENDBRANCH  17  18
ENDBRANCH  16  17
ENDBRANCH  15  16
ENDBRANCH  11  15
ENDBRANCH   7  10
ENDBRANCH   5   6
TORSDOF 9
ENDMDL
MODEL      351
REMARK 921   NORMALIZED FREE ENERGY PREDICTED BY IDOCK:   -1.05 KCAL/MOL
REMARK 922        TOTAL FREE ENERGY PREDICTED BY IDOCK:   -2.57 KCAL/MOL
REMARK 923 INTER-LIGAND FREE ENERGY PREDICTED BY IDOCK:   -2.63 KCAL/MOL
REMARK 924 INTRA-LIGAND FREE ENERGY PREDICTED BY IDOCK:    0.06 KCAL/MOL
REMARK 927      BINDING AFFINITY PREDICTED BY RF-SCORE:    0.00 PKD
ROOT
HETATM    1  C   UNK A   0      -9.874  13.767  67.342  1.00  0.00    -0.238 C  
HETATM    2  C   UNK A   0      -9.400  12.344  67.523  1.00  0.00    -0.181 C  
HETATM    3  C   UNK A   0      -7.913  12.121  67.394  1.00  0.00    -0.168 C  
HETATM    4  C   UNK A   0     -10.357  11.323  66.955  1.00  0.00    -0.272 C  
HETATM    5  C   UNK A   0      -8.566  11.981  68.759  1.00  0.00     0.076 C  
ENDROOT
BRANCH   5   6
HETATM    6  C   UNK A   0      -8.550  10.612  69.373  1.00  0.00    -0.030 C  
HETATM    7  N   UNK A   1      -7.453   9.828  69.102  1.00  0.00    -0.077 N  
HETATM    8  O   UNK A   0      -9.514  10.219  70.018  1.00  0.00    -0.122 OA 
HETATM    9  H   UNK A   1      -6.727  10.259  68.530  1.00  0.00     0.000 HD 
BRANCH   7  10
HETATM   10  C   UNK A   1      -7.212   8.518  69.512  1.00  0.00    -0.060 C  
HETATM   11  C   UNK A   1      -7.798   7.471  68.877  1.00  0.00    -0.124 C  
HETATM   12  C   UNK A   1      -6.360   8.086  70.691  1.00  0.00    -0.036 C  
HETATM   13  O   UNK A   1      -6.337   8.926  71.744  1.00  0.00    -0.074 OA 
HETATM   14  O   UNK A   1      -5.866   6.969  70.768  1.00  0.00    -0.027 OA 
BRANCH  11  15
HETATM   15  C   UNK A   1      -8.772   7.535  67.741  1.00  0.00    -0.123 C  
BRANCH  15  16
HETATM   16  C   UNK A   1      -9.889   6.473  67.729  1.00  0.00    -0.139 C  
BRANCH  16  17
HETATM   17  C   UNK A   1     -10.452   6.406  69.155  1.00  0.00    -0.274 C  
BRANCH  17  18
HETATM   18  C   UNK A   1     -10.186   5.109  69.909  1.00  0.00    -0.291 C  
BRANCH  18  19
HETATM   19  S   UNK A   1      -9.113   5.548  71.328  1.00  0.00    -0.143 SA 
BRANCH  19  20
HETATM   20  C   UNK A   1      -7.658   4.519  70.941  1.00  0.00    -0.056 C  
BRANCH  20  21
HETATM   21  C   UNK A   1      -7.975   3.030  71.148  1.00  0.00    -0.057 C  
HETATM   22  N   UNK A   1      -6.850   2.288  71.804  1.00  0.00    -0.022 NA 
HETATM   23  C   UNK A   1      -8.215   2.412  69.770  1.00  0.00    -0.041 C  
HETATM   24  O   UNK A   1      -9.238   2.534  69.116  1.00  0.00    -0.116 OA 
HETATM   25  O   UNK A   1      -7.116   1.744  69.331  1.00  0.00    -0.036 OA 
HETATM   26  H1  UNK A   1      -7.059   1.299  71.942  1.00  0.00     0.000 HD 
HETATM   27  H2  UNK A   1      -6.581   2.731  72.683  1.00  0.00     0.000 HD 
ENDBRANCH  20  21
ENDBRANCH  19  20
ENDBRANCH  18  19
ENDBRANCH  17  18
ENDBRANCH  16  17
ENDBRANCH  15  16
ENDBRANCH  11  15
ENDBRANCH   7  10
ENDBRANCH   5   6
TORSDOF 9
ENDMDL
MODEL      352
REMARK 921   NORMALIZED FREE ENERGY PREDICTED BY IDOCK:   -0.95 KCAL/MOL
REMARK 922        TOTAL FREE ENERGY PREDICTED BY IDOCK:   -2.42 KCAL/MOL
REMARK 923 INTER-LIGAND FREE ENERGY PREDICTED BY IDOCK:   -2.28 KCAL/MOL
REMARK 924 INTRA-LIGAND FREE ENERGY PREDICTED BY IDOCK:   -0.14 KCAL/MOL
REMARK 927      BINDING AFFINITY PREDICTED BY RF-SCORE:    0.00 PKD
ROOT
HETATM    1  C   UNK A   0      -5.274  13.807  71.934  1.00  0.00    -0.199 C  
HETATM    2  C   UNK A   0      -6.009  14.650  70.919  1.00  0.00    -0.111 C  
HETATM    3  C   UNK A   0      -5.269  15.863  70.409  1.00  0.00    -0.160 C  
HETATM    4  C   UNK A   0      -7.492  14.743  71.185  1.00  0.00     1.994 C  
HETATM    5  C   UNK A   0      -5.505  14.692  69.470  1.00  0.00    -0.091 C  
ENDROOT
BRANCH   5   6
HETATM    6  C   UNK A   0      -6.398  14.945  68.291  1.00  0.00    -0.121 C  
HETATM    7  N   UNK A   1      -7.530  15.692  68.525  1.00  0.00    -0.119 N  
HETATM    8  O   UNK A   0      -6.140  14.438  67.207  1.00  0.00    -0.300 OA 
HETATM    9  H   UNK A   1      -7.648  16.037  69.478  1.00  0.00     0.000 HD 
BRANCH   7  10
HETATM   10  C   UNK A   1      -8.534  16.035  67.622  1.00  0.00    -0.158 C  
HETATM   11  C   UNK A   1      -9.444  15.116  67.213  1.00  0.00    -0.214 C  
HETATM   12  C   UNK A   1      -8.720  17.383  66.953  1.00  0.00    -0.246 C  
HETATM   13  O   UNK A   1      -7.596  18.079  66.699  1.00  0.00    -0.208 OA 
HETATM   14  O   UNK A   1      -9.798  17.749  66.503  1.00  0.00    -0.300 OA 
BRANCH  11  15
HETATM   15  C   UNK A   1      -9.499  13.667  67.592  1.00  0.00    -0.221 C  
BRANCH  15  16
HETATM   16  C   UNK A   1     -10.694  12.858  67.052  1.00  0.00    -0.273 C  
BRANCH  16  17
HETATM   17  C   UNK A   1     -10.819  11.608  67.934  1.00  0.00    -0.255 C  
BRANCH  17  18
HETATM   18  C   UNK A   1      -9.614  11.299  68.814  1.00  0.00    -0.151 C  
BRANCH  18  19
HETATM   19  S   UNK A   1      -9.067   9.610  68.363  1.00  0.00    -0.123 SA 
BRANCH  19  20
HETATM   20  C   UNK A   1      -8.378   9.075  69.965  1.00  0.00    -0.142 C  
BRANCH  20  21
HETATM   21  C   UNK A   1      -9.418   8.273  70.763  1.00  0.00    -0.161 C  
HETATM   22  N   UNK A   1     -10.319   9.151  71.578  1.00  0.00    -0.343 NA 
HETATM   23  C   UNK A   1      -8.656   7.352  71.719  1.00  0.00    -0.115 C  
HETATM   24  O   UNK A   1      -8.107   6.312  71.398  1.00  0.00    -0.114 OA 
HETATM   25  O   UNK A   1      -8.622   7.867  72.976  1.00  0.00    -0.149 OA 
HETATM   26  H1  UNK A   1     -11.009   8.619  72.109  1.00  0.00     0.000 HD 
HETATM   27  H2  UNK A   1     -10.770   9.856  70.995  1.00  0.00     0.000 HD 
ENDBRANCH  20  21
ENDBRANCH  19  20
ENDBRANCH  18  19
ENDBRANCH  17  18
ENDBRANCH  16  17
ENDBRANCH  15  16
ENDBRANCH  11  15
ENDBRANCH   7  10
ENDBRANCH   5   6
TORSDOF 9
ENDMDL
MODEL      353
REMARK 921   NORMALIZED FREE ENERGY PREDICTED BY IDOCK:   -0.51 KCAL/MOL
REMARK 922        TOTAL FREE ENERGY PREDICTED BY IDOCK:   -1.75 KCAL/MOL
REMARK 923 INTER-LIGAND FREE ENERGY PREDICTED BY IDOCK:   -3.02 KCAL/MOL
REMARK 924 INTRA-LIGAND FREE ENERGY PREDICTED BY IDOCK:    1.27 KCAL/MOL
REMARK 927      BINDING AFFINITY PREDICTED BY RF-SCORE:    0.00 PKD
ROOT
HETATM    1  C   UNK A   0      -5.644  11.876  67.748  1.00  0.00    -0.063 C  
HETATM    2  C   UNK A   0      -6.462  13.146  67.783  1.00  0.00    -0.153 C  
HETATM    3  C   UNK A   0      -7.745  13.128  66.988  1.00  0.00     0.080 C  
HETATM    4  C   UNK A   0      -5.616  14.397  67.798  1.00  0.00    -0.049 C  
HETATM    5  C   UNK A   0      -7.815  13.149  68.506  1.00  0.00    -0.105 C  
ENDROOT
BRANCH   5   6
HETATM    6  C   UNK A   0      -8.414  14.373  69.133  1.00  0.00     0.080 C  
HETATM    7  N   UNK A   1      -8.179  15.569  68.496  1.00  0.00    -0.141 N  
HETATM    8  O   UNK A   0      -9.015  14.285  70.196  1.00  0.00     1.148 OA 
HETATM    9  H   UNK A   1      -7.641  15.516  67.630  1.00  0.00     0.000 HD 
BRANCH   7  10
HETATM   10  C   UNK A   1      -8.584  16.844  68.886  1.00  0.00    -0.206 C  
HETATM   11  C   UNK A   1      -7.696  17.727  69.408  1.00  0.00     0.250 C  
HETATM   12  C   UNK A   1      -9.999  17.390  68.848  1.00  0.00    -0.308 C  
HETATM   13  O   UNK A   1     -10.985  16.496  69.051  1.00  0.00    -0.309 OA 
HETATM   14  O   UNK A   1     -10.239  18.590  68.816  1.00  0.00    -0.379 OA 
BRANCH  11  15
HETATM   15  C   UNK A   1      -6.241  17.490  69.681  1.00  0.00    -0.227 C  
BRANCH  15  16
HETATM   16  C   UNK A   1      -5.293  17.555  68.468  1.00  0.00    -0.151 C  
BRANCH  16  17
HETATM   17  C   UNK A   1      -5.918  18.536  67.467  1.00  0.00    -0.171 C  
BRANCH  17  18
HETATM   18  C   UNK A   1      -6.174  19.942  67.994  1.00  0.00    -0.233 C  
BRANCH  18  19
HETATM   19  S   UNK A   1      -6.023  21.067  66.556  1.00  0.00    -0.289 SA 
BRANCH  19  20
HETATM   20  C   UNK A   1      -7.276  20.327  65.457  1.00  0.00    -0.216 C  
BRANCH  20  21
HETATM   21  C   UNK A   1      -8.246  19.444  66.257  1.00  0.00    -0.330 C  
HETATM   22  N   UNK A   1      -8.482  18.114  65.607  1.00  0.00    -0.178 NA 
HETATM   23  C   UNK A   1      -9.584  20.181  66.335  1.00  0.00    -0.390 C  
HETATM   24  O   UNK A   1      -9.826  21.115  67.082  1.00  0.00    -0.248 OA 
HETATM   25  O   UNK A   1     -10.468  19.697  65.423  1.00  0.00    -0.427 OA 
HETATM   26  H1  UNK A   1      -9.127  17.527  66.137  1.00  0.00     0.000 HD 
HETATM   27  H2  UNK A   1      -7.602  17.628  65.435  1.00  0.00     0.000 HD 
ENDBRANCH  20  21
ENDBRANCH  19  20
ENDBRANCH  18  19
ENDBRANCH  17  18
ENDBRANCH  16  17
ENDBRANCH  15  16
ENDBRANCH  11  15
ENDBRANCH   7  10
ENDBRANCH   5   6
TORSDOF 9
ENDMDL
MODEL      354
REMARK 921   NORMALIZED FREE ENERGY PREDICTED BY IDOCK:    0.65 KCAL/MOL
REMARK 922        TOTAL FREE ENERGY PREDICTED BY IDOCK:    0.03 KCAL/MOL
REMARK 923 INTER-LIGAND FREE ENERGY PREDICTED BY IDOCK:   -1.58 KCAL/MOL
REMARK 924 INTRA-LIGAND FREE ENERGY PREDICTED BY IDOCK:    1.61 KCAL/MOL
REMARK 927      BINDING AFFINITY PREDICTED BY RF-SCORE:    0.00 PKD
ROOT
HETATM    1  C   UNK A   0     -11.275   8.333  69.164  1.00  0.00     0.329 C  
HETATM    2  C   UNK A   0     -10.000   9.024  68.744  1.00  0.00    -0.194 C  
HETATM    3  C   UNK A   0      -8.716   8.314  69.099  1.00  0.00    -0.143 C  
HETATM    4  C   UNK A   0     -10.072  10.528  68.859  1.00  0.00    -0.215 C  
HETATM    5  C   UNK A   0      -9.135   8.398  67.641  1.00  0.00    -0.144 C  
ENDROOT
BRANCH   5   6
HETATM    6  C   UNK A   0      -8.248   9.198  66.733  1.00  0.00    -0.119 C  
HETATM    7  N   UNK A   1      -8.142   8.761  65.433  1.00  0.00    -0.118 N  
HETATM    8  O   UNK A   0      -7.608  10.143  67.178  1.00  0.00    -0.091 OA 
HETATM    9  H   UNK A   1      -8.705   7.946  65.189  1.00  0.00     0.000 HD 
BRANCH   7  10
HETATM   10  C   UNK A   1      -7.363   9.295  64.408  1.00  0.00    -0.105 C  
HETATM   11  C   UNK A   1      -7.375   8.745  63.168  1.00  0.00    -0.099 C  
HETATM   12  C   UNK A   1      -6.398  10.460  64.524  1.00  0.00    -0.053 C  
HETATM   13  O   UNK A   1      -5.782  10.602  65.713  1.00  0.00    -0.109 OA 
HETATM   14  O   UNK A   1      -6.055  11.126  63.556  1.00  0.00     0.385 OA 
BRANCH  11  15
HETATM   15  C   UNK A   1      -8.132   7.530  62.725  1.00  0.00    -0.091 C  
BRANCH  15  16
HETATM   16  C   UNK A   1      -7.390   6.182  62.819  1.00  0.00    -0.058 C  
BRANCH  16  17
HETATM   17  C   UNK A   1      -8.225   5.280  63.738  1.00  0.00    -0.123 C  
BRANCH  17  18
HETATM   18  C   UNK A   1      -8.754   5.939  65.006  1.00  0.00    -0.003 C  
BRANCH  18  19
HETATM   19  S   UNK A   1      -9.447   4.592  66.036  1.00  0.00    -0.192 SA 
BRANCH  19  20
HETATM   20  C   UNK A   1      -7.959   3.554  66.222  1.00  0.00    -0.089 C  
BRANCH  20  21
HETATM   21  C   UNK A   1      -8.256   2.331  67.105  1.00  0.00    -0.078 C  
HETATM   22  N   UNK A   1      -9.370   1.488  66.564  1.00  0.00    -0.339 NA 
HETATM   23  C   UNK A   1      -8.673   2.847  68.483  1.00  0.00    -0.098 C  
HETATM   24  O   UNK A   1      -7.907   3.269  69.334  1.00  0.00    -0.050 OA 
HETATM   25  O   UNK A   1     -10.024   2.826  68.629  1.00  0.00     0.215 OA 
HETATM   26  H1  UNK A   1      -9.568   0.676  67.149  1.00  0.00     0.000 HD 
HETATM   27  H2  UNK A   1      -9.184   1.208  65.601  1.00  0.00     0.000 HD 
ENDBRANCH  20  21
ENDBRANCH  19  20
ENDBRANCH  18  19
ENDBRANCH  17  18
ENDBRANCH  16  17
ENDBRANCH  15  16
ENDBRANCH  11  15
ENDBRANCH   7  10
ENDBRANCH   5   6
TORSDOF 9
ENDMDL
MODEL      355
REMARK 921   NORMALIZED FREE ENERGY PREDICTED BY IDOCK:    0.65 KCAL/MOL
REMARK 922        TOTAL FREE ENERGY PREDICTED BY IDOCK:    0.03 KCAL/MOL
REMARK 923 INTER-LIGAND FREE ENERGY PREDICTED BY IDOCK:   -1.26 KCAL/MOL
REMARK 924 INTRA-LIGAND FREE ENERGY PREDICTED BY IDOCK:    1.30 KCAL/MOL
REMARK 927      BINDING AFFINITY PREDICTED BY RF-SCORE:    0.00 PKD
ROOT
HETATM    1  C   UNK A   0     -13.390  11.880  71.692  1.00  0.00    -0.236 C  
HETATM    2  C   UNK A   0     -12.647  11.317  70.503  1.00  0.00    -0.331 C  
HETATM    3  C   UNK A   0     -12.829  12.055  69.200  1.00  0.00     1.289 C  
HETATM    4  C   UNK A   0     -12.590   9.807  70.499  1.00  0.00    -0.091 C  
HETATM    5  C   UNK A   0     -11.482  12.111  69.900  1.00  0.00    -0.210 C  
ENDROOT
BRANCH   5   6
HETATM    6  C   UNK A   0     -10.328  11.472  69.185  1.00  0.00    -0.056 C  
HETATM    7  N   UNK A   1     -10.409  11.414  67.813  1.00  0.00    -0.178 N  
HETATM    8  O   UNK A   0      -9.411  10.973  69.825  1.00  0.00     0.303 OA 
HETATM    9  H   UNK A   1     -11.236  11.841  67.396  1.00  0.00     0.000 HD 
BRANCH   7  10
HETATM   10  C   UNK A   1      -9.501  10.843  66.922  1.00  0.00    -0.176 C  
HETATM   11  C   UNK A   1      -8.880   9.673  67.216  1.00  0.00    -0.139 C  
HETATM   12  C   UNK A   1      -9.048  11.431  65.599  1.00  0.00    -0.161 C  
HETATM   13  O   UNK A   1      -8.996  12.775  65.535  1.00  0.00     0.392 OA 
HETATM   14  O   UNK A   1      -8.584  10.742  64.700  1.00  0.00    -0.154 OA 
BRANCH  11  15
HETATM   15  C   UNK A   1      -9.014   8.871  68.475  1.00  0.00    -0.134 C  
BRANCH  15  16
HETATM   16  C   UNK A   1      -7.746   8.148  68.970  1.00  0.00    -0.099 C  
BRANCH  16  17
HETATM   17  C   UNK A   1      -7.770   6.741  68.358  1.00  0.00    -0.106 C  
BRANCH  17  18
HETATM   18  C   UNK A   1      -7.177   5.636  69.224  1.00  0.00    -0.066 C  
BRANCH  18  19
HETATM   19  S   UNK A   1      -7.320   6.207  70.959  1.00  0.00    -0.085 SA 
BRANCH  19  20
HETATM   20  C   UNK A   1      -9.136   6.234  71.122  1.00  0.00    -0.146 C  
BRANCH  20  21
HETATM   21  C   UNK A   1      -9.586   5.389  72.325  1.00  0.00    -0.155 C  
HETATM   22  N   UNK A   1     -11.041   5.033  72.266  1.00  0.00    -0.109 NA 
HETATM   23  C   UNK A   1      -9.347   6.219  73.587  1.00  0.00    -0.135 C  
HETATM   24  O   UNK A   1      -8.262   6.390  74.118  1.00  0.00    -0.116 OA 
HETATM   25  O   UNK A   1     -10.499   6.795  74.023  1.00  0.00    -0.364 OA 
HETATM   26  H1  UNK A   1     -11.340   4.473  73.064  1.00  0.00     0.000 HD 
HETATM   27  H2  UNK A   1     -11.270   4.570  71.387  1.00  0.00     0.000 HD 
ENDBRANCH  20  21
ENDBRANCH  19  20
ENDBRANCH  18  19
ENDBRANCH  17  18
ENDBRANCH  16  17
ENDBRANCH  15  16
ENDBRANCH  11  15
ENDBRANCH   7  10
ENDBRANCH   5   6
TORSDOF 9
ENDMDL
MODEL      356
REMARK 921   NORMALIZED FREE ENERGY PREDICTED BY IDOCK:    0.95 KCAL/MOL
REMARK 922        TOTAL FREE ENERGY PREDICTED BY IDOCK:    0.48 KCAL/MOL
REMARK 923 INTER-LIGAND FREE ENERGY PREDICTED BY IDOCK:   -0.57 KCAL/MOL
REMARK 924 INTRA-LIGAND FREE ENERGY PREDICTED BY IDOCK:    1.05 KCAL/MOL
REMARK 927      BINDING AFFINITY PREDICTED BY RF-SCORE:    0.00 PKD
ROOT
HETATM    1  C   UNK A   0      -5.295  13.735  71.979  1.00  0.00    -0.194 C  
HETATM    2  C   UNK A   0      -6.064  14.188  70.760  1.00  0.00    -0.165 C  
HETATM    3  C   UNK A   0      -5.511  15.395  70.041  1.00  0.00    -0.123 C  
HETATM    4  C   UNK A   0      -7.559  14.033  70.909  1.00  0.00     2.754 C  
HETATM    5  C   UNK A   0      -5.431  14.034  69.372  1.00  0.00    -0.083 C  
ENDROOT
BRANCH   5   6
HETATM    6  C   UNK A   0      -6.229  13.856  68.114  1.00  0.00    -0.128 C  
HETATM    7  N   UNK A   1      -7.496  14.394  68.107  1.00  0.00    -0.115 N  
HETATM    8  O   UNK A   0      -5.774  13.199  67.186  1.00  0.00    -0.341 OA 
HETATM    9  H   UNK A   1      -7.772  14.896  68.951  1.00  0.00     0.000 HD 
BRANCH   7  10
HETATM   10  C   UNK A   1      -8.448  14.336  67.091  1.00  0.00    -0.200 C  
HETATM   11  C   UNK A   1      -9.127  13.189  66.839  1.00  0.00    -0.231 C  
HETATM   12  C   UNK A   1      -8.810  15.455  66.133  1.00  0.00    -0.187 C  
HETATM   13  O   UNK A   1      -7.812  16.297  65.802  1.00  0.00     0.291 OA 
HETATM   14  O   UNK A   1      -9.885  15.496  65.549  1.00  0.00    -0.337 OA 
BRANCH  11  15
HETATM   15  C   UNK A   1      -8.953  11.867  67.523  1.00  0.00    -0.171 C  
BRANCH  15  16
HETATM   16  C   UNK A   1      -9.926  10.745  67.112  1.00  0.00    -0.230 C  
BRANCH  16  17
HETATM   17  C   UNK A   1      -9.854   9.672  68.207  1.00  0.00    -0.169 C  
BRANCH  17  18
HETATM   18  C   UNK A   1      -8.662   9.773  69.152  1.00  0.00    -0.155 C  
BRANCH  18  19
HETATM   19  S   UNK A   1      -7.751   8.191  69.003  1.00  0.00    -0.101 SA 
BRANCH  19  20
HETATM   20  C   UNK A   1      -7.035   8.094  70.678  1.00  0.00    -0.037 C  
BRANCH  20  21
HETATM   21  C   UNK A   1      -7.909   7.223  71.593  1.00  0.00    -0.091 C  
HETATM   22  N   UNK A   1      -7.193   6.000  72.081  1.00  0.00    -0.087 NA 
HETATM   23  C   UNK A   1      -9.124   6.773  70.780  1.00  0.00    -0.151 C  
HETATM   24  O   UNK A   1     -10.092   7.470  70.524  1.00  0.00    -0.188 OA 
HETATM   25  O   UNK A   1      -8.969   5.501  70.326  1.00  0.00    -0.133 OA 
HETATM   26  H1  UNK A   1      -7.773   5.421  72.688  1.00  0.00     0.000 HD 
HETATM   27  H2  UNK A   1      -6.316   6.247  72.539  1.00  0.00     0.000 HD 
ENDBRANCH  20  21
ENDBRANCH  19  20
ENDBRANCH  18  19
ENDBRANCH  17  18
ENDBRANCH  16  17
ENDBRANCH  15  16
ENDBRANCH  11  15
ENDBRANCH   7  10
ENDBRANCH   5   6
TORSDOF 9
ENDMDL
MODEL      357
REMARK 921   NORMALIZED FREE ENERGY PREDICTED BY IDOCK:    8.84 KCAL/MOL
REMARK 922        TOTAL FREE ENERGY PREDICTED BY IDOCK:   12.52 KCAL/MOL
REMARK 923 INTER-LIGAND FREE ENERGY PREDICTED BY IDOCK:    7.38 KCAL/MOL
REMARK 924 INTRA-LIGAND FREE ENERGY PREDICTED BY IDOCK:    5.15 KCAL/MOL
REMARK 927      BINDING AFFINITY PREDICTED BY RF-SCORE:    0.00 PKD
ROOT
HETATM    1  C   UNK A   0      -9.082  13.361  68.970  1.00  0.00     0.402 C  
HETATM    2  C   UNK A   0      -8.252  12.134  68.675  1.00  0.00    -0.033 C  
HETATM    3  C   UNK A   0      -7.177  11.805  69.682  1.00  0.00     0.268 C  
HETATM    4  C   UNK A   0      -7.973  11.946  67.202  1.00  0.00    -0.172 C  
HETATM    5  C   UNK A   0      -8.392  10.899  69.574  1.00  0.00     0.158 C  
ENDROOT
BRANCH   5   6
HETATM    6  C   UNK A   0      -8.143   9.498  69.098  1.00  0.00    -0.103 C  
HETATM    7  N   UNK A   1      -7.269   8.740  69.843  1.00  0.00    -0.050 N  
HETATM    8  O   UNK A   0      -8.652   9.105  68.056  1.00  0.00    -0.124 OA 
HETATM    9  H   UNK A   1      -6.888   9.188  70.677  1.00  0.00     0.000 HD 
BRANCH   7  10
HETATM   10  C   UNK A   1      -6.840   7.437  69.599  1.00  0.00    -0.052 C  
HETATM   11  C   UNK A   1      -6.915   6.901  68.355  1.00  0.00    -0.080 C  
HETATM   12  C   UNK A   1      -6.312   6.456  70.629  1.00  0.00    -0.040 C  
HETATM   13  O   UNK A   1      -6.829   6.562  71.868  1.00  0.00    -0.065 OA 
HETATM   14  O   UNK A   1      -5.598   5.509  70.327  1.00  0.00    -0.008 OA 
BRANCH  11  15
HETATM   15  C   UNK A   1      -7.474   7.548  67.125  1.00  0.00    -0.099 C  
BRANCH  15  16
HETATM   16  C   UNK A   1      -8.689   6.858  66.474  1.00  0.00    -0.137 C  
BRANCH  16  17
HETATM   17  C   UNK A   1      -9.933   7.642  66.913  1.00  0.00    -0.325 C  
BRANCH  17  18
HETATM   18  C   UNK A   1     -10.679   7.075  68.114  1.00  0.00    -0.188 C  
BRANCH  18  19
HETATM   19  S   UNK A   1     -11.581   8.479  68.871  1.00  0.00     1.434 SA 
BRANCH  19  20
HETATM   20  C   UNK A   1     -13.150   7.647  69.283  1.00  0.00     5.531 C  
BRANCH  20  21
HETATM   21  C   UNK A   1     -13.966   8.486  70.279  1.00  0.00     1.893 C  
HETATM   22  N   UNK A   1     -13.660   9.950  70.184  1.00  0.00    -0.091 NA 
HETATM   23  C   UNK A   1     -13.602   8.012  71.687  1.00  0.00    -0.344 C  
HETATM   24  O   UNK A   1     -14.018   6.992  72.212  1.00  0.00    -0.023 OA 
HETATM   25  O   UNK A   1     -12.706   8.850  72.273  1.00  0.00    -0.376 OA 
HETATM   26  H1  UNK A   1     -14.201  10.507  70.845  1.00  0.00     0.000 HD 
HETATM   27  H2  UNK A   1     -13.786  10.290  69.230  1.00  0.00     0.000 HD 
ENDBRANCH  20  21
ENDBRANCH  19  20
ENDBRANCH  18  19
ENDBRANCH  17  18
ENDBRANCH  16  17
ENDBRANCH  15  16
ENDBRANCH  11  15
ENDBRANCH   7  10
ENDBRANCH   5   6
TORSDOF 9
ENDMDL
MODEL      358
REMARK 921   NORMALIZED FREE ENERGY PREDICTED BY IDOCK:   20.82 KCAL/MOL
REMARK 922        TOTAL FREE ENERGY PREDICTED BY IDOCK:   30.80 KCAL/MOL
REMARK 923 INTER-LIGAND FREE ENERGY PREDICTED BY IDOCK:   28.45 KCAL/MOL
REMARK 924 INTRA-LIGAND FREE ENERGY PREDICTED BY IDOCK:    2.35 KCAL/MOL
REMARK 927      BINDING AFFINITY PREDICTED BY RF-SCORE:    0.00 PKD
ROOT
HETATM    1  C   UNK A   0     -10.542  20.259  65.198  1.00  0.00     0.294 C  
HETATM    2  C   UNK A   0     -10.005  18.851  65.303  1.00  0.00     1.200 C  
HETATM    3  C   UNK A   0      -8.842  18.518  64.400  1.00  0.00     7.558 C  
HETATM    4  C   UNK A   0     -11.083  17.819  65.536  1.00  0.00     0.479 C  
HETATM    5  C   UNK A   0      -8.610  18.622  65.898  1.00  0.00     0.154 C  
ENDROOT
BRANCH   5   6
HETATM    6  C   UNK A   0      -8.209  17.360  66.604  1.00  0.00    -0.256 C  
HETATM    7  N   UNK A   1      -7.099  17.433  67.414  1.00  0.00    -0.161 N  
HETATM    8  O   UNK A   0      -8.817  16.319  66.391  1.00  0.00    -0.252 OA 
HETATM    9  H   UNK A   1      -6.662  18.351  67.490  1.00  0.00     0.000 HD 
BRANCH   7  10
HETATM   10  C   UNK A   1      -6.500  16.408  68.143  1.00  0.00    -0.129 C  
HETATM   11  C   UNK A   1      -6.311  16.525  69.482  1.00  0.00    -0.214 C  
HETATM   12  C   UNK A   1      -5.946  15.110  67.585  1.00  0.00    -0.080 C  
HETATM   13  O   UNK A   1      -5.432  15.172  66.342  1.00  0.00     1.678 OA 
HETATM   14  O   UNK A   1      -5.804  14.108  68.273  1.00  0.00    -0.097 OA 
BRANCH  11  15
HETATM   15  C   UNK A   1      -6.645  17.707  70.341  1.00  0.00     1.009 C  
BRANCH  15  16
HETATM   16  C   UNK A   1      -5.479  18.648  70.703  1.00  0.00    -0.230 C  
BRANCH  16  17
HETATM   17  C   UNK A   1      -5.748  19.981  69.992  1.00  0.00    -0.323 C  
BRANCH  17  18
HETATM   18  C   UNK A   1      -5.675  21.223  70.872  1.00  0.00     1.089 C  
BRANCH  18  19
HETATM   19  S   UNK A   1      -6.487  20.782  72.454  1.00  0.00     2.590 SA 
BRANCH  19  20
HETATM   20  C   UNK A   1      -7.582  19.445  71.872  1.00  0.00     3.729 C  
BRANCH  20  21
HETATM   21  C   UNK A   1      -9.014  19.965  71.669  1.00  0.00     2.921 C  
HETATM   22  N   UNK A   1      -9.708  20.262  72.965  1.00  0.00     2.102 NA 
HETATM   23  C   UNK A   1      -9.803  18.873  70.945  1.00  0.00     2.784 C  
HETATM   24  O   UNK A   1      -9.727  18.630  69.752  1.00  0.00     0.308 OA 
HETATM   25  O   UNK A   1     -10.572  18.163  71.812  1.00  0.00     2.297 OA 
HETATM   26  H1  UNK A   1     -10.658  20.607  72.831  1.00  0.00     0.000 HD 
HETATM   27  H2  UNK A   1      -9.160  20.908  73.534  1.00  0.00     0.000 HD 
ENDBRANCH  20  21
ENDBRANCH  19  20
ENDBRANCH  18  19
ENDBRANCH  17  18
ENDBRANCH  16  17
ENDBRANCH  15  16
ENDBRANCH  11  15
ENDBRANCH   7  10
ENDBRANCH   5   6
TORSDOF 9
ENDMDL
MODEL      359
REMARK 921   NORMALIZED FREE ENERGY PREDICTED BY IDOCK:   37.72 KCAL/MOL
REMARK 922        TOTAL FREE ENERGY PREDICTED BY IDOCK:   56.59 KCAL/MOL
REMARK 923 INTER-LIGAND FREE ENERGY PREDICTED BY IDOCK:    0.62 KCAL/MOL
REMARK 924 INTRA-LIGAND FREE ENERGY PREDICTED BY IDOCK:   55.97 KCAL/MOL
REMARK 927      BINDING AFFINITY PREDICTED BY RF-SCORE:    0.00 PKD
ROOT
HETATM    1  C   UNK A   0      -9.415  13.386  68.902  1.00  0.00     0.186 C  
HETATM    2  C   UNK A   0      -8.724  12.142  68.397  1.00  0.00    -0.141 C  
HETATM    3  C   UNK A   0      -7.634  11.586  69.282  1.00  0.00     0.075 C  
HETATM    4  C   UNK A   0      -8.540  12.129  66.898  1.00  0.00    -0.191 C  
HETATM    5  C   UNK A   0      -8.934  10.814  69.136  1.00  0.00    -0.100 C  
ENDROOT
BRANCH   5   6
HETATM    6  C   UNK A   0      -8.846   9.473  68.468  1.00  0.00    -0.124 C  
HETATM    7  N   UNK A   1      -7.759   8.694  68.790  1.00  0.00    -0.096 N  
HETATM    8  O   UNK A   0      -9.679   9.150  67.630  1.00  0.00    -0.149 OA 
HETATM    9  H   UNK A   1      -7.119   9.085  69.482  1.00  0.00     0.000 HD 
BRANCH   7  10
HETATM   10  C   UNK A   1      -7.422   7.439  68.287  1.00  0.00    -0.109 C  
HETATM   11  C   UNK A   1      -7.808   7.063  67.041  1.00  0.00    -0.108 C  
HETATM   12  C   UNK A   1      -6.673   6.346  69.024  1.00  0.00    -0.053 C  
HETATM   13  O   UNK A   1      -6.868   6.287  70.355  1.00  0.00    -0.051 OA 
HETATM   14  O   UNK A   1      -6.069   5.456  68.439  1.00  0.00    -0.023 OA 
BRANCH  11  15
HETATM   15  C   UNK A   1      -8.641   7.851  66.077  1.00  0.00    -0.166 C  
BRANCH  15  16
HETATM   16  C   UNK A   1     -10.157   7.895  66.352  1.00  0.00    -0.149 C  
BRANCH  16  17
HETATM   17  C   UNK A   1     -10.492   9.335  66.762  1.00  0.00    -0.263 C  
BRANCH  17  18
HETATM   18  C   UNK A   1      -9.957   9.775  68.120  1.00  0.00    -0.154 C  
BRANCH  18  19
HETATM   19  S   UNK A   1     -10.232  11.584  68.221  1.00  0.00    -0.202 SA 
BRANCH  19  20
HETATM   20  C   UNK A   1     -11.116  11.668  69.815  1.00  0.00    -0.044 C  
BRANCH  20  21
HETATM   21  C   UNK A   1     -11.605  13.099  70.090  1.00  0.00    -0.074 C  
HETATM   22  N   UNK A   1     -10.504  14.112  69.995  1.00  0.00    -0.178 NA 
HETATM   23  C   UNK A   1     -12.163  13.131  71.513  1.00  0.00     0.259 C  
HETATM   24  O   UNK A   1     -13.253  12.698  71.848  1.00  0.00    -0.450 OA 
HETATM   25  O   UNK A   1     -11.263  13.660  72.384  1.00  0.00     2.924 OA 
HETATM   26  H1  UNK A   1     -10.828  15.062  70.178  1.00  0.00     0.000 HD 
HETATM   27  H2  UNK A   1     -10.029  14.054  69.095  1.00  0.00     0.000 HD 
ENDBRANCH  20  21
ENDBRANCH  19  20
ENDBRANCH  18  19
ENDBRANCH  17  18
ENDBRANCH  16  17
ENDBRANCH  15  16
ENDBRANCH  11  15
ENDBRANCH   7  10
ENDBRANCH   5   6
TORSDOF 9
ENDMDL
