MODEL        1
REMARK 921   NORMALIZED FREE ENERGY PREDICTED BY IDOCK:   -7.56 KCAL/MOL
REMARK 922        TOTAL FREE ENERGY PREDICTED BY IDOCK:  -12.31 KCAL/MOL
REMARK 923 INTER-LIGAND FREE ENERGY PREDICTED BY IDOCK:  -11.09 KCAL/MOL
REMARK 924 INTRA-LIGAND FREE ENERGY PREDICTED BY IDOCK:   -1.21 KCAL/MOL
REMARK 927      BINDING AFFINITY PREDICTED BY RF-SCORE:    0.00 PKD
ROOT
HETATM    1  C   UNL     1     -12.578  15.875  74.055  1.00  0.00    -0.755 C  
HETATM    2  C   UNL     1     -13.268  15.714  72.714  1.00  0.00    -0.516 C  
ENDROOT
BRANCH   2   3
HETATM    3  O   UNL     1     -12.441  14.952  71.825  1.00  0.00    -0.309 OA 
BRANCH   3   4
HETATM    4  C   UNL     1     -12.923  13.724  71.479  1.00  0.00    -0.363 C  
HETATM    5  O   UNL     1     -13.520  12.958  72.230  1.00  0.00    -0.562 OA 
BRANCH   4   6
HETATM    6  C   UNL     1     -12.640  13.442  69.993  1.00  0.00    -0.028 C  
BRANCH   6   7
HETATM    7  C   UNL     1     -11.422  12.522  69.866  1.00  0.00    -0.159 C  
BRANCH   7   8
HETATM    8  C   UNL     1     -11.772  11.151  69.272  1.00  0.00    -0.401 C  
BRANCH   8   9
HETATM    9  C   UNL     1     -11.807  10.113  70.366  1.00  0.00    -0.373 A  
HETATM   10  C   UNL     1     -11.849   8.340  72.532  1.00  0.00    -0.439 A  
HETATM   11  C   UNL     1     -13.029   8.946  72.106  1.00  0.00    -0.473 A  
HETATM   12  C   UNL     1     -13.009   9.831  71.027  1.00  0.00    -0.368 A  
HETATM   13  C   UNL     1     -10.650   8.605  71.872  1.00  0.00    -0.411 A  
HETATM   14  C   UNL     1     -10.628   9.487  70.791  1.00  0.00    -0.387 A  
ENDBRANCH   8   9
ENDBRANCH   7   8
ENDBRANCH   6   7
BRANCH   6  15
HETATM   15  N   UNL     1     -12.472  14.743  69.318  1.00  0.00    -0.579 NA 
HETATM   16  H   UNL     1     -13.063  15.538  69.564  1.00  0.00     0.000 HD 
BRANCH  15  17
HETATM   17  C   UNL     1     -11.421  14.871  68.269  1.00  0.00    -0.324 C  
HETATM   18  O   UNL     1     -11.063  16.959  69.421  1.00  0.00    -0.192 OA 
HETATM   19  C   UNL     1     -12.014  14.373  66.957  1.00  0.00    -0.424 C  
HETATM   20  O   UNL     1      -9.390  20.509  66.554  1.00  0.00    -0.258 OA 
HETATM   21  O   UNL     1     -10.757  19.015  65.561  1.00  0.00    -0.536 OA 
HETATM   22  C   UNL     1     -11.010  14.239  65.829  1.00  0.00    -0.305 C  
HETATM   23  C   UNL     1     -10.947  16.365  68.336  1.00  0.00    -0.353 C  
HETATM   24  C   UNL     1     -10.663  15.593  65.259  1.00  0.00    -0.425 C  
HETATM   25  N   UNL     1      -9.808  16.387  66.114  1.00  0.00    -0.318 NA 
HETATM   26  C   UNL     1      -9.889  19.392  66.531  1.00  0.00    -0.386 C  
HETATM   27  C   UNL     1      -8.411  15.977  66.240  1.00  0.00    -0.302 C  
HETATM   28  N   UNL     1     -10.321  17.014  67.265  1.00  0.00    -0.308 N  
HETATM   29  C   UNL     1      -7.561  17.219  66.539  1.00  0.00    -0.324 C  
HETATM   30  C   UNL     1      -9.616  18.300  67.574  1.00  0.00    -0.280 C  
HETATM   31  C   UNL     1      -8.110  18.020  67.725  1.00  0.00    -0.237 C  
ENDBRANCH  15  17
ENDBRANCH   6  15
ENDBRANCH   4   6
ENDBRANCH   3   4
ENDBRANCH   2   3
TORSDOF 8
ENDMDL
MODEL        2
REMARK 921   NORMALIZED FREE ENERGY PREDICTED BY IDOCK:   -7.56 KCAL/MOL
REMARK 922        TOTAL FREE ENERGY PREDICTED BY IDOCK:  -12.30 KCAL/MOL
REMARK 923 INTER-LIGAND FREE ENERGY PREDICTED BY IDOCK:  -10.85 KCAL/MOL
REMARK 924 INTRA-LIGAND FREE ENERGY PREDICTED BY IDOCK:   -1.45 KCAL/MOL
REMARK 927      BINDING AFFINITY PREDICTED BY RF-SCORE:    0.00 PKD
ROOT
HETATM    1  C   UNL     1     -10.616  11.952  63.466  1.00  0.00    -0.507 C  
HETATM    2  C   UNL     1     -12.096  12.232  63.640  1.00  0.00    -0.554 C  
ENDROOT
BRANCH   2   3
HETATM    3  O   UNL     1     -12.434  12.240  65.033  1.00  0.00    -0.535 OA 
BRANCH   3   4
HETATM    4  C   UNL     1     -12.419  13.463  65.636  1.00  0.00    -0.464 C  
HETATM    5  O   UNL     1     -13.104  14.426  65.303  1.00  0.00    -0.629 OA 
BRANCH   4   6
HETATM    6  C   UNL     1     -11.438  13.459  66.822  1.00  0.00    -0.343 C  
BRANCH   6   7
HETATM    7  C   UNL     1     -12.161  13.929  68.089  1.00  0.00    -0.317 C  
BRANCH   7   8
HETATM    8  C   UNL     1     -11.875  13.033  69.301  1.00  0.00    -0.370 C  
BRANCH   8   9
HETATM    9  C   UNL     1     -12.315  13.727  70.566  1.00  0.00    -0.429 A  
HETATM   10  C   UNL     1     -12.970  14.931  73.006  1.00  0.00    -0.599 A  
HETATM   11  C   UNL     1     -12.089  15.564  72.133  1.00  0.00    -0.509 A  
HETATM   12  C   UNL     1     -11.762  14.965  70.916  1.00  0.00    -0.374 A  
HETATM   13  C   UNL     1     -13.536  13.705  72.661  1.00  0.00    -0.596 A  
HETATM   14  C   UNL     1     -13.212  13.105  71.444  1.00  0.00    -0.290 A  
ENDBRANCH   8   9
ENDBRANCH   7   8
ENDBRANCH   6   7
BRANCH   6  15
HETATM   15  N   UNL     1     -10.288  14.304  66.449  1.00  0.00    -0.280 NA 
HETATM   16  H   UNL     1      -9.771  14.130  65.586  1.00  0.00     0.000 HD 
BRANCH  15  17
HETATM   17  C   UNL     1      -9.897  15.418  67.359  1.00  0.00    -0.216 C  
HETATM   18  O   UNL     1     -10.041  16.651  65.292  1.00  0.00    -0.575 OA 
HETATM   19  C   UNL     1      -8.827  14.887  68.305  1.00  0.00    -0.172 C  
HETATM   20  O   UNL     1      -7.026  20.458  65.076  1.00  0.00    -0.291 OA 
HETATM   21  O   UNL     1      -6.287  18.693  66.272  1.00  0.00    -0.171 OA 
HETATM   22  C   UNL     1      -8.468  15.833  69.435  1.00  0.00    -0.218 C  
HETATM   23  C   UNL     1      -9.511  16.610  66.415  1.00  0.00    -0.280 C  
HETATM   24  C   UNL     1      -7.592  16.955  68.934  1.00  0.00    -0.234 C  
HETATM   25  N   UNL     1      -8.298  17.941  68.145  1.00  0.00    -0.259 NA 
HETATM   26  C   UNL     1      -7.270  19.443  65.715  1.00  0.00    -0.280 C  
HETATM   27  C   UNL     1      -9.210  18.840  68.846  1.00  0.00    -0.241 C  
HETATM   28  N   UNL     1      -8.682  17.663  66.819  1.00  0.00    -0.249 N  
HETATM   29  C   UNL     1      -9.286  20.163  68.072  1.00  0.00    -0.327 C  
HETATM   30  C   UNL     1      -8.681  18.889  65.957  1.00  0.00    -0.017 C  
HETATM   31  C   UNL     1      -9.606  19.945  66.589  1.00  0.00    -0.527 C  
ENDBRANCH  15  17
ENDBRANCH   6  15
ENDBRANCH   4   6
ENDBRANCH   3   4
ENDBRANCH   2   3
TORSDOF 8
ENDMDL
MODEL        3
REMARK 921   NORMALIZED FREE ENERGY PREDICTED BY IDOCK:   -7.47 KCAL/MOL
REMARK 922        TOTAL FREE ENERGY PREDICTED BY IDOCK:  -12.18 KCAL/MOL
REMARK 923 INTER-LIGAND FREE ENERGY PREDICTED BY IDOCK:  -10.76 KCAL/MOL
REMARK 924 INTRA-LIGAND FREE ENERGY PREDICTED BY IDOCK:   -1.42 KCAL/MOL
REMARK 927      BINDING AFFINITY PREDICTED BY RF-SCORE:    0.00 PKD
ROOT
HETATM    1  C   UNL     1     -12.420  12.001  63.556  1.00  0.00    -0.654 C  
HETATM    2  C   UNL     1     -11.981  13.420  63.252  1.00  0.00    -0.227 C  
ENDROOT
BRANCH   2   3
HETATM    3  O   UNL     1     -12.572  14.328  64.191  1.00  0.00    -0.689 OA 
BRANCH   3   4
HETATM    4  C   UNL     1     -11.764  15.338  64.622  1.00  0.00    -0.308 C  
HETATM    5  O   UNL     1     -11.539  16.378  64.009  1.00  0.00    -1.071 OA 
BRANCH   4   6
HETATM    6  C   UNL     1     -11.191  15.004  66.011  1.00  0.00    -0.310 C  
BRANCH   6   7
HETATM    7  C   UNL     1     -12.115  14.012  66.724  1.00  0.00    -0.480 C  
BRANCH   7   8
HETATM    8  C   UNL     1     -11.352  12.837  67.351  1.00  0.00    -0.363 C  
BRANCH   8   9
HETATM    9  C   UNL     1     -11.780  12.657  68.786  1.00  0.00    -0.364 A  
HETATM   10  C   UNL     1     -12.769  12.306  71.382  1.00  0.00    -0.351 A  
HETATM   11  C   UNL     1     -12.449  11.196  70.603  1.00  0.00    -0.448 A  
HETATM   12  C   UNL     1     -11.956  11.370  69.310  1.00  0.00    -0.400 A  
HETATM   13  C   UNL     1     -12.586  13.591  70.875  1.00  0.00    -0.414 A  
HETATM   14  C   UNL     1     -12.091  13.768  69.581  1.00  0.00    -0.392 A  
ENDBRANCH   8   9
ENDBRANCH   7   8
ENDBRANCH   6   7
BRANCH   6  15
HETATM   15  N   UNL     1     -11.016  16.277  66.736  1.00  0.00    -0.120 NA 
HETATM   16  H   UNL     1     -11.805  16.908  66.881  1.00  0.00     0.000 HD 
BRANCH  15  17
HETATM   17  C   UNL     1      -9.661  16.622  67.254  1.00  0.00    -0.245 C  
HETATM   18  O   UNL     1     -10.224  18.732  66.230  1.00  0.00    -0.382 OA 
HETATM   19  C   UNL     1      -8.750  15.428  66.994  1.00  0.00    -0.256 C  
HETATM   20  O   UNL     1      -6.368  21.193  64.587  1.00  0.00    -0.231 OA 
HETATM   21  O   UNL     1      -6.199  18.945  64.506  1.00  0.00    -0.475 OA 
HETATM   22  C   UNL     1      -7.386  15.531  67.648  1.00  0.00    -0.197 C  
HETATM   23  C   UNL     1      -9.291  17.985  66.573  1.00  0.00    -0.285 C  
HETATM   24  C   UNL     1      -6.499  16.485  66.886  1.00  0.00    -0.155 C  
HETATM   25  N   UNL     1      -6.845  17.878  67.067  1.00  0.00    -0.172 NA 
HETATM   26  C   UNL     1      -6.721  20.095  64.997  1.00  0.00    -0.274 C  
HETATM   27  C   UNL     1      -6.547  18.486  68.360  1.00  0.00    -0.226 C  
HETATM   28  N   UNL     1      -7.972  18.429  66.426  1.00  0.00    -0.264 N  
HETATM   29  C   UNL     1      -6.304  19.987  68.152  1.00  0.00    -0.296 C  
HETATM   30  C   UNL     1      -7.781  19.877  66.086  1.00  0.00    -0.325 C  
HETATM   31  C   UNL     1      -7.444  20.652  67.372  1.00  0.00    -0.384 C  
ENDBRANCH  15  17
ENDBRANCH   6  15
ENDBRANCH   4   6
ENDBRANCH   3   4
ENDBRANCH   2   3
TORSDOF 8
ENDMDL
MODEL        4
REMARK 921   NORMALIZED FREE ENERGY PREDICTED BY IDOCK:   -7.46 KCAL/MOL
REMARK 922        TOTAL FREE ENERGY PREDICTED BY IDOCK:  -12.16 KCAL/MOL
REMARK 923 INTER-LIGAND FREE ENERGY PREDICTED BY IDOCK:  -11.05 KCAL/MOL
REMARK 924 INTRA-LIGAND FREE ENERGY PREDICTED BY IDOCK:   -1.11 KCAL/MOL
REMARK 927      BINDING AFFINITY PREDICTED BY RF-SCORE:    0.00 PKD
ROOT
HETATM    1  C   UNL     1     -11.032  11.501  63.735  1.00  0.00    -0.485 C  
HETATM    2  C   UNL     1     -12.442  12.060  63.774  1.00  0.00    -0.485 C  
ENDROOT
BRANCH   2   3
HETATM    3  O   UNL     1     -12.669  12.730  65.021  1.00  0.00    -0.625 OA 
BRANCH   3   4
HETATM    4  C   UNL     1     -12.364  14.059  65.039  1.00  0.00    -0.441 C  
HETATM    5  O   UNL     1     -12.728  14.882  64.203  1.00  0.00    -0.750 OA 
BRANCH   4   6
HETATM    6  C   UNL     1     -11.520  14.395  66.281  1.00  0.00    -0.359 C  
BRANCH   6   7
HETATM    7  C   UNL     1     -12.356  14.177  67.546  1.00  0.00    -0.106 C  
BRANCH   7   8
HETATM    8  C   UNL     1     -11.541  13.579  68.700  1.00  0.00    -0.365 C  
BRANCH   8   9
HETATM    9  C   UNL     1     -12.259  13.810  70.007  1.00  0.00    -0.407 A  
HETATM   10  C   UNL     1     -13.766  14.202  72.333  1.00  0.00    -0.645 A  
HETATM   11  C   UNL     1     -13.345  12.920  71.984  1.00  0.00    -0.579 A  
HETATM   12  C   UNL     1     -12.594  12.724  70.825  1.00  0.00    -0.308 A  
HETATM   13  C   UNL     1     -13.427  15.291  71.532  1.00  0.00    -0.577 A  
HETATM   14  C   UNL     1     -12.673  15.097  70.373  1.00  0.00    -0.378 A  
ENDBRANCH   8   9
ENDBRANCH   7   8
ENDBRANCH   6   7
BRANCH   6  15
HETATM   15  N   UNL     1     -11.031  15.778  66.125  1.00  0.00    -0.232 NA 
HETATM   16  H   UNL     1     -11.507  16.433  65.504  1.00  0.00     0.000 HD 
BRANCH  15  17
HETATM   17  C   UNL     1      -9.825  16.198  66.894  1.00  0.00    -0.241 C  
HETATM   18  O   UNL     1     -10.316  18.285  65.790  1.00  0.00    -0.594 OA 
HETATM   19  C   UNL     1      -8.806  15.068  66.809  1.00  0.00    -0.299 C  
HETATM   20  O   UNL     1      -6.384  21.009  64.927  1.00  0.00    -0.252 OA 
HETATM   21  O   UNL     1      -6.058  18.777  64.870  1.00  0.00    -0.297 OA 
HETATM   22  C   UNL     1      -7.601  15.245  67.713  1.00  0.00    -0.171 C  
HETATM   23  C   UNL     1      -9.420  17.593  66.302  1.00  0.00    -0.215 C  
HETATM   24  C   UNL     1      -6.648  16.265  67.139  1.00  0.00    -0.195 C  
HETATM   25  N   UNL     1      -7.112  17.630  67.255  1.00  0.00    -0.173 NA 
HETATM   26  C   UNL     1      -6.737  19.884  65.257  1.00  0.00    -0.296 C  
HETATM   27  C   UNL     1      -7.106  18.235  68.585  1.00  0.00    -0.275 C  
HETATM   28  N   UNL     1      -8.128  18.121  66.413  1.00  0.00    -0.269 N  
HETATM   29  C   UNL     1      -6.925  19.751  68.433  1.00  0.00    -0.339 C  
HETATM   30  C   UNL     1      -7.969  19.583  66.121  1.00  0.00    -0.330 C  
HETATM   31  C   UNL     1      -7.935  20.356  67.451  1.00  0.00    -0.361 C  
ENDBRANCH  15  17
ENDBRANCH   6  15
ENDBRANCH   4   6
ENDBRANCH   3   4
ENDBRANCH   2   3
TORSDOF 8
ENDMDL
MODEL        5
REMARK 921   NORMALIZED FREE ENERGY PREDICTED BY IDOCK:   -7.44 KCAL/MOL
REMARK 922        TOTAL FREE ENERGY PREDICTED BY IDOCK:  -12.13 KCAL/MOL
REMARK 923 INTER-LIGAND FREE ENERGY PREDICTED BY IDOCK:  -10.63 KCAL/MOL
REMARK 924 INTRA-LIGAND FREE ENERGY PREDICTED BY IDOCK:   -1.51 KCAL/MOL
REMARK 927      BINDING AFFINITY PREDICTED BY RF-SCORE:    0.00 PKD
ROOT
HETATM    1  C   UNL     1      -9.803  10.507  64.073  1.00  0.00    -0.387 C  
HETATM    2  C   UNL     1     -10.109  11.828  63.394  1.00  0.00    -0.446 C  
ENDROOT
BRANCH   2   3
HETATM    3  O   UNL     1     -11.507  12.126  63.507  1.00  0.00    -0.426 OA 
BRANCH   3   4
HETATM    4  C   UNL     1     -11.808  13.383  63.943  1.00  0.00    -0.439 C  
HETATM    5  O   UNL     1     -12.481  14.204  63.327  1.00  0.00    -0.758 OA 
BRANCH   4   6
HETATM    6  C   UNL     1     -11.207  13.620  65.340  1.00  0.00    -0.298 C  
BRANCH   6   7
HETATM    7  C   UNL     1     -12.094  12.960  66.401  1.00  0.00    -0.400 C  
BRANCH   7   8
HETATM    8  C   UNL     1     -11.306  12.045  67.347  1.00  0.00    -0.393 C  
BRANCH   8   9
HETATM    9  C   UNL     1     -11.725  12.301  68.773  1.00  0.00    -0.390 A  
HETATM   10  C   UNL     1     -12.698  12.755  71.359  1.00  0.00    -0.353 A  
HETATM   11  C   UNL     1     -12.452  11.453  70.926  1.00  0.00    -0.478 A  
HETATM   12  C   UNL     1     -11.968  11.226  69.638  1.00  0.00    -0.423 A  
HETATM   13  C   UNL     1     -12.448  13.832  70.511  1.00  0.00    -0.409 A  
HETATM   14  C   UNL     1     -11.961  13.608  69.222  1.00  0.00    -0.384 A  
ENDBRANCH   8   9
ENDBRANCH   7   8
ENDBRANCH   6   7
BRANCH   6  15
HETATM   15  N   UNL     1     -11.056  15.077  65.516  1.00  0.00    -0.346 NA 
HETATM   16  H   UNL     1     -11.619  15.729  64.971  1.00  0.00     0.000 HD 
BRANCH  15  17
HETATM   17  C   UNL     1     -10.063  15.575  66.510  1.00  0.00    -0.279 C  
HETATM   18  O   UNL     1     -10.576  17.659  65.411  1.00  0.00    -0.657 OA 
HETATM   19  C   UNL     1      -8.926  14.562  66.574  1.00  0.00    -0.211 C  
HETATM   20  O   UNL     1      -6.881  20.816  65.390  1.00  0.00    -0.185 OA 
HETATM   21  O   UNL     1      -6.304  18.637  65.313  1.00  0.00    -0.281 OA 
HETATM   22  C   UNL     1      -7.930  14.810  67.690  1.00  0.00    -0.191 C  
HETATM   23  C   UNL     1      -9.716  17.035  66.054  1.00  0.00    -0.218 C  
HETATM   24  C   UNL     1      -7.009  15.953  67.340  1.00  0.00    -0.200 C  
HETATM   25  N   UNL     1      -7.635  17.255  67.418  1.00  0.00    -0.178 NA 
HETATM   26  C   UNL     1      -7.161  19.645  65.608  1.00  0.00    -0.300 C  
HETATM   27  C   UNL     1      -7.936  17.781  68.747  1.00  0.00    -0.238 C  
HETATM   28  N   UNL     1      -8.532  17.685  66.421  1.00  0.00    -0.259 N  
HETATM   29  C   UNL     1      -7.900  19.314  68.687  1.00  0.00    -0.396 C  
HETATM   30  C   UNL     1      -8.486  19.170  66.218  1.00  0.00    -0.304 C  
HETATM   31  C   UNL     1      -8.778  19.867  67.558  1.00  0.00    -0.401 C  
ENDBRANCH  15  17
ENDBRANCH   6  15
ENDBRANCH   4   6
ENDBRANCH   3   4
ENDBRANCH   2   3
TORSDOF 8
ENDMDL
MODEL        6
REMARK 921   NORMALIZED FREE ENERGY PREDICTED BY IDOCK:   -7.20 KCAL/MOL
REMARK 922        TOTAL FREE ENERGY PREDICTED BY IDOCK:  -11.78 KCAL/MOL
REMARK 923 INTER-LIGAND FREE ENERGY PREDICTED BY IDOCK:  -10.30 KCAL/MOL
REMARK 924 INTRA-LIGAND FREE ENERGY PREDICTED BY IDOCK:   -1.48 KCAL/MOL
REMARK 927      BINDING AFFINITY PREDICTED BY RF-SCORE:    0.00 PKD
ROOT
HETATM    1  C   UNL     1     -12.184  14.085  64.321  1.00  0.00    -0.453 C  
HETATM    2  C   UNL     1     -11.857  12.705  64.860  1.00  0.00    -0.387 C  
ENDROOT
BRANCH   2   3
HETATM    3  O   UNL     1     -12.358  12.570  66.196  1.00  0.00    -0.596 OA 
BRANCH   3   4
HETATM    4  C   UNL     1     -11.576  11.846  67.048  1.00  0.00    -0.291 C  
HETATM    5  O   UNL     1     -10.750  11.003  66.709  1.00  0.00    -0.256 OA 
BRANCH   4   6
HETATM    6  C   UNL     1     -11.854  12.257  68.504  1.00  0.00    -0.307 C  
BRANCH   6   7
HETATM    7  C   UNL     1     -12.026  13.778  68.586  1.00  0.00    -0.401 C  
BRANCH   7   8
HETATM    8  C   UNL     1     -11.149  14.416  69.670  1.00  0.00    -0.241 C  
BRANCH   8   9
HETATM    9  C   UNL     1     -12.009  14.875  70.821  1.00  0.00    -0.372 A  
HETATM   10  C   UNL     1     -13.531  15.571  73.066  1.00  0.00    -0.632 A  
HETATM   11  C   UNL     1     -12.231  16.053  72.929  1.00  0.00    -0.621 A  
HETATM   12  C   UNL     1     -11.472  15.708  71.811  1.00  0.00    -0.505 A  
HETATM   13  C   UNL     1     -14.079  14.752  72.080  1.00  0.00    -0.604 A  
HETATM   14  C   UNL     1     -13.322  14.406  70.959  1.00  0.00    -0.359 A  
ENDBRANCH   8   9
ENDBRANCH   7   8
ENDBRANCH   6   7
BRANCH   6  15
HETATM   15  N   UNL     1     -10.746  11.742  69.330  1.00  0.00    -0.448 NA 
HETATM   16  H   UNL     1      -9.785  12.038  69.157  1.00  0.00     0.000 HD 
BRANCH  15  17
HETATM   17  C   UNL     1     -11.060  10.779  70.424  1.00  0.00    -0.096 C  
HETATM   18  O   UNL     1      -9.187   9.628  69.433  1.00  0.00    -0.165 OA 
HETATM   19  C   UNL     1     -12.576  10.646  70.501  1.00  0.00    -0.433 C  
HETATM   20  O   UNL     1      -9.402   4.794  69.888  1.00  0.00    -0.117 OA 
HETATM   21  O   UNL     1     -11.389   5.847  69.707  1.00  0.00    -0.371 OA 
HETATM   22  C   UNL     1     -13.074   9.863  71.700  1.00  0.00    -0.538 C  
HETATM   23  C   UNL     1     -10.230   9.489  70.093  1.00  0.00    -0.246 C  
HETATM   24  C   UNL     1     -12.868   8.382  71.494  1.00  0.00    -0.303 C  
HETATM   25  N   UNL     1     -11.489   7.961  71.614  1.00  0.00    -0.255 NA 
HETATM   26  C   UNL     1     -10.068   5.814  70.006  1.00  0.00    -0.216 C  
HETATM   27  C   UNL     1     -10.900   7.952  72.950  1.00  0.00    -0.386 C  
HETATM   28  N   UNL     1     -10.563   8.222  70.586  1.00  0.00    -0.211 N  
HETATM   29  C   UNL     1      -9.804   6.879  72.996  1.00  0.00    -0.204 C  
HETATM   30  C   UNL     1      -9.510   7.161  70.487  1.00  0.00    -0.162 C  
HETATM   31  C   UNL     1      -8.801   7.031  71.846  1.00  0.00    -0.128 C  
ENDBRANCH  15  17
ENDBRANCH   6  15
ENDBRANCH   4   6
ENDBRANCH   3   4
ENDBRANCH   2   3
TORSDOF 8
ENDMDL
MODEL        7
REMARK 921   NORMALIZED FREE ENERGY PREDICTED BY IDOCK:   -7.13 KCAL/MOL
REMARK 922        TOTAL FREE ENERGY PREDICTED BY IDOCK:  -11.68 KCAL/MOL
REMARK 923 INTER-LIGAND FREE ENERGY PREDICTED BY IDOCK:  -10.27 KCAL/MOL
REMARK 924 INTRA-LIGAND FREE ENERGY PREDICTED BY IDOCK:   -1.42 KCAL/MOL
REMARK 927      BINDING AFFINITY PREDICTED BY RF-SCORE:    0.00 PKD
ROOT
HETATM    1  C   UNL     1     -10.390  11.911  64.491  1.00  0.00    -0.334 C  
HETATM    2  C   UNL     1     -10.681  13.400  64.518  1.00  0.00    -0.419 C  
ENDROOT
BRANCH   2   3
HETATM    3  O   UNL     1     -10.861  13.840  65.871  1.00  0.00    -0.280 OA 
BRANCH   3   4
HETATM    4  C   UNL     1     -12.141  13.796  66.340  1.00  0.00    -0.444 C  
HETATM    5  O   UNL     1     -13.144  14.083  65.692  1.00  0.00    -0.639 OA 
BRANCH   4   6
HETATM    6  C   UNL     1     -12.156  13.302  67.797  1.00  0.00    -0.237 C  
BRANCH   6   7
HETATM    7  C   UNL     1     -11.236  14.183  68.649  1.00  0.00    -0.291 C  
BRANCH   7   8
HETATM    8  C   UNL     1     -11.909  15.488  69.093  1.00  0.00    -0.373 C  
BRANCH   8   9
HETATM    9  C   UNL     1     -12.344  15.376  70.533  1.00  0.00    -0.452 A  
HETATM   10  C   UNL     1     -13.186  15.370  73.203  1.00  0.00    -0.636 A  
HETATM   11  C   UNL     1     -14.119  15.226  72.178  1.00  0.00    -0.658 A  
HETATM   12  C   UNL     1     -13.700  15.229  70.847  1.00  0.00    -0.363 A  
HETATM   13  C   UNL     1     -11.832  15.504  72.900  1.00  0.00    -0.565 A  
HETATM   14  C   UNL     1     -11.410  15.505  71.570  1.00  0.00    -0.466 A  
ENDBRANCH   8   9
ENDBRANCH   7   8
ENDBRANCH   6   7
BRANCH   6  15
HETATM   15  N   UNL     1     -11.770  11.878  67.787  1.00  0.00    -0.516 NA 
HETATM   16  H   UNL     1     -11.759  11.347  66.916  1.00  0.00     0.000 HD 
BRANCH  15  17
HETATM   17  C   UNL     1     -11.397  11.232  69.078  1.00  0.00    -0.278 C  
HETATM   18  O   UNL     1     -10.307   9.706  67.562  1.00  0.00    -0.209 OA 
HETATM   19  C   UNL     1     -12.622  11.269  69.984  1.00  0.00    -0.169 C  
HETATM   20  O   UNL     1     -10.016   5.157  69.247  1.00  0.00    -0.175 OA 
HETATM   21  O   UNL     1     -11.831   6.326  69.901  1.00  0.00    -0.340 OA 
HETATM   22  C   UNL     1     -12.355  10.840  71.413  1.00  0.00    -0.433 C  
HETATM   23  C   UNL     1     -10.820   9.828  68.688  1.00  0.00    -0.188 C  
HETATM   24  C   UNL     1     -12.224   9.340  71.505  1.00  0.00    -0.362 C  
HETATM   25  N   UNL     1     -10.981   8.826  70.970  1.00  0.00    -0.252 NA 
HETATM   26  C   UNL     1     -10.558   6.236  69.445  1.00  0.00    -0.271 C  
HETATM   27  C   UNL     1      -9.763   9.073  71.736  1.00  0.00    -0.241 C  
HETATM   28  N   UNL     1     -10.772   8.749  69.579  1.00  0.00    -0.217 N  
HETATM   29  C   UNL     1      -8.768   7.940  71.454  1.00  0.00    -0.148 C  
HETATM   30  C   UNL     1      -9.892   7.597  69.199  1.00  0.00    -0.171 C  
HETATM   31  C   UNL     1      -8.555   7.721  69.951  1.00  0.00    -0.137 C  
ENDBRANCH  15  17
ENDBRANCH   6  15
ENDBRANCH   4   6
ENDBRANCH   3   4
ENDBRANCH   2   3
TORSDOF 8
ENDMDL
MODEL        8
REMARK 921   NORMALIZED FREE ENERGY PREDICTED BY IDOCK:   -7.11 KCAL/MOL
REMARK 922        TOTAL FREE ENERGY PREDICTED BY IDOCK:  -11.65 KCAL/MOL
REMARK 923 INTER-LIGAND FREE ENERGY PREDICTED BY IDOCK:  -10.60 KCAL/MOL
REMARK 924 INTRA-LIGAND FREE ENERGY PREDICTED BY IDOCK:   -1.05 KCAL/MOL
REMARK 927      BINDING AFFINITY PREDICTED BY RF-SCORE:    0.00 PKD
ROOT
HETATM    1  C   UNL     1     -12.529  15.811  74.292  1.00  0.00    -0.800 C  
HETATM    2  C   UNL     1     -12.158  16.090  72.849  1.00  0.00    -0.520 C  
ENDROOT
BRANCH   2   3
HETATM    3  O   UNL     1     -12.008  14.856  72.133  1.00  0.00    -0.358 OA 
BRANCH   3   4
HETATM    4  C   UNL     1     -13.074  14.488  71.365  1.00  0.00    -0.353 C  
HETATM    5  O   UNL     1     -14.052  15.190  71.125  1.00  0.00    -0.442 OA 
BRANCH   4   6
HETATM    6  C   UNL     1     -12.864  13.068  70.811  1.00  0.00    -0.074 C  
BRANCH   6   7
HETATM    7  C   UNL     1     -12.969  12.050  71.951  1.00  0.00    -0.428 C  
BRANCH   7   8
HETATM    8  C   UNL     1     -13.318  10.640  71.456  1.00  0.00    -0.359 C  
BRANCH   8   9
HETATM    9  C   UNL     1     -12.130   9.727  71.631  1.00  0.00    -0.475 A  
HETATM   10  C   UNL     1     -10.005   7.914  71.810  1.00  0.00    -0.228 A  
HETATM   11  C   UNL     1      -9.959   8.950  70.881  1.00  0.00    -0.304 A  
HETATM   12  C   UNL     1     -11.017   9.855  70.791  1.00  0.00    -0.407 A  
HETATM   13  C   UNL     1     -11.102   7.786  72.660  1.00  0.00    -0.433 A  
HETATM   14  C   UNL     1     -12.161   8.691  72.574  1.00  0.00    -0.374 A  
ENDBRANCH   8   9
ENDBRANCH   7   8
ENDBRANCH   6   7
BRANCH   6  15
HETATM   15  N   UNL     1     -11.560  13.050  70.120  1.00  0.00    -0.536 NA 
HETATM   16  H   UNL     1     -10.761  12.562  70.525  1.00  0.00     0.000 HD 
BRANCH  15  17
HETATM   17  C   UNL     1     -11.436  13.760  68.815  1.00  0.00    -0.303 C  
HETATM   18  O   UNL     1     -12.105  11.591  68.003  1.00  0.00    -0.617 OA 
HETATM   19  C   UNL     1     -10.182  14.625  68.877  1.00  0.00    -0.241 C  
HETATM   20  O   UNL     1     -10.358  10.534  63.592  1.00  0.00    -0.191 OA 
HETATM   21  O   UNL     1      -9.040  11.838  64.877  1.00  0.00     0.050 OA 
HETATM   22  C   UNL     1     -10.021  15.576  67.707  1.00  0.00    -0.222 C  
HETATM   23  C   UNL     1     -11.494  12.636  67.723  1.00  0.00    -0.322 C  
HETATM   24  C   UNL     1      -9.555  14.835  66.478  1.00  0.00    -0.284 C  
HETATM   25  N   UNL     1     -10.581  14.024  65.858  1.00  0.00    -0.293 NA 
HETATM   26  C   UNL     1     -10.241  11.319  64.524  1.00  0.00    -0.314 C  
HETATM   27  C   UNL     1     -11.653  14.717  65.150  1.00  0.00    -0.371 C  
HETATM   28  N   UNL     1     -10.977  12.801  66.432  1.00  0.00    -0.271 N  
HETATM   29  C   UNL     1     -12.176  13.801  64.035  1.00  0.00    -0.429 C  
HETATM   30  C   UNL     1     -11.405  11.801  65.401  1.00  0.00    -0.222 C  
HETATM   31  C   UNL     1     -12.541  12.407  64.558  1.00  0.00    -0.477 C  
ENDBRANCH  15  17
ENDBRANCH   6  15
ENDBRANCH   4   6
ENDBRANCH   3   4
ENDBRANCH   2   3
TORSDOF 8
ENDMDL
MODEL        9
REMARK 921   NORMALIZED FREE ENERGY PREDICTED BY IDOCK:   -7.06 KCAL/MOL
REMARK 922        TOTAL FREE ENERGY PREDICTED BY IDOCK:  -11.57 KCAL/MOL
REMARK 923 INTER-LIGAND FREE ENERGY PREDICTED BY IDOCK:   -9.90 KCAL/MOL
REMARK 924 INTRA-LIGAND FREE ENERGY PREDICTED BY IDOCK:   -1.67 KCAL/MOL
REMARK 927      BINDING AFFINITY PREDICTED BY RF-SCORE:    0.00 PKD
ROOT
HETATM    1  C   UNL     1     -13.543  15.478  72.622  1.00  0.00    -0.657 C  
HETATM    2  C   UNL     1     -13.575  15.102  71.153  1.00  0.00    -0.456 C  
ENDROOT
BRANCH   2   3
HETATM    3  O   UNL     1     -12.588  14.097  70.882  1.00  0.00    -0.321 OA 
BRANCH   3   4
HETATM    4  C   UNL     1     -11.482  14.524  70.209  1.00  0.00    -0.224 C  
HETATM    5  O   UNL     1     -10.681  15.360  70.617  1.00  0.00    -0.312 OA 
BRANCH   4   6
HETATM    6  C   UNL     1     -11.359  13.784  68.865  1.00  0.00    -0.288 C  
BRANCH   6   7
HETATM    7  C   UNL     1     -11.830  14.697  67.729  1.00  0.00    -0.359 C  
BRANCH   7   8
HETATM    8  C   UNL     1     -10.801  14.812  66.596  1.00  0.00    -0.319 C  
BRANCH   8   9
HETATM    9  C   UNL     1     -11.149  13.847  65.489  1.00  0.00    -0.304 A  
HETATM   10  C   UNL     1     -11.775  11.905  63.573  1.00  0.00    -0.550 A  
HETATM   11  C   UNL     1     -12.780  12.441  64.375  1.00  0.00    -0.434 A  
HETATM   12  C   UNL     1     -12.470  13.409  65.330  1.00  0.00    -0.543 A  
HETATM   13  C   UNL     1     -10.460  12.345  63.715  1.00  0.00    -0.475 A  
HETATM   14  C   UNL     1     -10.147  13.314  64.669  1.00  0.00    -0.249 A  
ENDBRANCH   8   9
ENDBRANCH   7   8
ENDBRANCH   6   7
BRANCH   6  15
HETATM   15  N   UNL     1     -12.132  12.531  68.977  1.00  0.00    -0.213 NA 
HETATM   16  H   UNL     1     -13.132  12.552  69.175  1.00  0.00     0.000 HD 
BRANCH  15  17
HETATM   17  C   UNL     1     -11.418  11.235  68.794  1.00  0.00    -0.293 C  
HETATM   18  O   UNL     1     -12.765  10.659  70.709  1.00  0.00    -0.349 OA 
HETATM   19  C   UNL     1      -9.963  11.551  68.469  1.00  0.00    -0.207 C  
HETATM   20  O   UNL     1     -10.709   7.351  73.616  1.00  0.00    -0.371 OA 
HETATM   21  O   UNL     1      -9.283   8.740  72.556  1.00  0.00    -0.347 OA 
HETATM   22  C   UNL     1      -9.142  10.348  68.046  1.00  0.00    -0.136 C  
HETATM   23  C   UNL     1     -11.713  10.411  70.095  1.00  0.00    -0.312 C  
HETATM   24  C   UNL     1      -8.782   9.501  69.242  1.00  0.00    -0.151 C  
HETATM   25  N   UNL     1      -9.890   8.736  69.773  1.00  0.00    -0.183 NA 
HETATM   26  C   UNL     1     -10.475   8.109  72.684  1.00  0.00    -0.330 C  
HETATM   27  C   UNL     1     -10.360   7.597  68.989  1.00  0.00    -0.213 C  
HETATM   28  N   UNL     1     -10.899   9.359  70.531  1.00  0.00    -0.254 N  
HETATM   29  C   UNL     1     -10.963   6.559  69.945  1.00  0.00    -0.393 C  
HETATM   30  C   UNL     1     -11.476   8.446  71.570  1.00  0.00    -0.278 C  
HETATM   31  C   UNL     1     -12.009   7.178  70.881  1.00  0.00    -0.375 C  
ENDBRANCH  15  17
ENDBRANCH   6  15
ENDBRANCH   4   6
ENDBRANCH   3   4
ENDBRANCH   2   3
TORSDOF 8
ENDMDL
MODEL       10
REMARK 921   NORMALIZED FREE ENERGY PREDICTED BY IDOCK:   -6.99 KCAL/MOL
REMARK 922        TOTAL FREE ENERGY PREDICTED BY IDOCK:  -11.47 KCAL/MOL
REMARK 923 INTER-LIGAND FREE ENERGY PREDICTED BY IDOCK:  -10.39 KCAL/MOL
REMARK 924 INTRA-LIGAND FREE ENERGY PREDICTED BY IDOCK:   -1.08 KCAL/MOL
REMARK 927      BINDING AFFINITY PREDICTED BY RF-SCORE:    0.00 PKD
ROOT
HETATM    1  C   UNL     1     -10.123   5.708  70.494  1.00  0.00    -0.280 C  
HETATM    2  C   UNL     1     -11.385   6.328  71.061  1.00  0.00    -0.316 C  
ENDROOT
BRANCH   2   3
HETATM    3  O   UNL     1     -11.512   7.683  70.610  1.00  0.00    -0.282 OA 
BRANCH   3   4
HETATM    4  C   UNL     1     -11.375   8.640  71.573  1.00  0.00    -0.289 C  
HETATM    5  O   UNL     1     -11.217   8.424  72.771  1.00  0.00    -0.339 OA 
BRANCH   4   6
HETATM    6  C   UNL     1     -11.415  10.042  70.939  1.00  0.00    -0.371 C  
BRANCH   6   7
HETATM    7  C   UNL     1     -12.852  10.576  70.961  1.00  0.00    -0.502 C  
BRANCH   7   8
HETATM    8  C   UNL     1     -13.132  11.472  72.175  1.00  0.00    -0.286 C  
BRANCH   8   9
HETATM    9  C   UNL     1     -13.190  12.916  71.742  1.00  0.00    -0.479 A  
HETATM   10  C   UNL     1     -13.155  15.636  71.081  1.00  0.00    -0.523 A  
HETATM   11  C   UNL     1     -12.251  14.762  70.480  1.00  0.00    -0.385 A  
HETATM   12  C   UNL     1     -12.268  13.406  70.809  1.00  0.00    -0.409 A  
HETATM   13  C   UNL     1     -14.084  15.155  72.001  1.00  0.00    -0.659 A  
HETATM   14  C   UNL     1     -14.104  13.799  72.330  1.00  0.00    -0.593 A  
ENDBRANCH   8   9
ENDBRANCH   7   8
ENDBRANCH   6   7
BRANCH   6  15
HETATM   15  N   UNL     1     -10.846   9.932  69.582  1.00  0.00    -0.240 NA 
HETATM   16  H   UNL     1     -10.871   9.046  69.076  1.00  0.00     0.000 HD 
BRANCH  15  17
HETATM   17  C   UNL     1     -10.235  11.143  68.965  1.00  0.00    -0.176 C  
HETATM   18  O   UNL     1     -12.394  11.223  67.895  1.00  0.00    -0.363 OA 
HETATM   19  C   UNL     1      -8.792  10.803  68.611  1.00  0.00    -0.152 C  
HETATM   20  O   UNL     1     -12.309  13.240  63.474  1.00  0.00    -0.698 OA 
HETATM   21  O   UNL     1     -10.445  12.118  64.072  1.00  0.00    -0.322 OA 
HETATM   22  C   UNL     1      -7.962  11.991  68.166  1.00  0.00    -0.152 C  
HETATM   23  C   UNL     1     -11.198  11.545  67.795  1.00  0.00    -0.279 C  
HETATM   24  C   UNL     1      -8.308  12.383  66.750  1.00  0.00    -0.059 C  
HETATM   25  N   UNL     1      -9.586  13.050  66.623  1.00  0.00    -0.254 NA 
HETATM   26  C   UNL     1     -11.586  12.792  64.355  1.00  0.00    -0.361 C  
HETATM   27  C   UNL     1      -9.688  14.417  67.127  1.00  0.00    -0.248 C  
HETATM   28  N   UNL     1     -10.790  12.324  66.705  1.00  0.00    -0.244 N  
HETATM   29  C   UNL     1     -10.762  15.158  66.319  1.00  0.00    -0.320 C  
HETATM   30  C   UNL     1     -11.873  12.919  65.857  1.00  0.00    -0.424 C  
HETATM   31  C   UNL     1     -12.085  14.385  66.274  1.00  0.00    -0.384 C  
ENDBRANCH  15  17
ENDBRANCH   6  15
ENDBRANCH   4   6
ENDBRANCH   3   4
ENDBRANCH   2   3
TORSDOF 8
ENDMDL
MODEL       11
REMARK 921   NORMALIZED FREE ENERGY PREDICTED BY IDOCK:   -6.98 KCAL/MOL
REMARK 922        TOTAL FREE ENERGY PREDICTED BY IDOCK:  -11.46 KCAL/MOL
REMARK 923 INTER-LIGAND FREE ENERGY PREDICTED BY IDOCK:  -10.06 KCAL/MOL
REMARK 924 INTRA-LIGAND FREE ENERGY PREDICTED BY IDOCK:   -1.40 KCAL/MOL
REMARK 927      BINDING AFFINITY PREDICTED BY RF-SCORE:    0.00 PKD
ROOT
HETATM    1  C   UNL     1     -13.822  15.422  72.441  1.00  0.00    -0.661 C  
HETATM    2  C   UNL     1     -13.351  13.981  72.478  1.00  0.00    -0.539 C  
ENDROOT
BRANCH   2   3
HETATM    3  O   UNL     1     -12.409  13.745  71.423  1.00  0.00    -0.333 OA 
BRANCH   3   4
HETATM    4  C   UNL     1     -12.506  12.532  70.807  1.00  0.00    -0.268 C  
HETATM    5  O   UNL     1     -12.810  11.478  71.359  1.00  0.00    -0.419 OA 
BRANCH   4   6
HETATM    6  C   UNL     1     -12.206  12.673  69.304  1.00  0.00    -0.038 C  
BRANCH   6   7
HETATM    7  C   UNL     1     -10.873  11.993  68.978  1.00  0.00    -0.223 C  
BRANCH   7   8
HETATM    8  C   UNL     1     -11.032  10.502  68.653  1.00  0.00    -0.294 C  
BRANCH   8   9
HETATM    9  C   UNL     1     -10.484  10.216  67.277  1.00  0.00    -0.313 A  
HETATM   10  C   UNL     1      -9.292   9.775  64.783  1.00  0.00    -0.327 A  
HETATM   11  C   UNL     1      -9.130   8.843  65.806  1.00  0.00    -0.276 A  
HETATM   12  C   UNL     1      -9.724   9.062  67.050  1.00  0.00    -0.247 A  
HETATM   13  C   UNL     1     -10.057  10.920  64.996  1.00  0.00    -0.362 A  
HETATM   14  C   UNL     1     -10.654  11.141  66.238  1.00  0.00    -0.309 A  
ENDBRANCH   8   9
ENDBRANCH   7   8
ENDBRANCH   6   7
BRANCH   6  15
HETATM   15  N   UNL     1     -12.231  14.113  68.980  1.00  0.00    -0.521 NA 
HETATM   16  H   UNL     1     -12.913  14.734  69.416  1.00  0.00     0.000 HD 
BRANCH  15  17
HETATM   17  C   UNL     1     -11.237  14.640  68.002  1.00  0.00    -0.293 C  
HETATM   18  O   UNL     1     -11.050  16.350  69.691  1.00  0.00    -0.333 OA 
HETATM   19  C   UNL     1     -11.826  14.466  66.607  1.00  0.00    -0.417 C  
HETATM   20  O   UNL     1      -9.852  20.716  67.923  1.00  0.00    -0.319 OA 
HETATM   21  O   UNL     1     -11.097  19.419  66.561  1.00  0.00    -0.273 OA 
HETATM   22  C   UNL     1     -10.856  14.760  65.479  1.00  0.00    -0.359 C  
HETATM   23  C   UNL     1     -10.915  16.098  68.482  1.00  0.00    -0.338 C  
HETATM   24  C   UNL     1     -10.669  16.247  65.310  1.00  0.00    -0.332 C  
HETATM   25  N   UNL     1      -9.867  16.859  66.347  1.00  0.00    -0.289 NA 
HETATM   26  C   UNL     1     -10.236  19.603  67.591  1.00  0.00    -0.435 C  
HETATM   27  C   UNL     1      -8.433  16.583  66.343  1.00  0.00    -0.321 C  
HETATM   28  N   UNL     1     -10.398  17.082  67.632  1.00  0.00    -0.321 N  
HETATM   29  C   UNL     1      -7.702  17.777  66.972  1.00  0.00    -0.233 C  
HETATM   30  C   UNL     1      -9.816  18.300  68.284  1.00  0.00    -0.350 C  
HETATM   31  C   UNL     1      -8.285  18.152  68.340  1.00  0.00    -0.314 C  
ENDBRANCH  15  17
ENDBRANCH   6  15
ENDBRANCH   4   6
ENDBRANCH   3   4
ENDBRANCH   2   3
TORSDOF 8
ENDMDL
MODEL       12
REMARK 921   NORMALIZED FREE ENERGY PREDICTED BY IDOCK:   -6.94 KCAL/MOL
REMARK 922        TOTAL FREE ENERGY PREDICTED BY IDOCK:  -11.40 KCAL/MOL
REMARK 923 INTER-LIGAND FREE ENERGY PREDICTED BY IDOCK:  -10.41 KCAL/MOL
REMARK 924 INTRA-LIGAND FREE ENERGY PREDICTED BY IDOCK:   -0.99 KCAL/MOL
REMARK 927      BINDING AFFINITY PREDICTED BY RF-SCORE:    0.00 PKD
ROOT
HETATM    1  C   UNL     1     -12.246  12.330  64.042  1.00  0.00    -0.569 C  
HETATM    2  C   UNL     1     -11.262  11.933  65.126  1.00  0.00    -0.289 C  
ENDROOT
BRANCH   2   3
HETATM    3  O   UNL     1     -11.930  11.859  66.392  1.00  0.00    -0.572 OA 
BRANCH   3   4
HETATM    4  C   UNL     1     -11.741  12.926  67.221  1.00  0.00    -0.373 C  
HETATM    5  O   UNL     1     -12.396  13.964  67.202  1.00  0.00    -0.372 OA 
BRANCH   4   6
HETATM    6  C   UNL     1     -10.602  12.632  68.213  1.00  0.00    -0.237 C  
BRANCH   6   7
HETATM    7  C   UNL     1     -10.862  11.295  68.915  1.00  0.00    -0.253 C  
BRANCH   7   8
HETATM    8  C   UNL     1     -11.808  11.431  70.116  1.00  0.00    -0.440 C  
BRANCH   8   9
HETATM    9  C   UNL     1     -11.766  10.172  70.946  1.00  0.00    -0.468 A  
HETATM   10  C   UNL     1     -11.682   7.954  72.652  1.00  0.00    -0.398 A  
HETATM   11  C   UNL     1     -12.905   8.533  72.323  1.00  0.00    -0.404 A  
HETATM   12  C   UNL     1     -12.948   9.638  71.473  1.00  0.00    -0.486 A  
HETATM   13  C   UNL     1     -10.500   8.470  72.123  1.00  0.00    -0.412 A  
HETATM   14  C   UNL     1     -10.541   9.574  71.270  1.00  0.00    -0.358 A  
ENDBRANCH   8   9
ENDBRANCH   7   8
ENDBRANCH   6   7
BRANCH   6  15
HETATM   15  N   UNL     1     -10.511  13.779  69.137  1.00  0.00    -0.424 NA 
HETATM   16  H   UNL     1     -11.162  13.872  69.918  1.00  0.00     0.000 HD 
BRANCH  15  17
HETATM   17  C   UNL     1      -9.449  14.798  68.906  1.00  0.00    -0.191 C  
HETATM   18  O   UNL     1     -11.368  16.257  68.959  1.00  0.00    -0.331 OA 
HETATM   19  C   UNL     1      -8.473  14.225  67.886  1.00  0.00    -0.168 C  
HETATM   20  O   UNL     1     -10.871  20.237  66.213  1.00  0.00    -0.165 OA 
HETATM   21  O   UNL     1      -9.818  18.391  65.457  1.00  0.00    -0.323 OA 
HETATM   22  C   UNL     1      -7.215  15.050  67.693  1.00  0.00    -0.208 C  
HETATM   23  C   UNL     1     -10.212  16.114  68.526  1.00  0.00    -0.241 C  
HETATM   24  C   UNL     1      -7.502  16.274  66.859  1.00  0.00    -0.236 C  
HETATM   25  N   UNL     1      -8.238  17.302  67.562  1.00  0.00    -0.193 NA 
HETATM   26  C   UNL     1     -10.376  19.140  66.438  1.00  0.00    -0.455 C  
HETATM   27  C   UNL     1      -7.528  18.055  68.593  1.00  0.00    -0.286 C  
HETATM   28  N   UNL     1      -9.617  17.161  67.811  1.00  0.00    -0.252 N  
HETATM   29  C   UNL     1      -8.152  19.454  68.696  1.00  0.00    -0.402 C  
HETATM   30  C   UNL     1     -10.331  18.478  67.822  1.00  0.00    -0.402 C  
HETATM   31  C   UNL     1      -9.674  19.394  68.870  1.00  0.00    -0.502 C  
ENDBRANCH  15  17
ENDBRANCH   6  15
ENDBRANCH   4   6
ENDBRANCH   3   4
ENDBRANCH   2   3
TORSDOF 8
ENDMDL
MODEL       13
REMARK 921   NORMALIZED FREE ENERGY PREDICTED BY IDOCK:   -6.93 KCAL/MOL
REMARK 922        TOTAL FREE ENERGY PREDICTED BY IDOCK:  -11.38 KCAL/MOL
REMARK 923 INTER-LIGAND FREE ENERGY PREDICTED BY IDOCK:  -10.21 KCAL/MOL
REMARK 924 INTRA-LIGAND FREE ENERGY PREDICTED BY IDOCK:   -1.16 KCAL/MOL
REMARK 927      BINDING AFFINITY PREDICTED BY RF-SCORE:    0.00 PKD
ROOT
HETATM    1  C   UNL     1     -10.769  15.571  64.994  1.00  0.00    -0.463 C  
HETATM    2  C   UNL     1     -10.309  14.130  65.092  1.00  0.00    -0.405 C  
ENDROOT
BRANCH   2   3
HETATM    3  O   UNL     1     -10.416  13.672  66.447  1.00  0.00    -0.280 OA 
BRANCH   3   4
HETATM    4  C   UNL     1     -11.541  12.959  66.741  1.00  0.00    -0.360 C  
HETATM    5  O   UNL     1     -12.192  12.297  65.937  1.00  0.00    -0.634 OA 
BRANCH   4   6
HETATM    6  C   UNL     1     -11.867  13.074  68.240  1.00  0.00    -0.343 C  
BRANCH   6   7
HETATM    7  C   UNL     1     -12.152  14.537  68.594  1.00  0.00    -0.253 C  
BRANCH   7   8
HETATM    8  C   UNL     1     -11.284  15.047  69.752  1.00  0.00    -0.301 C  
BRANCH   8   9
HETATM    9  C   UNL     1     -12.153  15.351  70.947  1.00  0.00    -0.413 A  
HETATM   10  C   UNL     1     -13.724  15.725  73.234  1.00  0.00    -0.378 A  
HETATM   11  C   UNL     1     -12.357  15.991  73.278  1.00  0.00    -0.644 A  
HETATM   12  C   UNL     1     -11.573  15.805  72.139  1.00  0.00    -0.534 A  
HETATM   13  C   UNL     1     -14.312  15.285  72.050  1.00  0.00    -0.689 A  
HETATM   14  C   UNL     1     -13.530  15.100  70.908  1.00  0.00    -0.432 A  
ENDBRANCH   8   9
ENDBRANCH   7   8
ENDBRANCH   6   7
BRANCH   6  15
HETATM   15  N   UNL     1     -10.734  12.494  68.986  1.00  0.00    -0.405 NA 
HETATM   16  H   UNL     1     -10.170  13.072  69.610  1.00  0.00     0.000 HD 
BRANCH  15  17
HETATM   17  C   UNL     1     -10.430  11.046  68.809  1.00  0.00    -0.198 C  
HETATM   18  O   UNL     1     -11.909  10.894  70.708  1.00  0.00    -0.333 OA 
HETATM   19  C   UNL     1      -8.943  10.920  68.502  1.00  0.00    -0.157 C  
HETATM   20  O   UNL     1     -10.948   7.133  73.634  1.00  0.00    -0.287 OA 
HETATM   21  O   UNL     1      -9.165   8.040  72.591  1.00  0.00    -0.189 OA 
HETATM   22  C   UNL     1      -8.507   9.528  68.086  1.00  0.00    -0.119 C  
HETATM   23  C   UNL     1     -10.969  10.347  70.106  1.00  0.00    -0.300 C  
HETATM   24  C   UNL     1      -8.426   8.614  69.285  1.00  0.00    -0.123 C  
HETATM   25  N   UNL     1      -9.715   8.209  69.802  1.00  0.00    -0.172 NA 
HETATM   26  C   UNL     1     -10.492   7.787  72.705  1.00  0.00    -0.328 C  
HETATM   27  C   UNL     1     -10.491   7.257  69.011  1.00  0.00    -0.211 C  
HETATM   28  N   UNL     1     -10.505   9.103  70.549  1.00  0.00    -0.218 N  
HETATM   29  C   UNL     1     -11.383   6.444  69.959  1.00  0.00    -0.496 C  
HETATM   30  C   UNL     1     -11.336   8.401  71.581  1.00  0.00    -0.286 C  
HETATM   31  C   UNL     1     -12.211   7.344  70.883  1.00  0.00    -0.265 C  
ENDBRANCH  15  17
ENDBRANCH   6  15
ENDBRANCH   4   6
ENDBRANCH   3   4
ENDBRANCH   2   3
TORSDOF 8
ENDMDL
MODEL       14
REMARK 921   NORMALIZED FREE ENERGY PREDICTED BY IDOCK:   -6.92 KCAL/MOL
REMARK 922        TOTAL FREE ENERGY PREDICTED BY IDOCK:  -11.37 KCAL/MOL
REMARK 923 INTER-LIGAND FREE ENERGY PREDICTED BY IDOCK:  -10.41 KCAL/MOL
REMARK 924 INTRA-LIGAND FREE ENERGY PREDICTED BY IDOCK:   -0.96 KCAL/MOL
REMARK 927      BINDING AFFINITY PREDICTED BY RF-SCORE:    0.00 PKD
ROOT
HETATM    1  C   UNL     1     -12.142  12.706  63.446  1.00  0.00    -0.614 C  
HETATM    2  C   UNL     1     -12.152  13.833  64.462  1.00  0.00    -0.428 C  
ENDROOT
BRANCH   2   3
HETATM    3  O   UNL     1     -11.046  13.691  65.363  1.00  0.00    -0.292 OA 
BRANCH   3   4
HETATM    4  C   UNL     1     -11.356  13.232  66.609  1.00  0.00    -0.321 C  
HETATM    5  O   UNL     1     -12.147  12.325  66.855  1.00  0.00    -0.583 OA 
BRANCH   4   6
HETATM    6  C   UNL     1     -10.549  13.995  67.673  1.00  0.00    -0.249 C  
BRANCH   6   7
HETATM    7  C   UNL     1     -11.302  13.971  69.007  1.00  0.00    -0.319 C  
BRANCH   7   8
HETATM    8  C   UNL     1     -12.273  15.149  69.162  1.00  0.00    -0.185 C  
BRANCH   8   9
HETATM    9  C   UNL     1     -12.585  15.367  70.621  1.00  0.00    -0.491 A  
HETATM   10  C   UNL     1     -13.228  15.961  73.280  1.00  0.00    -0.698 A  
HETATM   11  C   UNL     1     -14.200  15.441  72.429  1.00  0.00    -0.584 A  
HETATM   12  C   UNL     1     -13.881  15.145  71.103  1.00  0.00    -0.495 A  
HETATM   13  C   UNL     1     -11.932  16.174  72.813  1.00  0.00    -0.638 A  
HETATM   14  C   UNL     1     -11.610  15.877  71.488  1.00  0.00    -0.537 A  
ENDBRANCH   8   9
ENDBRANCH   7   8
ENDBRANCH   6   7
BRANCH   6  15
HETATM   15  N   UNL     1     -10.307  15.356  67.155  1.00  0.00    -0.266 NA 
HETATM   16  H   UNL     1     -10.838  15.713  66.361  1.00  0.00     0.000 HD 
BRANCH  15  17
HETATM   17  C   UNL     1      -9.269  16.196  67.818  1.00  0.00    -0.202 C  
HETATM   18  O   UNL     1      -9.921  17.714  66.061  1.00  0.00    -0.469 OA 
HETATM   19  C   UNL     1      -8.097  15.288  68.172  1.00  0.00    -0.136 C  
HETATM   20  O   UNL     1      -6.343  20.661  64.600  1.00  0.00    -0.283 OA 
HETATM   21  O   UNL     1      -5.699  18.615  65.299  1.00  0.00    -0.184 OA 
HETATM   22  C   UNL     1      -7.041  15.943  69.041  1.00  0.00    -0.161 C  
HETATM   23  C   UNL     1      -9.000  17.382  66.827  1.00  0.00    -0.254 C  
HETATM   24  C   UNL     1      -6.183  16.879  68.225  1.00  0.00    -0.134 C  
HETATM   25  N   UNL     1      -6.846  18.111  67.857  1.00  0.00    -0.208 NA 
HETATM   26  C   UNL     1      -6.568  19.654  65.258  1.00  0.00    -0.283 C  
HETATM   27  C   UNL     1      -7.078  19.094  68.913  1.00  0.00    -0.337 C  
HETATM   28  N   UNL     1      -7.818  18.131  66.839  1.00  0.00    -0.222 N  
HETATM   29  C   UNL     1      -7.097  20.493  68.284  1.00  0.00    -0.170 C  
HETATM   30  C   UNL     1      -7.835  19.432  66.095  1.00  0.00    -0.307 C  
HETATM   31  C   UNL     1      -8.064  20.578  67.096  1.00  0.00    -0.358 C  
ENDBRANCH  15  17
ENDBRANCH   6  15
ENDBRANCH   4   6
ENDBRANCH   3   4
ENDBRANCH   2   3
TORSDOF 8
ENDMDL
MODEL       15
REMARK 921   NORMALIZED FREE ENERGY PREDICTED BY IDOCK:   -6.86 KCAL/MOL
REMARK 922        TOTAL FREE ENERGY PREDICTED BY IDOCK:  -11.28 KCAL/MOL
REMARK 923 INTER-LIGAND FREE ENERGY PREDICTED BY IDOCK:   -9.93 KCAL/MOL
REMARK 924 INTRA-LIGAND FREE ENERGY PREDICTED BY IDOCK:   -1.34 KCAL/MOL
REMARK 927      BINDING AFFINITY PREDICTED BY RF-SCORE:    0.00 PKD
ROOT
HETATM    1  C   UNL     1     -11.729  11.355  68.370  1.00  0.00    -0.373 C  
HETATM    2  C   UNL     1     -12.096  12.596  67.580  1.00  0.00    -0.103 C  
ENDROOT
BRANCH   2   3
HETATM    3  O   UNL     1     -12.234  12.271  66.191  1.00  0.00    -0.647 OA 
BRANCH   3   4
HETATM    4  C   UNL     1     -12.603  13.302  65.378  1.00  0.00    -0.468 C  
HETATM    5  O   UNL     1     -13.438  14.159  65.653  1.00  0.00    -0.576 OA 
BRANCH   4   6
HETATM    6  C   UNL     1     -11.797  13.260  64.067  1.00  0.00    -0.455 C  
BRANCH   6   7
HETATM    7  C   UNL     1     -11.436  11.809  63.732  1.00  0.00    -0.510 C  
BRANCH   7   8
HETATM    8  C   UNL     1      -9.973  11.648  63.296  1.00  0.00    -0.442 C  
BRANCH   8   9
HETATM    9  C   UNL     1      -9.325  10.535  64.082  1.00  0.00    -0.309 A  
HETATM   10  C   UNL     1      -8.235   8.338  65.431  1.00  0.00    -0.146 A  
HETATM   11  C   UNL     1      -7.666   8.773  64.236  1.00  0.00    -0.125 A  
HETATM   12  C   UNL     1      -8.208   9.868  63.563  1.00  0.00    -0.163 A  
HETATM   13  C   UNL     1      -9.339   9.002  65.961  1.00  0.00    -0.305 A  
HETATM   14  C   UNL     1      -9.883  10.099  65.291  1.00  0.00    -0.388 A  
ENDBRANCH   8   9
ENDBRANCH   7   8
ENDBRANCH   6   7
BRANCH   6  15
HETATM   15  N   UNL     1     -10.623  14.137  64.240  1.00  0.00    -0.531 NA 
HETATM   16  H   UNL     1     -10.049  14.403  63.439  1.00  0.00     0.000 HD 
BRANCH  15  17
HETATM   17  C   UNL     1     -10.295  14.628  65.609  1.00  0.00    -0.351 C  
HETATM   18  O   UNL     1     -10.825  16.737  64.567  1.00  0.00    -0.886 OA 
HETATM   19  C   UNL     1      -9.068  13.863  66.091  1.00  0.00     0.066 C  
HETATM   20  O   UNL     1      -8.401  20.506  66.451  1.00  0.00    -0.122 OA 
HETATM   21  O   UNL     1      -7.305  18.534  66.465  1.00  0.00    -0.212 OA 
HETATM   22  C   UNL     1      -8.725  14.091  67.551  1.00  0.00    -0.201 C  
HETATM   23  C   UNL     1     -10.179  16.186  65.475  1.00  0.00    -0.331 C  
HETATM   24  C   UNL     1      -8.070  15.437  67.741  1.00  0.00    -0.140 C  
HETATM   25  N   UNL     1      -8.984  16.554  67.636  1.00  0.00    -0.197 NA 
HETATM   26  C   UNL     1      -8.434  19.283  66.427  1.00  0.00    -0.333 C  
HETATM   27  C   UNL     1      -9.931  16.755  68.729  1.00  0.00    -0.269 C  
HETATM   28  N   UNL     1      -9.464  16.977  66.382  1.00  0.00    -0.264 N  
HETATM   29  C   UNL     1     -10.270  18.249  68.815  1.00  0.00    -0.342 C  
HETATM   30  C   UNL     1      -9.722  18.453  66.341  1.00  0.00    -0.339 C  
HETATM   31  C   UNL     1     -10.711  18.819  67.461  1.00  0.00    -0.474 C  
ENDBRANCH  15  17
ENDBRANCH   6  15
ENDBRANCH   4   6
ENDBRANCH   3   4
ENDBRANCH   2   3
TORSDOF 8
ENDMDL
MODEL       16
REMARK 921   NORMALIZED FREE ENERGY PREDICTED BY IDOCK:   -6.85 KCAL/MOL
REMARK 922        TOTAL FREE ENERGY PREDICTED BY IDOCK:  -11.26 KCAL/MOL
REMARK 923 INTER-LIGAND FREE ENERGY PREDICTED BY IDOCK:   -9.85 KCAL/MOL
REMARK 924 INTRA-LIGAND FREE ENERGY PREDICTED BY IDOCK:   -1.41 KCAL/MOL
REMARK 927      BINDING AFFINITY PREDICTED BY RF-SCORE:    0.00 PKD
ROOT
HETATM    1  C   UNL     1     -12.377  15.963  72.531  1.00  0.00    -0.575 C  
HETATM    2  C   UNL     1     -13.283  15.280  71.525  1.00  0.00    -0.459 C  
ENDROOT
BRANCH   2   3
HETATM    3  O   UNL     1     -12.546  14.964  70.336  1.00  0.00    -0.341 OA 
BRANCH   3   4
HETATM    4  C   UNL     1     -12.234  13.647  70.169  1.00  0.00    -0.342 C  
HETATM    5  O   UNL     1     -12.450  12.757  70.988  1.00  0.00    -0.376 OA 
BRANCH   4   6
HETATM    6  C   UNL     1     -11.597  13.423  68.787  1.00  0.00    -0.325 C  
BRANCH   6   7
HETATM    7  C   UNL     1     -11.777  11.960  68.368  1.00  0.00    -0.387 C  
BRANCH   7   8
HETATM    8  C   UNL     1     -10.675  11.475  67.417  1.00  0.00    -0.275 C  
BRANCH   8   9
HETATM    9  C   UNL     1     -11.004  11.882  66.002  1.00  0.00    -0.355 A  
HETATM   10  C   UNL     1     -11.711  12.456  63.355  1.00  0.00    -0.554 A  
HETATM   11  C   UNL     1     -12.592  12.758  64.392  1.00  0.00    -0.431 A  
HETATM   12  C   UNL     1     -12.240  12.473  65.711  1.00  0.00    -0.361 A  
HETATM   13  C   UNL     1     -10.474  11.880  63.635  1.00  0.00    -0.493 A  
HETATM   14  C   UNL     1     -10.119  11.595  64.955  1.00  0.00    -0.303 A  
ENDBRANCH   8   9
ENDBRANCH   7   8
ENDBRANCH   6   7
BRANCH   6  15
HETATM   15  N   UNL     1     -10.186  13.843  68.875  1.00  0.00    -0.384 NA 
HETATM   16  H   UNL     1      -9.579  13.482  69.612  1.00  0.00     0.000 HD 
BRANCH  15  17
HETATM   17  C   UNL     1      -9.665  14.808  67.865  1.00  0.00    -0.211 C  
HETATM   18  O   UNL     1      -8.209  15.364  69.705  1.00  0.00    -0.235 OA 
HETATM   19  C   UNL     1     -10.863  15.400  67.132  1.00  0.00    -0.321 C  
HETATM   20  O   UNL     1      -6.758  20.003  69.714  1.00  0.00    -0.338 OA 
HETATM   21  O   UNL     1      -8.818  19.625  68.874  1.00  0.00    -0.321 OA 
HETATM   22  C   UNL     1     -10.501  16.246  65.926  1.00  0.00    -0.359 C  
HETATM   23  C   UNL     1      -8.741  15.790  68.666  1.00  0.00    -0.195 C  
HETATM   24  C   UNL     1      -9.987  17.598  66.358  1.00  0.00    -0.334 C  
HETATM   25  N   UNL     1      -8.651  17.566  66.913  1.00  0.00    -0.238 NA 
HETATM   26  C   UNL     1      -7.563  19.234  69.203  1.00  0.00    -0.262 C  
HETATM   27  C   UNL     1      -7.542  17.334  65.991  1.00  0.00    -0.191 C  
HETATM   28  N   UNL     1      -8.421  17.075  68.212  1.00  0.00    -0.225 N  
HETATM   29  C   UNL     1      -6.286  18.012  66.554  1.00  0.00    -0.239 C  
HETATM   30  C   UNL     1      -7.271  17.762  68.885  1.00  0.00    -0.256 C  
HETATM   31  C   UNL     1      -6.016  17.606  68.008  1.00  0.00    -0.158 C  
ENDBRANCH  15  17
ENDBRANCH   6  15
ENDBRANCH   4   6
ENDBRANCH   3   4
ENDBRANCH   2   3
TORSDOF 8
ENDMDL
MODEL       17
REMARK 921   NORMALIZED FREE ENERGY PREDICTED BY IDOCK:   -6.81 KCAL/MOL
REMARK 922        TOTAL FREE ENERGY PREDICTED BY IDOCK:  -11.21 KCAL/MOL
REMARK 923 INTER-LIGAND FREE ENERGY PREDICTED BY IDOCK:  -10.45 KCAL/MOL
REMARK 924 INTRA-LIGAND FREE ENERGY PREDICTED BY IDOCK:   -0.75 KCAL/MOL
REMARK 927      BINDING AFFINITY PREDICTED BY RF-SCORE:    0.00 PKD
ROOT
HETATM    1  C   UNL     1     -12.267  16.165  72.952  1.00  0.00    -0.640 C  
HETATM    2  C   UNL     1     -13.553  15.564  72.418  1.00  0.00    -0.538 C  
ENDROOT
BRANCH   2   3
HETATM    3  O   UNL     1     -13.422  15.292  71.017  1.00  0.00    -0.465 OA 
BRANCH   3   4
HETATM    4  C   UNL     1     -12.690  14.187  70.696  1.00  0.00    -0.321 C  
HETATM    5  O   UNL     1     -12.768  13.097  71.257  1.00  0.00    -0.363 OA 
BRANCH   4   6
HETATM    6  C   UNL     1     -11.765  14.489  69.504  1.00  0.00    -0.314 C  
BRANCH   6   7
HETATM    7  C   UNL     1     -11.951  13.418  68.424  1.00  0.00    -0.359 C  
BRANCH   7   8
HETATM    8  C   UNL     1     -12.334  14.011  67.062  1.00  0.00    -0.278 C  
BRANCH   8   9
HETATM    9  C   UNL     1     -11.911  13.072  65.959  1.00  0.00    -0.498 A  
HETATM   10  C   UNL     1     -10.961  11.449  63.885  1.00  0.00    -0.442 A  
HETATM   11  C   UNL     1     -10.538  11.225  65.193  1.00  0.00    -0.343 A  
HETATM   12  C   UNL     1     -11.011  12.034  66.228  1.00  0.00    -0.340 A  
HETATM   13  C   UNL     1     -11.867  12.472  63.609  1.00  0.00    -0.610 A  
HETATM   14  C   UNL     1     -12.343  13.281  64.642  1.00  0.00    -0.447 A  
ENDBRANCH   8   9
ENDBRANCH   7   8
ENDBRANCH   6   7
BRANCH   6  15
HETATM   15  N   UNL     1     -10.386  14.575  70.023  1.00  0.00    -0.373 NA 
HETATM   16  H   UNL     1     -10.132  14.128  70.904  1.00  0.00     0.000 HD 
BRANCH  15  17
HETATM   17  C   UNL     1      -9.373  15.327  69.230  1.00  0.00    -0.239 C  
HETATM   18  O   UNL     1     -11.034  17.059  69.462  1.00  0.00    -0.183 OA 
HETATM   19  C   UNL     1      -8.837  14.389  68.155  1.00  0.00    -0.180 C  
HETATM   20  O   UNL     1     -11.114  20.197  65.751  1.00  0.00    -0.092 OA 
HETATM   21  O   UNL     1     -10.532  18.081  65.229  1.00  0.00    -0.562 OA 
HETATM   22  C   UNL     1      -7.644  14.931  67.392  1.00  0.00    -0.232 C  
HETATM   23  C   UNL     1     -10.100  16.635  68.761  1.00  0.00    -0.270 C  
HETATM   24  C   UNL     1      -8.080  15.972  66.390  1.00  0.00    -0.220 C  
HETATM   25  N   UNL     1      -8.453  17.237  66.984  1.00  0.00    -0.211 NA 
HETATM   26  C   UNL     1     -10.671  19.111  66.099  1.00  0.00    -0.354 C  
HETATM   27  C   UNL     1      -7.382  18.070  67.524  1.00  0.00    -0.206 C  
HETATM   28  N   UNL     1      -9.681  17.384  67.655  1.00  0.00    -0.264 N  
HETATM   29  C   UNL     1      -7.813  19.540  67.437  1.00  0.00    -0.291 C  
HETATM   30  C   UNL     1     -10.235  18.772  67.531  1.00  0.00    -0.393 C  
HETATM   31  C   UNL     1      -9.194  19.774  68.061  1.00  0.00    -0.425 C  
ENDBRANCH  15  17
ENDBRANCH   6  15
ENDBRANCH   4   6
ENDBRANCH   3   4
ENDBRANCH   2   3
TORSDOF 8
ENDMDL
MODEL       18
REMARK 921   NORMALIZED FREE ENERGY PREDICTED BY IDOCK:   -6.74 KCAL/MOL
REMARK 922        TOTAL FREE ENERGY PREDICTED BY IDOCK:  -11.10 KCAL/MOL
REMARK 923 INTER-LIGAND FREE ENERGY PREDICTED BY IDOCK:   -9.88 KCAL/MOL
REMARK 924 INTRA-LIGAND FREE ENERGY PREDICTED BY IDOCK:   -1.22 KCAL/MOL
REMARK 927      BINDING AFFINITY PREDICTED BY RF-SCORE:    0.00 PKD
ROOT
HETATM    1  C   UNL     1     -12.002  16.129  72.364  1.00  0.00    -0.649 C  
HETATM    2  C   UNL     1     -13.029  15.253  71.674  1.00  0.00    -0.408 C  
ENDROOT
BRANCH   2   3
HETATM    3  O   UNL     1     -12.462  14.668  70.494  1.00  0.00    -0.312 OA 
BRANCH   3   4
HETATM    4  C   UNL     1     -12.399  13.306  70.483  1.00  0.00    -0.316 C  
HETATM    5  O   UNL     1     -12.833  12.569  71.364  1.00  0.00    -0.366 OA 
BRANCH   4   6
HETATM    6  C   UNL     1     -11.727  12.815  69.189  1.00  0.00    -0.322 C  
BRANCH   6   7
HETATM    7  C   UNL     1     -12.012  11.322  68.995  1.00  0.00    -0.393 C  
BRANCH   7   8
HETATM    8  C   UNL     1     -10.764  10.451  69.189  1.00  0.00    -0.266 C  
BRANCH   8   9
HETATM    9  C   UNL     1     -10.890   9.654  70.464  1.00  0.00    -0.371 A  
HETATM   10  C   UNL     1     -11.138   8.006  72.713  1.00  0.00    -0.448 A  
HETATM   11  C   UNL     1      -9.882   8.239  72.156  1.00  0.00    -0.342 A  
HETATM   12  C   UNL     1      -9.758   9.060  71.035  1.00  0.00    -0.348 A  
HETATM   13  C   UNL     1     -12.269   8.602  72.160  1.00  0.00    -0.453 A  
HETATM   14  C   UNL     1     -12.147   9.426  71.039  1.00  0.00    -0.373 A  
ENDBRANCH   8   9
ENDBRANCH   7   8
ENDBRANCH   6   7
BRANCH   6  15
HETATM   15  N   UNL     1     -10.291  13.136  69.284  1.00  0.00    -0.402 NA 
HETATM   16  H   UNL     1      -9.735  12.811  70.076  1.00  0.00     0.000 HD 
BRANCH  15  17
HETATM   17  C   UNL     1      -9.668  13.947  68.199  1.00  0.00    -0.222 C  
HETATM   18  O   UNL     1      -9.514  15.543  70.001  1.00  0.00    -0.195 OA 
HETATM   19  C   UNL     1     -10.483  13.725  66.931  1.00  0.00    -0.272 C  
HETATM   20  O   UNL     1      -9.717  20.171  68.530  1.00  0.00    -0.269 OA 
HETATM   21  O   UNL     1     -10.901  18.702  67.294  1.00  0.00    -0.426 OA 
HETATM   22  C   UNL     1      -9.862  14.314  65.679  1.00  0.00    -0.301 C  
HETATM   23  C   UNL     1      -9.585  15.407  68.768  1.00  0.00    -0.209 C  
HETATM   24  C   UNL     1     -10.051  15.811  65.642  1.00  0.00    -0.371 C  
HETATM   25  N   UNL     1      -9.205  16.530  66.570  1.00  0.00    -0.252 NA 
HETATM   26  C   UNL     1      -9.905  19.021  68.157  1.00  0.00    -0.368 C  
HETATM   27  C   UNL     1      -7.780  16.608  66.263  1.00  0.00    -0.238 C  
HETATM   28  N   UNL     1      -9.490  16.538  67.949  1.00  0.00    -0.219 N  
HETATM   29  C   UNL     1      -7.217  17.900  66.870  1.00  0.00    -0.221 C  
HETATM   30  C   UNL     1      -9.069  17.816  68.609  1.00  0.00    -0.260 C  
HETATM   31  C   UNL     1      -7.567  18.038  68.356  1.00  0.00    -0.288 C  
ENDBRANCH  15  17
ENDBRANCH   6  15
ENDBRANCH   4   6
ENDBRANCH   3   4
ENDBRANCH   2   3
TORSDOF 8
ENDMDL
MODEL       19
REMARK 921   NORMALIZED FREE ENERGY PREDICTED BY IDOCK:   -6.59 KCAL/MOL
REMARK 922        TOTAL FREE ENERGY PREDICTED BY IDOCK:  -10.89 KCAL/MOL
REMARK 923 INTER-LIGAND FREE ENERGY PREDICTED BY IDOCK:   -9.48 KCAL/MOL
REMARK 924 INTRA-LIGAND FREE ENERGY PREDICTED BY IDOCK:   -1.40 KCAL/MOL
REMARK 927      BINDING AFFINITY PREDICTED BY RF-SCORE:    0.00 PKD
ROOT
HETATM    1  C   UNL     1     -12.650   8.499  71.620  1.00  0.00    -0.369 C  
HETATM    2  C   UNL     1     -12.585  10.012  71.531  1.00  0.00    -0.425 C  
ENDROOT
BRANCH   2   3
HETATM    3  O   UNL     1     -11.907  10.403  70.330  1.00  0.00    -0.278 OA 
BRANCH   3   4
HETATM    4  C   UNL     1     -11.997  11.726  70.008  1.00  0.00    -0.344 C  
HETATM    5  O   UNL     1     -12.123  12.645  70.811  1.00  0.00    -0.329 OA 
BRANCH   4   6
HETATM    6  C   UNL     1     -11.886  11.910  68.484  1.00  0.00    -0.297 C  
BRANCH   6   7
HETATM    7  C   UNL     1     -10.506  11.443  68.008  1.00  0.00    -0.215 C  
BRANCH   7   8
HETATM    8  C   UNL     1     -10.554  10.089  67.288  1.00  0.00    -0.319 C  
BRANCH   8   9
HETATM    9  C   UNL     1     -10.103  10.254  65.858  1.00  0.00    -0.319 A  
HETATM   10  C   UNL     1      -9.417  10.431  63.150  1.00  0.00    -0.362 A  
HETATM   11  C   UNL     1     -10.386  11.281  63.679  1.00  0.00    -0.464 A  
HETATM   12  C   UNL     1     -10.729  11.193  65.029  1.00  0.00    -0.301 A  
HETATM   13  C   UNL     1      -8.780   9.501  63.970  1.00  0.00    -0.239 A  
HETATM   14  C   UNL     1      -9.120   9.413  65.320  1.00  0.00    -0.287 A  
ENDBRANCH   8   9
ENDBRANCH   7   8
ENDBRANCH   6   7
BRANCH   6  15
HETATM   15  N   UNL     1     -12.166  13.327  68.187  1.00  0.00    -0.182 NA 
HETATM   16  H   UNL     1     -13.019  13.773  68.527  1.00  0.00     0.000 HD 
BRANCH  15  17
HETATM   17  C   UNL     1     -11.177  14.095  67.377  1.00  0.00    -0.318 C  
HETATM   18  O   UNL     1     -10.919  15.245  69.481  1.00  0.00    -0.246 OA 
HETATM   19  C   UNL     1     -11.793  14.339  66.005  1.00  0.00    -0.399 C  
HETATM   20  O   UNL     1      -9.645  19.911  69.011  1.00  0.00    -0.277 OA 
HETATM   21  O   UNL     1     -10.944  19.083  67.363  1.00  0.00    -0.459 OA 
HETATM   22  C   UNL     1     -10.835  14.926  64.987  1.00  0.00    -0.439 C  
HETATM   23  C   UNL     1     -10.811  15.347  68.247  1.00  0.00    -0.269 C  
HETATM   24  C   UNL     1     -10.615  16.396  65.246  1.00  0.00    -0.299 C  
HETATM   25  N   UNL     1      -9.781  16.670  66.396  1.00  0.00    -0.270 NA 
HETATM   26  C   UNL     1     -10.062  18.947  68.383  1.00  0.00    -0.392 C  
HETATM   27  C   UNL     1      -8.354  16.380  66.280  1.00  0.00    -0.327 C  
HETATM   28  N   UNL     1     -10.284  16.525  67.703  1.00  0.00    -0.271 N  
HETATM   29  C   UNL     1      -7.584  17.329  67.208  1.00  0.00    -0.204 C  
HETATM   30  C   UNL     1      -9.661  17.492  68.664  1.00  0.00    -0.319 C  
HETATM   31  C   UNL     1      -8.134  17.307  68.639  1.00  0.00    -0.261 C  
ENDBRANCH  15  17
ENDBRANCH   6  15
ENDBRANCH   4   6
ENDBRANCH   3   4
ENDBRANCH   2   3
TORSDOF 8
ENDMDL
MODEL       20
REMARK 921   NORMALIZED FREE ENERGY PREDICTED BY IDOCK:   -6.55 KCAL/MOL
REMARK 922        TOTAL FREE ENERGY PREDICTED BY IDOCK:  -10.83 KCAL/MOL
REMARK 923 INTER-LIGAND FREE ENERGY PREDICTED BY IDOCK:   -9.56 KCAL/MOL
REMARK 924 INTRA-LIGAND FREE ENERGY PREDICTED BY IDOCK:   -1.27 KCAL/MOL
REMARK 927      BINDING AFFINITY PREDICTED BY RF-SCORE:    0.00 PKD
ROOT
HETATM    1  C   UNL     1      -9.768  11.509  63.383  1.00  0.00    -0.379 C  
HETATM    2  C   UNL     1     -10.699  12.650  63.746  1.00  0.00    -0.417 C  
ENDROOT
BRANCH   2   3
HETATM    3  O   UNL     1     -10.771  12.789  65.172  1.00  0.00    -0.281 OA 
BRANCH   3   4
HETATM    4  C   UNL     1     -12.020  12.687  65.711  1.00  0.00    -0.446 C  
HETATM    5  O   UNL     1     -13.071  12.714  65.077  1.00  0.00    -0.808 OA 
BRANCH   4   6
HETATM    6  C   UNL     1     -11.926  12.500  67.236  1.00  0.00    -0.216 C  
BRANCH   6   7
HETATM    7  C   UNL     1     -11.999  13.865  67.927  1.00  0.00    -0.393 C  
BRANCH   7   8
HETATM    8  C   UNL     1     -10.992  14.001  69.078  1.00  0.00    -0.287 C  
BRANCH   8   9
HETATM    9  C   UNL     1     -11.717  14.361  70.351  1.00  0.00    -0.346 A  
HETATM   10  C   UNL     1     -13.213  15.102  72.598  1.00  0.00    -0.536 A  
HETATM   11  C   UNL     1     -13.423  13.862  72.000  1.00  0.00    -0.543 A  
HETATM   12  C   UNL     1     -12.678  13.491  70.880  1.00  0.00    -0.366 A  
HETATM   13  C   UNL     1     -12.249  15.969  72.086  1.00  0.00    -0.597 A  
HETATM   14  C   UNL     1     -11.501  15.600  70.967  1.00  0.00    -0.439 A  
ENDBRANCH   8   9
ENDBRANCH   7   8
ENDBRANCH   6   7
BRANCH   6  15
HETATM   15  N   UNL     1     -10.682  11.759  67.517  1.00  0.00    -0.213 NA 
HETATM   16  H   UNL     1      -9.802  12.255  67.666  1.00  0.00     0.000 HD 
BRANCH  15  17
HETATM   17  C   UNL     1     -10.737  10.271  67.578  1.00  0.00    -0.294 C  
HETATM   18  O   UNL     1     -10.863  10.751  69.937  1.00  0.00    -0.261 OA 
HETATM   19  C   UNL     1      -9.729   9.730  66.570  1.00  0.00    -0.267 C  
HETATM   20  O   UNL     1      -8.925   7.286  72.741  1.00  0.00    -0.130 OA 
HETATM   21  O   UNL     1      -7.958   7.563  70.722  1.00  0.00    -0.100 OA 
HETATM   22  C   UNL     1      -9.806   8.231  66.354  1.00  0.00    -0.283 C  
HETATM   23  C   UNL     1     -10.524   9.909  69.089  1.00  0.00    -0.217 C  
HETATM   24  C   UNL     1      -9.178   7.492  67.510  1.00  0.00    -0.128 C  
HETATM   25  N   UNL     1      -9.979   7.501  68.715  1.00  0.00    -0.167 NA 
HETATM   26  C   UNL     1      -8.999   7.674  71.583  1.00  0.00    -0.127 C  
HETATM   27  C   UNL     1     -11.189   6.683  68.728  1.00  0.00    -0.178 C  
HETATM   28  N   UNL     1     -10.066   8.657  69.515  1.00  0.00    -0.197 N  
HETATM   29  C   UNL     1     -11.477   6.257  70.173  1.00  0.00    -0.452 C  
HETATM   30  C   UNL     1     -10.242   8.332  70.967  1.00  0.00    -0.191 C  
HETATM   31  C   UNL     1     -11.493   7.451  71.134  1.00  0.00    -0.303 C  
ENDBRANCH  15  17
ENDBRANCH   6  15
ENDBRANCH   4   6
ENDBRANCH   3   4
ENDBRANCH   2   3
TORSDOF 8
ENDMDL
MODEL       21
REMARK 921   NORMALIZED FREE ENERGY PREDICTED BY IDOCK:   -6.51 KCAL/MOL
REMARK 922        TOTAL FREE ENERGY PREDICTED BY IDOCK:  -10.77 KCAL/MOL
REMARK 923 INTER-LIGAND FREE ENERGY PREDICTED BY IDOCK:   -9.52 KCAL/MOL
REMARK 924 INTRA-LIGAND FREE ENERGY PREDICTED BY IDOCK:   -1.25 KCAL/MOL
REMARK 927      BINDING AFFINITY PREDICTED BY RF-SCORE:    0.00 PKD
ROOT
HETATM    1  C   UNL     1     -12.819   9.241  72.078  1.00  0.00    -0.495 C  
HETATM    2  C   UNL     1     -13.199  10.486  71.300  1.00  0.00    -0.306 C  
ENDROOT
BRANCH   2   3
HETATM    3  O   UNL     1     -12.024  11.243  70.981  1.00  0.00    -0.284 OA 
BRANCH   3   4
HETATM    4  C   UNL     1     -12.246  12.506  70.514  1.00  0.00    -0.297 C  
HETATM    5  O   UNL     1     -12.473  13.490  71.211  1.00  0.00    -0.347 OA 
BRANCH   4   6
HETATM    6  C   UNL     1     -12.140  12.530  68.979  1.00  0.00    -0.135 C  
BRANCH   6   7
HETATM    7  C   UNL     1     -10.804  11.918  68.545  1.00  0.00    -0.257 C  
BRANCH   7   8
HETATM    8  C   UNL     1     -10.941  11.004  67.320  1.00  0.00    -0.356 C  
BRANCH   8   9
HETATM    9  C   UNL     1     -10.641   9.578  67.710  1.00  0.00    -0.318 A  
HETATM   10  C   UNL     1     -10.288   6.899  68.442  1.00  0.00    -0.213 A  
HETATM   11  C   UNL     1     -10.445   7.239  67.100  1.00  0.00    -0.394 A  
HETATM   12  C   UNL     1     -10.621   8.573  66.734  1.00  0.00    -0.227 A  
HETATM   13  C   UNL     1     -10.294   7.893  69.419  1.00  0.00    -0.220 A  
HETATM   14  C   UNL     1     -10.468   9.229  69.055  1.00  0.00    -0.233 A  
ENDBRANCH   8   9
ENDBRANCH   7   8
ENDBRANCH   6   7
BRANCH   6  15
HETATM   15  N   UNL     1     -12.319  13.929  68.545  1.00  0.00    -0.458 NA 
HETATM   16  H   UNL     1     -13.118  14.476  68.865  1.00  0.00     0.000 HD 
BRANCH  15  17
HETATM   17  C   UNL     1     -11.306  14.525  67.627  1.00  0.00    -0.337 C  
HETATM   18  O   UNL     1     -11.143  16.100  69.445  1.00  0.00    -0.296 OA 
HETATM   19  C   UNL     1     -11.871  14.461  66.213  1.00  0.00    -0.391 C  
HETATM   20  O   UNL     1      -9.900  20.583  68.039  1.00  0.00    -0.313 OA 
HETATM   21  O   UNL     1     -11.125  19.400  66.559  1.00  0.00    -0.273 OA 
HETATM   22  C   UNL     1     -10.880  14.836  65.128  1.00  0.00    -0.417 C  
HETATM   23  C   UNL     1     -10.988  15.940  68.223  1.00  0.00    -0.329 C  
HETATM   24  C   UNL     1     -10.685  16.331  65.076  1.00  0.00    -0.298 C  
HETATM   25  N   UNL     1      -9.899  16.858  66.171  1.00  0.00    -0.377 NA 
HETATM   26  C   UNL     1     -10.282  19.500  67.616  1.00  0.00    -0.434 C  
HETATM   27  C   UNL     1      -8.466  16.577  66.171  1.00  0.00    -0.285 C  
HETATM   28  N   UNL     1     -10.453  16.985  67.460  1.00  0.00    -0.333 N  
HETATM   29  C   UNL     1      -7.743  17.715  66.903  1.00  0.00    -0.245 C  
HETATM   30  C   UNL     1      -9.878  18.146  68.214  1.00  0.00    -0.351 C  
HETATM   31  C   UNL     1      -8.349  17.988  68.284  1.00  0.00    -0.295 C  
ENDBRANCH  15  17
ENDBRANCH   6  15
ENDBRANCH   4   6
ENDBRANCH   3   4
ENDBRANCH   2   3
TORSDOF 8
ENDMDL
MODEL       22
REMARK 921   NORMALIZED FREE ENERGY PREDICTED BY IDOCK:   -6.49 KCAL/MOL
REMARK 922        TOTAL FREE ENERGY PREDICTED BY IDOCK:  -10.74 KCAL/MOL
REMARK 923 INTER-LIGAND FREE ENERGY PREDICTED BY IDOCK:   -9.56 KCAL/MOL
REMARK 924 INTRA-LIGAND FREE ENERGY PREDICTED BY IDOCK:   -1.18 KCAL/MOL
REMARK 927      BINDING AFFINITY PREDICTED BY RF-SCORE:    0.00 PKD
ROOT
HETATM    1  C   UNL     1     -14.028  13.961  72.325  1.00  0.00    -0.663 C  
HETATM    2  C   UNL     1     -13.389  14.977  71.399  1.00  0.00    -0.436 C  
ENDROOT
BRANCH   2   3
HETATM    3  O   UNL     1     -12.806  14.313  70.269  1.00  0.00    -0.315 OA 
BRANCH   3   4
HETATM    4  C   UNL     1     -11.505  14.626  70.009  1.00  0.00    -0.265 C  
HETATM    5  O   UNL     1     -10.802  15.366  70.693  1.00  0.00    -0.319 OA 
BRANCH   4   6
HETATM    6  C   UNL     1     -11.024  13.893  68.744  1.00  0.00    -0.263 C  
BRANCH   6   7
HETATM    7  C   UNL     1     -10.947  14.881  67.575  1.00  0.00    -0.302 C  
BRANCH   7   8
HETATM    8  C   UNL     1      -9.615  15.641  67.527  1.00  0.00    -0.224 C  
BRANCH   8   9
HETATM    9  C   UNL     1      -9.874  17.126  67.479  1.00  0.00    -0.266 A  
HETATM   10  C   UNL     1     -10.159  19.907  67.336  1.00  0.00    -0.567 A  
HETATM   11  C   UNL     1     -10.329  19.130  66.192  1.00  0.00    -0.561 A  
HETATM   12  C   UNL     1     -10.188  17.744  66.262  1.00  0.00    -0.364 A  
HETATM   13  C   UNL     1      -9.860  19.300  68.554  1.00  0.00    -0.498 A  
HETATM   14  C   UNL     1      -9.720  17.913  68.627  1.00  0.00    -0.355 A  
ENDBRANCH   8   9
ENDBRANCH   7   8
ENDBRANCH   6   7
BRANCH   6  15
HETATM   15  N   UNL     1     -11.947  12.766  68.507  1.00  0.00    -0.284 NA 
HETATM   16  H   UNL     1     -12.953  12.920  68.445  1.00  0.00     0.000 HD 
BRANCH  15  17
HETATM   17  C   UNL     1     -11.375  11.397  68.361  1.00  0.00    -0.281 C  
HETATM   18  O   UNL     1     -12.578  11.087  70.428  1.00  0.00    -0.304 OA 
HETATM   19  C   UNL     1      -9.936  11.546  67.883  1.00  0.00    -0.193 C  
HETATM   20  O   UNL     1     -10.561   7.798  73.384  1.00  0.00    -0.348 OA 
HETATM   21  O   UNL     1      -9.123   8.965  72.096  1.00  0.00    -0.375 OA 
HETATM   22  C   UNL     1      -9.273  10.242  67.482  1.00  0.00    -0.153 C  
HETATM   23  C   UNL     1     -11.618  10.696  69.743  1.00  0.00    -0.309 C  
HETATM   24  C   UNL     1      -8.878   9.447  68.702  1.00  0.00    -0.132 C  
HETATM   25  N   UNL     1      -9.995   8.832  69.388  1.00  0.00    -0.191 NA 
HETATM   26  C   UNL     1     -10.350   8.464  72.379  1.00  0.00    -0.329 C  
HETATM   27  C   UNL     1     -10.641   7.694  68.739  1.00  0.00    -0.145 C  
HETATM   28  N   UNL     1     -10.865   9.601  70.183  1.00  0.00    -0.259 N  
HETATM   29  C   UNL     1     -11.241   6.788  69.823  1.00  0.00    -0.368 C  
HETATM   30  C   UNL     1     -11.419   8.822  71.338  1.00  0.00    -0.297 C  
HETATM   31  C   UNL     1     -12.130   7.568  70.798  1.00  0.00    -0.190 C  
ENDBRANCH  15  17
ENDBRANCH   6  15
ENDBRANCH   4   6
ENDBRANCH   3   4
ENDBRANCH   2   3
TORSDOF 8
ENDMDL
MODEL       23
REMARK 921   NORMALIZED FREE ENERGY PREDICTED BY IDOCK:   -6.45 KCAL/MOL
REMARK 922        TOTAL FREE ENERGY PREDICTED BY IDOCK:  -10.68 KCAL/MOL
REMARK 923 INTER-LIGAND FREE ENERGY PREDICTED BY IDOCK:   -9.51 KCAL/MOL
REMARK 924 INTRA-LIGAND FREE ENERGY PREDICTED BY IDOCK:   -1.17 KCAL/MOL
REMARK 927      BINDING AFFINITY PREDICTED BY RF-SCORE:    0.00 PKD
ROOT
HETATM    1  C   UNL     1     -13.343  14.115  72.913  1.00  0.00    -0.532 C  
HETATM    2  C   UNL     1     -13.835  14.736  71.620  1.00  0.00    -0.450 C  
ENDROOT
BRANCH   2   3
HETATM    3  O   UNL     1     -13.242  14.068  70.499  1.00  0.00    -0.166 OA 
BRANCH   3   4
HETATM    4  C   UNL     1     -12.049  14.574  70.074  1.00  0.00    -0.339 C  
HETATM    5  O   UNL     1     -11.687  15.740  70.204  1.00  0.00    -0.319 OA 
BRANCH   4   6
HETATM    6  C   UNL     1     -11.199  13.464  69.432  1.00  0.00    -0.175 C  
BRANCH   6   7
HETATM    7  C   UNL     1     -10.712  13.921  68.053  1.00  0.00    -0.255 C  
BRANCH   7   8
HETATM    8  C   UNL     1     -11.857  14.091  67.046  1.00  0.00    -0.458 C  
BRANCH   8   9
HETATM    9  C   UNL     1     -11.606  13.229  65.834  1.00  0.00    -0.380 A  
HETATM   10  C   UNL     1     -11.236  11.477  63.682  1.00  0.00    -0.451 A  
HETATM   11  C   UNL     1     -12.402  12.235  63.770  1.00  0.00    -0.637 A  
HETATM   12  C   UNL     1     -12.587  13.109  64.842  1.00  0.00    -0.468 A  
HETATM   13  C   UNL     1     -10.249  11.598  64.658  1.00  0.00    -0.327 A  
HETATM   14  C   UNL     1     -10.430  12.473  65.730  1.00  0.00    -0.296 A  
ENDBRANCH   8   9
ENDBRANCH   7   8
ENDBRANCH   6   7
BRANCH   6  15
HETATM   15  N   UNL     1     -12.023  12.240  69.393  1.00  0.00    -0.286 NA 
HETATM   16  H   UNL     1     -12.734  12.113  68.673  1.00  0.00     0.000 HD 
BRANCH  15  17
HETATM   17  C   UNL     1     -11.792  11.194  70.430  1.00  0.00    -0.369 C  
HETATM   18  O   UNL     1     -10.191  10.456  68.785  1.00  0.00    -0.169 OA 
HETATM   19  C   UNL     1     -13.153  10.775  70.973  1.00  0.00    -0.338 C  
HETATM   20  O   UNL     1      -9.440   5.655  68.807  1.00  0.00    -0.120 OA 
HETATM   21  O   UNL     1     -11.520   6.320  69.374  1.00  0.00    -0.427 OA 
HETATM   22  C   UNL     1     -13.089   9.866  72.185  1.00  0.00    -0.497 C  
HETATM   23  C   UNL     1     -10.918  10.098  69.726  1.00  0.00    -0.280 C  
HETATM   24  C   UNL     1     -12.720   8.460  71.780  1.00  0.00    -0.342 C  
HETATM   25  N   UNL     1     -11.330   8.302  71.412  1.00  0.00    -0.253 NA 
HETATM   26  C   UNL     1     -10.187   6.526  69.231  1.00  0.00    -0.187 C  
HETATM   27  C   UNL     1     -10.338   8.353  72.482  1.00  0.00    -0.301 C  
HETATM   28  N   UNL     1     -10.854   8.773  70.173  1.00  0.00    -0.228 N  
HETATM   29  C   UNL     1      -9.128   7.505  72.070  1.00  0.00    -0.157 C  
HETATM   30  C   UNL     1      -9.733   7.934  69.639  1.00  0.00    -0.173 C  
HETATM   31  C   UNL     1      -8.602   7.888  70.682  1.00  0.00    -0.130 C  
ENDBRANCH  15  17
ENDBRANCH   6  15
ENDBRANCH   4   6
ENDBRANCH   3   4
ENDBRANCH   2   3
TORSDOF 8
ENDMDL
MODEL       24
REMARK 921   NORMALIZED FREE ENERGY PREDICTED BY IDOCK:   -6.38 KCAL/MOL
REMARK 922        TOTAL FREE ENERGY PREDICTED BY IDOCK:  -10.57 KCAL/MOL
REMARK 923 INTER-LIGAND FREE ENERGY PREDICTED BY IDOCK:   -9.11 KCAL/MOL
REMARK 924 INTRA-LIGAND FREE ENERGY PREDICTED BY IDOCK:   -1.47 KCAL/MOL
REMARK 927      BINDING AFFINITY PREDICTED BY RF-SCORE:    0.00 PKD
ROOT
HETATM    1  C   UNL     1     -11.665  15.626  71.526  1.00  0.00    -0.504 C  
HETATM    2  C   UNL     1     -12.802  15.066  70.692  1.00  0.00    -0.363 C  
ENDROOT
BRANCH   2   3
HETATM    3  O   UNL     1     -12.347  13.932  69.941  1.00  0.00    -0.332 OA 
BRANCH   3   4
HETATM    4  C   UNL     1     -11.855  14.206  68.699  1.00  0.00    -0.348 C  
HETATM    5  O   UNL     1     -12.009  15.262  68.092  1.00  0.00    -0.271 OA 
BRANCH   4   6
HETATM    6  C   UNL     1     -11.048  13.008  68.170  1.00  0.00    -0.256 C  
BRANCH   6   7
HETATM    7  C   UNL     1     -11.908  12.197  67.195  1.00  0.00    -0.292 C  
BRANCH   7   8
HETATM    8  C   UNL     1     -11.794  12.696  65.748  1.00  0.00    -0.497 C  
BRANCH   8   9
HETATM    9  C   UNL     1     -10.802  11.849  64.991  1.00  0.00    -0.351 A  
HETATM   10  C   UNL     1      -9.119  10.176  63.506  1.00  0.00    -0.302 A  
HETATM   11  C   UNL     1      -9.624  11.341  62.933  1.00  0.00    -0.377 A  
HETATM   12  C   UNL     1     -10.462  12.176  63.672  1.00  0.00    -0.495 A  
HETATM   13  C   UNL     1      -9.441   9.849  64.823  1.00  0.00    -0.356 A  
HETATM   14  C   UNL     1     -10.278  10.683  65.565  1.00  0.00    -0.329 A  
ENDBRANCH   8   9
ENDBRANCH   7   8
ENDBRANCH   6   7
BRANCH   6  15
HETATM   15  N   UNL     1     -10.588  12.232  69.338  1.00  0.00    -0.425 NA 
HETATM   16  H   UNL     1     -10.532  12.664  70.261  1.00  0.00     0.000 HD 
BRANCH  15  17
HETATM   17  C   UNL     1     -10.207  10.805  69.140  1.00  0.00    -0.211 C  
HETATM   18  O   UNL     1     -11.773  10.531  70.954  1.00  0.00    -0.338 OA 
HETATM   19  C   UNL     1      -8.701  10.757  68.909  1.00  0.00    -0.154 C  
HETATM   20  O   UNL     1     -10.785   6.738  73.829  1.00  0.00    -0.325 OA 
HETATM   21  O   UNL     1      -8.996   7.756  72.906  1.00  0.00    -0.150 OA 
HETATM   22  C   UNL     1      -8.178   9.399  68.482  1.00  0.00    -0.113 C  
HETATM   23  C   UNL     1     -10.778  10.046  70.388  1.00  0.00    -0.307 C  
HETATM   24  C   UNL     1      -8.115   8.457  69.659  1.00  0.00    -0.115 C  
HETATM   25  N   UNL     1      -9.409   7.978  70.096  1.00  0.00    -0.156 NA 
HETATM   26  C   UNL     1     -10.313   7.439  72.943  1.00  0.00    -0.279 C  
HETATM   27  C   UNL     1     -10.095   7.013  69.241  1.00  0.00    -0.173 C  
HETATM   28  N   UNL     1     -10.278   8.813  70.824  1.00  0.00    -0.199 N  
HETATM   29  C   UNL     1     -10.995   6.134  70.119  1.00  0.00    -0.426 C  
HETATM   30  C   UNL     1     -11.127   8.044  71.791  1.00  0.00    -0.260 C  
HETATM   31  C   UNL     1     -11.912   6.968  71.022  1.00  0.00    -0.406 C  
ENDBRANCH  15  17
ENDBRANCH   6  15
ENDBRANCH   4   6
ENDBRANCH   3   4
ENDBRANCH   2   3
TORSDOF 8
ENDMDL
MODEL       25
REMARK 921   NORMALIZED FREE ENERGY PREDICTED BY IDOCK:   -6.37 KCAL/MOL
REMARK 922        TOTAL FREE ENERGY PREDICTED BY IDOCK:  -10.57 KCAL/MOL
REMARK 923 INTER-LIGAND FREE ENERGY PREDICTED BY IDOCK:   -9.30 KCAL/MOL
REMARK 924 INTRA-LIGAND FREE ENERGY PREDICTED BY IDOCK:   -1.26 KCAL/MOL
REMARK 927      BINDING AFFINITY PREDICTED BY RF-SCORE:    0.00 PKD
ROOT
HETATM    1  C   UNL     1     -10.632  11.832  63.560  1.00  0.00    -0.499 C  
HETATM    2  C   UNL     1     -12.102  12.198  63.633  1.00  0.00    -0.551 C  
ENDROOT
BRANCH   2   3
HETATM    3  O   UNL     1     -12.571  12.079  64.982  1.00  0.00    -0.415 OA 
BRANCH   3   4
HETATM    4  C   UNL     1     -12.661  13.248  65.680  1.00  0.00    -0.406 C  
HETATM    5  O   UNL     1     -13.113  14.302  65.242  1.00  0.00    -0.707 OA 
BRANCH   4   6
HETATM    6  C   UNL     1     -12.140  13.052  67.114  1.00  0.00    -0.264 C  
BRANCH   6   7
HETATM    7  C   UNL     1     -11.038  14.076  67.406  1.00  0.00    -0.317 C  
BRANCH   7   8
HETATM    8  C   UNL     1      -9.777  13.847  66.562  1.00  0.00    -0.303 C  
BRANCH   8   9
HETATM    9  C   UNL     1      -8.835  15.014  66.722  1.00  0.00    -0.299 A  
HETATM   10  C   UNL     1      -7.004  17.129  66.839  1.00  0.00    -0.247 A  
HETATM   11  C   UNL     1      -8.227  17.302  66.194  1.00  0.00    -0.258 A  
HETATM   12  C   UNL     1      -9.140  16.248  66.135  1.00  0.00    -0.377 A  
HETATM   13  C   UNL     1      -6.696  15.908  67.437  1.00  0.00    -0.229 A  
HETATM   14  C   UNL     1      -7.609  14.854  67.381  1.00  0.00    -0.232 A  
ENDBRANCH   8   9
ENDBRANCH   7   8
ENDBRANCH   6   7
BRANCH   6  15
HETATM   15  N   UNL     1     -11.694  11.651  67.237  1.00  0.00    -0.611 NA 
HETATM   16  H   UNL     1     -11.642  11.046  66.417  1.00  0.00     0.000 HD 
BRANCH  15  17
HETATM   17  C   UNL     1     -11.320  11.138  68.586  1.00  0.00    -0.277 C  
HETATM   18  O   UNL     1     -10.357   9.388  67.235  1.00  0.00    -0.228 OA 
HETATM   19  C   UNL     1     -12.515  11.348  69.508  1.00  0.00    -0.100 C  
HETATM   20  O   UNL     1     -10.264   5.054  69.432  1.00  0.00    -0.228 OA 
HETATM   21  O   UNL     1     -11.994   6.391  69.984  1.00  0.00    -0.333 OA 
HETATM   22  C   UNL     1     -12.231  11.072  70.971  1.00  0.00    -0.456 C  
HETATM   23  C   UNL     1     -10.830   9.667  68.350  1.00  0.00    -0.167 C  
HETATM   24  C   UNL     1     -12.179   9.587  71.234  1.00  0.00    -0.348 C  
HETATM   25  N   UNL     1     -10.982   8.946  70.736  1.00  0.00    -0.240 NA 
HETATM   26  C   UNL     1     -10.741   6.178  69.514  1.00  0.00    -0.320 C  
HETATM   27  C   UNL     1      -9.731   9.210  71.441  1.00  0.00    -0.268 C  
HETATM   28  N   UNL     1     -10.816   8.698  69.360  1.00  0.00    -0.155 N  
HETATM   29  C   UNL     1      -8.807   7.996  71.272  1.00  0.00    -0.163 C  
HETATM   30  C   UNL     1     -10.010   7.461  69.098  1.00  0.00    -0.173 C  
HETATM   31  C   UNL     1      -8.648   7.595  69.801  1.00  0.00    -0.135 C  
ENDBRANCH  15  17
ENDBRANCH   6  15
ENDBRANCH   4   6
ENDBRANCH   3   4
ENDBRANCH   2   3
TORSDOF 8
ENDMDL
MODEL       26
REMARK 921   NORMALIZED FREE ENERGY PREDICTED BY IDOCK:   -6.37 KCAL/MOL
REMARK 922        TOTAL FREE ENERGY PREDICTED BY IDOCK:  -10.56 KCAL/MOL
REMARK 923 INTER-LIGAND FREE ENERGY PREDICTED BY IDOCK:   -9.44 KCAL/MOL
REMARK 924 INTRA-LIGAND FREE ENERGY PREDICTED BY IDOCK:   -1.12 KCAL/MOL
REMARK 927      BINDING AFFINITY PREDICTED BY RF-SCORE:    0.00 PKD
ROOT
HETATM    1  C   UNL     1     -13.203  15.654  73.116  1.00  0.00    -0.674 C  
HETATM    2  C   UNL     1     -12.163  15.793  72.021  1.00  0.00    -0.465 C  
ENDROOT
BRANCH   2   3
HETATM    3  O   UNL     1     -12.706  15.349  70.770  1.00  0.00    -0.404 OA 
BRANCH   3   4
HETATM    4  C   UNL     1     -12.204  14.173  70.295  1.00  0.00    -0.349 C  
HETATM    5  O   UNL     1     -12.408  13.065  70.784  1.00  0.00    -0.363 OA 
BRANCH   4   6
HETATM    6  C   UNL     1     -11.363  14.426  69.031  1.00  0.00    -0.269 C  
BRANCH   6   7
HETATM    7  C   UNL     1     -11.611  15.851  68.525  1.00  0.00    -0.351 C  
BRANCH   7   8
HETATM    8  C   UNL     1     -10.763  16.198  67.294  1.00  0.00    -0.277 C  
BRANCH   8   9
HETATM    9  C   UNL     1     -10.407  17.663  67.315  1.00  0.00    -0.354 A  
HETATM   10  C   UNL     1      -9.940  20.422  67.404  1.00  0.00    -0.556 A  
HETATM   11  C   UNL     1      -9.840  19.662  68.567  1.00  0.00    -0.519 A  
HETATM   12  C   UNL     1     -10.072  18.287  68.524  1.00  0.00    -0.419 A  
HETATM   13  C   UNL     1     -10.259  19.809  66.193  1.00  0.00    -0.618 A  
HETATM   14  C   UNL     1     -10.490  18.433  66.147  1.00  0.00    -0.422 A  
ENDBRANCH   8   9
ENDBRANCH   7   8
ENDBRANCH   6   7
BRANCH   6  15
HETATM   15  N   UNL     1     -11.712  13.380  68.050  1.00  0.00    -0.336 NA 
HETATM   16  H   UNL     1     -12.670  13.279  67.713  1.00  0.00     0.000 HD 
BRANCH  15  17
HETATM   17  C   UNL     1     -10.633  12.474  67.561  1.00  0.00    -0.220 C  
HETATM   18  O   UNL     1     -12.206  10.813  68.325  1.00  0.00    -0.449 OA 
HETATM   19  C   UNL     1      -9.298  13.072  67.990  1.00  0.00    -0.213 C  
HETATM   20  O   UNL     1     -10.113   6.708  69.869  1.00  0.00    -0.173 OA 
HETATM   21  O   UNL     1      -8.922   8.595  70.200  1.00  0.00    -0.143 OA 
HETATM   22  C   UNL     1      -8.086  12.384  67.393  1.00  0.00    -0.177 C  
HETATM   23  C   UNL     1     -11.006  11.053  68.108  1.00  0.00    -0.247 C  
HETATM   24  C   UNL     1      -7.821  11.071  68.087  1.00  0.00    -0.116 C  
HETATM   25  N   UNL     1      -8.759  10.026  67.742  1.00  0.00    -0.125 NA 
HETATM   26  C   UNL     1      -9.873   7.869  69.564  1.00  0.00    -0.176 C  
HETATM   27  C   UNL     1      -8.662   9.446  66.406  1.00  0.00    -0.135 C  
HETATM   28  N   UNL     1     -10.066  10.027  68.267  1.00  0.00    -0.153 N  
HETATM   29  C   UNL     1      -9.167   7.998  66.462  1.00  0.00    -0.236 C  
HETATM   30  C   UNL     1     -10.604   8.642  68.458  1.00  0.00    -0.119 C  
HETATM   31  C   UNL     1     -10.552   7.896  67.112  1.00  0.00    -0.383 C  
ENDBRANCH  15  17
ENDBRANCH   6  15
ENDBRANCH   4   6
ENDBRANCH   3   4
ENDBRANCH   2   3
TORSDOF 8
ENDMDL
MODEL       27
REMARK 921   NORMALIZED FREE ENERGY PREDICTED BY IDOCK:   -6.37 KCAL/MOL
REMARK 922        TOTAL FREE ENERGY PREDICTED BY IDOCK:  -10.56 KCAL/MOL
REMARK 923 INTER-LIGAND FREE ENERGY PREDICTED BY IDOCK:   -9.64 KCAL/MOL
REMARK 924 INTRA-LIGAND FREE ENERGY PREDICTED BY IDOCK:   -0.92 KCAL/MOL
REMARK 927      BINDING AFFINITY PREDICTED BY RF-SCORE:    0.00 PKD
ROOT
HETATM    1  C   UNL     1     -12.606  11.827  63.252  1.00  0.00    -0.382 C  
HETATM    2  C   UNL     1     -11.262  12.505  63.433  1.00  0.00    -0.397 C  
ENDROOT
BRANCH   2   3
HETATM    3  O   UNL     1     -11.423  13.728  64.163  1.00  0.00    -0.364 OA 
BRANCH   3   4
HETATM    4  C   UNL     1     -11.834  13.593  65.457  1.00  0.00    -0.362 C  
HETATM    5  O   UNL     1     -12.907  13.984  65.905  1.00  0.00    -0.484 OA 
BRANCH   4   6
HETATM    6  C   UNL     1     -10.767  12.847  66.278  1.00  0.00    -0.274 C  
BRANCH   6   7
HETATM    7  C   UNL     1     -11.439  12.084  67.424  1.00  0.00    -0.406 C  
BRANCH   7   8
HETATM    8  C   UNL     1     -10.435  11.574  68.466  1.00  0.00    -0.228 C  
BRANCH   8   9
HETATM    9  C   UNL     1     -11.173  10.972  69.635  1.00  0.00    -0.345 A  
HETATM   10  C   UNL     1     -12.421   9.964  71.930  1.00  0.00    -0.435 A  
HETATM   11  C   UNL     1     -12.862  11.159  71.365  1.00  0.00    -0.544 A  
HETATM   12  C   UNL     1     -12.241  11.662  70.222  1.00  0.00    -0.401 A  
HETATM   13  C   UNL     1     -11.367   9.263  71.346  1.00  0.00    -0.434 A  
HETATM   14  C   UNL     1     -10.745   9.763  70.201  1.00  0.00    -0.339 A  
ENDBRANCH   8   9
ENDBRANCH   7   8
ENDBRANCH   6   7
BRANCH   6  15
HETATM   15  N   UNL     1      -9.778  13.844  66.730  1.00  0.00    -0.270 NA 
HETATM   16  H   UNL     1      -8.779  13.635  66.709  1.00  0.00     0.000 HD 
BRANCH  15  17
HETATM   17  C   UNL     1     -10.270  15.164  67.219  1.00  0.00    -0.243 C  
HETATM   18  O   UNL     1      -8.441  15.926  65.844  1.00  0.00    -0.166 OA 
HETATM   19  C   UNL     1     -10.607  15.012  68.698  1.00  0.00    -0.237 C  
HETATM   20  O   UNL     1      -6.416  20.059  67.407  1.00  0.00    -0.199 OA 
HETATM   21  O   UNL     1      -7.245  18.710  69.013  1.00  0.00    -0.296 OA 
HETATM   22  C   UNL     1     -11.319  16.207  69.301  1.00  0.00    -0.328 C  
HETATM   23  C   UNL     1      -9.154  16.194  66.826  1.00  0.00    -0.230 C  
HETATM   24  C   UNL     1     -10.350  17.338  69.548  1.00  0.00    -0.068 C  
HETATM   25  N   UNL     1      -9.927  18.020  68.344  1.00  0.00    -0.357 NA 
HETATM   26  C   UNL     1      -7.181  19.163  67.738  1.00  0.00    -0.240 C  
HETATM   27  C   UNL     1     -10.902  18.877  67.676  1.00  0.00    -0.331 C  
HETATM   28  N   UNL     1      -8.997  17.428  67.469  1.00  0.00    -0.230 N  
HETATM   29  C   UNL     1     -10.150  19.991  66.936  1.00  0.00    -0.601 C  
HETATM   30  C   UNL     1      -8.139  18.444  66.778  1.00  0.00    -0.251 C  
HETATM   31  C   UNL     1      -9.046  19.436  66.029  1.00  0.00    -0.194 C  
ENDBRANCH  15  17
ENDBRANCH   6  15
ENDBRANCH   4   6
ENDBRANCH   3   4
ENDBRANCH   2   3
TORSDOF 8
ENDMDL
MODEL       28
REMARK 921   NORMALIZED FREE ENERGY PREDICTED BY IDOCK:   -6.35 KCAL/MOL
REMARK 922        TOTAL FREE ENERGY PREDICTED BY IDOCK:  -10.53 KCAL/MOL
REMARK 923 INTER-LIGAND FREE ENERGY PREDICTED BY IDOCK:   -8.90 KCAL/MOL
REMARK 924 INTRA-LIGAND FREE ENERGY PREDICTED BY IDOCK:   -1.64 KCAL/MOL
REMARK 927      BINDING AFFINITY PREDICTED BY RF-SCORE:    0.00 PKD
ROOT
HETATM    1  C   UNL     1     -10.487  15.730  65.483  1.00  0.00    -0.425 C  
HETATM    2  C   UNL     1     -10.486  14.226  65.285  1.00  0.00    -0.389 C  
ENDROOT
BRANCH   2   3
HETATM    3  O   UNL     1     -10.419  13.564  66.555  1.00  0.00    -0.277 OA 
BRANCH   3   4
HETATM    4  C   UNL     1     -11.538  12.876  66.921  1.00  0.00    -0.368 C  
HETATM    5  O   UNL     1     -12.196  12.148  66.182  1.00  0.00    -0.611 OA 
BRANCH   4   6
HETATM    6  C   UNL     1     -11.847  13.115  68.409  1.00  0.00    -0.351 C  
BRANCH   6   7
HETATM    7  C   UNL     1     -11.999  14.618  68.668  1.00  0.00    -0.305 C  
BRANCH   7   8
HETATM    8  C   UNL     1     -11.140  15.107  69.842  1.00  0.00    -0.302 C  
BRANCH   8   9
HETATM    9  C   UNL     1     -10.046  16.011  69.333  1.00  0.00    -0.271 A  
HETATM   10  C   UNL     1      -8.073  17.641  68.199  1.00  0.00    -0.252 A  
HETATM   11  C   UNL     1      -9.350  18.150  68.427  1.00  0.00    -0.319 A  
HETATM   12  C   UNL     1     -10.334  17.338  68.992  1.00  0.00    -0.330 A  
HETATM   13  C   UNL     1      -7.773  16.326  68.547  1.00  0.00    -0.189 A  
HETATM   14  C   UNL     1      -8.755  15.512  69.115  1.00  0.00    -0.247 A  
ENDBRANCH   8   9
ENDBRANCH   7   8
ENDBRANCH   6   7
BRANCH   6  15
HETATM   15  N   UNL     1     -10.768  12.485  69.193  1.00  0.00    -0.435 NA 
HETATM   16  H   UNL     1     -10.206  13.036  69.843  1.00  0.00     0.000 HD 
BRANCH  15  17
HETATM   17  C   UNL     1     -10.515  11.027  69.015  1.00  0.00    -0.216 C  
HETATM   18  O   UNL     1     -11.817  10.941  71.042  1.00  0.00    -0.310 OA 
HETATM   19  C   UNL     1      -9.065  10.860  68.576  1.00  0.00    -0.173 C  
HETATM   20  O   UNL     1     -10.681   7.203  73.934  1.00  0.00    -0.314 OA 
HETATM   21  O   UNL     1      -8.980   8.049  72.719  1.00  0.00    -0.180 OA 
HETATM   22  C   UNL     1      -8.702   9.451  68.147  1.00  0.00    -0.124 C  
HETATM   23  C   UNL     1     -10.950  10.362  70.367  1.00  0.00    -0.248 C  
HETATM   24  C   UNL     1      -8.532   8.555  69.349  1.00  0.00    -0.127 C  
HETATM   25  N   UNL     1      -9.778   8.189  69.988  1.00  0.00    -0.172 NA 
HETATM   26  C   UNL     1     -10.296   7.831  72.957  1.00  0.00    -0.347 C  
HETATM   27  C   UNL     1     -10.644   7.245  69.287  1.00  0.00    -0.221 C  
HETATM   28  N   UNL     1     -10.476   9.114  70.788  1.00  0.00    -0.235 N  
HETATM   29  C   UNL     1     -11.464   6.469  70.326  1.00  0.00    -0.474 C  
HETATM   30  C   UNL     1     -11.225   8.448  71.903  1.00  0.00    -0.311 C  
HETATM   31  C   UNL     1     -12.184   7.403  71.306  1.00  0.00    -0.374 C  
ENDBRANCH  15  17
ENDBRANCH   6  15
ENDBRANCH   4   6
ENDBRANCH   3   4
ENDBRANCH   2   3
TORSDOF 8
ENDMDL
MODEL       29
REMARK 921   NORMALIZED FREE ENERGY PREDICTED BY IDOCK:   -6.35 KCAL/MOL
REMARK 922        TOTAL FREE ENERGY PREDICTED BY IDOCK:  -10.53 KCAL/MOL
REMARK 923 INTER-LIGAND FREE ENERGY PREDICTED BY IDOCK:   -8.54 KCAL/MOL
REMARK 924 INTRA-LIGAND FREE ENERGY PREDICTED BY IDOCK:   -1.99 KCAL/MOL
REMARK 927      BINDING AFFINITY PREDICTED BY RF-SCORE:    0.00 PKD
ROOT
HETATM    1  C   UNL     1     -13.090  11.043  71.878  1.00  0.00    -0.525 C  
HETATM    2  C   UNL     1     -13.465   9.604  72.179  1.00  0.00    -0.429 C  
ENDROOT
BRANCH   2   3
HETATM    3  O   UNL     1     -12.880   8.731  71.204  1.00  0.00    -0.240 OA 
BRANCH   3   4
HETATM    4  C   UNL     1     -11.688   8.169  71.557  1.00  0.00    -0.286 C  
HETATM    5  O   UNL     1     -11.465   7.581  72.611  1.00  0.00    -0.323 OA 
BRANCH   4   6
HETATM    6  C   UNL     1     -10.661   8.349  70.425  1.00  0.00    -0.223 C  
BRANCH   6   7
HETATM    7  C   UNL     1      -9.526   9.262  70.901  1.00  0.00    -0.330 C  
BRANCH   7   8
HETATM    8  C   UNL     1      -8.209   8.506  71.123  1.00  0.00    -0.172 C  
BRANCH   8   9
HETATM    9  C   UNL     1      -7.691   7.985  69.806  1.00  0.00    -0.101 A  
HETATM   10  C   UNL     1      -6.569   6.937  67.465  1.00  0.00    -0.058 A  
HETATM   11  C   UNL     1      -7.418   6.152  68.241  1.00  0.00    -0.087 A  
HETATM   12  C   UNL     1      -7.978   6.673  69.408  1.00  0.00    -0.115 A  
HETATM   13  C   UNL     1      -6.287   8.247  67.845  1.00  0.00    -0.053 A  
HETATM   14  C   UNL     1      -6.847   8.772  69.011  1.00  0.00    -0.059 A  
ENDBRANCH   8   9
ENDBRANCH   7   8
ENDBRANCH   6   7
BRANCH   6  15
HETATM   15  N   UNL     1     -11.383   8.866  69.248  1.00  0.00    -0.363 NA 
HETATM   16  H   UNL     1     -12.386   8.708  69.140  1.00  0.00     0.000 HD 
BRANCH  15  17
HETATM   17  C   UNL     1     -10.617   9.625  68.218  1.00  0.00    -0.225 C  
HETATM   18  O   UNL     1     -12.237  11.312  68.805  1.00  0.00    -0.532 OA 
HETATM   19  C   UNL     1     -10.321   8.671  67.067  1.00  0.00    -0.368 C  
HETATM   20  O   UNL     1     -13.319  14.332  65.153  1.00  0.00    -0.626 OA 
HETATM   21  O   UNL     1     -12.801  12.220  64.553  1.00  0.00    -0.654 OA 
HETATM   22  C   UNL     1      -9.366   9.226  66.028  1.00  0.00    -0.283 C  
HETATM   23  C   UNL     1     -11.483  10.895  67.909  1.00  0.00    -0.266 C  
HETATM   24  C   UNL     1     -10.067  10.222  65.137  1.00  0.00    -0.285 C  
HETATM   25  N   UNL     1     -10.333  11.493  65.775  1.00  0.00    -0.240 NA 
HETATM   26  C   UNL     1     -12.765  13.271  65.409  1.00  0.00    -0.399 C  
HETATM   27  C   UNL     1      -9.195  12.374  66.024  1.00  0.00    -0.050 C  
HETATM   28  N   UNL     1     -11.369  11.623  66.719  1.00  0.00    -0.319 N  
HETATM   29  C   UNL     1      -9.688  13.827  66.010  1.00  0.00    -0.255 C  
HETATM   30  C   UNL     1     -11.987  12.989  66.701  1.00  0.00    -0.387 C  
HETATM   31  C   UNL     1     -10.887  14.038  66.943  1.00  0.00    -0.290 C  
ENDBRANCH  15  17
ENDBRANCH   6  15
ENDBRANCH   4   6
ENDBRANCH   3   4
ENDBRANCH   2   3
TORSDOF 8
ENDMDL
MODEL       30
REMARK 921   NORMALIZED FREE ENERGY PREDICTED BY IDOCK:   -6.34 KCAL/MOL
REMARK 922        TOTAL FREE ENERGY PREDICTED BY IDOCK:  -10.51 KCAL/MOL
REMARK 923 INTER-LIGAND FREE ENERGY PREDICTED BY IDOCK:  -10.33 KCAL/MOL
REMARK 924 INTRA-LIGAND FREE ENERGY PREDICTED BY IDOCK:   -0.19 KCAL/MOL
REMARK 927      BINDING AFFINITY PREDICTED BY RF-SCORE:    0.00 PKD
ROOT
HETATM    1  C   UNL     1      -7.505  20.053  67.961  1.00  0.00    -0.324 C  
HETATM    2  C   UNL     1      -8.465  19.045  68.564  1.00  0.00    -0.352 C  
ENDROOT
BRANCH   2   3
HETATM    3  O   UNL     1      -8.674  17.960  67.651  1.00  0.00    -0.238 OA 
BRANCH   3   4
HETATM    4  C   UNL     1      -9.939  17.844  67.154  1.00  0.00    -0.327 C  
HETATM    5  O   UNL     1     -10.559  18.734  66.578  1.00  0.00    -0.404 OA 
BRANCH   4   6
HETATM    6  C   UNL     1     -10.475  16.421  67.389  1.00  0.00    -0.309 C  
BRANCH   6   7
HETATM    7  C   UNL     1     -11.468  16.431  68.556  1.00  0.00    -0.209 C  
BRANCH   7   8
HETATM    8  C   UNL     1     -10.795  16.162  69.909  1.00  0.00    -0.355 C  
BRANCH   8   9
HETATM    9  C   UNL     1     -11.837  15.785  70.932  1.00  0.00    -0.451 A  
HETATM   10  C   UNL     1     -13.867  15.260  72.787  1.00  0.00    -0.541 A  
HETATM   11  C   UNL     1     -14.025  14.880  71.456  1.00  0.00    -0.571 A  
HETATM   12  C   UNL     1     -13.014  15.141  70.531  1.00  0.00    -0.366 A  
HETATM   13  C   UNL     1     -12.694  15.890  73.199  1.00  0.00    -0.631 A  
HETATM   14  C   UNL     1     -11.680  16.151  72.276  1.00  0.00    -0.564 A  
ENDBRANCH   8   9
ENDBRANCH   7   8
ENDBRANCH   6   7
BRANCH   6  15
HETATM   15  N   UNL     1      -9.312  15.540  67.609  1.00  0.00    -0.202 NA 
HETATM   16  H   UNL     1      -8.425  15.920  67.939  1.00  0.00     0.000 HD 
BRANCH  15  17
HETATM   17  C   UNL     1      -9.462  14.082  67.337  1.00  0.00    -0.225 C  
HETATM   18  O   UNL     1      -9.945  14.929  65.132  1.00  0.00    -0.345 OA 
HETATM   19  C   UNL     1     -10.205  13.466  68.516  1.00  0.00    -0.224 C  
HETATM   20  O   UNL     1     -13.006  12.136  62.594  1.00  0.00     0.184 OA 
HETATM   21  O   UNL     1     -13.325  12.155  64.827  1.00  0.00    -0.488 OA 
HETATM   22  C   UNL     1     -10.257  11.950  68.499  1.00  0.00    -0.221 C  
HETATM   23  C   UNL     1     -10.133  13.990  65.922  1.00  0.00    -0.321 C  
HETATM   24  C   UNL     1     -11.271  11.463  67.493  1.00  0.00    -0.292 C  
HETATM   25  N   UNL     1     -10.846  11.604  66.117  1.00  0.00    -0.286 NA 
HETATM   26  C   UNL     1     -12.563  12.322  63.719  1.00  0.00    -0.470 C  
HETATM   27  C   UNL     1      -9.800  10.706  65.638  1.00  0.00    -0.251 C  
HETATM   28  N   UNL     1     -10.844  12.865  65.489  1.00  0.00    -0.271 N  
HETATM   29  C   UNL     1      -9.984  10.499  64.129  1.00  0.00    -0.385 C  
HETATM   30  C   UNL     1     -11.125  12.768  64.020  1.00  0.00    -0.414 C  
HETATM   31  C   UNL     1     -10.091  11.830  63.374  1.00  0.00    -0.470 C  
ENDBRANCH  15  17
ENDBRANCH   6  15
ENDBRANCH   4   6
ENDBRANCH   3   4
ENDBRANCH   2   3
TORSDOF 8
ENDMDL
MODEL       31
REMARK 921   NORMALIZED FREE ENERGY PREDICTED BY IDOCK:   -6.33 KCAL/MOL
REMARK 922        TOTAL FREE ENERGY PREDICTED BY IDOCK:  -10.50 KCAL/MOL
REMARK 923 INTER-LIGAND FREE ENERGY PREDICTED BY IDOCK:   -9.51 KCAL/MOL
REMARK 924 INTRA-LIGAND FREE ENERGY PREDICTED BY IDOCK:   -0.98 KCAL/MOL
REMARK 927      BINDING AFFINITY PREDICTED BY RF-SCORE:    0.00 PKD
ROOT
HETATM    1  C   UNL     1     -10.126   8.997  66.750  1.00  0.00    -0.344 C  
HETATM    2  C   UNL     1      -9.906  10.487  66.925  1.00  0.00    -0.193 C  
ENDROOT
BRANCH   2   3
HETATM    3  O   UNL     1     -10.621  11.210  65.915  1.00  0.00    -0.259 OA 
BRANCH   3   4
HETATM    4  C   UNL     1     -11.404  12.233  66.365  1.00  0.00    -0.354 C  
HETATM    5  O   UNL     1     -12.522  12.510  65.942  1.00  0.00    -0.596 OA 
BRANCH   4   6
HETATM    6  C   UNL     1     -10.695  12.981  67.508  1.00  0.00    -0.238 C  
BRANCH   6   7
HETATM    7  C   UNL     1     -11.616  13.043  68.731  1.00  0.00    -0.350 C  
BRANCH   7   8
HETATM    8  C   UNL     1     -12.152  14.456  68.999  1.00  0.00    -0.298 C  
BRANCH   8   9
HETATM    9  C   UNL     1     -12.310  14.671  70.483  1.00  0.00    -0.400 A  
HETATM   10  C   UNL     1     -12.778  15.171  73.198  1.00  0.00    -0.592 A  
HETATM   11  C   UNL     1     -13.340  14.051  72.589  1.00  0.00    -0.643 A  
HETATM   12  C   UNL     1     -13.108  13.800  71.237  1.00  0.00    -0.370 A  
HETATM   13  C   UNL     1     -11.973  16.036  72.459  1.00  0.00    -0.649 A  
HETATM   14  C   UNL     1     -11.737  15.787  71.106  1.00  0.00    -0.476 A  
ENDBRANCH   8   9
ENDBRANCH   7   8
ENDBRANCH   6   7
BRANCH   6  15
HETATM   15  N   UNL     1     -10.302  14.307  66.995  1.00  0.00    -0.265 NA 
HETATM   16  H   UNL     1     -10.818  14.744  66.231  1.00  0.00     0.000 HD 
BRANCH  15  17
HETATM   17  C   UNL     1      -9.134  14.994  67.616  1.00  0.00    -0.182 C  
HETATM   18  O   UNL     1     -10.180  16.898  66.569  1.00  0.00    -0.299 OA 
HETATM   19  C   UNL     1      -7.914  14.102  67.417  1.00  0.00    -0.201 C  
HETATM   20  O   UNL     1      -7.042  20.364  65.243  1.00  0.00    -0.279 OA 
HETATM   21  O   UNL     1      -6.257  18.251  65.156  1.00  0.00    -0.274 OA 
HETATM   22  C   UNL     1      -6.680  14.555  68.173  1.00  0.00    -0.129 C  
HETATM   23  C   UNL     1      -9.105  16.425  66.976  1.00  0.00    -0.214 C  
HETATM   24  C   UNL     1      -6.037  15.736  67.487  1.00  0.00    -0.133 C  
HETATM   25  N   UNL     1      -6.765  16.976  67.652  1.00  0.00    -0.138 NA 
HETATM   26  C   UNL     1      -7.108  19.200  65.616  1.00  0.00    -0.232 C  
HETATM   27  C   UNL     1      -6.737  17.605  68.970  1.00  0.00    -0.250 C  
HETATM   28  N   UNL     1      -7.951  17.217  66.933  1.00  0.00    -0.200 N  
HETATM   29  C   UNL     1      -6.901  19.120  68.793  1.00  0.00    -0.342 C  
HETATM   30  C   UNL     1      -8.141  18.670  66.619  1.00  0.00    -0.271 C  
HETATM   31  C   UNL     1      -8.122  19.471  67.933  1.00  0.00    -0.340 C  
ENDBRANCH  15  17
ENDBRANCH   6  15
ENDBRANCH   4   6
ENDBRANCH   3   4
ENDBRANCH   2   3
TORSDOF 8
ENDMDL
MODEL       32
REMARK 921   NORMALIZED FREE ENERGY PREDICTED BY IDOCK:   -6.32 KCAL/MOL
REMARK 922        TOTAL FREE ENERGY PREDICTED BY IDOCK:  -10.49 KCAL/MOL
REMARK 923 INTER-LIGAND FREE ENERGY PREDICTED BY IDOCK:   -9.27 KCAL/MOL
REMARK 924 INTRA-LIGAND FREE ENERGY PREDICTED BY IDOCK:   -1.22 KCAL/MOL
REMARK 927      BINDING AFFINITY PREDICTED BY RF-SCORE:    0.00 PKD
ROOT
HETATM    1  C   UNL     1     -11.777  15.659  72.169  1.00  0.00    -0.576 C  
HETATM    2  C   UNL     1     -13.184  15.584  71.609  1.00  0.00    -0.492 C  
ENDROOT
BRANCH   2   3
HETATM    3  O   UNL     1     -13.347  14.378  70.851  1.00  0.00    -0.351 OA 
BRANCH   3   4
HETATM    4  C   UNL     1     -13.574  13.249  71.581  1.00  0.00    -0.185 C  
HETATM    5  O   UNL     1     -14.186  13.203  72.644  1.00  0.00    -0.677 OA 
BRANCH   4   6
HETATM    6  C   UNL     1     -12.977  12.024  70.866  1.00  0.00     0.000 C  
BRANCH   6   7
HETATM    7  C   UNL     1     -12.942  10.832  71.829  1.00  0.00    -0.568 C  
BRANCH   7   8
HETATM    8  C   UNL     1     -13.289   9.505  71.141  1.00  0.00    -0.314 C  
BRANCH   8   9
HETATM    9  C   UNL     1     -12.324   8.433  71.582  1.00  0.00    -0.359 A  
HETATM   10  C   UNL     1     -10.626   6.445  72.582  1.00  0.00    -0.250 A  
HETATM   11  C   UNL     1     -11.842   6.093  72.001  1.00  0.00    -0.336 A  
HETATM   12  C   UNL     1     -12.689   7.084  71.502  1.00  0.00    -0.425 A  
HETATM   13  C   UNL     1     -10.248   7.784  72.655  1.00  0.00    -0.340 A  
HETATM   14  C   UNL     1     -11.092   8.776  72.155  1.00  0.00    -0.406 A  
ENDBRANCH   8   9
ENDBRANCH   7   8
ENDBRANCH   6   7
BRANCH   6  15
HETATM   15  N   UNL     1     -11.647  12.412  70.357  1.00  0.00    -0.493 NA 
HETATM   16  H   UNL     1     -10.879  12.609  70.999  1.00  0.00     0.000 HD 
BRANCH  15  17
HETATM   17  C   UNL     1     -11.451  12.512  68.882  1.00  0.00    -0.307 C  
HETATM   18  O   UNL     1     -10.338  10.408  69.272  1.00  0.00    -0.204 OA 
HETATM   19  C   UNL     1     -11.090  13.957  68.561  1.00  0.00    -0.289 C  
HETATM   20  O   UNL     1      -6.722   9.506  66.152  1.00  0.00    -0.079 OA 
HETATM   21  O   UNL     1      -7.061  11.679  66.652  1.00  0.00    -0.115 OA 
HETATM   22  C   UNL     1     -11.061  14.278  67.079  1.00  0.00    -0.317 C  
HETATM   23  C   UNL     1     -10.401  11.401  68.528  1.00  0.00    -0.205 C  
HETATM   24  C   UNL     1      -9.809  13.732  66.439  1.00  0.00    -0.298 C  
HETATM   25  N   UNL     1      -9.816  12.295  66.270  1.00  0.00    -0.236 NA 
HETATM   26  C   UNL     1      -7.468  10.391  66.549  1.00  0.00    -0.119 C  
HETATM   27  C   UNL     1     -10.695  11.740  65.245  1.00  0.00    -0.287 C  
HETATM   28  N   UNL     1      -9.615  11.439  67.370  1.00  0.00    -0.173 N  
HETATM   29  C   UNL     1     -10.086  10.426  64.737  1.00  0.00    -0.387 C  
HETATM   30  C   UNL     1      -8.923  10.167  66.982  1.00  0.00    -0.135 C  
HETATM   31  C   UNL     1      -9.744   9.468  65.884  1.00  0.00    -0.352 C  
ENDBRANCH  15  17
ENDBRANCH   6  15
ENDBRANCH   4   6
ENDBRANCH   3   4
ENDBRANCH   2   3
TORSDOF 8
ENDMDL
MODEL       33
REMARK 921   NORMALIZED FREE ENERGY PREDICTED BY IDOCK:   -6.31 KCAL/MOL
REMARK 922        TOTAL FREE ENERGY PREDICTED BY IDOCK:  -10.48 KCAL/MOL
REMARK 923 INTER-LIGAND FREE ENERGY PREDICTED BY IDOCK:   -8.66 KCAL/MOL
REMARK 924 INTRA-LIGAND FREE ENERGY PREDICTED BY IDOCK:   -1.82 KCAL/MOL
REMARK 927      BINDING AFFINITY PREDICTED BY RF-SCORE:    0.00 PKD
ROOT
HETATM    1  C   UNL     1     -13.770   9.017  71.747  1.00  0.00    -0.474 C  
HETATM    2  C   UNL     1     -12.348   8.818  72.234  1.00  0.00    -0.378 C  
ENDROOT
BRANCH   2   3
HETATM    3  O   UNL     1     -11.456   9.671  71.504  1.00  0.00    -0.377 OA 
BRANCH   3   4
HETATM    4  C   UNL     1     -10.271   9.106  71.133  1.00  0.00    -0.314 C  
HETATM    5  O   UNL     1      -9.162   9.465  71.517  1.00  0.00    -0.276 OA 
BRANCH   4   6
HETATM    6  C   UNL     1     -10.522   7.924  70.180  1.00  0.00    -0.231 C  
BRANCH   6   7
HETATM    7  C   UNL     1      -9.196   7.221  69.871  1.00  0.00    -0.141 C  
BRANCH   7   8
HETATM    8  C   UNL     1      -9.359   5.707  69.676  1.00  0.00    -0.171 C  
BRANCH   8   9
HETATM    9  C   UNL     1      -9.260   5.367  68.210  1.00  0.00    -0.125 A  
HETATM   10  C   UNL     1      -9.109   4.935  65.448  1.00  0.00    -0.155 A  
HETATM   11  C   UNL     1      -7.970   5.313  66.156  1.00  0.00    -0.104 A  
HETATM   12  C   UNL     1      -8.044   5.529  67.533  1.00  0.00    -0.101 A  
HETATM   13  C   UNL     1     -10.320   4.759  66.115  1.00  0.00    -0.337 A  
HETATM   14  C   UNL     1     -10.396   4.972  67.492  1.00  0.00    -0.151 A  
ENDBRANCH   8   9
ENDBRANCH   7   8
ENDBRANCH   6   7
BRANCH   6  15
HETATM   15  N   UNL     1     -11.203   8.455  68.984  1.00  0.00    -0.311 NA 
HETATM   16  H   UNL     1     -12.180   8.228  68.796  1.00  0.00     0.000 HD 
BRANCH  15  17
HETATM   17  C   UNL     1     -10.433   9.331  68.056  1.00  0.00    -0.223 C  
HETATM   18  O   UNL     1     -12.127  10.903  68.741  1.00  0.00    -0.496 OA 
HETATM   19  C   UNL     1     -10.069   8.499  66.832  1.00  0.00    -0.364 C  
HETATM   20  O   UNL     1     -13.201  14.217  65.351  1.00  0.00    -0.741 OA 
HETATM   21  O   UNL     1     -12.592  12.188  64.575  1.00  0.00    -0.391 OA 
HETATM   22  C   UNL     1      -9.102   9.178  65.880  1.00  0.00    -0.256 C  
HETATM   23  C   UNL     1     -11.332  10.597  67.837  1.00  0.00    -0.268 C  
HETATM   24  C   UNL     1      -9.810  10.231  65.063  1.00  0.00    -0.329 C  
HETATM   25  N   UNL     1     -10.139  11.428  65.807  1.00  0.00    -0.235 NA 
HETATM   26  C   UNL     1     -12.619  13.154  65.525  1.00  0.00    -0.408 C  
HETATM   27  C   UNL     1      -9.040  12.317  66.174  1.00  0.00    -0.074 C  
HETATM   28  N   UNL     1     -11.207  11.436  66.723  1.00  0.00    -0.295 N  
HETATM   29  C   UNL     1      -9.583  13.749  66.278  1.00  0.00    -0.265 C  
HETATM   30  C   UNL     1     -11.871  12.777  66.811  1.00  0.00    -0.382 C  
HETATM   31  C   UNL     1     -10.816  13.833  67.186  1.00  0.00    -0.288 C  
ENDBRANCH  15  17
ENDBRANCH   6  15
ENDBRANCH   4   6
ENDBRANCH   3   4
ENDBRANCH   2   3
TORSDOF 8
ENDMDL
MODEL       34
REMARK 921   NORMALIZED FREE ENERGY PREDICTED BY IDOCK:   -6.28 KCAL/MOL
REMARK 922        TOTAL FREE ENERGY PREDICTED BY IDOCK:  -10.43 KCAL/MOL
REMARK 923 INTER-LIGAND FREE ENERGY PREDICTED BY IDOCK:   -8.88 KCAL/MOL
REMARK 924 INTRA-LIGAND FREE ENERGY PREDICTED BY IDOCK:   -1.55 KCAL/MOL
REMARK 927      BINDING AFFINITY PREDICTED BY RF-SCORE:    0.00 PKD
ROOT
HETATM    1  C   UNL     1     -11.841  11.721  69.055  1.00  0.00    -0.379 C  
HETATM    2  C   UNL     1     -12.034  12.979  68.230  1.00  0.00    -0.267 C  
ENDROOT
BRANCH   2   3
HETATM    3  O   UNL     1     -12.426  12.634  66.894  1.00  0.00    -0.301 OA 
BRANCH   3   4
HETATM    4  C   UNL     1     -12.201  13.590  65.948  1.00  0.00    -0.460 C  
HETATM    5  O   UNL     1     -13.049  14.051  65.190  1.00  0.00    -0.776 OA 
BRANCH   4   6
HETATM    6  C   UNL     1     -10.729  14.038  65.985  1.00  0.00    -0.294 C  
BRANCH   6   7
HETATM    7  C   UNL     1     -10.614  15.474  65.464  1.00  0.00    -0.413 C  
BRANCH   7   8
HETATM    8  C   UNL     1      -9.375  16.202  66.000  1.00  0.00    -0.368 C  
BRANCH   8   9
HETATM    9  C   UNL     1      -9.794  17.440  66.753  1.00  0.00    -0.297 A  
HETATM   10  C   UNL     1     -10.385  19.815  68.112  1.00  0.00    -0.561 A  
HETATM   11  C   UNL     1     -10.583  19.733  66.735  1.00  0.00    -0.586 A  
HETATM   12  C   UNL     1     -10.289  18.550  66.057  1.00  0.00    -0.423 A  
HETATM   13  C   UNL     1      -9.904  18.712  68.815  1.00  0.00    -0.422 A  
HETATM   14  C   UNL     1      -9.611  17.527  68.139  1.00  0.00    -0.294 A  
ENDBRANCH   8   9
ENDBRANCH   7   8
ENDBRANCH   6   7
BRANCH   6  15
HETATM   15  N   UNL     1      -9.948  13.060  65.202  1.00  0.00    -0.488 NA 
HETATM   16  H   UNL     1     -10.028  13.024  64.185  1.00  0.00     0.000 HD 
BRANCH  15  17
HETATM   17  C   UNL     1      -9.041  12.127  65.928  1.00  0.00     0.002 C  
HETATM   18  O   UNL     1     -10.523  10.510  64.926  1.00  0.00    -0.301 OA 
HETATM   19  C   UNL     1      -8.761  12.730  67.300  1.00  0.00    -0.200 C  
HETATM   20  O   UNL     1     -11.043   6.451  67.547  1.00  0.00    -0.352 OA 
HETATM   21  O   UNL     1     -10.696   8.339  68.731  1.00  0.00    -0.161 OA 
HETATM   22  C   UNL     1      -7.686  12.009  68.090  1.00  0.00    -0.135 C  
HETATM   23  C   UNL     1      -9.753  10.731  65.876  1.00  0.00    -0.224 C  
HETATM   24  C   UNL     1      -8.221  10.722  68.669  1.00  0.00    -0.139 C  
HETATM   25  N   UNL     1      -8.403   9.672  67.691  1.00  0.00    -0.121 NA 
HETATM   26  C   UNL     1     -10.617   7.597  67.600  1.00  0.00    -0.224 C  
HETATM   27  C   UNL     1      -7.204   9.039  67.148  1.00  0.00    -0.083 C  
HETATM   28  N   UNL     1      -9.485   9.705  66.790  1.00  0.00    -0.154 N  
HETATM   29  C   UNL     1      -7.549   7.599  66.746  1.00  0.00    -0.098 C  
HETATM   30  C   UNL     1      -9.962   8.332  66.423  1.00  0.00    -0.194 C  
HETATM   31  C   UNL     1      -8.783   7.534  65.838  1.00  0.00    -0.170 C  
ENDBRANCH  15  17
ENDBRANCH   6  15
ENDBRANCH   4   6
ENDBRANCH   3   4
ENDBRANCH   2   3
TORSDOF 8
ENDMDL
MODEL       35
REMARK 921   NORMALIZED FREE ENERGY PREDICTED BY IDOCK:   -6.27 KCAL/MOL
REMARK 922        TOTAL FREE ENERGY PREDICTED BY IDOCK:  -10.41 KCAL/MOL
REMARK 923 INTER-LIGAND FREE ENERGY PREDICTED BY IDOCK:   -9.24 KCAL/MOL
REMARK 924 INTRA-LIGAND FREE ENERGY PREDICTED BY IDOCK:   -1.17 KCAL/MOL
REMARK 927      BINDING AFFINITY PREDICTED BY RF-SCORE:    0.00 PKD
ROOT
HETATM    1  C   UNL     1     -13.996   6.989  71.575  1.00  0.00    -0.372 C  
HETATM    2  C   UNL     1     -14.169   8.450  71.946  1.00  0.00    -0.460 C  
ENDROOT
BRANCH   2   3
HETATM    3  O   UNL     1     -12.940   8.971  72.471  1.00  0.00    -0.418 OA 
BRANCH   3   4
HETATM    4  C   UNL     1     -12.225   9.761  71.620  1.00  0.00    -0.404 C  
HETATM    5  O   UNL     1     -12.416  10.959  71.435  1.00  0.00    -0.367 OA 
BRANCH   4   6
HETATM    6  C   UNL     1     -11.114   8.941  70.941  1.00  0.00    -0.271 C  
BRANCH   6   7
HETATM    7  C   UNL     1      -9.746   9.409  71.448  1.00  0.00    -0.126 C  
BRANCH   7   8
HETATM    8  C   UNL     1      -8.736   8.260  71.574  1.00  0.00    -0.208 C  
BRANCH   8   9
HETATM    9  C   UNL     1      -9.353   7.117  72.339  1.00  0.00    -0.155 A  
HETATM   10  C   UNL     1     -10.684   5.062  73.698  1.00  0.00    -0.350 A  
HETATM   11  C   UNL     1     -10.328   4.897  72.361  1.00  0.00    -0.262 A  
HETATM   12  C   UNL     1      -9.665   5.920  71.683  1.00  0.00    -0.185 A  
HETATM   13  C   UNL     1     -10.366   6.245  74.363  1.00  0.00    -0.278 A  
HETATM   14  C   UNL     1      -9.701   7.270  73.688  1.00  0.00    -0.335 A  
ENDBRANCH   8   9
ENDBRANCH   7   8
ENDBRANCH   6   7
BRANCH   6  15
HETATM   15  N   UNL     1     -11.286   9.084  69.483  1.00  0.00    -0.440 NA 
HETATM   16  H   UNL     1     -11.999   8.549  68.986  1.00  0.00     0.000 HD 
BRANCH  15  17
HETATM   17  C   UNL     1     -10.394  10.027  68.749  1.00  0.00    -0.198 C  
HETATM   18  O   UNL     1     -12.489  11.184  68.458  1.00  0.00    -0.452 OA 
HETATM   19  C   UNL     1      -9.420   9.194  67.924  1.00  0.00    -0.158 C  
HETATM   20  O   UNL     1     -12.740  13.761  64.345  1.00  0.00    -0.649 OA 
HETATM   21  O   UNL     1     -11.495  11.882  64.245  1.00  0.00    -0.350 OA 
HETATM   22  C   UNL     1      -8.305   9.994  67.279  1.00  0.00    -0.121 C  
HETATM   23  C   UNL     1     -11.357  10.997  67.981  1.00  0.00    -0.306 C  
HETATM   24  C   UNL     1      -8.817  10.747  66.075  1.00  0.00    -0.180 C  
HETATM   25  N   UNL     1      -9.638  11.892  66.405  1.00  0.00    -0.220 NA 
HETATM   26  C   UNL     1     -12.083  12.901  64.918  1.00  0.00    -0.432 C  
HETATM   27  C   UNL     1      -8.971  13.061  66.970  1.00  0.00    -0.225 C  
HETATM   28  N   UNL     1     -10.963  11.724  66.851  1.00  0.00    -0.270 N  
HETATM   29  C   UNL     1      -9.774  14.313  66.595  1.00  0.00    -0.297 C  
HETATM   30  C   UNL     1     -11.851  12.857  66.434  1.00  0.00    -0.415 C  
HETATM   31  C   UNL     1     -11.257  14.176  66.958  1.00  0.00    -0.328 C  
ENDBRANCH  15  17
ENDBRANCH   6  15
ENDBRANCH   4   6
ENDBRANCH   3   4
ENDBRANCH   2   3
TORSDOF 8
ENDMDL
MODEL       36
REMARK 921   NORMALIZED FREE ENERGY PREDICTED BY IDOCK:   -6.25 KCAL/MOL
REMARK 922        TOTAL FREE ENERGY PREDICTED BY IDOCK:  -10.39 KCAL/MOL
REMARK 923 INTER-LIGAND FREE ENERGY PREDICTED BY IDOCK:   -9.47 KCAL/MOL
REMARK 924 INTRA-LIGAND FREE ENERGY PREDICTED BY IDOCK:   -0.91 KCAL/MOL
REMARK 927      BINDING AFFINITY PREDICTED BY RF-SCORE:    0.00 PKD
ROOT
HETATM    1  C   UNL     1     -13.018  15.564  71.160  1.00  0.00    -0.560 C  
HETATM    2  C   UNL     1     -12.555  14.469  70.217  1.00  0.00    -0.323 C  
ENDROOT
BRANCH   2   3
HETATM    3  O   UNL     1     -11.957  15.048  69.050  1.00  0.00    -0.305 OA 
BRANCH   3   4
HETATM    4  C   UNL     1     -11.416  14.163  68.164  1.00  0.00    -0.310 C  
HETATM    5  O   UNL     1     -10.881  13.099  68.462  1.00  0.00    -0.246 OA 
BRANCH   4   6
HETATM    6  C   UNL     1     -11.598  14.674  66.724  1.00  0.00    -0.360 C  
BRANCH   6   7
HETATM    7  C   UNL     1     -12.409  13.656  65.915  1.00  0.00    -0.516 C  
BRANCH   7   8
HETATM    8  C   UNL     1     -11.914  13.518  64.469  1.00  0.00    -0.451 C  
BRANCH   8   9
HETATM    9  C   UNL     1     -11.093  12.261  64.327  1.00  0.00    -0.401 A  
HETATM   10  C   UNL     1      -9.406  10.035  64.126  1.00  0.00    -0.335 A  
HETATM   11  C   UNL     1     -10.019  10.336  65.340  1.00  0.00    -0.371 A  
HETATM   12  C   UNL     1     -10.860  11.445  65.442  1.00  0.00    -0.292 A  
HETATM   13  C   UNL     1      -9.642  10.833  63.008  1.00  0.00    -0.381 A  
HETATM   14  C   UNL     1     -10.484  11.942  63.106  1.00  0.00    -0.327 A  
ENDBRANCH   8   9
ENDBRANCH   7   8
ENDBRANCH   6   7
BRANCH   6  15
HETATM   15  N   UNL     1     -10.255  14.934  66.172  1.00  0.00    -0.285 NA 
HETATM   16  H   UNL     1     -10.015  14.642  65.224  1.00  0.00     0.000 HD 
BRANCH  15  17
HETATM   17  C   UNL     1      -9.255  15.632  67.030  1.00  0.00    -0.222 C  
HETATM   18  O   UNL     1      -9.952  17.495  65.667  1.00  0.00    -0.561 OA 
HETATM   19  C   UNL     1      -8.052  14.709  67.181  1.00  0.00    -0.213 C  
HETATM   20  O   UNL     1      -6.479  20.828  64.993  1.00  0.00    -0.270 OA 
HETATM   21  O   UNL     1      -5.762  18.699  65.205  1.00  0.00    -0.184 OA 
HETATM   22  C   UNL     1      -7.028  15.180  68.197  1.00  0.00    -0.132 C  
HETATM   23  C   UNL     1      -9.025  17.026  66.348  1.00  0.00    -0.275 C  
HETATM   24  C   UNL     1      -6.201  16.310  67.636  1.00  0.00    -0.148 C  
HETATM   25  N   UNL     1      -6.908  17.570  67.556  1.00  0.00    -0.157 NA 
HETATM   26  C   UNL     1      -6.670  19.687  65.394  1.00  0.00    -0.288 C  
HETATM   27  C   UNL     1      -7.186  18.269  68.808  1.00  0.00    -0.279 C  
HETATM   28  N   UNL     1      -7.872  17.793  66.555  1.00  0.00    -0.247 N  
HETATM   29  C   UNL     1      -7.254  19.775  68.523  1.00  0.00    -0.356 C  
HETATM   30  C   UNL     1      -7.934  19.231  66.135  1.00  0.00    -0.294 C  
HETATM   31  C   UNL     1      -8.214  20.101  67.373  1.00  0.00    -0.385 C  
ENDBRANCH  15  17
ENDBRANCH   6  15
ENDBRANCH   4   6
ENDBRANCH   3   4
ENDBRANCH   2   3
TORSDOF 8
ENDMDL
MODEL       37
REMARK 921   NORMALIZED FREE ENERGY PREDICTED BY IDOCK:   -6.25 KCAL/MOL
REMARK 922        TOTAL FREE ENERGY PREDICTED BY IDOCK:  -10.38 KCAL/MOL
REMARK 923 INTER-LIGAND FREE ENERGY PREDICTED BY IDOCK:   -9.20 KCAL/MOL
REMARK 924 INTRA-LIGAND FREE ENERGY PREDICTED BY IDOCK:   -1.18 KCAL/MOL
REMARK 927      BINDING AFFINITY PREDICTED BY RF-SCORE:    0.00 PKD
ROOT
HETATM    1  C   UNL     1     -10.374  11.973  63.383  1.00  0.00    -0.468 C  
HETATM    2  C   UNL     1     -11.794  12.054  63.907  1.00  0.00    -0.448 C  
ENDROOT
BRANCH   2   3
HETATM    3  O   UNL     1     -11.784  12.188  65.335  1.00  0.00    -0.364 OA 
BRANCH   3   4
HETATM    4  C   UNL     1     -12.308  13.350  65.821  1.00  0.00    -0.460 C  
HETATM    5  O   UNL     1     -13.091  14.080  65.221  1.00  0.00    -0.782 OA 
BRANCH   4   6
HETATM    6  C   UNL     1     -11.802  13.604  67.252  1.00  0.00    -0.391 C  
BRANCH   6   7
HETATM    7  C   UNL     1     -11.631  15.109  67.478  1.00  0.00    -0.268 C  
BRANCH   7   8
HETATM    8  C   UNL     1     -10.290  15.640  66.953  1.00  0.00    -0.293 C  
BRANCH   8   9
HETATM    9  C   UNL     1     -10.185  17.120  67.223  1.00  0.00    -0.316 A  
HETATM   10  C   UNL     1     -10.182  19.861  67.793  1.00  0.00    -0.567 A  
HETATM   11  C   UNL     1      -9.830  18.944  68.781  1.00  0.00    -0.461 A  
HETATM   12  C   UNL     1      -9.831  17.578  68.498  1.00  0.00    -0.330 A  
HETATM   13  C   UNL     1     -10.523  19.416  66.517  1.00  0.00    -0.572 A  
HETATM   14  C   UNL     1     -10.523  18.050  66.231  1.00  0.00    -0.340 A  
ENDBRANCH   8   9
ENDBRANCH   7   8
ENDBRANCH   6   7
BRANCH   6  15
HETATM   15  N   UNL     1     -10.555  12.834  67.424  1.00  0.00    -0.228 NA 
HETATM   16  H   UNL     1      -9.781  12.941  66.768  1.00  0.00     0.000 HD 
BRANCH  15  17
HETATM   17  C   UNL     1     -10.450  11.896  68.578  1.00  0.00    -0.224 C  
HETATM   18  O   UNL     1      -9.086  10.698  66.991  1.00  0.00    -0.143 OA 
HETATM   19  C   UNL     1     -11.831  11.790  69.214  1.00  0.00    -0.389 C  
HETATM   20  O   UNL     1      -9.158   5.877  67.605  1.00  0.00    -0.109 OA 
HETATM   21  O   UNL     1     -11.061   6.959  68.148  1.00  0.00    -0.175 OA 
HETATM   22  C   UNL     1     -11.856  11.037  70.530  1.00  0.00    -0.464 C  
HETATM   23  C   UNL     1      -9.812  10.588  67.993  1.00  0.00    -0.147 C  
HETATM   24  C   UNL     1     -11.753   9.550  70.296  1.00  0.00    -0.117 C  
HETATM   25  N   UNL     1     -10.431   9.108  69.907  1.00  0.00    -0.214 NA 
HETATM   26  C   UNL     1      -9.723   6.910  67.938  1.00  0.00    -0.122 C  
HETATM   27  C   UNL     1      -9.389   9.115  70.930  1.00  0.00    -0.269 C  
HETATM   28  N   UNL     1      -9.949   9.336  68.604  1.00  0.00    -0.173 N  
HETATM   29  C   UNL     1      -8.363   8.025  70.592  1.00  0.00    -0.123 C  
HETATM   30  C   UNL     1      -9.016   8.256  68.146  1.00  0.00    -0.139 C  
HETATM   31  C   UNL     1      -7.855   8.140  69.150  1.00  0.00    -0.107 C  
ENDBRANCH  15  17
ENDBRANCH   6  15
ENDBRANCH   4   6
ENDBRANCH   3   4
ENDBRANCH   2   3
TORSDOF 8
ENDMDL
MODEL       38
REMARK 921   NORMALIZED FREE ENERGY PREDICTED BY IDOCK:   -6.25 KCAL/MOL
REMARK 922        TOTAL FREE ENERGY PREDICTED BY IDOCK:  -10.38 KCAL/MOL
REMARK 923 INTER-LIGAND FREE ENERGY PREDICTED BY IDOCK:   -8.90 KCAL/MOL
REMARK 924 INTRA-LIGAND FREE ENERGY PREDICTED BY IDOCK:   -1.48 KCAL/MOL
REMARK 927      BINDING AFFINITY PREDICTED BY RF-SCORE:    0.00 PKD
ROOT
HETATM    1  C   UNL     1     -12.071  14.157  64.427  1.00  0.00    -0.486 C  
HETATM    2  C   UNL     1     -11.879  12.679  64.709  1.00  0.00    -0.380 C  
ENDROOT
BRANCH   2   3
HETATM    3  O   UNL     1     -12.342  12.367  66.029  1.00  0.00    -0.627 OA 
BRANCH   3   4
HETATM    4  C   UNL     1     -11.398  11.884  66.887  1.00  0.00    -0.330 C  
HETATM    5  O   UNL     1     -10.397  11.254  66.558  1.00  0.00    -0.224 OA 
BRANCH   4   6
HETATM    6  C   UNL     1     -11.748  12.269  68.335  1.00  0.00    -0.337 C  
BRANCH   6   7
HETATM    7  C   UNL     1     -11.957  13.784  68.429  1.00  0.00    -0.395 C  
BRANCH   7   8
HETATM    8  C   UNL     1     -10.850  14.487  69.226  1.00  0.00    -0.270 C  
BRANCH   8   9
HETATM    9  C   UNL     1     -10.194  15.541  68.370  1.00  0.00    -0.215 A  
HETATM   10  C   UNL     1      -9.142  17.491  66.659  1.00  0.00    -0.287 A  
HETATM   11  C   UNL     1      -9.978  17.864  67.709  1.00  0.00    -0.331 A  
HETATM   12  C   UNL     1     -10.503  16.893  68.562  1.00  0.00    -0.361 A  
HETATM   13  C   UNL     1      -8.818  16.149  66.467  1.00  0.00    -0.331 A  
HETATM   14  C   UNL     1      -9.341  15.176  67.321  1.00  0.00    -0.210 A  
ENDBRANCH   8   9
ENDBRANCH   7   8
ENDBRANCH   6   7
BRANCH   6  15
HETATM   15  N   UNL     1     -10.666  11.766  69.202  1.00  0.00    -0.382 NA 
HETATM   16  H   UNL     1      -9.700  12.062  69.056  1.00  0.00     0.000 HD 
BRANCH  15  17
HETATM   17  C   UNL     1     -11.013  10.815  70.296  1.00  0.00    -0.085 C  
HETATM   18  O   UNL     1      -9.178   9.601  69.309  1.00  0.00    -0.163 OA 
HETATM   19  C   UNL     1     -12.533  10.733  70.372  1.00  0.00    -0.430 C  
HETATM   20  O   UNL     1      -9.556   4.778  69.770  1.00  0.00    -0.142 OA 
HETATM   21  O   UNL     1     -11.506   5.896  69.585  1.00  0.00    -0.296 OA 
HETATM   22  C   UNL     1     -13.058   9.969  71.572  1.00  0.00    -0.531 C  
HETATM   23  C   UNL     1     -10.227   9.498  69.968  1.00  0.00    -0.244 C  
HETATM   24  C   UNL     1     -12.902   8.482  71.368  1.00  0.00    -0.255 C  
HETATM   25  N   UNL     1     -11.538   8.015  71.490  1.00  0.00    -0.266 NA 
HETATM   26  C   UNL     1     -10.187   5.820  69.886  1.00  0.00    -0.236 C  
HETATM   27  C   UNL     1     -10.951   7.988  72.827  1.00  0.00    -0.382 C  
HETATM   28  N   UNL     1     -10.602   8.244  70.463  1.00  0.00    -0.215 N  
HETATM   29  C   UNL     1      -9.891   6.879  72.875  1.00  0.00    -0.195 C  
HETATM   30  C   UNL     1      -9.584   7.148  70.366  1.00  0.00    -0.169 C  
HETATM   31  C   UNL     1      -8.882   6.996  71.727  1.00  0.00    -0.127 C  
ENDBRANCH  15  17
ENDBRANCH   6  15
ENDBRANCH   4   6
ENDBRANCH   3   4
ENDBRANCH   2   3
TORSDOF 8
ENDMDL
MODEL       39
REMARK 921   NORMALIZED FREE ENERGY PREDICTED BY IDOCK:   -6.24 KCAL/MOL
REMARK 922        TOTAL FREE ENERGY PREDICTED BY IDOCK:  -10.37 KCAL/MOL
REMARK 923 INTER-LIGAND FREE ENERGY PREDICTED BY IDOCK:   -8.94 KCAL/MOL
REMARK 924 INTRA-LIGAND FREE ENERGY PREDICTED BY IDOCK:   -1.42 KCAL/MOL
REMARK 927      BINDING AFFINITY PREDICTED BY RF-SCORE:    0.00 PKD
ROOT
HETATM    1  C   UNL     1      -9.096  19.821  66.300  1.00  0.00    -0.444 C  
HETATM    2  C   UNL     1      -8.598  19.802  67.733  1.00  0.00    -0.324 C  
ENDROOT
BRANCH   2   3
HETATM    3  O   UNL     1      -9.367  18.872  68.507  1.00  0.00    -0.335 OA 
BRANCH   3   4
HETATM    4  C   UNL     1      -8.905  17.589  68.516  1.00  0.00    -0.282 C  
HETATM    5  O   UNL     1      -7.747  17.254  68.751  1.00  0.00    -0.258 OA 
BRANCH   4   6
HETATM    6  C   UNL     1     -10.052  16.608  68.218  1.00  0.00    -0.268 C  
BRANCH   6   7
HETATM    7  C   UNL     1     -10.535  15.968  69.524  1.00  0.00    -0.286 C  
BRANCH   7   8
HETATM    8  C   UNL     1     -12.053  16.087  69.717  1.00  0.00    -0.123 C  
BRANCH   8   9
HETATM    9  C   UNL     1     -12.569  14.882  70.462  1.00  0.00    -0.414 A  
HETATM   10  C   UNL     1     -13.376  12.673  71.981  1.00  0.00    -0.555 A  
HETATM   11  C   UNL     1     -13.840  13.946  72.304  1.00  0.00    -0.669 A  
HETATM   12  C   UNL     1     -13.439  15.048  71.548  1.00  0.00    -0.520 A  
HETATM   13  C   UNL     1     -12.521  12.496  70.895  1.00  0.00    -0.361 A  
HETATM   14  C   UNL     1     -12.119  13.596  70.136  1.00  0.00    -0.431 A  
ENDBRANCH   8   9
ENDBRANCH   7   8
ENDBRANCH   6   7
BRANCH   6  15
HETATM   15  N   UNL     1      -9.556  15.633  67.228  1.00  0.00    -0.216 NA 
HETATM   16  H   UNL     1      -8.745  15.846  66.647  1.00  0.00     0.000 HD 
BRANCH  15  17
HETATM   17  C   UNL     1     -10.267  14.329  67.096  1.00  0.00    -0.254 C  
HETATM   18  O   UNL     1      -8.021  13.507  67.406  1.00  0.00    -0.162 OA 
HETATM   19  C   UNL     1     -11.290  14.472  65.976  1.00  0.00    -0.341 C  
HETATM   20  O   UNL     1      -7.171   9.265  65.191  1.00  0.00    -0.091 OA 
HETATM   21  O   UNL     1      -8.648  10.625  64.162  1.00  0.00    -0.169 OA 
HETATM   22  C   UNL     1     -12.245  13.301  65.849  1.00  0.00    -0.497 C  
HETATM   23  C   UNL     1      -9.136  13.256  66.918  1.00  0.00    -0.232 C  
HETATM   24  C   UNL     1     -11.563  12.125  65.193  1.00  0.00    -0.317 C  
HETATM   25  N   UNL     1     -10.618  11.443  66.050  1.00  0.00    -0.261 NA 
HETATM   26  C   UNL     1      -7.972  10.189  65.253  1.00  0.00    -0.145 C  
HETATM   27  C   UNL     1     -11.157  10.641  67.145  1.00  0.00    -0.196 C  
HETATM   28  N   UNL     1      -9.358  12.007  66.326  1.00  0.00    -0.227 N  
HETATM   29  C   UNL     1     -10.171   9.506  67.452  1.00  0.00    -0.285 C  
HETATM   30  C   UNL     1      -8.301  10.964  66.535  1.00  0.00    -0.155 C  
HETATM   31  C   UNL     1      -8.745  10.025  67.671  1.00  0.00    -0.121 C  
ENDBRANCH  15  17
ENDBRANCH   6  15
ENDBRANCH   4   6
ENDBRANCH   3   4
ENDBRANCH   2   3
TORSDOF 8
ENDMDL
MODEL       40
REMARK 921   NORMALIZED FREE ENERGY PREDICTED BY IDOCK:   -6.24 KCAL/MOL
REMARK 922        TOTAL FREE ENERGY PREDICTED BY IDOCK:  -10.36 KCAL/MOL
REMARK 923 INTER-LIGAND FREE ENERGY PREDICTED BY IDOCK:   -8.22 KCAL/MOL
REMARK 924 INTRA-LIGAND FREE ENERGY PREDICTED BY IDOCK:   -2.14 KCAL/MOL
REMARK 927      BINDING AFFINITY PREDICTED BY RF-SCORE:    0.00 PKD
ROOT
HETATM    1  C   UNL     1      -9.365   4.581  69.349  1.00  0.00    -0.217 C  
HETATM    2  C   UNL     1     -10.514   5.559  69.194  1.00  0.00    -0.244 C  
ENDROOT
BRANCH   2   3
HETATM    3  O   UNL     1     -11.160   5.760  70.458  1.00  0.00    -0.289 OA 
BRANCH   3   4
HETATM    4  C   UNL     1     -11.651   7.014  70.676  1.00  0.00    -0.335 C  
HETATM    5  O   UNL     1     -12.728   7.272  71.204  1.00  0.00    -0.350 OA 
BRANCH   4   6
HETATM    6  C   UNL     1     -10.643   8.071  70.191  1.00  0.00    -0.237 C  
BRANCH   6   7
HETATM    7  C   UNL     1      -9.954   8.718  71.397  1.00  0.00    -0.354 C  
BRANCH   7   8
HETATM    8  C   UNL     1      -8.477   8.320  71.520  1.00  0.00    -0.179 C  
BRANCH   8   9
HETATM    9  C   UNL     1      -7.728   8.745  70.281  1.00  0.00    -0.085 A  
HETATM   10  C   UNL     1      -6.164   9.502  68.086  1.00  0.00    -0.056 A  
HETATM   11  C   UNL     1      -6.481   8.160  68.285  1.00  0.00    -0.055 A  
HETATM   12  C   UNL     1      -7.260   7.781  69.379  1.00  0.00    -0.080 A  
HETATM   13  C   UNL     1      -6.635  10.469  68.971  1.00  0.00    -0.060 A  
HETATM   14  C   UNL     1      -7.417  10.094  70.065  1.00  0.00    -0.171 A  
ENDBRANCH   8   9
ENDBRANCH   7   8
ENDBRANCH   6   7
BRANCH   6  15
HETATM   15  N   UNL     1     -11.378   9.030  69.344  1.00  0.00    -0.423 NA 
HETATM   16  H   UNL     1     -12.382   9.169  69.465  1.00  0.00     0.000 HD 
BRANCH  15  17
HETATM   17  C   UNL     1     -10.623   9.791  68.309  1.00  0.00    -0.229 C  
HETATM   18  O   UNL     1     -12.256  11.466  68.894  1.00  0.00    -0.458 OA 
HETATM   19  C   UNL     1     -10.323   8.835  67.161  1.00  0.00    -0.364 C  
HETATM   20  O   UNL     1     -13.380  14.460  65.234  1.00  0.00    -0.574 OA 
HETATM   21  O   UNL     1     -12.845  12.351  64.641  1.00  0.00    -0.714 OA 
HETATM   22  C   UNL     1      -9.377   9.394  66.115  1.00  0.00    -0.262 C  
HETATM   23  C   UNL     1     -11.502  11.053  67.998  1.00  0.00    -0.290 C  
HETATM   24  C   UNL     1     -10.091  10.380  65.222  1.00  0.00    -0.300 C  
HETATM   25  N   UNL     1     -10.366  11.651  65.856  1.00  0.00    -0.239 NA 
HETATM   26  C   UNL     1     -12.816  13.405  65.492  1.00  0.00    -0.299 C  
HETATM   27  C   UNL     1      -9.235  12.544  66.097  1.00  0.00    -0.073 C  
HETATM   28  N   UNL     1     -11.400  11.776  66.804  1.00  0.00    -0.330 N  
HETATM   29  C   UNL     1      -9.742  13.992  66.079  1.00  0.00    -0.280 C  
HETATM   30  C   UNL     1     -12.030  13.136  66.782  1.00  0.00    -0.373 C  
HETATM   31  C   UNL     1     -10.938  14.196  67.015  1.00  0.00    -0.303 C  
ENDBRANCH  15  17
ENDBRANCH   6  15
ENDBRANCH   4   6
ENDBRANCH   3   4
ENDBRANCH   2   3
TORSDOF 8
ENDMDL
MODEL       41
REMARK 921   NORMALIZED FREE ENERGY PREDICTED BY IDOCK:   -6.23 KCAL/MOL
REMARK 922        TOTAL FREE ENERGY PREDICTED BY IDOCK:  -10.35 KCAL/MOL
REMARK 923 INTER-LIGAND FREE ENERGY PREDICTED BY IDOCK:   -9.33 KCAL/MOL
REMARK 924 INTRA-LIGAND FREE ENERGY PREDICTED BY IDOCK:   -1.02 KCAL/MOL
REMARK 927      BINDING AFFINITY PREDICTED BY RF-SCORE:    0.00 PKD
ROOT
HETATM    1  C   UNL     1     -10.027   8.571  66.548  1.00  0.00    -0.350 C  
HETATM    2  C   UNL     1      -9.602   9.872  65.896  1.00  0.00    -0.239 C  
ENDROOT
BRANCH   2   3
HETATM    3  O   UNL     1     -10.734  10.739  65.746  1.00  0.00    -0.179 OA 
BRANCH   3   4
HETATM    4  C   UNL     1     -10.445  12.042  65.469  1.00  0.00    -0.269 C  
HETATM    5  O   UNL     1     -10.163  12.486  64.359  1.00  0.00    -0.330 OA 
BRANCH   4   6
HETATM    6  C   UNL     1     -10.552  12.894  66.746  1.00  0.00    -0.257 C  
BRANCH   6   7
HETATM    7  C   UNL     1     -11.744  12.418  67.583  1.00  0.00    -0.412 C  
BRANCH   7   8
HETATM    8  C   UNL     1     -11.587  12.742  69.075  1.00  0.00    -0.366 C  
BRANCH   8   9
HETATM    9  C   UNL     1     -11.554  11.464  69.875  1.00  0.00    -0.402 A  
HETATM   10  C   UNL     1     -11.606   9.005  71.212  1.00  0.00    -0.387 A  
HETATM   11  C   UNL     1     -10.625   9.256  70.256  1.00  0.00    -0.278 A  
HETATM   12  C   UNL     1     -10.598  10.481  69.589  1.00  0.00    -0.281 A  
HETATM   13  C   UNL     1     -12.554   9.981  71.513  1.00  0.00    -0.525 A  
HETATM   14  C   UNL     1     -12.528  11.208  70.849  1.00  0.00    -0.509 A  
ENDBRANCH   8   9
ENDBRANCH   7   8
ENDBRANCH   6   7
BRANCH   6  15
HETATM   15  N   UNL     1     -10.646  14.307  66.331  1.00  0.00    -0.283 NA 
HETATM   16  H   UNL     1     -10.985  14.556  65.401  1.00  0.00     0.000 HD 
BRANCH  15  17
HETATM   17  C   UNL     1     -10.234  15.362  67.299  1.00  0.00    -0.254 C  
HETATM   18  O   UNL     1     -10.414  16.719  65.314  1.00  0.00    -0.630 OA 
HETATM   19  C   UNL     1      -9.147  14.773  68.190  1.00  0.00    -0.180 C  
HETATM   20  O   UNL     1      -7.392  20.526  65.270  1.00  0.00    -0.154 OA 
HETATM   21  O   UNL     1      -6.636  18.691  66.342  1.00  0.00    -0.182 OA 
HETATM   22  C   UNL     1      -8.763  15.648  69.368  1.00  0.00    -0.249 C  
HETATM   23  C   UNL     1      -9.863  16.608  66.422  1.00  0.00    -0.292 C  
HETATM   24  C   UNL     1      -7.894  16.797  68.919  1.00  0.00    -0.244 C  
HETATM   25  N   UNL     1      -8.612  17.830  68.205  1.00  0.00    -0.255 NA 
HETATM   26  C   UNL     1      -7.627  19.474  65.851  1.00  0.00    -0.292 C  
HETATM   27  C   UNL     1      -9.507  18.687  68.977  1.00  0.00    -0.189 C  
HETATM   28  N   UNL     1      -9.023  17.634  66.873  1.00  0.00    -0.239 N  
HETATM   29  C   UNL     1      -9.594  20.054  68.287  1.00  0.00    -0.381 C  
HETATM   30  C   UNL     1      -9.034  18.910  66.087  1.00  0.00    -0.157 C  
HETATM   31  C   UNL     1      -9.943  19.927  66.799  1.00  0.00    -0.569 C  
ENDBRANCH  15  17
ENDBRANCH   6  15
ENDBRANCH   4   6
ENDBRANCH   3   4
ENDBRANCH   2   3
TORSDOF 8
ENDMDL
MODEL       42
REMARK 921   NORMALIZED FREE ENERGY PREDICTED BY IDOCK:   -6.22 KCAL/MOL
REMARK 922        TOTAL FREE ENERGY PREDICTED BY IDOCK:  -10.34 KCAL/MOL
REMARK 923 INTER-LIGAND FREE ENERGY PREDICTED BY IDOCK:   -9.10 KCAL/MOL
REMARK 924 INTRA-LIGAND FREE ENERGY PREDICTED BY IDOCK:   -1.24 KCAL/MOL
REMARK 927      BINDING AFFINITY PREDICTED BY RF-SCORE:    0.00 PKD
ROOT
HETATM    1  C   UNL     1     -13.593  15.640  72.733  1.00  0.00    -0.678 C  
HETATM    2  C   UNL     1     -13.697  14.776  71.492  1.00  0.00    -0.432 C  
ENDROOT
BRANCH   2   3
HETATM    3  O   UNL     1     -12.502  13.999  71.334  1.00  0.00    -0.346 OA 
BRANCH   3   4
HETATM    4  C   UNL     1     -11.667  14.399  70.332  1.00  0.00    -0.280 C  
HETATM    5  O   UNL     1     -11.097  15.484  70.275  1.00  0.00    -0.274 OA 
BRANCH   4   6
HETATM    6  C   UNL     1     -11.514  13.278  69.289  1.00  0.00    -0.288 C  
BRANCH   6   7
HETATM    7  C   UNL     1     -12.128  13.725  67.958  1.00  0.00    -0.315 C  
BRANCH   7   8
HETATM    8  C   UNL     1     -11.175  13.534  66.771  1.00  0.00    -0.327 C  
BRANCH   8   9
HETATM    9  C   UNL     1     -10.092  14.583  66.810  1.00  0.00    -0.264 A  
HETATM   10  C   UNL     1      -8.033  16.477  66.691  1.00  0.00    -0.320 A  
HETATM   11  C   UNL     1      -9.307  16.803  66.231  1.00  0.00    -0.310 A  
HETATM   12  C   UNL     1     -10.334  15.861  66.290  1.00  0.00    -0.324 A  
HETATM   13  C   UNL     1      -7.786  15.212  67.222  1.00  0.00    -0.241 A  
HETATM   14  C   UNL     1      -8.812  14.268  67.285  1.00  0.00    -0.224 A  
ENDBRANCH   8   9
ENDBRANCH   7   8
ENDBRANCH   6   7
BRANCH   6  15
HETATM   15  N   UNL     1     -12.136  12.062  69.849  1.00  0.00    -0.290 NA 
HETATM   16  H   UNL     1     -12.975  12.124  70.426  1.00  0.00     0.000 HD 
BRANCH  15  17
HETATM   17  C   UNL     1     -11.511  10.742  69.554  1.00  0.00    -0.294 C  
HETATM   18  O   UNL     1     -12.579  10.196  71.645  1.00  0.00    -0.381 OA 
HETATM   19  C   UNL     1     -10.109  11.004  69.016  1.00  0.00    -0.197 C  
HETATM   20  O   UNL     1     -10.248   6.776  74.193  1.00  0.00    -0.344 OA 
HETATM   21  O   UNL     1      -8.940   8.120  72.939  1.00  0.00    -0.212 OA 
HETATM   22  C   UNL     1      -9.410   9.774  68.469  1.00  0.00    -0.142 C  
HETATM   23  C   UNL     1     -11.642   9.915  70.880  1.00  0.00    -0.373 C  
HETATM   24  C   UNL     1      -8.911   8.900  69.592  1.00  0.00    -0.142 C  
HETATM   25  N   UNL     1      -9.957   8.172  70.278  1.00  0.00    -0.188 NA 
HETATM   26  C   UNL     1     -10.125   7.534  73.241  1.00  0.00    -0.331 C  
HETATM   27  C   UNL     1     -10.585   7.062  69.567  1.00  0.00    -0.234 C  
HETATM   28  N   UNL     1     -10.815   8.826  71.183  1.00  0.00    -0.249 N  
HETATM   29  C   UNL     1     -11.080   6.038  70.597  1.00  0.00    -0.371 C  
HETATM   30  C   UNL     1     -11.266   7.924  72.291  1.00  0.00    -0.331 C  
HETATM   31  C   UNL     1     -11.948   6.686  71.682  1.00  0.00    -0.395 C  
ENDBRANCH  15  17
ENDBRANCH   6  15
ENDBRANCH   4   6
ENDBRANCH   3   4
ENDBRANCH   2   3
TORSDOF 8
ENDMDL
MODEL       43
REMARK 921   NORMALIZED FREE ENERGY PREDICTED BY IDOCK:   -6.20 KCAL/MOL
REMARK 922        TOTAL FREE ENERGY PREDICTED BY IDOCK:  -10.32 KCAL/MOL
REMARK 923 INTER-LIGAND FREE ENERGY PREDICTED BY IDOCK:   -8.64 KCAL/MOL
REMARK 924 INTRA-LIGAND FREE ENERGY PREDICTED BY IDOCK:   -1.67 KCAL/MOL
REMARK 927      BINDING AFFINITY PREDICTED BY RF-SCORE:    0.00 PKD
ROOT
HETATM    1  C   UNL     1      -6.240  16.860  67.551  1.00  0.00    -0.180 C  
HETATM    2  C   UNL     1      -6.830  18.241  67.346  1.00  0.00    -0.197 C  
ENDROOT
BRANCH   2   3
HETATM    3  O   UNL     1      -7.947  18.169  66.450  1.00  0.00    -0.256 OA 
BRANCH   3   4
HETATM    4  C   UNL     1      -9.096  18.757  66.892  1.00  0.00    -0.300 C  
HETATM    5  O   UNL     1      -9.176  19.880  67.381  1.00  0.00    -0.322 OA 
BRANCH   4   6
HETATM    6  C   UNL     1     -10.294  17.819  66.662  1.00  0.00    -0.345 C  
BRANCH   6   7
HETATM    7  C   UNL     1     -10.978  17.520  68.001  1.00  0.00    -0.138 C  
BRANCH   7   8
HETATM    8  C   UNL     1     -10.078  16.732  68.962  1.00  0.00    -0.283 C  
BRANCH   8   9
HETATM    9  C   UNL     1     -10.922  15.838  69.836  1.00  0.00    -0.335 A  
HETATM   10  C   UNL     1     -12.651  14.232  71.342  1.00  0.00    -0.434 A  
HETATM   11  C   UNL     1     -12.058  13.724  70.189  1.00  0.00    -0.429 A  
HETATM   12  C   UNL     1     -11.196  14.523  69.437  1.00  0.00    -0.312 A  
HETATM   13  C   UNL     1     -12.375  15.534  71.754  1.00  0.00    -0.475 A  
HETATM   14  C   UNL     1     -11.512  16.335  71.005  1.00  0.00    -0.343 A  
ENDBRANCH   8   9
ENDBRANCH   7   8
ENDBRANCH   6   7
BRANCH   6  15
HETATM   15  N   UNL     1      -9.791  16.616  65.973  1.00  0.00    -0.414 NA 
HETATM   16  H   UNL     1      -8.906  16.638  65.465  1.00  0.00     0.000 HD 
BRANCH  15  17
HETATM   17  C   UNL     1     -10.603  15.367  66.034  1.00  0.00    -0.322 C  
HETATM   18  O   UNL     1      -8.537  14.520  66.946  1.00  0.00    -0.216 OA 
HETATM   19  C   UNL     1     -11.409  15.277  64.743  1.00  0.00    -0.396 C  
HETATM   20  O   UNL     1      -7.788   9.806  66.032  1.00  0.00    -0.104 OA 
HETATM   21  O   UNL     1      -8.925  10.939  64.447  1.00  0.00    -0.179 OA 
HETATM   22  C   UNL     1     -12.448  14.172  64.732  1.00  0.00    -0.395 C  
HETATM   23  C   UNL     1      -9.578  14.220  66.336  1.00  0.00    -0.298 C  
HETATM   24  C   UNL     1     -11.795  12.828  64.522  1.00  0.00    -0.379 C  
HETATM   25  N   UNL     1     -11.080  12.336  65.680  1.00  0.00    -0.305 NA 
HETATM   26  C   UNL     1      -8.486  10.761  65.717  1.00  0.00    -0.174 C  
HETATM   27  C   UNL     1     -11.872  11.879  66.818  1.00  0.00    -0.087 C  
HETATM   28  N   UNL     1      -9.830  12.875  66.038  1.00  0.00    -0.268 N  
HETATM   29  C   UNL     1     -11.075  10.805  67.571  1.00  0.00    -0.374 C  
HETATM   30  C   UNL     1      -8.938  11.861  66.687  1.00  0.00    -0.198 C  
HETATM   31  C   UNL     1      -9.657  11.276  67.915  1.00  0.00    -0.182 C  
ENDBRANCH  15  17
ENDBRANCH   6  15
ENDBRANCH   4   6
ENDBRANCH   3   4
ENDBRANCH   2   3
TORSDOF 8
ENDMDL
MODEL       44
REMARK 921   NORMALIZED FREE ENERGY PREDICTED BY IDOCK:   -6.18 KCAL/MOL
REMARK 922        TOTAL FREE ENERGY PREDICTED BY IDOCK:  -10.28 KCAL/MOL
REMARK 923 INTER-LIGAND FREE ENERGY PREDICTED BY IDOCK:   -8.50 KCAL/MOL
REMARK 924 INTRA-LIGAND FREE ENERGY PREDICTED BY IDOCK:   -1.78 KCAL/MOL
REMARK 927      BINDING AFFINITY PREDICTED BY RF-SCORE:    0.00 PKD
ROOT
HETATM    1  C   UNL     1     -11.692  15.790  64.429  1.00  0.00    -0.201 C  
HETATM    2  C   UNL     1     -11.908  14.296  64.572  1.00  0.00    -0.442 C  
ENDROOT
BRANCH   2   3
HETATM    3  O   UNL     1     -10.651  13.609  64.500  1.00  0.00    -0.417 OA 
BRANCH   3   4
HETATM    4  C   UNL     1     -10.549  12.484  65.265  1.00  0.00    -0.290 C  
HETATM    5  O   UNL     1     -10.046  11.424  64.903  1.00  0.00    -0.244 OA 
BRANCH   4   6
HETATM    6  C   UNL     1     -11.131  12.740  66.666  1.00  0.00    -0.276 C  
BRANCH   6   7
HETATM    7  C   UNL     1     -10.052  13.348  67.568  1.00  0.00    -0.227 C  
BRANCH   7   8
HETATM    8  C   UNL     1     -10.535  14.604  68.306  1.00  0.00    -0.236 C  
BRANCH   8   9
HETATM    9  C   UNL     1     -10.023  15.838  67.606  1.00  0.00    -0.239 A  
HETATM   10  C   UNL     1      -8.950  18.158  66.466  1.00  0.00    -0.288 A  
HETATM   11  C   UNL     1      -8.326  16.929  66.260  1.00  0.00    -0.331 A  
HETATM   12  C   UNL     1      -8.861  15.772  66.828  1.00  0.00    -0.299 A  
HETATM   13  C   UNL     1     -10.114  18.232  67.228  1.00  0.00    -0.366 A  
HETATM   14  C   UNL     1     -10.652  17.075  67.795  1.00  0.00    -0.350 A  
ENDBRANCH   8   9
ENDBRANCH   7   8
ENDBRANCH   6   7
BRANCH   6  15
HETATM   15  N   UNL     1     -11.665  11.458  67.165  1.00  0.00    -0.544 NA 
HETATM   16  H   UNL     1     -12.336  10.923  66.613  1.00  0.00     0.000 HD 
BRANCH  15  17
HETATM   17  C   UNL     1     -11.205  10.963  68.494  1.00  0.00    -0.274 C  
HETATM   18  O   UNL     1     -10.383   9.165  67.113  1.00  0.00    -0.241 OA 
HETATM   19  C   UNL     1     -12.324  11.219  69.495  1.00  0.00    -0.243 C  
HETATM   20  O   UNL     1     -10.225   4.873  69.388  1.00  0.00    -0.223 OA 
HETATM   21  O   UNL     1     -11.880   6.262  70.038  1.00  0.00    -0.351 OA 
HETATM   22  C   UNL     1     -11.939  10.965  70.940  1.00  0.00    -0.416 C  
HETATM   23  C   UNL     1     -10.767   9.476  68.253  1.00  0.00    -0.194 C  
HETATM   24  C   UNL     1     -11.901   9.485  71.230  1.00  0.00    -0.373 C  
HETATM   25  N   UNL     1     -10.758   8.805  70.659  1.00  0.00    -0.216 NA 
HETATM   26  C   UNL     1     -10.670   6.009  69.481  1.00  0.00    -0.335 C  
HETATM   27  C   UNL     1      -9.453   9.053  71.265  1.00  0.00    -0.269 C  
HETATM   28  N   UNL     1     -10.700   8.527  69.280  1.00  0.00    -0.182 N  
HETATM   29  C   UNL     1      -8.571   7.816  71.054  1.00  0.00    -0.128 C  
HETATM   30  C   UNL     1      -9.943   7.267  68.986  1.00  0.00    -0.177 C  
HETATM   31  C   UNL     1      -8.530   7.381  69.584  1.00  0.00    -0.133 C  
ENDBRANCH  15  17
ENDBRANCH   6  15
ENDBRANCH   4   6
ENDBRANCH   3   4
ENDBRANCH   2   3
TORSDOF 8
ENDMDL
MODEL       45
REMARK 921   NORMALIZED FREE ENERGY PREDICTED BY IDOCK:   -6.14 KCAL/MOL
REMARK 922        TOTAL FREE ENERGY PREDICTED BY IDOCK:  -10.23 KCAL/MOL
REMARK 923 INTER-LIGAND FREE ENERGY PREDICTED BY IDOCK:   -9.03 KCAL/MOL
REMARK 924 INTRA-LIGAND FREE ENERGY PREDICTED BY IDOCK:   -1.19 KCAL/MOL
REMARK 927      BINDING AFFINITY PREDICTED BY RF-SCORE:    0.00 PKD
ROOT
HETATM    1  C   UNL     1      -9.086  16.403  66.193  1.00  0.00    -0.362 C  
HETATM    2  C   UNL     1      -9.878  15.277  65.556  1.00  0.00    -0.326 C  
ENDROOT
BRANCH   2   3
HETATM    3  O   UNL     1      -9.818  14.107  66.383  1.00  0.00    -0.276 OA 
BRANCH   3   4
HETATM    4  C   UNL     1     -10.727  13.133  66.092  1.00  0.00    -0.278 C  
HETATM    5  O   UNL     1     -10.763  12.484  65.051  1.00  0.00    -0.278 OA 
BRANCH   4   6
HETATM    6  C   UNL     1     -11.694  12.939  67.274  1.00  0.00    -0.373 C  
BRANCH   6   7
HETATM    7  C   UNL     1     -11.099  13.573  68.535  1.00  0.00    -0.300 C  
BRANCH   7   8
HETATM    8  C   UNL     1     -11.823  14.860  68.951  1.00  0.00    -0.334 C  
BRANCH   8   9
HETATM    9  C   UNL     1     -12.445  14.680  70.314  1.00  0.00    -0.401 A  
HETATM   10  C   UNL     1     -13.409  14.351  72.921  1.00  0.00    -0.575 A  
HETATM   11  C   UNL     1     -13.193  15.631  72.415  1.00  0.00    -0.559 A  
HETATM   12  C   UNL     1     -12.712  15.796  71.116  1.00  0.00    -0.488 A  
HETATM   13  C   UNL     1     -13.159  13.235  72.126  1.00  0.00    -0.486 A  
HETATM   14  C   UNL     1     -12.680  13.397  70.825  1.00  0.00    -0.301 A  
ENDBRANCH   8   9
ENDBRANCH   7   8
ENDBRANCH   6   7
BRANCH   6  15
HETATM   15  N   UNL     1     -11.952  11.492  67.403  1.00  0.00    -0.597 NA 
HETATM   16  H   UNL     1     -12.615  11.024  66.785  1.00  0.00     0.000 HD 
BRANCH  15  17
HETATM   17  C   UNL     1     -11.222  10.730  68.456  1.00  0.00    -0.279 C  
HETATM   18  O   UNL     1     -10.401   9.568  66.509  1.00  0.00    -0.242 OA 
HETATM   19  C   UNL     1     -12.191  10.493  69.609  1.00  0.00    -0.208 C  
HETATM   20  O   UNL     1      -9.310   4.904  67.335  1.00  0.00    -0.121 OA 
HETATM   21  O   UNL     1     -11.009   5.742  68.560  1.00  0.00    -0.242 OA 
HETATM   22  C   UNL     1     -11.548   9.912  70.854  1.00  0.00    -0.456 C  
HETATM   23  C   UNL     1     -10.634   9.473  67.726  1.00  0.00    -0.261 C  
HETATM   24  C   UNL     1     -11.267   8.440  70.672  1.00  0.00    -0.255 C  
HETATM   25  N   UNL     1     -10.151   8.161  69.795  1.00  0.00    -0.193 NA 
HETATM   26  C   UNL     1      -9.881   5.872  67.820  1.00  0.00    -0.124 C  
HETATM   27  C   UNL     1      -8.810   8.451  70.296  1.00  0.00    -0.142 C  
HETATM   28  N   UNL     1     -10.278   8.298  68.400  1.00  0.00    -0.205 N  
HETATM   29  C   UNL     1      -7.817   7.498  69.619  1.00  0.00    -0.119 C  
HETATM   30  C   UNL     1      -9.418   7.325  67.652  1.00  0.00    -0.131 C  
HETATM   31  C   UNL     1      -7.955   7.511  68.092  1.00  0.00    -0.123 C  
ENDBRANCH  15  17
ENDBRANCH   6  15
ENDBRANCH   4   6
ENDBRANCH   3   4
ENDBRANCH   2   3
TORSDOF 8
ENDMDL
MODEL       46
REMARK 921   NORMALIZED FREE ENERGY PREDICTED BY IDOCK:   -6.14 KCAL/MOL
REMARK 922        TOTAL FREE ENERGY PREDICTED BY IDOCK:  -10.22 KCAL/MOL
REMARK 923 INTER-LIGAND FREE ENERGY PREDICTED BY IDOCK:   -8.61 KCAL/MOL
REMARK 924 INTRA-LIGAND FREE ENERGY PREDICTED BY IDOCK:   -1.61 KCAL/MOL
REMARK 927      BINDING AFFINITY PREDICTED BY RF-SCORE:    0.00 PKD
ROOT
HETATM    1  C   UNL     1      -5.813  10.687  66.102  1.00  0.00    -0.112 C  
HETATM    2  C   UNL     1      -5.133  11.698  67.005  1.00  0.00    -0.103 C  
ENDROOT
BRANCH   2   3
HETATM    3  O   UNL     1      -5.983  12.836  67.195  1.00  0.00    -0.311 OA 
BRANCH   3   4
HETATM    4  C   UNL     1      -6.787  12.794  68.297  1.00  0.00    -0.090 C  
HETATM    5  O   UNL     1      -6.397  12.664  69.454  1.00  0.00    -0.104 OA 
BRANCH   4   6
HETATM    6  C   UNL     1      -8.260  12.965  67.887  1.00  0.00    -0.165 C  
BRANCH   6   7
HETATM    7  C   UNL     1      -8.842  11.607  67.480  1.00  0.00    -0.158 C  
BRANCH   7   8
HETATM    8  C   UNL     1     -10.376  11.608  67.436  1.00  0.00    -0.231 C  
BRANCH   8   9
HETATM    9  C   UNL     1     -10.847  11.869  66.027  1.00  0.00    -0.342 A  
HETATM   10  C   UNL     1     -11.576  12.500  63.399  1.00  0.00    -0.547 A  
HETATM   11  C   UNL     1     -10.567  11.569  63.637  1.00  0.00    -0.491 A  
HETATM   12  C   UNL     1     -10.203  11.254  64.947  1.00  0.00    -0.341 A  
HETATM   13  C   UNL     1     -12.232  13.108  64.468  1.00  0.00    -0.466 A  
HETATM   14  C   UNL     1     -11.870  12.793  65.779  1.00  0.00    -0.484 A  
ENDBRANCH   8   9
ENDBRANCH   7   8
ENDBRANCH   6   7
BRANCH   6  15
HETATM   15  N   UNL     1      -8.308  13.975  66.813  1.00  0.00    -0.412 NA 
HETATM   16  H   UNL     1      -7.778  13.845  65.951  1.00  0.00     0.000 HD 
BRANCH  15  17
HETATM   17  C   UNL     1      -9.148  15.189  67.014  1.00  0.00    -0.230 C  
HETATM   18  O   UNL     1      -7.118  16.254  66.267  1.00  0.00    -0.074 OA 
HETATM   19  C   UNL     1      -9.934  14.998  68.305  1.00  0.00    -0.225 C  
HETATM   20  O   UNL     1      -6.457  20.705  68.103  1.00  0.00    -0.293 OA 
HETATM   21  O   UNL     1      -7.543  19.248  69.440  1.00  0.00    -0.242 OA 
HETATM   22  C   UNL     1     -10.997  16.052  68.551  1.00  0.00    -0.326 C  
HETATM   23  C   UNL     1      -8.154  16.400  66.936  1.00  0.00    -0.226 C  
HETATM   24  C   UNL     1     -10.371  17.342  69.020  1.00  0.00    -0.319 C  
HETATM   25  N   UNL     1      -9.687  18.075  67.977  1.00  0.00    -0.296 NA 
HETATM   26  C   UNL     1      -7.129  19.689  68.227  1.00  0.00    -0.302 C  
HETATM   27  C   UNL     1     -10.507  18.732  66.963  1.00  0.00    -0.416 C  
HETATM   28  N   UNL     1      -8.431  17.650  67.503  1.00  0.00    -0.217 N  
HETATM   29  C   UNL     1      -9.746  19.954  66.433  1.00  0.00    -0.558 C  
HETATM   30  C   UNL     1      -7.572  18.796  67.061  1.00  0.00    -0.229 C  
HETATM   31  C   UNL     1      -8.325  19.597  65.984  1.00  0.00    -0.294 C  
ENDBRANCH  15  17
ENDBRANCH   6  15
ENDBRANCH   4   6
ENDBRANCH   3   4
ENDBRANCH   2   3
TORSDOF 8
ENDMDL
MODEL       47
REMARK 921   NORMALIZED FREE ENERGY PREDICTED BY IDOCK:   -6.09 KCAL/MOL
REMARK 922        TOTAL FREE ENERGY PREDICTED BY IDOCK:  -10.14 KCAL/MOL
REMARK 923 INTER-LIGAND FREE ENERGY PREDICTED BY IDOCK:   -8.62 KCAL/MOL
REMARK 924 INTRA-LIGAND FREE ENERGY PREDICTED BY IDOCK:   -1.52 KCAL/MOL
REMARK 927      BINDING AFFINITY PREDICTED BY RF-SCORE:    0.00 PKD
ROOT
HETATM    1  C   UNL     1      -9.699   7.276  66.763  1.00  0.00    -0.260 C  
HETATM    2  C   UNL     1      -9.386   8.722  66.431  1.00  0.00    -0.204 C  
ENDROOT
BRANCH   2   3
HETATM    3  O   UNL     1     -10.519   9.549  66.726  1.00  0.00    -0.239 OA 
BRANCH   3   4
HETATM    4  C   UNL     1     -10.240  10.734  67.341  1.00  0.00    -0.204 C  
HETATM    5  O   UNL     1      -9.436  11.570  66.939  1.00  0.00    -0.177 OA 
BRANCH   4   6
HETATM    6  C   UNL     1     -11.104  10.894  68.604  1.00  0.00    -0.252 C  
BRANCH   6   7
HETATM    7  C   UNL     1     -11.884  12.210  68.532  1.00  0.00    -0.365 C  
BRANCH   7   8
HETATM    8  C   UNL     1     -11.216  13.340  69.326  1.00  0.00    -0.266 C  
BRANCH   8   9
HETATM    9  C   UNL     1     -12.141  13.813  70.420  1.00  0.00    -0.421 A  
HETATM   10  C   UNL     1     -14.015  14.647  72.325  1.00  0.00    -0.589 A  
HETATM   11  C   UNL     1     -13.646  13.306  72.253  1.00  0.00    -0.703 A  
HETATM   12  C   UNL     1     -12.712  12.889  71.304  1.00  0.00    -0.371 A  
HETATM   13  C   UNL     1     -13.443  15.576  71.458  1.00  0.00    -0.582 A  
HETATM   14  C   UNL     1     -12.507  15.162  70.509  1.00  0.00    -0.429 A  
ENDBRANCH   8   9
ENDBRANCH   7   8
ENDBRANCH   6   7
BRANCH   6  15
HETATM   15  N   UNL     1     -10.205  10.802  69.771  1.00  0.00    -0.448 NA 
HETATM   16  H   UNL     1      -9.392  11.413  69.852  1.00  0.00     0.000 HD 
BRANCH  15  17
HETATM   17  C   UNL     1     -10.510   9.796  70.828  1.00  0.00    -0.269 C  
HETATM   18  O   UNL     1      -8.483   8.825  69.955  1.00  0.00    -0.121 OA 
HETATM   19  C   UNL     1     -12.012   9.535  70.798  1.00  0.00    -0.326 C  
HETATM   20  O   UNL     1      -8.316   3.983  70.336  1.00  0.00    -0.061 OA 
HETATM   21  O   UNL     1     -10.369   4.868  70.030  1.00  0.00    -0.268 OA 
HETATM   22  C   UNL     1     -12.522   8.692  71.950  1.00  0.00    -0.412 C  
HETATM   23  C   UNL     1      -9.553   8.587  70.540  1.00  0.00    -0.170 C  
HETATM   24  C   UNL     1     -12.177   7.237  71.741  1.00  0.00    -0.334 C  
HETATM   25  N   UNL     1     -10.778   6.931  71.951  1.00  0.00    -0.216 NA 
HETATM   26  C   UNL     1      -9.073   4.941  70.420  1.00  0.00    -0.126 C  
HETATM   27  C   UNL     1     -10.283   6.948  73.325  1.00  0.00    -0.258 C  
HETATM   28  N   UNL     1      -9.810   7.288  70.993  1.00  0.00    -0.183 N  
HETATM   29  C   UNL     1      -9.105   5.970  73.433  1.00  0.00    -0.131 C  
HETATM   30  C   UNL     1      -8.665   6.321  70.954  1.00  0.00    -0.136 C  
HETATM   31  C   UNL     1      -8.043   6.227  72.358  1.00  0.00    -0.104 C  
ENDBRANCH  15  17
ENDBRANCH   6  15
ENDBRANCH   4   6
ENDBRANCH   3   4
ENDBRANCH   2   3
TORSDOF 8
ENDMDL
MODEL       48
REMARK 921   NORMALIZED FREE ENERGY PREDICTED BY IDOCK:   -6.08 KCAL/MOL
REMARK 922        TOTAL FREE ENERGY PREDICTED BY IDOCK:  -10.13 KCAL/MOL
REMARK 923 INTER-LIGAND FREE ENERGY PREDICTED BY IDOCK:   -8.81 KCAL/MOL
REMARK 924 INTRA-LIGAND FREE ENERGY PREDICTED BY IDOCK:   -1.33 KCAL/MOL
REMARK 927      BINDING AFFINITY PREDICTED BY RF-SCORE:    0.00 PKD
ROOT
HETATM    1  C   UNL     1     -12.520  10.661  71.326  1.00  0.00    -0.515 C  
HETATM    2  C   UNL     1     -11.281   9.965  70.797  1.00  0.00    -0.353 C  
ENDROOT
BRANCH   2   3
HETATM    3  O   UNL     1     -11.193  10.133  69.375  1.00  0.00    -0.230 OA 
BRANCH   3   4
HETATM    4  C   UNL     1      -9.949   9.978  68.839  1.00  0.00    -0.192 C  
HETATM    5  O   UNL     1      -8.896  10.001  69.472  1.00  0.00    -0.175 OA 
BRANCH   4   6
HETATM    6  C   UNL     1     -10.049   9.740  67.323  1.00  0.00    -0.207 C  
BRANCH   6   7
HETATM    7  C   UNL     1      -9.603   8.311  66.996  1.00  0.00    -0.249 C  
BRANCH   7   8
HETATM    8  C   UNL     1     -10.760   7.303  67.041  1.00  0.00    -0.406 C  
BRANCH   8   9
HETATM    9  C   UNL     1     -10.541   6.323  68.166  1.00  0.00    -0.318 A  
HETATM   10  C   UNL     1     -10.001   4.637  70.335  1.00  0.00    -0.300 A  
HETATM   11  C   UNL     1     -10.979   5.623  70.446  1.00  0.00    -0.278 A  
HETATM   12  C   UNL     1     -11.249   6.464  69.366  1.00  0.00    -0.459 A  
HETATM   13  C   UNL     1      -9.301   4.481  69.140  1.00  0.00    -0.214 A  
HETATM   14  C   UNL     1      -9.570   5.319  68.057  1.00  0.00    -0.163 A  
ENDBRANCH   8   9
ENDBRANCH   7   8
ENDBRANCH   6   7
BRANCH   6  15
HETATM   15  N   UNL     1      -9.242  10.779  66.655  1.00  0.00    -0.163 NA 
HETATM   16  H   UNL     1      -8.224  10.714  66.632  1.00  0.00     0.000 HD 
BRANCH  15  17
HETATM   17  C   UNL     1      -9.946  11.927  66.016  1.00  0.00    -0.232 C  
HETATM   18  O   UNL     1      -8.576  13.147  67.581  1.00  0.00    -0.168 OA 
HETATM   19  C   UNL     1     -11.407  11.531  65.838  1.00  0.00    -0.174 C  
HETATM   20  O   UNL     1     -10.575  17.311  69.092  1.00  0.00    -0.320 OA 
HETATM   21  O   UNL     1     -12.024  15.648  68.620  1.00  0.00    -0.336 OA 
HETATM   22  C   UNL     1     -12.221  12.506  65.010  1.00  0.00    -0.519 C  
HETATM   23  C   UNL     1      -9.631  13.165  66.925  1.00  0.00    -0.248 C  
HETATM   24  C   UNL     1     -12.562  13.736  65.816  1.00  0.00    -0.480 C  
HETATM   25  N   UNL     1     -11.443  14.629  66.024  1.00  0.00    -0.342 NA 
HETATM   26  C   UNL     1     -10.825  16.269  68.502  1.00  0.00    -0.330 C  
HETATM   27  C   UNL     1     -10.971  15.398  64.876  1.00  0.00    -0.437 C  
HETATM   28  N   UNL     1     -10.432  14.314  66.951  1.00  0.00    -0.271 N  
HETATM   29  C   UNL     1     -10.350  16.705  65.384  1.00  0.00    -0.214 C  
HETATM   30  C   UNL     1      -9.838  15.537  67.582  1.00  0.00    -0.213 C  
HETATM   31  C   UNL     1      -9.300  16.459  66.474  1.00  0.00    -0.300 C  
ENDBRANCH  15  17
ENDBRANCH   6  15
ENDBRANCH   4   6
ENDBRANCH   3   4
ENDBRANCH   2   3
TORSDOF 8
ENDMDL
MODEL       49
REMARK 921   NORMALIZED FREE ENERGY PREDICTED BY IDOCK:   -6.07 KCAL/MOL
REMARK 922        TOTAL FREE ENERGY PREDICTED BY IDOCK:  -10.13 KCAL/MOL
REMARK 923 INTER-LIGAND FREE ENERGY PREDICTED BY IDOCK:   -9.03 KCAL/MOL
REMARK 924 INTRA-LIGAND FREE ENERGY PREDICTED BY IDOCK:   -1.10 KCAL/MOL
REMARK 927      BINDING AFFINITY PREDICTED BY RF-SCORE:    0.00 PKD
ROOT
HETATM    1  C   UNL     1     -12.431  11.772  63.335  1.00  0.00    -0.490 C  
HETATM    2  C   UNL     1     -11.262  12.587  63.852  1.00  0.00    -0.436 C  
ENDROOT
BRANCH   2   3
HETATM    3  O   UNL     1     -11.667  13.946  64.065  1.00  0.00    -0.370 OA 
BRANCH   3   4
HETATM    4  C   UNL     1     -12.425  14.166  65.178  1.00  0.00    -0.439 C  
HETATM    5  O   UNL     1     -13.552  13.719  65.369  1.00  0.00    -0.517 OA 
BRANCH   4   6
HETATM    6  C   UNL     1     -11.652  15.037  66.183  1.00  0.00    -0.159 C  
BRANCH   6   7
HETATM    7  C   UNL     1     -10.432  15.659  65.495  1.00  0.00    -0.426 C  
BRANCH   7   8
HETATM    8  C   UNL     1     -10.545  17.182  65.350  1.00  0.00    -0.116 C  
BRANCH   8   9
HETATM    9  C   UNL     1     -10.035  17.854  66.601  1.00  0.00    -0.355 A  
HETATM   10  C   UNL     1      -8.977  19.224  68.801  1.00  0.00    -0.399 A  
HETATM   11  C   UNL     1     -10.117  19.708  68.162  1.00  0.00    -0.556 A  
HETATM   12  C   UNL     1     -10.645  19.026  67.066  1.00  0.00    -0.543 A  
HETATM   13  C   UNL     1      -8.371  18.051  68.354  1.00  0.00    -0.305 A  
HETATM   14  C   UNL     1      -8.898  17.366  67.258  1.00  0.00    -0.238 A  
ENDBRANCH   8   9
ENDBRANCH   7   8
ENDBRANCH   6   7
BRANCH   6  15
HETATM   15  N   UNL     1     -11.309  14.185  67.338  1.00  0.00    -0.311 NA 
HETATM   16  H   UNL     1     -11.804  14.284  68.225  1.00  0.00     0.000 HD 
BRANCH  15  17
HETATM   17  C   UNL     1     -10.224  13.175  67.181  1.00  0.00    -0.244 C  
HETATM   18  O   UNL     1     -12.069  11.684  67.617  1.00  0.00    -0.615 OA 
HETATM   19  C   UNL     1      -8.989  13.710  67.895  1.00  0.00    -0.195 C  
HETATM   20  O   UNL     1     -10.765   7.567  69.848  1.00  0.00    -0.240 OA 
HETATM   21  O   UNL     1      -9.538   9.388  70.364  1.00  0.00    -0.230 OA 
HETATM   22  C   UNL     1      -7.729  12.900  67.655  1.00  0.00    -0.162 C  
HETATM   23  C   UNL     1     -10.836  11.825  67.693  1.00  0.00    -0.217 C  
HETATM   24  C   UNL     1      -7.752  11.625  68.462  1.00  0.00    -0.134 C  
HETATM   25  N   UNL     1      -8.662  10.624  67.951  1.00  0.00    -0.126 NA 
HETATM   26  C   UNL     1     -10.363   8.684  69.551  1.00  0.00    -0.214 C  
HETATM   27  C   UNL     1      -8.291   9.944  66.713  1.00  0.00    -0.125 C  
HETATM   28  N   UNL     1     -10.052  10.752  68.134  1.00  0.00    -0.160 N  
HETATM   29  C   UNL     1      -8.914   8.541  66.718  1.00  0.00    -0.173 C  
HETATM   30  C   UNL     1     -10.735   9.423  68.258  1.00  0.00    -0.171 C  
HETATM   31  C   UNL     1     -10.419   8.581  67.010  1.00  0.00    -0.362 C  
ENDBRANCH  15  17
ENDBRANCH   6  15
ENDBRANCH   4   6
ENDBRANCH   3   4
ENDBRANCH   2   3
TORSDOF 8
ENDMDL
MODEL       50
REMARK 921   NORMALIZED FREE ENERGY PREDICTED BY IDOCK:   -5.95 KCAL/MOL
REMARK 922        TOTAL FREE ENERGY PREDICTED BY IDOCK:   -9.95 KCAL/MOL
REMARK 923 INTER-LIGAND FREE ENERGY PREDICTED BY IDOCK:   -8.99 KCAL/MOL
REMARK 924 INTRA-LIGAND FREE ENERGY PREDICTED BY IDOCK:   -0.95 KCAL/MOL
REMARK 927      BINDING AFFINITY PREDICTED BY RF-SCORE:    0.00 PKD
ROOT
HETATM    1  C   UNL     1      -8.925   2.906  67.025  1.00  0.00    -0.177 C  
HETATM    2  C   UNL     1      -8.587   4.356  67.313  1.00  0.00    -0.104 C  
ENDROOT
BRANCH   2   3
HETATM    3  O   UNL     1      -9.540   4.909  68.231  1.00  0.00    -0.131 OA 
BRANCH   3   4
HETATM    4  C   UNL     1     -10.271   5.959  67.759  1.00  0.00    -0.182 C  
HETATM    5  O   UNL     1     -11.092   5.900  66.848  1.00  0.00    -0.263 OA 
BRANCH   4   6
HETATM    6  C   UNL     1      -9.943   7.235  68.555  1.00  0.00    -0.162 C  
BRANCH   6   7
HETATM    7  C   UNL     1     -10.173   6.984  70.048  1.00  0.00    -0.206 C  
BRANCH   7   8
HETATM    8  C   UNL     1     -11.630   6.623  70.371  1.00  0.00    -0.457 C  
BRANCH   8   9
HETATM    9  C   UNL     1     -12.288   7.762  71.109  1.00  0.00    -0.268 A  
HETATM   10  C   UNL     1     -13.603   9.926  72.302  1.00  0.00    -0.337 A  
HETATM   11  C   UNL     1     -14.226   8.681  72.240  1.00  0.00    -0.497 A  
HETATM   12  C   UNL     1     -13.571   7.602  71.645  1.00  0.00    -0.431 A  
HETATM   13  C   UNL     1     -12.321  10.092  71.783  1.00  0.00    -0.434 A  
HETATM   14  C   UNL     1     -11.663   9.013  71.189  1.00  0.00    -0.366 A  
ENDBRANCH   8   9
ENDBRANCH   7   8
ENDBRANCH   6   7
BRANCH   6  15
HETATM   15  N   UNL     1     -10.769   8.326  68.004  1.00  0.00    -0.447 NA 
HETATM   16  H   UNL     1     -11.782   8.326  68.124  1.00  0.00     0.000 HD 
BRANCH  15  17
HETATM   17  C   UNL     1     -10.090   9.431  67.267  1.00  0.00    -0.226 C  
HETATM   18  O   UNL     1     -11.938  10.673  68.194  1.00  0.00    -0.460 OA 
HETATM   19  C   UNL     1      -9.641   8.879  65.919  1.00  0.00    -0.293 C  
HETATM   20  O   UNL     1     -13.340  14.428  65.445  1.00  0.00    -0.568 OA 
HETATM   21  O   UNL     1     -12.526  12.648  64.324  1.00  0.00    -0.510 OA 
HETATM   22  C   UNL     1      -8.748   9.815  65.128  1.00  0.00    -0.192 C  
HETATM   23  C   UNL     1     -11.114  10.619  67.265  1.00  0.00    -0.243 C  
HETATM   24  C   UNL     1      -9.558  10.924  64.502  1.00  0.00    -0.264 C  
HETATM   25  N   UNL     1     -10.009  11.924  65.446  1.00  0.00    -0.249 NA 
HETATM   26  C   UNL     1     -12.653  13.416  65.434  1.00  0.00    -0.475 C  
HETATM   27  C   UNL     1      -9.008  12.837  65.992  1.00  0.00     0.259 C  
HETATM   28  N   UNL     1     -11.074  11.657  66.326  1.00  0.00    -0.304 N  
HETATM   29  C   UNL     1      -9.694  14.163  66.345  1.00  0.00    -0.313 C  
HETATM   30  C   UNL     1     -11.872  12.885  66.644  1.00  0.00    -0.395 C  
HETATM   31  C   UNL     1     -10.931  13.954  67.227  1.00  0.00    -0.299 C  
ENDBRANCH  15  17
ENDBRANCH   6  15
ENDBRANCH   4   6
ENDBRANCH   3   4
ENDBRANCH   2   3
TORSDOF 8
ENDMDL
MODEL       51
REMARK 921   NORMALIZED FREE ENERGY PREDICTED BY IDOCK:   -5.92 KCAL/MOL
REMARK 922        TOTAL FREE ENERGY PREDICTED BY IDOCK:   -9.90 KCAL/MOL
REMARK 923 INTER-LIGAND FREE ENERGY PREDICTED BY IDOCK:   -9.18 KCAL/MOL
REMARK 924 INTRA-LIGAND FREE ENERGY PREDICTED BY IDOCK:   -0.72 KCAL/MOL
REMARK 927      BINDING AFFINITY PREDICTED BY RF-SCORE:    0.00 PKD
ROOT
HETATM    1  C   UNL     1      -9.979  10.810  63.171  1.00  0.00    -0.341 C  
HETATM    2  C   UNL     1     -10.399  12.204  63.595  1.00  0.00    -0.452 C  
ENDROOT
BRANCH   2   3
HETATM    3  O   UNL     1     -10.504  12.272  65.023  1.00  0.00    -0.273 OA 
BRANCH   3   4
HETATM    4  C   UNL     1     -11.773  12.264  65.521  1.00  0.00    -0.377 C  
HETATM    5  O   UNL     1     -12.798  12.392  64.857  1.00  0.00    -0.711 OA 
BRANCH   4   6
HETATM    6  C   UNL     1     -11.745  12.038  67.043  1.00  0.00    -0.267 C  
BRANCH   6   7
HETATM    7  C   UNL     1     -11.665  13.388  67.763  1.00  0.00    -0.394 C  
BRANCH   7   8
HETATM    8  C   UNL     1     -11.972  14.573  66.837  1.00  0.00    -0.371 C  
BRANCH   8   9
HETATM    9  C   UNL     1     -10.883  15.610  66.955  1.00  0.00    -0.294 A  
HETATM   10  C   UNL     1      -8.761  17.404  67.296  1.00  0.00    -0.232 A  
HETATM   11  C   UNL     1      -8.712  16.453  66.279  1.00  0.00    -0.369 A  
HETATM   12  C   UNL     1      -9.769  15.558  66.108  1.00  0.00    -0.348 A  
HETATM   13  C   UNL     1      -9.871  17.472  68.136  1.00  0.00    -0.306 A  
HETATM   14  C   UNL     1     -10.931  16.579  67.966  1.00  0.00    -0.320 A  
ENDBRANCH   8   9
ENDBRANCH   7   8
ENDBRANCH   6   7
BRANCH   6  15
HETATM   15  N   UNL     1     -10.611  11.142  67.338  1.00  0.00    -0.220 NA 
HETATM   16  H   UNL     1      -9.649  11.460  67.213  1.00  0.00     0.000 HD 
BRANCH  15  17
HETATM   17  C   UNL     1     -10.899   9.762  67.823  1.00  0.00    -0.246 C  
HETATM   18  O   UNL     1     -10.743  10.886  69.951  1.00  0.00    -0.206 OA 
HETATM   19  C   UNL     1     -10.082   8.795  66.975  1.00  0.00    -0.335 C  
HETATM   20  O   UNL     1      -9.156   8.035  73.553  1.00  0.00    -0.269 OA 
HETATM   21  O   UNL     1      -8.334   7.569  71.504  1.00  0.00    -0.105 OA 
HETATM   22  C   UNL     1     -10.418   7.333  67.198  1.00  0.00    -0.394 C  
HETATM   23  C   UNL     1     -10.619   9.797  69.366  1.00  0.00    -0.228 C  
HETATM   24  C   UNL     1      -9.821   6.839  68.493  1.00  0.00    -0.141 C  
HETATM   25  N   UNL     1     -10.503   7.322  69.674  1.00  0.00    -0.225 NA 
HETATM   26  C   UNL     1      -9.266   8.097  72.335  1.00  0.00    -0.226 C  
HETATM   27  C   UNL     1     -11.824   6.769  69.964  1.00  0.00    -0.206 C  
HETATM   28  N   UNL     1     -10.334   8.649  70.114  1.00  0.00    -0.202 N  
HETATM   29  C   UNL     1     -12.052   6.814  71.481  1.00  0.00    -0.410 C  
HETATM   30  C   UNL     1     -10.434   8.772  71.604  1.00  0.00    -0.317 C  
HETATM   31  C   UNL     1     -11.792   8.210  72.061  1.00  0.00    -0.392 C  
ENDBRANCH  15  17
ENDBRANCH   6  15
ENDBRANCH   4   6
ENDBRANCH   3   4
ENDBRANCH   2   3
TORSDOF 8
ENDMDL
MODEL       52
REMARK 921   NORMALIZED FREE ENERGY PREDICTED BY IDOCK:   -5.90 KCAL/MOL
REMARK 922        TOTAL FREE ENERGY PREDICTED BY IDOCK:   -9.87 KCAL/MOL
REMARK 923 INTER-LIGAND FREE ENERGY PREDICTED BY IDOCK:   -8.66 KCAL/MOL
REMARK 924 INTRA-LIGAND FREE ENERGY PREDICTED BY IDOCK:   -1.21 KCAL/MOL
REMARK 927      BINDING AFFINITY PREDICTED BY RF-SCORE:    0.00 PKD
ROOT
HETATM    1  C   UNL     1     -10.183   6.669  74.017  1.00  0.00    -0.395 C  
HETATM    2  C   UNL     1     -11.207   6.778  72.904  1.00  0.00    -0.198 C  
ENDROOT
BRANCH   2   3
HETATM    3  O   UNL     1     -11.597   8.147  72.728  1.00  0.00    -0.411 OA 
BRANCH   3   4
HETATM    4  C   UNL     1     -12.395   8.398  71.651  1.00  0.00    -0.320 C  
HETATM    5  O   UNL     1     -13.495   7.892  71.449  1.00  0.00    -0.312 OA 
BRANCH   4   6
HETATM    6  C   UNL     1     -11.732   9.438  70.730  1.00  0.00    -0.282 C  
BRANCH   6   7
HETATM    7  C   UNL     1     -12.685  10.620  70.518  1.00  0.00    -0.395 C  
BRANCH   7   8
HETATM    8  C   UNL     1     -13.037  11.339  71.826  1.00  0.00    -0.527 C  
BRANCH   8   9
HETATM    9  C   UNL     1     -13.050  12.831  71.602  1.00  0.00    -0.428 A  
HETATM   10  C   UNL     1     -13.235  15.571  71.061  1.00  0.00    -0.539 A  
HETATM   11  C   UNL     1     -13.992  15.012  72.088  1.00  0.00    -0.610 A  
HETATM   12  C   UNL     1     -13.901  13.647  72.359  1.00  0.00    -0.691 A  
HETATM   13  C   UNL     1     -12.376  14.770  70.311  1.00  0.00    -0.400 A  
HETATM   14  C   UNL     1     -12.282  13.404  70.581  1.00  0.00    -0.427 A  
ENDBRANCH   8   9
ENDBRANCH   7   8
ENDBRANCH   6   7
BRANCH   6  15
HETATM   15  N   UNL     1     -11.356   8.749  69.480  1.00  0.00    -0.423 NA 
HETATM   16  H   UNL     1     -11.983   8.750  68.675  1.00  0.00     0.000 HD 
BRANCH  15  17
HETATM   17  C   UNL     1     -10.041   8.051  69.420  1.00  0.00    -0.197 C  
HETATM   18  O   UNL     1     -11.493   6.148  69.133  1.00  0.00    -0.379 OA 
HETATM   19  C   UNL     1      -9.146   8.658  70.494  1.00  0.00    -0.188 C  
HETATM   20  O   UNL     1      -9.644   2.002  70.870  1.00  0.00    -0.133 OA 
HETATM   21  O   UNL     1      -9.046   3.876  71.974  1.00  0.00    -0.110 OA 
HETATM   22  C   UNL     1      -7.700   8.206  70.430  1.00  0.00    -0.085 C  
HETATM   23  C   UNL     1     -10.376   6.523  69.528  1.00  0.00    -0.200 C  
HETATM   24  C   UNL     1      -7.554   6.807  70.976  1.00  0.00    -0.085 C  
HETATM   25  N   UNL     1      -8.061   5.778  70.095  1.00  0.00    -0.106 NA 
HETATM   26  C   UNL     1      -9.490   3.216  70.876  1.00  0.00    -0.160 C  
HETATM   27  C   UNL     1      -7.296   5.486  68.886  1.00  0.00    -0.081 C  
HETATM   28  N   UNL     1      -9.446   5.567  69.954  1.00  0.00    -0.151 N  
HETATM   29  C   UNL     1      -7.530   4.020  68.499  1.00  0.00    -0.059 C  
HETATM   30  C   UNL     1      -9.779   4.132  69.679  1.00  0.00    -0.199 C  
HETATM   31  C   UNL     1      -9.022   3.677  68.419  1.00  0.00    -0.176 C  
ENDBRANCH  15  17
ENDBRANCH   6  15
ENDBRANCH   4   6
ENDBRANCH   3   4
ENDBRANCH   2   3
TORSDOF 8
ENDMDL
MODEL       53
REMARK 921   NORMALIZED FREE ENERGY PREDICTED BY IDOCK:   -5.89 KCAL/MOL
REMARK 922        TOTAL FREE ENERGY PREDICTED BY IDOCK:   -9.86 KCAL/MOL
REMARK 923 INTER-LIGAND FREE ENERGY PREDICTED BY IDOCK:   -9.32 KCAL/MOL
REMARK 924 INTRA-LIGAND FREE ENERGY PREDICTED BY IDOCK:   -0.54 KCAL/MOL
REMARK 927      BINDING AFFINITY PREDICTED BY RF-SCORE:    0.00 PKD
ROOT
HETATM    1  C   UNL     1     -12.465  11.867  63.369  1.00  0.00    -0.582 C  
HETATM    2  C   UNL     1     -12.161  13.330  63.629  1.00  0.00    -0.485 C  
ENDROOT
BRANCH   2   3
HETATM    3  O   UNL     1     -10.809  13.477  64.084  1.00  0.00    -0.372 OA 
BRANCH   3   4
HETATM    4  C   UNL     1     -10.412  12.595  65.046  1.00  0.00    -0.308 C  
HETATM    5  O   UNL     1      -9.818  11.540  64.839  1.00  0.00    -0.242 OA 
BRANCH   4   6
HETATM    6  C   UNL     1     -10.788  13.125  66.440  1.00  0.00    -0.287 C  
BRANCH   6   7
HETATM    7  C   UNL     1     -11.765  12.156  67.113  1.00  0.00    -0.372 C  
BRANCH   7   8
HETATM    8  C   UNL     1     -11.298  11.714  68.506  1.00  0.00    -0.332 C  
BRANCH   8   9
HETATM    9  C   UNL     1     -10.586  10.388  68.410  1.00  0.00    -0.238 A  
HETATM   10  C   UNL     1      -9.429   7.840  68.318  1.00  0.00    -0.150 A  
HETATM   11  C   UNL     1     -10.248   8.270  67.277  1.00  0.00    -0.344 A  
HETATM   12  C   UNL     1     -10.825   9.540  67.322  1.00  0.00    -0.188 A  
HETATM   13  C   UNL     1      -9.174   8.682  69.399  1.00  0.00    -0.150 A  
HETATM   14  C   UNL     1      -9.748   9.953  69.446  1.00  0.00    -0.228 A  
ENDBRANCH   8   9
ENDBRANCH   7   8
ENDBRANCH   6   7
BRANCH   6  15
HETATM   15  N   UNL     1     -11.329  14.486  66.267  1.00  0.00    -0.347 NA 
HETATM   16  H   UNL     1     -11.978  14.697  65.508  1.00  0.00     0.000 HD 
BRANCH  15  17
HETATM   17  C   UNL     1     -10.906  15.549  67.223  1.00  0.00    -0.313 C  
HETATM   18  O   UNL     1     -10.678  16.782  65.164  1.00  0.00    -0.641 OA 
HETATM   19  C   UNL     1     -10.014  14.896  68.273  1.00  0.00    -0.222 C  
HETATM   20  O   UNL     1      -7.221  20.195  65.304  1.00  0.00    -0.303 OA 
HETATM   21  O   UNL     1      -6.832  18.359  66.556  1.00  0.00    -0.188 OA 
HETATM   22  C   UNL     1      -9.667  15.796  69.443  1.00  0.00    -0.286 C  
HETATM   23  C   UNL     1     -10.281  16.681  66.337  1.00  0.00    -0.315 C  
HETATM   24  C   UNL     1      -8.613  16.802  69.048  1.00  0.00    -0.156 C  
HETATM   25  N   UNL     1      -9.107  17.863  68.197  1.00  0.00    -0.271 NA 
HETATM   26  C   UNL     1      -7.652  19.219  65.904  1.00  0.00    -0.245 C  
HETATM   27  C   UNL     1      -9.973  18.869  68.806  1.00  0.00    -0.408 C  
HETATM   28  N   UNL     1      -9.378  17.628  66.836  1.00  0.00    -0.256 N  
HETATM   29  C   UNL     1      -9.806  20.188  68.040  1.00  0.00    -0.498 C  
HETATM   30  C   UNL     1      -9.137  18.842  65.990  1.00  0.00     0.008 C  
HETATM   31  C   UNL     1      -9.990  20.004  66.529  1.00  0.00    -0.603 C  
ENDBRANCH  15  17
ENDBRANCH   6  15
ENDBRANCH   4   6
ENDBRANCH   3   4
ENDBRANCH   2   3
TORSDOF 8
ENDMDL
MODEL       54
REMARK 921   NORMALIZED FREE ENERGY PREDICTED BY IDOCK:   -5.86 KCAL/MOL
REMARK 922        TOTAL FREE ENERGY PREDICTED BY IDOCK:   -9.81 KCAL/MOL
REMARK 923 INTER-LIGAND FREE ENERGY PREDICTED BY IDOCK:   -8.48 KCAL/MOL
REMARK 924 INTRA-LIGAND FREE ENERGY PREDICTED BY IDOCK:   -1.34 KCAL/MOL
REMARK 927      BINDING AFFINITY PREDICTED BY RF-SCORE:    0.00 PKD
ROOT
HETATM    1  C   UNL     1      -8.779   6.932  69.164  1.00  0.00    -0.135 C  
HETATM    2  C   UNL     1     -10.050   7.636  68.731  1.00  0.00    -0.194 C  
ENDROOT
BRANCH   2   3
HETATM    3  O   UNL     1      -9.890   9.056  68.851  1.00  0.00    -0.167 OA 
BRANCH   3   4
HETATM    4  C   UNL     1     -10.700   9.810  68.054  1.00  0.00    -0.247 C  
HETATM    5  O   UNL     1     -10.870   9.637  66.850  1.00  0.00    -0.167 OA 
BRANCH   4   6
HETATM    6  C   UNL     1     -11.400  10.899  68.886  1.00  0.00    -0.288 C  
BRANCH   6   7
HETATM    7  C   UNL     1     -12.416  10.251  69.832  1.00  0.00    -0.042 C  
BRANCH   7   8
HETATM    8  C   UNL     1     -11.941  10.235  71.291  1.00  0.00    -0.457 C  
BRANCH   8   9
HETATM    9  C   UNL     1     -11.609   8.824  71.706  1.00  0.00    -0.416 A  
HETATM   10  C   UNL     1     -11.114   6.232  72.641  1.00  0.00    -0.298 A  
HETATM   11  C   UNL     1     -12.223   6.481  71.836  1.00  0.00    -0.373 A  
HETATM   12  C   UNL     1     -12.471   7.773  71.370  1.00  0.00    -0.342 A  
HETATM   13  C   UNL     1     -10.243   7.269  72.970  1.00  0.00    -0.313 A  
HETATM   14  C   UNL     1     -10.488   8.561  72.503  1.00  0.00    -0.303 A  
ENDBRANCH   8   9
ENDBRANCH   7   8
ENDBRANCH   6   7
BRANCH   6  15
HETATM   15  N   UNL     1     -12.000  11.861  67.942  1.00  0.00    -0.577 NA 
HETATM   16  H   UNL     1     -12.532  11.536  67.134  1.00  0.00     0.000 HD 
BRANCH  15  17
HETATM   17  C   UNL     1     -11.812  13.318  68.194  1.00  0.00    -0.353 C  
HETATM   18  O   UNL     1     -10.055  12.984  66.576  1.00  0.00    -0.258 OA 
HETATM   19  C   UNL     1     -11.961  13.551  69.692  1.00  0.00    -0.397 C  
HETATM   20  O   UNL     1      -6.271  15.979  67.158  1.00  0.00    -0.272 OA 
HETATM   21  O   UNL     1      -7.348  15.387  69.050  1.00  0.00    -0.132 OA 
HETATM   22  C   UNL     1     -12.007  15.012  70.096  1.00  0.00    -0.366 C  
HETATM   23  C   UNL     1     -10.436  13.680  67.532  1.00  0.00    -0.241 C  
HETATM   24  C   UNL     1     -10.627  15.621  70.051  1.00  0.00    -0.332 C  
HETATM   25  N   UNL     1     -10.136  15.861  68.711  1.00  0.00    -0.213 NA 
HETATM   26  C   UNL     1      -7.286  15.572  67.709  1.00  0.00    -0.157 C  
HETATM   27  C   UNL     1     -10.745  16.952  67.954  1.00  0.00    -0.344 C  
HETATM   28  N   UNL     1      -9.681  14.797  67.908  1.00  0.00    -0.209 N  
HETATM   29  C   UNL     1      -9.710  17.497  66.961  1.00  0.00    -0.284 C  
HETATM   30  C   UNL     1      -8.586  15.217  66.975  1.00  0.00    -0.237 C  
HETATM   31  C   UNL     1      -9.088  16.385  66.108  1.00  0.00    -0.362 C  
ENDBRANCH  15  17
ENDBRANCH   6  15
ENDBRANCH   4   6
ENDBRANCH   3   4
ENDBRANCH   2   3
TORSDOF 8
ENDMDL
MODEL       55
REMARK 921   NORMALIZED FREE ENERGY PREDICTED BY IDOCK:   -5.80 KCAL/MOL
REMARK 922        TOTAL FREE ENERGY PREDICTED BY IDOCK:   -9.73 KCAL/MOL
REMARK 923 INTER-LIGAND FREE ENERGY PREDICTED BY IDOCK:   -8.70 KCAL/MOL
REMARK 924 INTRA-LIGAND FREE ENERGY PREDICTED BY IDOCK:   -1.03 KCAL/MOL
REMARK 927      BINDING AFFINITY PREDICTED BY RF-SCORE:    0.00 PKD
ROOT
HETATM    1  C   UNL     1     -12.468  12.070  63.454  1.00  0.00    -0.625 C  
HETATM    2  C   UNL     1     -10.960  12.187  63.348  1.00  0.00    -0.412 C  
ENDROOT
BRANCH   2   3
HETATM    3  O   UNL     1     -10.380  12.255  64.658  1.00  0.00    -0.281 OA 
BRANCH   3   4
HETATM    4  C   UNL     1      -9.933  11.071  65.167  1.00  0.00    -0.278 C  
HETATM    5  O   UNL     1      -9.162  10.302  64.601  1.00  0.00    -0.201 OA 
BRANCH   4   6
HETATM    6  C   UNL     1     -10.513  10.844  66.574  1.00  0.00    -0.253 C  
BRANCH   6   7
HETATM    7  C   UNL     1     -10.538  12.171  67.340  1.00  0.00    -0.253 C  
BRANCH   7   8
HETATM    8  C   UNL     1     -11.961  12.626  67.692  1.00  0.00    -0.309 C  
BRANCH   8   9
HETATM    9  C   UNL     1     -11.904  13.785  68.656  1.00  0.00    -0.409 A  
HETATM   10  C   UNL     1     -11.605  15.880  70.488  1.00  0.00    -0.402 A  
HETATM   11  C   UNL     1     -11.216  16.055  69.162  1.00  0.00    -0.342 A  
HETATM   12  C   UNL     1     -11.365  15.011  68.248  1.00  0.00    -0.331 A  
HETATM   13  C   UNL     1     -12.154  14.668  70.901  1.00  0.00    -0.393 A  
HETATM   14  C   UNL     1     -12.306  13.623  69.988  1.00  0.00    -0.342 A  
ENDBRANCH   8   9
ENDBRANCH   7   8
ENDBRANCH   6   7
BRANCH   6  15
HETATM   15  N   UNL     1      -9.700   9.800  67.226  1.00  0.00    -0.163 NA 
HETATM   16  H   UNL     1      -8.681   9.824  67.175  1.00  0.00     0.000 HD 
BRANCH  15  17
HETATM   17  C   UNL     1     -10.399   8.707  67.961  1.00  0.00    -0.223 C  
HETATM   18  O   UNL     1      -9.891  10.152  69.824  1.00  0.00    -0.232 OA 
HETATM   19  C   UNL     1      -9.927   7.382  67.376  1.00  0.00    -0.239 C  
HETATM   20  O   UNL     1      -9.245   7.777  74.015  1.00  0.00    -0.260 OA 
HETATM   21  O   UNL     1      -8.619   6.663  72.155  1.00  0.00    -0.119 OA 
HETATM   22  C   UNL     1     -10.698   6.172  67.868  1.00  0.00    -0.374 C  
HETATM   23  C   UNL     1     -10.113   8.979  69.479  1.00  0.00    -0.197 C  
HETATM   24  C   UNL     1     -10.276   5.804  69.270  1.00  0.00    -0.226 C  
HETATM   25  N   UNL     1     -10.769   6.708  70.286  1.00  0.00    -0.231 NA 
HETATM   26  C   UNL     1      -9.337   7.612  72.805  1.00  0.00    -0.182 C  
HETATM   27  C   UNL     1     -12.194   6.658  70.602  1.00  0.00    -0.200 C  
HETATM   28  N   UNL     1     -10.194   7.982  70.458  1.00  0.00    -0.197 N  
HETATM   29  C   UNL     1     -12.388   7.088  72.062  1.00  0.00    -0.302 C  
HETATM   30  C   UNL     1     -10.243   8.440  71.885  1.00  0.00    -0.270 C  
HETATM   31  C   UNL     1     -11.706   8.427  72.363  1.00  0.00    -0.452 C  
ENDBRANCH  15  17
ENDBRANCH   6  15
ENDBRANCH   4   6
ENDBRANCH   3   4
ENDBRANCH   2   3
TORSDOF 8
ENDMDL
MODEL       56
REMARK 921   NORMALIZED FREE ENERGY PREDICTED BY IDOCK:   -5.77 KCAL/MOL
REMARK 922        TOTAL FREE ENERGY PREDICTED BY IDOCK:   -9.68 KCAL/MOL
REMARK 923 INTER-LIGAND FREE ENERGY PREDICTED BY IDOCK:   -8.22 KCAL/MOL
REMARK 924 INTRA-LIGAND FREE ENERGY PREDICTED BY IDOCK:   -1.46 KCAL/MOL
REMARK 927      BINDING AFFINITY PREDICTED BY RF-SCORE:    0.00 PKD
ROOT
HETATM    1  C   UNL     1     -14.287   7.471  71.737  1.00  0.00    -0.588 C  
HETATM    2  C   UNL     1     -14.223   8.964  71.996  1.00  0.00    -0.369 C  
ENDROOT
BRANCH   2   3
HETATM    3  O   UNL     1     -13.465   9.608  70.963  1.00  0.00    -0.328 OA 
BRANCH   3   4
HETATM    4  C   UNL     1     -13.010  10.859  71.260  1.00  0.00    -0.392 C  
HETATM    5  O   UNL     1     -13.520  11.626  72.072  1.00  0.00    -0.411 OA 
BRANCH   4   6
HETATM    6  C   UNL     1     -11.739  11.169  70.449  1.00  0.00    -0.320 C  
BRANCH   6   7
HETATM    7  C   UNL     1     -12.118  11.481  68.997  1.00  0.00    -0.303 C  
BRANCH   7   8
HETATM    8  C   UNL     1     -11.442  12.753  68.468  1.00  0.00    -0.344 C  
BRANCH   8   9
HETATM    9  C   UNL     1     -11.633  12.851  66.975  1.00  0.00    -0.419 A  
HETATM   10  C   UNL     1     -11.805  13.126  64.195  1.00  0.00    -0.487 A  
HETATM   11  C   UNL     1     -11.165  12.018  64.746  1.00  0.00    -0.373 A  
HETATM   12  C   UNL     1     -11.079  11.880  66.132  1.00  0.00    -0.374 A  
HETATM   13  C   UNL     1     -12.371  14.091  65.026  1.00  0.00    -0.458 A  
HETATM   14  C   UNL     1     -12.288  13.954  66.412  1.00  0.00    -0.468 A  
ENDBRANCH   8   9
ENDBRANCH   7   8
ENDBRANCH   6   7
BRANCH   6  15
HETATM   15  N   UNL     1     -10.832  10.014  70.589  1.00  0.00    -0.319 NA 
HETATM   16  H   UNL     1     -10.681   9.576  71.498  1.00  0.00     0.000 HD 
BRANCH  15  17
HETATM   17  C   UNL     1     -10.138   9.502  69.373  1.00  0.00    -0.198 C  
HETATM   18  O   UNL     1     -11.283   7.485  70.035  1.00  0.00    -0.243 OA 
HETATM   19  C   UNL     1      -8.724  10.070  69.374  1.00  0.00    -0.195 C  
HETATM   20  O   UNL     1      -8.939   3.413  68.795  1.00  0.00    -0.103 OA 
HETATM   21  O   UNL     1      -7.629   5.185  69.277  1.00  0.00    -0.067 OA 
HETATM   22  C   UNL     1      -7.949   9.815  68.095  1.00  0.00    -0.100 C  
HETATM   23  C   UNL     1     -10.299   7.943  69.430  1.00  0.00    -0.220 C  
HETATM   24  C   UNL     1      -7.468   8.386  68.038  1.00  0.00    -0.097 C  
HETATM   25  N   UNL     1      -8.515   7.427  67.760  1.00  0.00    -0.118 NA 
HETATM   26  C   UNL     1      -8.801   4.625  68.892  1.00  0.00    -0.099 C  
HETATM   27  C   UNL     1      -9.061   7.397  66.406  1.00  0.00    -0.160 C  
HETATM   28  N   UNL     1      -9.444   7.064  68.754  1.00  0.00    -0.137 N  
HETATM   29  C   UNL     1      -9.563   5.977  66.111  1.00  0.00    -0.091 C  
HETATM   30  C   UNL     1      -9.910   5.647  68.607  1.00  0.00    -0.145 C  
HETATM   31  C   UNL     1     -10.509   5.462  67.202  1.00  0.00    -0.298 C  
ENDBRANCH  15  17
ENDBRANCH   6  15
ENDBRANCH   4   6
ENDBRANCH   3   4
ENDBRANCH   2   3
TORSDOF 8
ENDMDL
MODEL       57
REMARK 921   NORMALIZED FREE ENERGY PREDICTED BY IDOCK:   -5.77 KCAL/MOL
REMARK 922        TOTAL FREE ENERGY PREDICTED BY IDOCK:   -9.68 KCAL/MOL
REMARK 923 INTER-LIGAND FREE ENERGY PREDICTED BY IDOCK:   -8.67 KCAL/MOL
REMARK 924 INTRA-LIGAND FREE ENERGY PREDICTED BY IDOCK:   -1.01 KCAL/MOL
REMARK 927      BINDING AFFINITY PREDICTED BY RF-SCORE:    0.00 PKD
ROOT
HETATM    1  C   UNL     1     -12.761  14.284  70.655  1.00  0.00    -0.409 C  
HETATM    2  C   UNL     1     -12.281  14.681  69.272  1.00  0.00    -0.212 C  
ENDROOT
BRANCH   2   3
HETATM    3  O   UNL     1     -11.912  13.513  68.527  1.00  0.00    -0.351 OA 
BRANCH   3   4
HETATM    4  C   UNL     1     -11.700  13.707  67.194  1.00  0.00    -0.383 C  
HETATM    5  O   UNL     1     -12.366  14.440  66.468  1.00  0.00    -0.411 OA 
BRANCH   4   6
HETATM    6  C   UNL     1     -10.478  12.897  66.727  1.00  0.00    -0.254 C  
BRANCH   6   7
HETATM    7  C   UNL     1     -10.109  11.860  67.793  1.00  0.00    -0.200 C  
BRANCH   7   8
HETATM    8  C   UNL     1     -10.999  10.612  67.739  1.00  0.00    -0.364 C  
BRANCH   8   9
HETATM    9  C   UNL     1     -11.186  10.056  69.129  1.00  0.00    -0.197 A  
HETATM   10  C   UNL     1     -11.418   9.179  71.777  1.00  0.00    -0.452 A  
HETATM   11  C   UNL     1     -12.310  10.124  71.276  1.00  0.00    -0.501 A  
HETATM   12  C   UNL     1     -12.196  10.562  69.957  1.00  0.00    -0.323 A  
HETATM   13  C   UNL     1     -10.417   8.660  70.957  1.00  0.00    -0.276 A  
HETATM   14  C   UNL     1     -10.302   9.095  69.636  1.00  0.00    -0.226 A  
ENDBRANCH   8   9
ENDBRANCH   7   8
ENDBRANCH   6   7
BRANCH   6  15
HETATM   15  N   UNL     1      -9.395  13.856  66.434  1.00  0.00    -0.431 NA 
HETATM   16  H   UNL     1      -8.791  13.728  65.622  1.00  0.00     0.000 HD 
BRANCH  15  17
HETATM   17  C   UNL     1      -9.203  15.015  67.351  1.00  0.00    -0.195 C  
HETATM   18  O   UNL     1      -9.516  16.216  65.284  1.00  0.00    -0.320 OA 
HETATM   19  C   UNL     1      -8.074  14.662  68.312  1.00  0.00    -0.143 C  
HETATM   20  O   UNL     1      -7.157  20.462  65.116  1.00  0.00    -0.274 OA 
HETATM   21  O   UNL     1      -6.158  18.837  66.320  1.00  0.00    -0.159 OA 
HETATM   22  C   UNL     1      -7.889  15.649  69.448  1.00  0.00    -0.222 C  
HETATM   23  C   UNL     1      -9.003  16.257  66.415  1.00  0.00    -0.308 C  
HETATM   24  C   UNL     1      -7.200  16.900  68.961  1.00  0.00    -0.232 C  
HETATM   25  N   UNL     1      -8.045  17.762  68.163  1.00  0.00    -0.256 NA 
HETATM   26  C   UNL     1      -7.241  19.418  65.750  1.00  0.00    -0.280 C  
HETATM   27  C   UNL     1      -9.101  18.498  68.852  1.00  0.00    -0.174 C  
HETATM   28  N   UNL     1      -8.361  17.429  66.831  1.00  0.00    -0.223 N  
HETATM   29  C   UNL     1      -9.380  19.794  68.079  1.00  0.00    -0.444 C  
HETATM   30  C   UNL     1      -8.547  18.643  65.971  1.00  0.00    -0.001 C  
HETATM   31  C   UNL     1      -9.639  19.532  66.591  1.00  0.00    -0.450 C  
ENDBRANCH  15  17
ENDBRANCH   6  15
ENDBRANCH   4   6
ENDBRANCH   3   4
ENDBRANCH   2   3
TORSDOF 8
ENDMDL
MODEL       58
REMARK 921   NORMALIZED FREE ENERGY PREDICTED BY IDOCK:   -5.75 KCAL/MOL
REMARK 922        TOTAL FREE ENERGY PREDICTED BY IDOCK:   -9.65 KCAL/MOL
REMARK 923 INTER-LIGAND FREE ENERGY PREDICTED BY IDOCK:   -8.60 KCAL/MOL
REMARK 924 INTRA-LIGAND FREE ENERGY PREDICTED BY IDOCK:   -1.06 KCAL/MOL
REMARK 927      BINDING AFFINITY PREDICTED BY RF-SCORE:    0.00 PKD
ROOT
HETATM    1  C   UNL     1      -7.570   6.363  68.357  1.00  0.00    -0.100 C  
HETATM    2  C   UNL     1      -7.647   7.319  69.532  1.00  0.00    -0.100 C  
ENDROOT
BRANCH   2   3
HETATM    3  O   UNL     1      -8.969   7.308  70.087  1.00  0.00    -0.147 OA 
BRANCH   3   4
HETATM    4  C   UNL     1      -9.375   8.475  70.664  1.00  0.00    -0.174 C  
HETATM    5  O   UNL     1      -8.630   9.342  71.112  1.00  0.00    -0.281 OA 
BRANCH   4   6
HETATM    6  C   UNL     1     -10.911   8.569  70.649  1.00  0.00    -0.239 C  
BRANCH   6   7
HETATM    7  C   UNL     1     -11.507   7.396  71.433  1.00  0.00    -0.290 C  
BRANCH   7   8
HETATM    8  C   UNL     1     -11.163   7.446  72.928  1.00  0.00    -0.368 C  
BRANCH   8   9
HETATM    9  C   UNL     1     -10.561   6.131  73.359  1.00  0.00    -0.288 A  
HETATM   10  C   UNL     1      -9.537   3.718  74.340  1.00  0.00    -0.136 A  
HETATM   11  C   UNL     1     -10.794   3.748  73.741  1.00  0.00    -0.320 A  
HETATM   12  C   UNL     1     -11.305   4.950  73.252  1.00  0.00    -0.408 A  
HETATM   13  C   UNL     1      -8.783   4.886  74.440  1.00  0.00    -0.112 A  
HETATM   14  C   UNL     1      -9.291   6.090  73.950  1.00  0.00    -0.133 A  
ENDBRANCH   8   9
ENDBRANCH   7   8
ENDBRANCH   6   7
BRANCH   6  15
HETATM   15  N   UNL     1     -11.339   8.616  69.238  1.00  0.00    -0.307 NA 
HETATM   16  H   UNL     1     -12.158   8.096  68.924  1.00  0.00     0.000 HD 
BRANCH  15  17
HETATM   17  C   UNL     1     -10.547   9.440  68.280  1.00  0.00    -0.210 C  
HETATM   18  O   UNL     1     -12.191  11.082  68.924  1.00  0.00    -0.519 OA 
HETATM   19  C   UNL     1     -10.214   8.561  67.081  1.00  0.00    -0.355 C  
HETATM   20  O   UNL     1     -13.182  14.323  65.440  1.00  0.00    -0.688 OA 
HETATM   21  O   UNL     1     -12.638  12.254  64.723  1.00  0.00    -0.507 OA 
HETATM   22  C   UNL     1      -9.232   9.183  66.106  1.00  0.00    -0.259 C  
HETATM   23  C   UNL     1     -11.410  10.725  68.027  1.00  0.00    -0.307 C  
HETATM   24  C   UNL     1      -9.912  10.231  65.259  1.00  0.00    -0.317 C  
HETATM   25  N   UNL     1     -10.202  11.459  65.968  1.00  0.00    -0.236 NA 
HETATM   26  C   UNL     1     -12.632  13.249  65.644  1.00  0.00    -0.406 C  
HETATM   27  C   UNL     1      -9.076  12.326  66.304  1.00  0.00    -0.125 C  
HETATM   28  N   UNL     1     -11.265  11.526  66.888  1.00  0.00    -0.310 N  
HETATM   29  C   UNL     1      -9.575  13.775  66.367  1.00  0.00    -0.285 C  
HETATM   30  C   UNL     1     -11.889  12.889  66.938  1.00  0.00    -0.379 C  
HETATM   31  C   UNL     1     -10.801  13.923  67.276  1.00  0.00    -0.292 C  
ENDBRANCH  15  17
ENDBRANCH   6  15
ENDBRANCH   4   6
ENDBRANCH   3   4
ENDBRANCH   2   3
TORSDOF 8
ENDMDL
MODEL       59
REMARK 921   NORMALIZED FREE ENERGY PREDICTED BY IDOCK:   -5.74 KCAL/MOL
REMARK 922        TOTAL FREE ENERGY PREDICTED BY IDOCK:   -9.64 KCAL/MOL
REMARK 923 INTER-LIGAND FREE ENERGY PREDICTED BY IDOCK:   -8.55 KCAL/MOL
REMARK 924 INTRA-LIGAND FREE ENERGY PREDICTED BY IDOCK:   -1.09 KCAL/MOL
REMARK 927      BINDING AFFINITY PREDICTED BY RF-SCORE:    0.00 PKD
ROOT
HETATM    1  C   UNL     1      -9.220  10.384  64.642  1.00  0.00    -0.282 C  
HETATM    2  C   UNL     1      -9.946  11.698  64.856  1.00  0.00    -0.255 C  
ENDROOT
BRANCH   2   3
HETATM    3  O   UNL     1     -10.921  11.555  65.898  1.00  0.00    -0.284 OA 
BRANCH   3   4
HETATM    4  C   UNL     1     -10.545  12.018  67.124  1.00  0.00    -0.224 C  
HETATM    5  O   UNL     1      -9.445  12.489  67.398  1.00  0.00    -0.177 OA 
BRANCH   4   6
HETATM    6  C   UNL     1     -11.712  11.894  68.120  1.00  0.00    -0.320 C  
BRANCH   6   7
HETATM    7  C   UNL     1     -11.462  12.809  69.323  1.00  0.00    -0.349 C  
BRANCH   7   8
HETATM    8  C   UNL     1     -12.567  12.711  70.383  1.00  0.00    -0.115 C  
BRANCH   8   9
HETATM    9  C   UNL     1     -12.585  13.965  71.221  1.00  0.00    -0.450 A  
HETATM   10  C   UNL     1     -12.488  16.199  72.905  1.00  0.00    -0.570 A  
HETATM   11  C   UNL     1     -11.542  16.048  71.894  1.00  0.00    -0.524 A  
HETATM   12  C   UNL     1     -11.590  14.935  71.054  1.00  0.00    -0.344 A  
HETATM   13  C   UNL     1     -13.491  15.245  73.072  1.00  0.00    -0.580 A  
HETATM   14  C   UNL     1     -13.541  14.131  72.232  1.00  0.00    -0.596 A  
ENDBRANCH   8   9
ENDBRANCH   7   8
ENDBRANCH   6   7
BRANCH   6  15
HETATM   15  N   UNL     1     -11.841  10.468  68.478  1.00  0.00    -0.745 NA 
HETATM   16  H   UNL     1     -12.708   9.962  68.298  1.00  0.00     0.000 HD 
BRANCH  15  17
HETATM   17  C   UNL     1     -10.676   9.784  69.108  1.00  0.00    -0.221 C  
HETATM   18  O   UNL     1     -10.786   8.529  67.052  1.00  0.00    -0.275 OA 
HETATM   19  C   UNL     1     -10.996   9.593  70.586  1.00  0.00    -0.386 C  
HETATM   20  O   UNL     1      -9.226   3.945  67.477  1.00  0.00    -0.143 OA 
HETATM   21  O   UNL     1     -10.211   4.816  69.310  1.00  0.00    -0.189 OA 
HETATM   22  C   UNL     1      -9.829   9.099  71.418  1.00  0.00    -0.354 C  
HETATM   23  C   UNL     1     -10.431   8.499  68.242  1.00  0.00    -0.171 C  
HETATM   24  C   UNL     1      -9.595   7.626  71.189  1.00  0.00    -0.158 C  
HETATM   25  N   UNL     1      -8.993   7.320  69.910  1.00  0.00    -0.142 NA 
HETATM   26  C   UNL     1      -9.555   4.927  68.129  1.00  0.00    -0.143 C  
HETATM   27  C   UNL     1      -7.587   7.668  69.725  1.00  0.00    -0.093 C  
HETATM   28  N   UNL     1      -9.752   7.374  68.725  1.00  0.00    -0.148 N  
HETATM   29  C   UNL     1      -6.972   6.698  68.707  1.00  0.00    -0.080 C  
HETATM   30  C   UNL     1      -9.287   6.378  67.706  1.00  0.00    -0.117 C  
HETATM   31  C   UNL     1      -7.795   6.620  67.416  1.00  0.00    -0.113 C  
ENDBRANCH  15  17
ENDBRANCH   6  15
ENDBRANCH   4   6
ENDBRANCH   3   4
ENDBRANCH   2   3
TORSDOF 8
ENDMDL
MODEL       60
REMARK 921   NORMALIZED FREE ENERGY PREDICTED BY IDOCK:   -5.74 KCAL/MOL
REMARK 922        TOTAL FREE ENERGY PREDICTED BY IDOCK:   -9.64 KCAL/MOL
REMARK 923 INTER-LIGAND FREE ENERGY PREDICTED BY IDOCK:   -8.82 KCAL/MOL
REMARK 924 INTRA-LIGAND FREE ENERGY PREDICTED BY IDOCK:   -0.81 KCAL/MOL
REMARK 927      BINDING AFFINITY PREDICTED BY RF-SCORE:    0.00 PKD
ROOT
HETATM    1  C   UNL     1     -10.315  17.416  66.325  1.00  0.00    -0.330 C  
HETATM    2  C   UNL     1     -10.509  16.202  65.437  1.00  0.00    -0.373 C  
ENDROOT
BRANCH   2   3
HETATM    3  O   UNL     1     -11.154  15.154  66.174  1.00  0.00    -0.339 OA 
BRANCH   3   4
HETATM    4  C   UNL     1     -10.324  14.213  66.709  1.00  0.00    -0.274 C  
HETATM    5  O   UNL     1      -9.097  14.267  66.709  1.00  0.00    -0.249 OA 
BRANCH   4   6
HETATM    6  C   UNL     1     -11.146  13.079  67.344  1.00  0.00    -0.272 C  
BRANCH   6   7
HETATM    7  C   UNL     1     -12.083  13.656  68.410  1.00  0.00    -0.312 C  
BRANCH   7   8
HETATM    8  C   UNL     1     -11.426  14.771  69.236  1.00  0.00    -0.322 C  
BRANCH   8   9
HETATM    9  C   UNL     1     -12.054  14.831  70.606  1.00  0.00    -0.374 A  
HETATM   10  C   UNL     1     -13.389  15.021  73.059  1.00  0.00    -0.568 A  
HETATM   11  C   UNL     1     -13.544  13.885  72.269  1.00  0.00    -0.642 A  
HETATM   12  C   UNL     1     -12.879  13.789  71.046  1.00  0.00    -0.376 A  
HETATM   13  C   UNL     1     -12.560  16.058  72.636  1.00  0.00    -0.551 A  
HETATM   14  C   UNL     1     -11.892  15.964  71.414  1.00  0.00    -0.524 A  
ENDBRANCH   8   9
ENDBRANCH   7   8
ENDBRANCH   6   7
BRANCH   6  15
HETATM   15  N   UNL     1     -10.194  12.081  67.870  1.00  0.00    -0.191 NA 
HETATM   16  H   UNL     1      -9.491  12.345  68.561  1.00  0.00     0.000 HD 
BRANCH  15  17
HETATM   17  C   UNL     1     -10.282  10.680  67.370  1.00  0.00    -0.204 C  
HETATM   18  O   UNL     1     -10.290  10.238  69.741  1.00  0.00    -0.243 OA 
HETATM   19  C   UNL     1      -9.334  10.552  66.184  1.00  0.00    -0.210 C  
HETATM   20  O   UNL     1      -8.312   5.962  70.937  1.00  0.00    -0.122 OA 
HETATM   21  O   UNL     1      -7.430   6.973  69.123  1.00  0.00    -0.090 OA 
HETATM   22  C   UNL     1      -9.457   9.245  65.425  1.00  0.00    -0.281 C  
HETATM   23  C   UNL     1     -10.011   9.775  68.622  1.00  0.00    -0.167 C  
HETATM   24  C   UNL     1      -8.796   8.122  66.186  1.00  0.00    -0.162 C  
HETATM   25  N   UNL     1      -9.541   7.681  67.345  1.00  0.00    -0.141 NA 
HETATM   26  C   UNL     1      -8.429   6.758  70.014  1.00  0.00    -0.140 C  
HETATM   27  C   UNL     1     -10.768   6.926  67.111  1.00  0.00    -0.366 C  
HETATM   28  N   UNL     1      -9.564   8.452  68.523  1.00  0.00    -0.147 N  
HETATM   29  C   UNL     1     -11.002   5.988  68.303  1.00  0.00    -0.347 C  
HETATM   30  C   UNL     1      -9.682   7.605  69.754  1.00  0.00    -0.171 C  
HETATM   31  C   UNL     1     -10.945   6.734  69.642  1.00  0.00    -0.336 C  
ENDBRANCH  15  17
ENDBRANCH   6  15
ENDBRANCH   4   6
ENDBRANCH   3   4
ENDBRANCH   2   3
TORSDOF 8
ENDMDL
MODEL       61
REMARK 921   NORMALIZED FREE ENERGY PREDICTED BY IDOCK:   -5.72 KCAL/MOL
REMARK 922        TOTAL FREE ENERGY PREDICTED BY IDOCK:   -9.61 KCAL/MOL
REMARK 923 INTER-LIGAND FREE ENERGY PREDICTED BY IDOCK:   -8.07 KCAL/MOL
REMARK 924 INTRA-LIGAND FREE ENERGY PREDICTED BY IDOCK:   -1.54 KCAL/MOL
REMARK 927      BINDING AFFINITY PREDICTED BY RF-SCORE:    0.00 PKD
ROOT
HETATM    1  C   UNL     1     -10.289  10.740  64.343  1.00  0.00    -0.405 C  
HETATM    2  C   UNL     1      -9.307   9.592  64.475  1.00  0.00    -0.182 C  
ENDROOT
BRANCH   2   3
HETATM    3  O   UNL     1      -8.519   9.755  65.661  1.00  0.00    -0.131 OA 
BRANCH   3   4
HETATM    4  C   UNL     1      -9.044   9.213  66.797  1.00  0.00    -0.144 C  
HETATM    5  O   UNL     1     -10.088   8.570  66.858  1.00  0.00    -0.239 OA 
BRANCH   4   6
HETATM    6  C   UNL     1      -8.123   9.495  67.997  1.00  0.00    -0.102 C  
BRANCH   6   7
HETATM    7  C   UNL     1      -8.277   8.381  69.038  1.00  0.00    -0.118 C  
BRANCH   7   8
HETATM    8  C   UNL     1      -8.718   8.909  70.409  1.00  0.00    -0.200 C  
BRANCH   8   9
HETATM    9  C   UNL     1     -10.039   8.293  70.795  1.00  0.00    -0.218 A  
HETATM   10  C   UNL     1     -12.579   7.257  71.358  1.00  0.00    -0.423 A  
HETATM   11  C   UNL     1     -11.771   6.640  70.405  1.00  0.00    -0.446 A  
HETATM   12  C   UNL     1     -10.506   7.155  70.123  1.00  0.00    -0.231 A  
HETATM   13  C   UNL     1     -12.118   8.382  72.040  1.00  0.00    -0.417 A  
HETATM   14  C   UNL     1     -10.852   8.898  71.762  1.00  0.00    -0.436 A  
ENDBRANCH   8   9
ENDBRANCH   7   8
ENDBRANCH   6   7
BRANCH   6  15
HETATM   15  N   UNL     1      -8.460  10.836  68.510  1.00  0.00    -0.136 NA 
HETATM   16  H   UNL     1      -7.842  11.315  69.165  1.00  0.00     0.000 HD 
BRANCH  15  17
HETATM   17  C   UNL     1      -9.726  11.477  68.051  1.00  0.00    -0.186 C  
HETATM   18  O   UNL     1      -8.156  12.766  66.752  1.00  0.00    -0.047 OA 
HETATM   19  C   UNL     1     -10.623  11.653  69.271  1.00  0.00    -0.088 C  
HETATM   20  O   UNL     1      -9.651  17.295  65.818  1.00  0.00    -0.528 OA 
HETATM   21  O   UNL     1     -10.339  16.426  67.782  1.00  0.00    -0.270 OA 
HETATM   22  C   UNL     1     -12.035  12.100  68.947  1.00  0.00    -0.296 C  
HETATM   23  C   UNL     1      -9.281  12.767  67.278  1.00  0.00    -0.203 C  
HETATM   24  C   UNL     1     -12.065  13.570  68.604  1.00  0.00    -0.268 C  
HETATM   25  N   UNL     1     -11.518  13.878  67.300  1.00  0.00    -0.326 NA 
HETATM   26  C   UNL     1      -9.889  16.314  66.509  1.00  0.00    -0.271 C  
HETATM   27  C   UNL     1     -12.304  13.493  66.131  1.00  0.00    -0.407 C  
HETATM   28  N   UNL     1     -10.128  13.865  67.080  1.00  0.00    -0.252 N  
HETATM   29  C   UNL     1     -11.982  14.460  64.984  1.00  0.00    -0.413 C  
HETATM   30  C   UNL     1      -9.706  14.863  66.044  1.00  0.00    -0.328 C  
HETATM   31  C   UNL     1     -10.473  14.582  64.739  1.00  0.00    -0.365 C  
ENDBRANCH  15  17
ENDBRANCH   6  15
ENDBRANCH   4   6
ENDBRANCH   3   4
ENDBRANCH   2   3
TORSDOF 8
ENDMDL
MODEL       62
REMARK 921   NORMALIZED FREE ENERGY PREDICTED BY IDOCK:   -5.72 KCAL/MOL
REMARK 922        TOTAL FREE ENERGY PREDICTED BY IDOCK:   -9.60 KCAL/MOL
REMARK 923 INTER-LIGAND FREE ENERGY PREDICTED BY IDOCK:   -8.19 KCAL/MOL
REMARK 924 INTRA-LIGAND FREE ENERGY PREDICTED BY IDOCK:   -1.41 KCAL/MOL
REMARK 927      BINDING AFFINITY PREDICTED BY RF-SCORE:    0.00 PKD
ROOT
HETATM    1  C   UNL     1      -6.707  17.716  67.316  1.00  0.00    -0.184 C  
HETATM    2  C   UNL     1      -7.607  17.704  66.095  1.00  0.00    -0.280 C  
ENDROOT
BRANCH   2   3
HETATM    3  O   UNL     1      -8.526  16.606  66.173  1.00  0.00    -0.318 OA 
BRANCH   3   4
HETATM    4  C   UNL     1      -9.815  16.937  66.472  1.00  0.00    -0.296 C  
HETATM    5  O   UNL     1     -10.452  17.850  65.953  1.00  0.00    -0.497 OA 
BRANCH   4   6
HETATM    6  C   UNL     1     -10.376  15.979  67.538  1.00  0.00    -0.287 C  
BRANCH   6   7
HETATM    7  C   UNL     1     -10.936  16.788  68.713  1.00  0.00    -0.275 C  
BRANCH   7   8
HETATM    8  C   UNL     1     -10.478  16.250  70.075  1.00  0.00    -0.164 C  
BRANCH   8   9
HETATM    9  C   UNL     1     -11.679  15.931  70.930  1.00  0.00    -0.456 A  
HETATM   10  C   UNL     1     -13.980  15.527  72.473  1.00  0.00    -0.646 A  
HETATM   11  C   UNL     1     -13.997  15.242  71.109  1.00  0.00    -0.462 A  
HETATM   12  C   UNL     1     -12.851  15.443  70.339  1.00  0.00    -0.355 A  
HETATM   13  C   UNL     1     -12.814  16.001  73.072  1.00  0.00    -0.587 A  
HETATM   14  C   UNL     1     -11.666  16.201  72.305  1.00  0.00    -0.564 A  
ENDBRANCH   8   9
ENDBRANCH   7   8
ENDBRANCH   6   7
BRANCH   6  15
HETATM   15  N   UNL     1      -9.292  15.055  67.919  1.00  0.00    -0.182 NA 
HETATM   16  H   UNL     1      -8.356  15.406  68.127  1.00  0.00     0.000 HD 
BRANCH  15  17
HETATM   17  C   UNL     1      -9.592  13.596  67.992  1.00  0.00    -0.216 C  
HETATM   18  O   UNL     1      -7.264  13.473  67.376  1.00  0.00    -0.166 OA 
HETATM   19  C   UNL     1     -10.959  13.374  67.358  1.00  0.00    -0.287 C  
HETATM   20  O   UNL     1      -6.142   9.530  64.765  1.00  0.00    -0.072 OA 
HETATM   21  O   UNL     1      -8.223  10.346  64.457  1.00  0.00    -0.165 OA 
HETATM   22  C   UNL     1     -11.510  11.972  67.537  1.00  0.00    -0.403 C  
HETATM   23  C   UNL     1      -8.358  12.885  67.336  1.00  0.00    -0.190 C  
HETATM   24  C   UNL     1     -10.823  11.005  66.605  1.00  0.00    -0.225 C  
HETATM   25  N   UNL     1      -9.469  10.675  66.997  1.00  0.00    -0.162 NA 
HETATM   26  C   UNL     1      -7.087  10.188  65.180  1.00  0.00    -0.137 C  
HETATM   27  C   UNL     1      -9.295   9.818  68.166  1.00  0.00    -0.128 C  
HETATM   28  N   UNL     1      -8.419  11.592  66.803  1.00  0.00    -0.164 N  
HETATM   29  C   UNL     1      -7.986   9.034  68.009  1.00  0.00    -0.101 C  
HETATM   30  C   UNL     1      -7.111  10.910  66.533  1.00  0.00    -0.139 C  
HETATM   31  C   UNL     1      -6.799   9.952  67.696  1.00  0.00    -0.084 C  
ENDBRANCH  15  17
ENDBRANCH   6  15
ENDBRANCH   4   6
ENDBRANCH   3   4
ENDBRANCH   2   3
TORSDOF 8
ENDMDL
MODEL       63
REMARK 921   NORMALIZED FREE ENERGY PREDICTED BY IDOCK:   -5.71 KCAL/MOL
REMARK 922        TOTAL FREE ENERGY PREDICTED BY IDOCK:   -9.59 KCAL/MOL
REMARK 923 INTER-LIGAND FREE ENERGY PREDICTED BY IDOCK:   -8.23 KCAL/MOL
REMARK 924 INTRA-LIGAND FREE ENERGY PREDICTED BY IDOCK:   -1.36 KCAL/MOL
REMARK 927      BINDING AFFINITY PREDICTED BY RF-SCORE:    0.00 PKD
ROOT
HETATM    1  C   UNL     1      -6.800   6.184  70.733  1.00  0.00    -0.062 C  
HETATM    2  C   UNL     1      -7.059   7.665  70.930  1.00  0.00    -0.054 C  
ENDROOT
BRANCH   2   3
HETATM    3  O   UNL     1      -8.463   7.935  70.829  1.00  0.00    -0.119 OA 
BRANCH   3   4
HETATM    4  C   UNL     1      -8.989   8.703  71.826  1.00  0.00    -0.237 C  
HETATM    5  O   UNL     1      -8.463   8.908  72.916  1.00  0.00    -0.358 OA 
BRANCH   4   6
HETATM    6  C   UNL     1     -10.332   9.307  71.380  1.00  0.00    -0.321 C  
BRANCH   6   7
HETATM    7  C   UNL     1     -11.486   8.479  71.956  1.00  0.00    -0.431 C  
BRANCH   7   8
HETATM    8  C   UNL     1     -12.047   7.464  70.951  1.00  0.00    -0.290 C  
BRANCH   8   9
HETATM    9  C   UNL     1     -11.302   6.158  71.072  1.00  0.00    -0.348 A  
HETATM   10  C   UNL     1      -9.749   3.843  71.329  1.00  0.00    -0.247 A  
HETATM   11  C   UNL     1     -10.290   4.448  72.462  1.00  0.00    -0.252 A  
HETATM   12  C   UNL     1     -11.064   5.601  72.335  1.00  0.00    -0.324 A  
HETATM   13  C   UNL     1      -9.992   4.382  70.067  1.00  0.00    -0.245 A  
HETATM   14  C   UNL     1     -10.767   5.535  69.937  1.00  0.00    -0.358 A  
ENDBRANCH   8   9
ENDBRANCH   7   8
ENDBRANCH   6   7
BRANCH   6  15
HETATM   15  N   UNL     1     -10.324   9.365  69.905  1.00  0.00    -0.212 NA 
HETATM   16  H   UNL     1     -10.691   8.591  69.350  1.00  0.00     0.000 HD 
BRANCH  15  17
HETATM   17  C   UNL     1      -9.769  10.581  69.244  1.00  0.00    -0.196 C  
HETATM   18  O   UNL     1     -12.116  10.982  68.864  1.00  0.00    -0.479 OA 
HETATM   19  C   UNL     1      -8.537  10.154  68.455  1.00  0.00    -0.119 C  
HETATM   20  O   UNL     1     -13.036  13.488  64.803  1.00  0.00    -0.683 OA 
HETATM   21  O   UNL     1     -11.230  12.139  64.730  1.00  0.00    -0.307 OA 
HETATM   22  C   UNL     1      -7.728  11.306  67.890  1.00  0.00    -0.110 C  
HETATM   23  C   UNL     1     -10.967  11.203  68.446  1.00  0.00    -0.227 C  
HETATM   24  C   UNL     1      -8.409  11.892  66.677  1.00  0.00    -0.117 C  
HETATM   25  N   UNL     1      -9.581  12.682  66.988  1.00  0.00    -0.213 NA 
HETATM   26  C   UNL     1     -12.155  12.876  65.391  1.00  0.00    -0.454 C  
HETATM   27  C   UNL     1      -9.370  13.984  67.615  1.00  0.00    -0.203 C  
HETATM   28  N   UNL     1     -10.791  12.064  67.356  1.00  0.00    -0.232 N  
HETATM   29  C   UNL     1     -10.530  14.910  67.225  1.00  0.00    -0.263 C  
HETATM   30  C   UNL     1     -11.989  12.851  66.917  1.00  0.00    -0.335 C  
HETATM   31  C   UNL     1     -11.895  14.271  67.503  1.00  0.00    -0.429 C  
ENDBRANCH  15  17
ENDBRANCH   6  15
ENDBRANCH   4   6
ENDBRANCH   3   4
ENDBRANCH   2   3
TORSDOF 8
ENDMDL
MODEL       64
REMARK 921   NORMALIZED FREE ENERGY PREDICTED BY IDOCK:   -5.70 KCAL/MOL
REMARK 922        TOTAL FREE ENERGY PREDICTED BY IDOCK:   -9.58 KCAL/MOL
REMARK 923 INTER-LIGAND FREE ENERGY PREDICTED BY IDOCK:   -9.53 KCAL/MOL
REMARK 924 INTRA-LIGAND FREE ENERGY PREDICTED BY IDOCK:   -0.05 KCAL/MOL
REMARK 927      BINDING AFFINITY PREDICTED BY RF-SCORE:    0.00 PKD
ROOT
HETATM    1  C   UNL     1     -11.056   6.484  68.794  1.00  0.00    -0.357 C  
HETATM    2  C   UNL     1     -10.776   6.838  67.346  1.00  0.00    -0.335 C  
ENDROOT
BRANCH   2   3
HETATM    3  O   UNL     1     -10.723   8.262  67.191  1.00  0.00    -0.302 OA 
BRANCH   3   4
HETATM    4  C   UNL     1      -9.483   8.820  67.287  1.00  0.00    -0.158 C  
HETATM    5  O   UNL     1      -8.422   8.206  67.221  1.00  0.00    -0.122 OA 
BRANCH   4   6
HETATM    6  C   UNL     1      -9.598  10.345  67.462  1.00  0.00    -0.156 C  
BRANCH   6   7
HETATM    7  C   UNL     1     -11.020  10.706  67.903  1.00  0.00    -0.351 C  
BRANCH   7   8
HETATM    8  C   UNL     1     -11.061  11.372  69.285  1.00  0.00    -0.313 C  
BRANCH   8   9
HETATM    9  C   UNL     1     -11.480  10.365  70.326  1.00  0.00    -0.406 A  
HETATM   10  C   UNL     1     -12.232   8.641  72.400  1.00  0.00    -0.419 A  
HETATM   11  C   UNL     1     -13.186   9.453  71.789  1.00  0.00    -0.487 A  
HETATM   12  C   UNL     1     -12.812  10.312  70.755  1.00  0.00    -0.427 A  
HETATM   13  C   UNL     1     -10.907   8.677  71.971  1.00  0.00    -0.430 A  
HETATM   14  C   UNL     1     -10.531   9.535  70.936  1.00  0.00    -0.382 A  
ENDBRANCH   8   9
ENDBRANCH   7   8
ENDBRANCH   6   7
BRANCH   6  15
HETATM   15  N   UNL     1      -9.196  10.969  66.187  1.00  0.00    -0.183 NA 
HETATM   16  H   UNL     1      -8.405  10.606  65.655  1.00  0.00     0.000 HD 
BRANCH  15  17
HETATM   17  C   UNL     1      -9.971  12.144  65.694  1.00  0.00    -0.249 C  
HETATM   18  O   UNL     1      -8.513  13.276  67.246  1.00  0.00    -0.192 OA 
HETATM   19  C   UNL     1     -11.432  11.723  65.593  1.00  0.00    -0.249 C  
HETATM   20  O   UNL     1     -10.480  17.255  69.224  1.00  0.00    -0.338 OA 
HETATM   21  O   UNL     1     -11.925  15.595  68.730  1.00  0.00    -0.348 OA 
HETATM   22  C   UNL     1     -12.327  12.737  64.907  1.00  0.00    -0.551 C  
HETATM   23  C   UNL     1      -9.615  13.316  66.673  1.00  0.00    -0.262 C  
HETATM   24  C   UNL     1     -12.632  13.891  65.830  1.00  0.00    -0.456 C  
HETATM   25  N   UNL     1     -11.520  14.795  66.026  1.00  0.00    -0.343 NA 
HETATM   26  C   UNL     1     -10.751  16.255  68.574  1.00  0.00    -0.307 C  
HETATM   27  C   UNL     1     -11.152  15.663  64.910  1.00  0.00    -0.402 C  
HETATM   28  N   UNL     1     -10.435  14.437  66.849  1.00  0.00    -0.268 N  
HETATM   29  C   UNL     1     -10.522  16.944  65.473  1.00  0.00    -0.220 C  
HETATM   30  C   UNL     1      -9.821  15.623  67.529  1.00  0.00    -0.228 C  
HETATM   31  C   UNL     1      -9.389  16.643  66.461  1.00  0.00    -0.290 C  
ENDBRANCH  15  17
ENDBRANCH   6  15
ENDBRANCH   4   6
ENDBRANCH   3   4
ENDBRANCH   2   3
TORSDOF 8
ENDMDL
MODEL       65
REMARK 921   NORMALIZED FREE ENERGY PREDICTED BY IDOCK:   -5.70 KCAL/MOL
REMARK 922        TOTAL FREE ENERGY PREDICTED BY IDOCK:   -9.57 KCAL/MOL
REMARK 923 INTER-LIGAND FREE ENERGY PREDICTED BY IDOCK:   -8.03 KCAL/MOL
REMARK 924 INTRA-LIGAND FREE ENERGY PREDICTED BY IDOCK:   -1.54 KCAL/MOL
REMARK 927      BINDING AFFINITY PREDICTED BY RF-SCORE:    0.00 PKD
ROOT
HETATM    1  C   UNL     1     -10.374   5.491  67.524  1.00  0.00    -0.268 C  
HETATM    2  C   UNL     1     -10.516   5.565  69.032  1.00  0.00    -0.226 C  
ENDROOT
BRANCH   2   3
HETATM    3  O   UNL     1     -11.684   6.321  69.378  1.00  0.00    -0.319 OA 
BRANCH   3   4
HETATM    4  C   UNL     1     -11.645   6.942  70.592  1.00  0.00    -0.353 C  
HETATM    5  O   UNL     1     -12.278   6.596  71.586  1.00  0.00    -0.343 OA 
BRANCH   4   6
HETATM    6  C   UNL     1     -10.667   8.128  70.552  1.00  0.00    -0.225 C  
BRANCH   6   7
HETATM    7  C   UNL     1     -10.332   8.568  71.981  1.00  0.00    -0.408 C  
BRANCH   7   8
HETATM    8  C   UNL     1      -8.823   8.576  72.261  1.00  0.00    -0.279 C  
BRANCH   8   9
HETATM    9  C   UNL     1      -8.211   7.277  71.800  1.00  0.00    -0.105 A  
HETATM   10  C   UNL     1      -7.238   4.839  70.825  1.00  0.00    -0.049 A  
HETATM   11  C   UNL     1      -6.977   6.020  70.133  1.00  0.00    -0.069 A  
HETATM   12  C   UNL     1      -7.461   7.235  70.618  1.00  0.00    -0.079 A  
HETATM   13  C   UNL     1      -7.972   4.872  72.010  1.00  0.00    -0.110 A  
HETATM   14  C   UNL     1      -8.456   6.087  72.498  1.00  0.00    -0.119 A  
ENDBRANCH   8   9
ENDBRANCH   7   8
ENDBRANCH   6   7
BRANCH   6  15
HETATM   15  N   UNL     1     -11.288   9.189  69.736  1.00  0.00    -0.435 NA 
HETATM   16  H   UNL     1     -12.293   9.363  69.785  1.00  0.00     0.000 HD 
BRANCH  15  17
HETATM   17  C   UNL     1     -10.417  10.002  68.840  1.00  0.00    -0.210 C  
HETATM   18  O   UNL     1     -12.333  11.463  68.932  1.00  0.00    -0.446 OA 
HETATM   19  C   UNL     1      -9.749   9.048  67.857  1.00  0.00    -0.185 C  
HETATM   20  O   UNL     1     -12.955  14.121  64.911  1.00  0.00    -0.705 OA 
HETATM   21  O   UNL     1     -12.046  12.080  64.601  1.00  0.00    -0.319 OA 
HETATM   22  C   UNL     1      -8.667   9.685  67.007  1.00  0.00    -0.135 C  
HETATM   23  C   UNL     1     -11.350  11.118  68.255  1.00  0.00    -0.297 C  
HETATM   24  C   UNL     1      -9.274  10.527  65.912  1.00  0.00    -0.179 C  
HETATM   25  N   UNL     1      -9.840  11.775  66.378  1.00  0.00    -0.208 NA 
HETATM   26  C   UNL     1     -12.340  13.164  65.361  1.00  0.00    -0.481 C  
HETATM   27  C   UNL     1      -8.911  12.822  66.796  1.00  0.00    -0.188 C  
HETATM   28  N   UNL     1     -11.069  11.798  67.064  1.00  0.00    -0.288 N  
HETATM   29  C   UNL     1      -9.574  14.186  66.565  1.00  0.00    -0.310 C  
HETATM   30  C   UNL     1     -11.840  13.058  66.808  1.00  0.00    -0.388 C  
HETATM   31  C   UNL     1     -10.968  14.265  67.199  1.00  0.00    -0.305 C  
ENDBRANCH  15  17
ENDBRANCH   6  15
ENDBRANCH   4   6
ENDBRANCH   3   4
ENDBRANCH   2   3
TORSDOF 8
ENDMDL
MODEL       66
REMARK 921   NORMALIZED FREE ENERGY PREDICTED BY IDOCK:   -5.69 KCAL/MOL
REMARK 922        TOTAL FREE ENERGY PREDICTED BY IDOCK:   -9.56 KCAL/MOL
REMARK 923 INTER-LIGAND FREE ENERGY PREDICTED BY IDOCK:   -8.27 KCAL/MOL
REMARK 924 INTRA-LIGAND FREE ENERGY PREDICTED BY IDOCK:   -1.29 KCAL/MOL
REMARK 927      BINDING AFFINITY PREDICTED BY RF-SCORE:    0.00 PKD
ROOT
HETATM    1  C   UNL     1     -12.700  11.865  63.340  1.00  0.00    -0.496 C  
HETATM    2  C   UNL     1     -12.077  13.247  63.350  1.00  0.00    -0.439 C  
ENDROOT
BRANCH   2   3
HETATM    3  O   UNL     1     -11.574  13.548  64.658  1.00  0.00    -0.341 OA 
BRANCH   3   4
HETATM    4  C   UNL     1     -12.518  13.776  65.615  1.00  0.00    -0.503 C  
HETATM    5  O   UNL     1     -13.621  14.280  65.418  1.00  0.00    -0.516 OA 
BRANCH   4   6
HETATM    6  C   UNL     1     -12.019  13.281  66.984  1.00  0.00    -0.365 C  
BRANCH   6   7
HETATM    7  C   UNL     1     -10.696  13.973  67.330  1.00  0.00    -0.278 C  
BRANCH   7   8
HETATM    8  C   UNL     1     -10.890  15.228  68.191  1.00  0.00    -0.273 C  
BRANCH   8   9
HETATM    9  C   UNL     1     -10.085  16.369  67.621  1.00  0.00    -0.263 A  
HETATM   10  C   UNL     1      -8.713  18.482  66.400  1.00  0.00    -0.274 A  
HETATM   11  C   UNL     1      -9.834  18.742  67.186  1.00  0.00    -0.352 A  
HETATM   12  C   UNL     1     -10.518  17.690  67.795  1.00  0.00    -0.379 A  
HETATM   13  C   UNL     1      -8.267  17.173  66.232  1.00  0.00    -0.306 A  
HETATM   14  C   UNL     1      -8.948  16.119  66.842  1.00  0.00    -0.248 A  
ENDBRANCH   8   9
ENDBRANCH   7   8
ENDBRANCH   6   7
BRANCH   6  15
HETATM   15  N   UNL     1     -11.917  11.811  66.915  1.00  0.00    -0.561 NA 
HETATM   16  H   UNL     1     -12.589  11.267  66.373  1.00  0.00     0.000 HD 
BRANCH  15  17
HETATM   17  C   UNL     1     -10.811  11.138  67.653  1.00  0.00    -0.247 C  
HETATM   18  O   UNL     1     -10.308  10.360  65.427  1.00  0.00    -0.275 OA 
HETATM   19  C   UNL     1     -11.389  10.593  68.954  1.00  0.00    -0.337 C  
HETATM   20  O   UNL     1      -8.174   5.995  65.320  1.00  0.00    -0.128 OA 
HETATM   21  O   UNL     1      -9.631   6.328  67.009  1.00  0.00    -0.130 OA 
HETATM   22  C   UNL     1     -10.351  10.060  69.923  1.00  0.00    -0.315 C  
HETATM   23  C   UNL     1     -10.201  10.109  66.639  1.00  0.00    -0.224 C  
HETATM   24  C   UNL     1      -9.851   8.708  69.478  1.00  0.00    -0.187 C  
HETATM   25  N   UNL     1      -8.963   8.758  68.337  1.00  0.00    -0.141 NA 
HETATM   26  C   UNL     1      -8.776   6.767  66.053  1.00  0.00    -0.146 C  
HETATM   27  C   UNL     1      -7.620   9.291  68.549  1.00  0.00    -0.085 C  
HETATM   28  N   UNL     1      -9.467   8.987  67.042  1.00  0.00    -0.155 N  
HETATM   29  C   UNL     1      -6.670   8.641  67.534  1.00  0.00    -0.066 C  
HETATM   30  C   UNL     1      -8.657   8.296  65.986  1.00  0.00    -0.149 C  
HETATM   31  C   UNL     1      -7.193   8.758  66.098  1.00  0.00    -0.085 C  
ENDBRANCH  15  17
ENDBRANCH   6  15
ENDBRANCH   4   6
ENDBRANCH   3   4
ENDBRANCH   2   3
TORSDOF 8
ENDMDL
MODEL       67
REMARK 921   NORMALIZED FREE ENERGY PREDICTED BY IDOCK:   -5.68 KCAL/MOL
REMARK 922        TOTAL FREE ENERGY PREDICTED BY IDOCK:   -9.55 KCAL/MOL
REMARK 923 INTER-LIGAND FREE ENERGY PREDICTED BY IDOCK:   -8.03 KCAL/MOL
REMARK 924 INTRA-LIGAND FREE ENERGY PREDICTED BY IDOCK:   -1.53 KCAL/MOL
REMARK 927      BINDING AFFINITY PREDICTED BY RF-SCORE:    0.00 PKD
ROOT
HETATM    1  C   UNL     1      -9.549  20.317  67.351  1.00  0.00    -0.569 C  
HETATM    2  C   UNL     1     -10.772  19.450  67.579  1.00  0.00    -0.453 C  
ENDROOT
BRANCH   2   3
HETATM    3  O   UNL     1     -10.541  18.132  67.063  1.00  0.00    -0.378 OA 
BRANCH   3   4
HETATM    4  C   UNL     1     -10.446  17.142  67.997  1.00  0.00    -0.369 C  
HETATM    5  O   UNL     1     -10.592  17.291  69.206  1.00  0.00    -0.319 OA 
BRANCH   4   6
HETATM    6  C   UNL     1     -10.158  15.794  67.314  1.00  0.00    -0.247 C  
BRANCH   6   7
HETATM    7  C   UNL     1     -11.323  15.425  66.390  1.00  0.00    -0.087 C  
BRANCH   7   8
HETATM    8  C   UNL     1     -10.893  15.275  64.924  1.00  0.00    -0.444 C  
BRANCH   8   9
HETATM    9  C   UNL     1     -11.045  13.839  64.490  1.00  0.00    -0.388 A  
HETATM   10  C   UNL     1     -11.247  11.227  63.503  1.00  0.00    -0.177 A  
HETATM   11  C   UNL     1     -10.067  11.652  64.110  1.00  0.00    -0.338 A  
HETATM   12  C   UNL     1      -9.966  12.954  64.602  1.00  0.00    -0.153 A  
HETATM   13  C   UNL     1     -12.331  12.096  63.398  1.00  0.00    -0.648 A  
HETATM   14  C   UNL     1     -12.233  13.398  63.892  1.00  0.00    -0.478 A  
ENDBRANCH   8   9
ENDBRANCH   7   8
ENDBRANCH   6   7
BRANCH   6  15
HETATM   15  N   UNL     1      -9.909  14.802  68.378  1.00  0.00    -0.214 NA 
HETATM   16  H   UNL     1     -10.264  14.950  69.323  1.00  0.00     0.000 HD 
BRANCH  15  17
HETATM   17  C   UNL     1      -9.127  13.577  68.042  1.00  0.00    -0.201 C  
HETATM   18  O   UNL     1     -11.276  12.558  68.441  1.00  0.00    -0.234 OA 
HETATM   19  C   UNL     1      -7.770  13.695  68.724  1.00  0.00    -0.064 C  
HETATM   20  O   UNL     1     -10.993   8.009  70.130  1.00  0.00    -0.249 OA 
HETATM   21  O   UNL     1      -9.319   9.387  70.752  1.00  0.00    -0.253 OA 
HETATM   22  C   UNL     1      -6.771  12.629  68.315  1.00  0.00    -0.081 C  
HETATM   23  C   UNL     1     -10.047  12.374  68.448  1.00  0.00    -0.217 C  
HETATM   24  C   UNL     1      -7.091  11.314  68.982  1.00  0.00    -0.116 C  
HETATM   25  N   UNL     1      -8.247  10.642  68.430  1.00  0.00    -0.119 NA 
HETATM   26  C   UNL     1     -10.328   9.016  69.926  1.00  0.00    -0.207 C  
HETATM   27  C   UNL     1      -8.111  10.044  67.105  1.00  0.00    -0.117 C  
HETATM   28  N   UNL     1      -9.549  11.093  68.719  1.00  0.00    -0.191 N  
HETATM   29  C   UNL     1      -9.074   8.853  67.003  1.00  0.00    -0.161 C  
HETATM   30  C   UNL     1     -10.546   9.974  68.747  1.00  0.00    -0.217 C  
HETATM   31  C   UNL     1     -10.506   9.235  67.398  1.00  0.00    -0.340 C  
ENDBRANCH  15  17
ENDBRANCH   6  15
ENDBRANCH   4   6
ENDBRANCH   3   4
ENDBRANCH   2   3
TORSDOF 8
ENDMDL
MODEL       68
REMARK 921   NORMALIZED FREE ENERGY PREDICTED BY IDOCK:   -5.66 KCAL/MOL
REMARK 922        TOTAL FREE ENERGY PREDICTED BY IDOCK:   -9.51 KCAL/MOL
REMARK 923 INTER-LIGAND FREE ENERGY PREDICTED BY IDOCK:   -8.35 KCAL/MOL
REMARK 924 INTRA-LIGAND FREE ENERGY PREDICTED BY IDOCK:   -1.16 KCAL/MOL
REMARK 927      BINDING AFFINITY PREDICTED BY RF-SCORE:    0.00 PKD
ROOT
HETATM    1  C   UNL     1     -12.960  10.086  71.721  1.00  0.00    -0.560 C  
HETATM    2  C   UNL     1     -11.650  10.529  71.099  1.00  0.00    -0.140 C  
ENDROOT
BRANCH   2   3
HETATM    3  O   UNL     1     -11.820  11.793  70.445  1.00  0.00    -0.343 OA 
BRANCH   3   4
HETATM    4  C   UNL     1     -11.738  11.768  69.084  1.00  0.00    -0.325 C  
HETATM    5  O   UNL     1     -12.228  10.906  68.360  1.00  0.00    -0.540 OA 
BRANCH   4   6
HETATM    6  C   UNL     1     -10.966  12.998  68.575  1.00  0.00    -0.263 C  
BRANCH   6   7
HETATM    7  C   UNL     1     -11.820  14.257  68.765  1.00  0.00    -0.377 C  
BRANCH   7   8
HETATM    8  C   UNL     1     -11.212  15.239  69.776  1.00  0.00    -0.300 C  
BRANCH   8   9
HETATM    9  C   UNL     1     -12.134  15.391  70.959  1.00  0.00    -0.417 A  
HETATM   10  C   UNL     1     -13.903  15.856  73.079  1.00  0.00    -0.477 A  
HETATM   11  C   UNL     1     -14.362  15.256  71.908  1.00  0.00    -0.691 A  
HETATM   12  C   UNL     1     -13.481  15.024  70.851  1.00  0.00    -0.402 A  
HETATM   13  C   UNL     1     -12.561  16.214  73.201  1.00  0.00    -0.599 A  
HETATM   14  C   UNL     1     -11.678  15.981  72.146  1.00  0.00    -0.587 A  
ENDBRANCH   8   9
ENDBRANCH   7   8
ENDBRANCH   6   7
BRANCH   6  15
HETATM   15  N   UNL     1     -10.597  12.741  67.170  1.00  0.00    -0.236 NA 
HETATM   16  H   UNL     1     -11.262  12.912  66.416  1.00  0.00     0.000 HD 
BRANCH  15  17
HETATM   17  C   UNL     1      -9.230  12.224  66.876  1.00  0.00    -0.209 C  
HETATM   18  O   UNL     1     -10.511  10.698  65.518  1.00  0.00    -0.248 OA 
HETATM   19  C   UNL     1      -8.449  12.214  68.185  1.00  0.00    -0.175 C  
HETATM   20  O   UNL     1      -8.452   6.324  65.023  1.00  0.00    -0.128 OA 
HETATM   21  O   UNL     1      -8.065   7.368  66.984  1.00  0.00    -0.110 OA 
HETATM   22  C   UNL     1      -6.971  11.913  68.028  1.00  0.00    -0.078 C  
HETATM   23  C   UNL     1      -9.452  10.852  66.149  1.00  0.00    -0.200 C  
HETATM   24  C   UNL     1      -6.749  10.440  67.783  1.00  0.00    -0.070 C  
HETATM   25  N   UNL     1      -7.123  10.004  66.456  1.00  0.00    -0.094 NA 
HETATM   26  C   UNL     1      -8.392   7.361  65.669  1.00  0.00    -0.140 C  
HETATM   27  C   UNL     1      -6.268  10.413  65.345  1.00  0.00    -0.127 C  
HETATM   28  N   UNL     1      -8.477   9.848  66.103  1.00  0.00    -0.123 N  
HETATM   29  C   UNL     1      -6.365   9.356  64.236  1.00  0.00    -0.089 C  
HETATM   30  C   UNL     1      -8.681   8.756  65.097  1.00  0.00    -0.167 C  
HETATM   31  C   UNL     1      -7.819   9.052  63.857  1.00  0.00    -0.133 C  
ENDBRANCH  15  17
ENDBRANCH   6  15
ENDBRANCH   4   6
ENDBRANCH   3   4
ENDBRANCH   2   3
TORSDOF 8
ENDMDL
MODEL       69
REMARK 921   NORMALIZED FREE ENERGY PREDICTED BY IDOCK:   -5.64 KCAL/MOL
REMARK 922        TOTAL FREE ENERGY PREDICTED BY IDOCK:   -9.49 KCAL/MOL
REMARK 923 INTER-LIGAND FREE ENERGY PREDICTED BY IDOCK:   -8.47 KCAL/MOL
REMARK 924 INTRA-LIGAND FREE ENERGY PREDICTED BY IDOCK:   -1.02 KCAL/MOL
REMARK 927      BINDING AFFINITY PREDICTED BY RF-SCORE:    0.00 PKD
ROOT
HETATM    1  C   UNL     1      -9.433  10.300  62.598  1.00  0.00    -0.309 C  
HETATM    2  C   UNL     1      -8.963   9.653  63.886  1.00  0.00    -0.218 C  
ENDROOT
BRANCH   2   3
HETATM    3  O   UNL     1      -9.814  10.047  64.971  1.00  0.00    -0.310 OA 
BRANCH   3   4
HETATM    4  C   UNL     1      -9.677   9.323  66.119  1.00  0.00    -0.279 C  
HETATM    5  O   UNL     1      -9.936   8.129  66.241  1.00  0.00    -0.207 OA 
BRANCH   4   6
HETATM    6  C   UNL     1      -9.119  10.213  67.245  1.00  0.00    -0.138 C  
BRANCH   6   7
HETATM    7  C   UNL     1     -10.148  10.318  68.375  1.00  0.00    -0.178 C  
BRANCH   7   8
HETATM    8  C   UNL     1      -9.598   9.839  69.725  1.00  0.00    -0.256 C  
BRANCH   8   9
HETATM    9  C   UNL     1     -10.733   9.631  70.696  1.00  0.00    -0.388 A  
HETATM   10  C   UNL     1     -12.939   9.144  72.349  1.00  0.00    -0.468 A  
HETATM   11  C   UNL     1     -11.918   8.200  72.255  1.00  0.00    -0.434 A  
HETATM   12  C   UNL     1     -10.818   8.442  71.431  1.00  0.00    -0.304 A  
HETATM   13  C   UNL     1     -12.857  10.336  71.632  1.00  0.00    -0.568 A  
HETATM   14  C   UNL     1     -11.756  10.581  70.809  1.00  0.00    -0.454 A  
ENDBRANCH   8   9
ENDBRANCH   7   8
ENDBRANCH   6   7
BRANCH   6  15
HETATM   15  N   UNL     1      -8.762  11.513  66.647  1.00  0.00    -0.178 NA 
HETATM   16  H   UNL     1      -8.617  11.602  65.641  1.00  0.00     0.000 HD 
BRANCH  15  17
HETATM   17  C   UNL     1      -8.617  12.694  67.545  1.00  0.00    -0.185 C  
HETATM   18  O   UNL     1     -10.373  13.520  66.114  1.00  0.00    -0.284 OA 
HETATM   19  C   UNL     1      -7.127  12.918  67.776  1.00  0.00    -0.137 C  
HETATM   20  O   UNL     1     -10.341  18.350  65.571  1.00  0.00    -0.570 OA 
HETATM   21  O   UNL     1      -8.322  17.386  65.857  1.00  0.00    -0.535 OA 
HETATM   22  C   UNL     1      -6.809  13.954  68.837  1.00  0.00    -0.109 C  
HETATM   23  C   UNL     1      -9.428  13.844  66.853  1.00  0.00    -0.258 C  
HETATM   24  C   UNL     1      -7.024  15.349  68.302  1.00  0.00    -0.116 C  
HETATM   25  N   UNL     1      -8.417  15.714  68.162  1.00  0.00    -0.146 NA 
HETATM   26  C   UNL     1      -9.671  17.411  65.980  1.00  0.00    -0.152 C  
HETATM   27  C   UNL     1      -9.175  15.965  69.385  1.00  0.00    -0.235 C  
HETATM   28  N   UNL     1      -9.195  15.201  67.107  1.00  0.00    -0.204 N  
HETATM   29  C   UNL     1     -10.294  16.967  69.071  1.00  0.00    -0.333 C  
HETATM   30  C   UNL     1     -10.253  16.164  66.660  1.00  0.00    -0.287 C  
HETATM   31  C   UNL     1     -11.135  16.532  67.866  1.00  0.00    -0.229 C  
ENDBRANCH  15  17
ENDBRANCH   6  15
ENDBRANCH   4   6
ENDBRANCH   3   4
ENDBRANCH   2   3
TORSDOF 8
ENDMDL
MODEL       70
REMARK 921   NORMALIZED FREE ENERGY PREDICTED BY IDOCK:   -5.64 KCAL/MOL
REMARK 922        TOTAL FREE ENERGY PREDICTED BY IDOCK:   -9.49 KCAL/MOL
REMARK 923 INTER-LIGAND FREE ENERGY PREDICTED BY IDOCK:   -8.44 KCAL/MOL
REMARK 924 INTRA-LIGAND FREE ENERGY PREDICTED BY IDOCK:   -1.05 KCAL/MOL
REMARK 927      BINDING AFFINITY PREDICTED BY RF-SCORE:    0.00 PKD
ROOT
HETATM    1  C   UNL     1      -7.643   6.698  66.093  1.00  0.00    -0.086 C  
HETATM    2  C   UNL     1      -7.818   7.451  67.397  1.00  0.00    -0.111 C  
ENDROOT
BRANCH   2   3
HETATM    3  O   UNL     1      -9.064   8.159  67.392  1.00  0.00    -0.132 OA 
BRANCH   3   4
HETATM    4  C   UNL     1      -9.833   8.007  68.509  1.00  0.00    -0.174 C  
HETATM    5  O   UNL     1     -10.734   7.184  68.643  1.00  0.00    -0.210 OA 
BRANCH   4   6
HETATM    6  C   UNL     1      -9.389   9.000  69.598  1.00  0.00    -0.167 C  
BRANCH   6   7
HETATM    7  C   UNL     1      -9.288   8.275  70.944  1.00  0.00    -0.187 C  
BRANCH   7   8
HETATM    8  C   UNL     1     -10.105   8.958  72.049  1.00  0.00    -0.351 C  
BRANCH   8   9
HETATM    9  C   UNL     1     -11.522   8.442  72.031  1.00  0.00    -0.418 A  
HETATM   10  C   UNL     1     -14.153   7.515  71.795  1.00  0.00    -0.509 A  
HETATM   11  C   UNL     1     -13.087   6.638  71.608  1.00  0.00    -0.142 A  
HETATM   12  C   UNL     1     -11.775   7.099  71.725  1.00  0.00    -0.324 A  
HETATM   13  C   UNL     1     -13.911   8.851  72.113  1.00  0.00    -0.520 A  
HETATM   14  C   UNL     1     -12.600   9.314  72.232  1.00  0.00    -0.402 A  
ENDBRANCH   8   9
ENDBRANCH   7   8
ENDBRANCH   6   7
BRANCH   6  15
HETATM   15  N   UNL     1     -10.353  10.117  69.599  1.00  0.00    -0.234 NA 
HETATM   16  H   UNL     1     -11.260  10.023  70.056  1.00  0.00     0.000 HD 
BRANCH  15  17
HETATM   17  C   UNL     1      -9.972  11.387  68.917  1.00  0.00    -0.131 C  
HETATM   18  O   UNL     1     -12.148  11.065  67.930  1.00  0.00    -0.600 OA 
HETATM   19  C   UNL     1      -8.505  11.275  68.519  1.00  0.00    -0.156 C  
HETATM   20  O   UNL     1     -12.544  12.884  63.440  1.00  0.00    -0.709 OA 
HETATM   21  O   UNL     1     -10.501  12.111  64.004  1.00  0.00    -0.322 OA 
HETATM   22  C   UNL     1      -7.899  12.565  67.999  1.00  0.00    -0.147 C  
HETATM   23  C   UNL     1     -11.027  11.575  67.771  1.00  0.00    -0.236 C  
HETATM   24  C   UNL     1      -8.352  12.836  66.585  1.00  0.00     0.119 C  
HETATM   25  N   UNL     1      -9.727  13.276  66.485  1.00  0.00    -0.268 NA 
HETATM   26  C   UNL     1     -11.729  12.598  64.307  1.00  0.00    -0.381 C  
HETATM   27  C   UNL     1     -10.038  14.627  66.944  1.00  0.00    -0.255 C  
HETATM   28  N   UNL     1     -10.789  12.365  66.640  1.00  0.00    -0.239 N  
HETATM   29  C   UNL     1     -11.246  15.147  66.154  1.00  0.00    -0.271 C  
HETATM   30  C   UNL     1     -11.983  12.738  65.814  1.00  0.00    -0.449 C  
HETATM   31  C   UNL     1     -12.423  14.165  66.188  1.00  0.00    -0.426 C  
ENDBRANCH  15  17
ENDBRANCH   6  15
ENDBRANCH   4   6
ENDBRANCH   3   4
ENDBRANCH   2   3
TORSDOF 8
ENDMDL
MODEL       71
REMARK 921   NORMALIZED FREE ENERGY PREDICTED BY IDOCK:   -5.64 KCAL/MOL
REMARK 922        TOTAL FREE ENERGY PREDICTED BY IDOCK:   -9.48 KCAL/MOL
REMARK 923 INTER-LIGAND FREE ENERGY PREDICTED BY IDOCK:   -8.27 KCAL/MOL
REMARK 924 INTRA-LIGAND FREE ENERGY PREDICTED BY IDOCK:   -1.22 KCAL/MOL
REMARK 927      BINDING AFFINITY PREDICTED BY RF-SCORE:    0.00 PKD
ROOT
HETATM    1  C   UNL     1     -12.513  11.620  63.238  1.00  0.00    -0.262 C  
HETATM    2  C   UNL     1     -12.214  13.102  63.119  1.00  0.00    -0.196 C  
ENDROOT
BRANCH   2   3
HETATM    3  O   UNL     1     -11.506  13.554  64.281  1.00  0.00    -0.376 OA 
BRANCH   3   4
HETATM    4  C   UNL     1     -12.215  13.541  65.446  1.00  0.00    -0.447 C  
HETATM    5  O   UNL     1     -13.409  13.807  65.553  1.00  0.00    -0.613 OA 
BRANCH   4   6
HETATM    6  C   UNL     1     -11.310  13.111  66.614  1.00  0.00    -0.325 C  
BRANCH   6   7
HETATM    7  C   UNL     1      -9.841  13.238  66.200  1.00  0.00    -0.286 C  
BRANCH   7   8
HETATM    8  C   UNL     1      -8.948  13.760  67.334  1.00  0.00    -0.224 C  
BRANCH   8   9
HETATM    9  C   UNL     1      -9.661  14.859  68.082  1.00  0.00    -0.210 A  
HETATM   10  C   UNL     1     -10.801  16.957  69.543  1.00  0.00    -0.144 A  
HETATM   11  C   UNL     1     -10.309  17.189  68.260  1.00  0.00    -0.354 A  
HETATM   12  C   UNL     1      -9.741  16.144  67.531  1.00  0.00    -0.233 A  
HETATM   13  C   UNL     1     -10.738  15.679  70.094  1.00  0.00    -0.355 A  
HETATM   14  C   UNL     1     -10.172  14.631  69.366  1.00  0.00    -0.099 A  
ENDBRANCH   8   9
ENDBRANCH   7   8
ENDBRANCH   6   7
BRANCH   6  15
HETATM   15  N   UNL     1     -11.701  11.740  66.996  1.00  0.00    -0.594 NA 
HETATM   16  H   UNL     1     -12.311  11.185  66.396  1.00  0.00     0.000 HD 
BRANCH  15  17
HETATM   17  C   UNL     1     -11.184  11.185  68.280  1.00  0.00    -0.279 C  
HETATM   18  O   UNL     1     -10.469   9.428  66.791  1.00  0.00    -0.243 OA 
HETATM   19  C   UNL     1     -12.247  11.422  69.346  1.00  0.00    -0.288 C  
HETATM   20  O   UNL     1     -10.283   5.048  68.889  1.00  0.00    -0.178 OA 
HETATM   21  O   UNL     1     -11.875   6.440  69.675  1.00  0.00    -0.323 OA 
HETATM   22  C   UNL     1     -11.795  11.104  70.759  1.00  0.00    -0.325 C  
HETATM   23  C   UNL     1     -10.789   9.701  67.961  1.00  0.00    -0.196 C  
HETATM   24  C   UNL     1     -11.772   9.613  70.989  1.00  0.00    -0.353 C  
HETATM   25  N   UNL     1     -10.673   8.936  70.335  1.00  0.00    -0.219 NA 
HETATM   26  C   UNL     1     -10.700   6.187  69.048  1.00  0.00    -0.312 C  
HETATM   27  C   UNL     1      -9.335   9.137  70.884  1.00  0.00    -0.269 C  
HETATM   28  N   UNL     1     -10.690   8.711  68.945  1.00  0.00    -0.142 N  
HETATM   29  C   UNL     1      -8.490   7.892  70.581  1.00  0.00    -0.125 C  
HETATM   30  C   UNL     1      -9.974   7.450  68.565  1.00  0.00    -0.165 C  
HETATM   31  C   UNL     1      -8.531   7.516  69.095  1.00  0.00    -0.136 C  
ENDBRANCH  15  17
ENDBRANCH   6  15
ENDBRANCH   4   6
ENDBRANCH   3   4
ENDBRANCH   2   3
TORSDOF 8
ENDMDL
MODEL       72
REMARK 921   NORMALIZED FREE ENERGY PREDICTED BY IDOCK:   -5.61 KCAL/MOL
REMARK 922        TOTAL FREE ENERGY PREDICTED BY IDOCK:   -9.45 KCAL/MOL
REMARK 923 INTER-LIGAND FREE ENERGY PREDICTED BY IDOCK:   -7.99 KCAL/MOL
REMARK 924 INTRA-LIGAND FREE ENERGY PREDICTED BY IDOCK:   -1.46 KCAL/MOL
REMARK 927      BINDING AFFINITY PREDICTED BY RF-SCORE:    0.00 PKD
ROOT
HETATM    1  C   UNL     1      -5.585  10.398  66.340  1.00  0.00    -0.061 C  
HETATM    2  C   UNL     1      -5.235  11.639  67.140  1.00  0.00    -0.096 C  
ENDROOT
BRANCH   2   3
HETATM    3  O   UNL     1      -6.207  12.665  66.904  1.00  0.00    -0.203 OA 
BRANCH   3   4
HETATM    4  C   UNL     1      -7.085  12.890  67.923  1.00  0.00    -0.127 C  
HETATM    5  O   UNL     1      -6.795  12.923  69.115  1.00  0.00    -0.101 OA 
BRANCH   4   6
HETATM    6  C   UNL     1      -8.499  13.131  67.363  1.00  0.00    -0.201 C  
BRANCH   6   7
HETATM    7  C   UNL     1      -8.982  11.876  66.630  1.00  0.00    -0.198 C  
BRANCH   7   8
HETATM    8  C   UNL     1     -10.503  11.686  66.717  1.00  0.00    -0.265 C  
BRANCH   8   9
HETATM    9  C   UNL     1     -10.896  11.352  68.135  1.00  0.00    -0.259 A  
HETATM   10  C   UNL     1     -11.790  10.636  70.689  1.00  0.00    -0.463 A  
HETATM   11  C   UNL     1     -10.996   9.756  69.958  1.00  0.00    -0.319 A  
HETATM   12  C   UNL     1     -10.549  10.111  68.685  1.00  0.00    -0.236 A  
HETATM   13  C   UNL     1     -12.130  11.878  70.155  1.00  0.00    -0.382 A  
HETATM   14  C   UNL     1     -11.683  12.237  68.883  1.00  0.00    -0.380 A  
ENDBRANCH   8   9
ENDBRANCH   7   8
ENDBRANCH   6   7
BRANCH   6  15
HETATM   15  N   UNL     1      -8.439  14.331  66.507  1.00  0.00    -0.387 NA 
HETATM   16  H   UNL     1      -7.840  14.353  65.681  1.00  0.00     0.000 HD 
BRANCH  15  17
HETATM   17  C   UNL     1      -9.272  15.511  66.875  1.00  0.00    -0.236 C  
HETATM   18  O   UNL     1      -7.318  16.666  66.062  1.00  0.00    -0.077 OA 
HETATM   19  C   UNL     1      -9.950  15.201  68.205  1.00  0.00    -0.221 C  
HETATM   20  O   UNL     1      -6.556  20.961  68.207  1.00  0.00    -0.275 OA 
HETATM   21  O   UNL     1      -7.517  19.381  69.499  1.00  0.00    -0.237 OA 
HETATM   22  C   UNL     1     -11.000  16.213  68.621  1.00  0.00    -0.336 C  
HETATM   23  C   UNL     1      -8.299  16.740  66.822  1.00  0.00    -0.237 C  
HETATM   24  C   UNL     1     -10.352  17.470  69.146  1.00  0.00    -0.239 C  
HETATM   25  N   UNL     1      -9.760  18.297  68.117  1.00  0.00    -0.311 NA 
HETATM   26  C   UNL     1      -7.206  19.927  68.299  1.00  0.00    -0.299 C  
HETATM   27  C   UNL     1     -10.665  19.022  67.230  1.00  0.00    -0.470 C  
HETATM   28  N   UNL     1      -8.542  17.934  67.511  1.00  0.00    -0.237 N  
HETATM   29  C   UNL     1      -9.961  20.297  66.746  1.00  0.00    -0.587 C  
HETATM   30  C   UNL     1      -7.732  19.127  67.100  1.00  0.00    -0.245 C  
HETATM   31  C   UNL     1      -8.576  20.002  66.157  1.00  0.00    -0.301 C  
ENDBRANCH  15  17
ENDBRANCH   6  15
ENDBRANCH   4   6
ENDBRANCH   3   4
ENDBRANCH   2   3
TORSDOF 8
ENDMDL
MODEL       73
REMARK 921   NORMALIZED FREE ENERGY PREDICTED BY IDOCK:   -5.61 KCAL/MOL
REMARK 922        TOTAL FREE ENERGY PREDICTED BY IDOCK:   -9.44 KCAL/MOL
REMARK 923 INTER-LIGAND FREE ENERGY PREDICTED BY IDOCK:   -8.61 KCAL/MOL
REMARK 924 INTRA-LIGAND FREE ENERGY PREDICTED BY IDOCK:   -0.84 KCAL/MOL
REMARK 927      BINDING AFFINITY PREDICTED BY RF-SCORE:    0.00 PKD
ROOT
HETATM    1  C   UNL     1      -8.341  10.357  65.361  1.00  0.00    -0.166 C  
HETATM    2  C   UNL     1      -9.839  10.152  65.482  1.00  0.00    -0.298 C  
ENDROOT
BRANCH   2   3
HETATM    3  O   UNL     1     -10.208  10.039  66.863  1.00  0.00    -0.216 OA 
BRANCH   3   4
HETATM    4  C   UNL     1     -11.172  10.905  67.288  1.00  0.00    -0.233 C  
HETATM    5  O   UNL     1     -11.757  11.719  66.579  1.00  0.00    -0.530 OA 
BRANCH   4   6
HETATM    6  C   UNL     1     -11.450  10.697  68.787  1.00  0.00    -0.262 C  
BRANCH   6   7
HETATM    7  C   UNL     1     -11.575  12.058  69.481  1.00  0.00    -0.389 C  
BRANCH   7   8
HETATM    8  C   UNL     1     -12.535  12.027  70.678  1.00  0.00    -0.335 C  
BRANCH   8   9
HETATM    9  C   UNL     1     -12.732  13.424  71.212  1.00  0.00    -0.424 A  
HETATM   10  C   UNL     1     -12.915  15.998  72.296  1.00  0.00    -0.406 A  
HETATM   11  C   UNL     1     -12.271  15.801  71.077  1.00  0.00    -0.466 A  
HETATM   12  C   UNL     1     -12.179  14.518  70.535  1.00  0.00    -0.399 A  
HETATM   13  C   UNL     1     -13.479  14.917  72.971  1.00  0.00    -0.496 A  
HETATM   14  C   UNL     1     -13.391  13.633  72.431  1.00  0.00    -0.641 A  
ENDBRANCH   8   9
ENDBRANCH   7   8
ENDBRANCH   6   7
BRANCH   6  15
HETATM   15  N   UNL     1     -10.365   9.855  69.327  1.00  0.00    -0.205 NA 
HETATM   16  H   UNL     1      -9.394  10.165  69.284  1.00  0.00     0.000 HD 
BRANCH  15  17
HETATM   17  C   UNL     1     -10.719   8.541  69.936  1.00  0.00    -0.224 C  
HETATM   18  O   UNL     1      -9.252   9.374  71.659  1.00  0.00    -0.258 OA 
HETATM   19  C   UNL     1     -10.705   7.499  68.824  1.00  0.00    -0.122 C  
HETATM   20  O   UNL     1      -6.885   5.878  74.066  1.00  0.00    -0.079 OA 
HETATM   21  O   UNL     1      -7.331   5.441  71.898  1.00  0.00    -0.086 OA 
HETATM   22  C   UNL     1     -11.248   6.143  69.233  1.00  0.00    -0.438 C  
HETATM   23  C   UNL     1      -9.716   8.352  71.127  1.00  0.00    -0.186 C  
HETATM   24  C   UNL     1     -10.239   5.393  70.068  1.00  0.00    -0.279 C  
HETATM   25  N   UNL     1     -10.100   5.901  71.416  1.00  0.00    -0.192 NA 
HETATM   26  C   UNL     1      -7.560   6.087  73.067  1.00  0.00    -0.098 C  
HETATM   27  C   UNL     1     -11.196   5.651  72.347  1.00  0.00    -0.280 C  
HETATM   28  N   UNL     1      -9.403   7.099  71.667  1.00  0.00    -0.152 N  
HETATM   29  C   UNL     1     -10.627   5.595  73.771  1.00  0.00    -0.303 C  
HETATM   30  C   UNL     1      -8.720   7.090  73.001  1.00  0.00    -0.121 C  
HETATM   31  C   UNL     1      -9.767   6.822  74.096  1.00  0.00    -0.325 C  
ENDBRANCH  15  17
ENDBRANCH   6  15
ENDBRANCH   4   6
ENDBRANCH   3   4
ENDBRANCH   2   3
TORSDOF 8
ENDMDL
MODEL       74
REMARK 921   NORMALIZED FREE ENERGY PREDICTED BY IDOCK:   -5.60 KCAL/MOL
REMARK 922        TOTAL FREE ENERGY PREDICTED BY IDOCK:   -9.43 KCAL/MOL
REMARK 923 INTER-LIGAND FREE ENERGY PREDICTED BY IDOCK:   -7.89 KCAL/MOL
REMARK 924 INTRA-LIGAND FREE ENERGY PREDICTED BY IDOCK:   -1.55 KCAL/MOL
REMARK 927      BINDING AFFINITY PREDICTED BY RF-SCORE:    0.00 PKD
ROOT
HETATM    1  C   UNL     1     -11.603   8.237  71.253  1.00  0.00    -0.318 C  
HETATM    2  C   UNL     1     -10.544   9.321  71.185  1.00  0.00    -0.332 C  
ENDROOT
BRANCH   2   3
HETATM    3  O   UNL     1      -9.245   8.730  71.048  1.00  0.00    -0.181 OA 
BRANCH   3   4
HETATM    4  C   UNL     1      -8.308   9.504  70.431  1.00  0.00    -0.192 C  
HETATM    5  O   UNL     1      -7.211   9.799  70.899  1.00  0.00    -0.310 OA 
BRANCH   4   6
HETATM    6  C   UNL     1      -8.806   9.936  69.041  1.00  0.00    -0.156 C  
BRANCH   6   7
HETATM    7  C   UNL     1      -8.110   9.102  67.961  1.00  0.00    -0.105 C  
BRANCH   7   8
HETATM    8  C   UNL     1      -9.101   8.373  67.043  1.00  0.00    -0.171 C  
BRANCH   8   9
HETATM    9  C   UNL     1      -8.941   8.864  65.626  1.00  0.00    -0.249 A  
HETATM   10  C   UNL     1      -8.806   9.660  62.945  1.00  0.00    -0.252 A  
HETATM   11  C   UNL     1      -9.623  10.352  63.837  1.00  0.00    -0.370 A  
HETATM   12  C   UNL     1      -9.690   9.957  65.173  1.00  0.00    -0.376 A  
HETATM   13  C   UNL     1      -8.046   8.579  63.389  1.00  0.00    -0.160 A  
HETATM   14  C   UNL     1      -8.111   8.182  64.726  1.00  0.00    -0.152 A  
ENDBRANCH   8   9
ENDBRANCH   7   8
ENDBRANCH   6   7
BRANCH   6  15
HETATM   15  N   UNL     1      -8.566  11.387  68.914  1.00  0.00    -0.354 NA 
HETATM   16  H   UNL     1      -7.847  11.847  69.473  1.00  0.00     0.000 HD 
BRANCH  15  17
HETATM   17  C   UNL     1      -9.398  12.165  67.953  1.00  0.00    -0.192 C  
HETATM   18  O   UNL     1      -7.980  13.944  68.754  1.00  0.00    -0.129 OA 
HETATM   19  C   UNL     1     -10.840  11.693  68.102  1.00  0.00    -0.260 C  
HETATM   20  O   UNL     1     -10.111  18.312  68.704  1.00  0.00    -0.370 OA 
HETATM   21  O   UNL     1     -11.482  16.561  69.083  1.00  0.00    -0.237 OA 
HETATM   22  C   UNL     1     -11.786  12.236  67.048  1.00  0.00    -0.399 C  
HETATM   23  C   UNL     1      -9.088  13.672  68.261  1.00  0.00    -0.193 C  
HETATM   24  C   UNL     1     -12.136  13.675  67.335  1.00  0.00    -0.337 C  
HETATM   25  N   UNL     1     -11.064  14.606  67.054  1.00  0.00    -0.324 NA 
HETATM   26  C   UNL     1     -10.342  17.114  68.603  1.00  0.00    -0.359 C  
HETATM   27  C   UNL     1     -10.746  14.865  65.652  1.00  0.00    -0.342 C  
HETATM   28  N   UNL     1      -9.957  14.714  67.917  1.00  0.00    -0.219 N  
HETATM   29  C   UNL     1     -10.171  16.282  65.534  1.00  0.00    -0.326 C  
HETATM   30  C   UNL     1      -9.393  16.102  67.947  1.00  0.00    -0.212 C  
HETATM   31  C   UNL     1      -9.016  16.519  66.515  1.00  0.00    -0.312 C  
ENDBRANCH  15  17
ENDBRANCH   6  15
ENDBRANCH   4   6
ENDBRANCH   3   4
ENDBRANCH   2   3
TORSDOF 8
ENDMDL
MODEL       75
REMARK 921   NORMALIZED FREE ENERGY PREDICTED BY IDOCK:   -5.60 KCAL/MOL
REMARK 922        TOTAL FREE ENERGY PREDICTED BY IDOCK:   -9.43 KCAL/MOL
REMARK 923 INTER-LIGAND FREE ENERGY PREDICTED BY IDOCK:   -8.21 KCAL/MOL
REMARK 924 INTRA-LIGAND FREE ENERGY PREDICTED BY IDOCK:   -1.22 KCAL/MOL
REMARK 927      BINDING AFFINITY PREDICTED BY RF-SCORE:    0.00 PKD
ROOT
HETATM    1  C   UNL     1     -12.285  13.169  63.984  1.00  0.00    -0.482 C  
HETATM    2  C   UNL     1     -12.594  13.857  65.300  1.00  0.00    -0.478 C  
ENDROOT
BRANCH   2   3
HETATM    3  O   UNL     1     -11.812  13.277  66.352  1.00  0.00    -0.358 OA 
BRANCH   3   4
HETATM    4  C   UNL     1     -11.115  14.159  67.125  1.00  0.00    -0.307 C  
HETATM    5  O   UNL     1     -11.605  14.901  67.972  1.00  0.00    -0.324 OA 
BRANCH   4   6
HETATM    6  C   UNL     1      -9.612  14.074  66.805  1.00  0.00    -0.286 C  
BRANCH   6   7
HETATM    7  C   UNL     1      -9.169  15.343  66.071  1.00  0.00    -0.333 C  
BRANCH   7   8
HETATM    8  C   UNL     1      -8.314  16.268  66.947  1.00  0.00    -0.267 C  
BRANCH   8   9
HETATM    9  C   UNL     1      -8.804  17.689  66.821  1.00  0.00    -0.275 A  
HETATM   10  C   UNL     1      -9.790  20.308  66.776  1.00  0.00    -0.586 A  
HETATM   11  C   UNL     1      -8.532  20.048  67.315  1.00  0.00    -0.390 A  
HETATM   12  C   UNL     1      -8.039  18.743  67.338  1.00  0.00    -0.265 A  
HETATM   13  C   UNL     1     -10.553  19.268  66.248  1.00  0.00    -0.545 A  
HETATM   14  C   UNL     1     -10.061  17.962  66.268  1.00  0.00    -0.351 A  
ENDBRANCH   8   9
ENDBRANCH   7   8
ENDBRANCH   6   7
BRANCH   6  15
HETATM   15  N   UNL     1      -9.392  12.836  66.033  1.00  0.00    -0.446 NA 
HETATM   16  H   UNL     1      -9.757  12.741  65.085  1.00  0.00     0.000 HD 
BRANCH  15  17
HETATM   17  C   UNL     1      -8.626  11.726  66.669  1.00  0.00    -0.170 C  
HETATM   18  O   UNL     1     -10.097  10.420  65.274  1.00  0.00    -0.293 OA 
HETATM   19  C   UNL     1      -8.452  12.071  68.144  1.00  0.00    -0.171 C  
HETATM   20  O   UNL     1     -11.142   6.040  67.103  1.00  0.00    -0.301 OA 
HETATM   21  O   UNL     1     -10.801   7.675  68.619  1.00  0.00    -0.113 OA 
HETATM   22  C   UNL     1      -7.513  11.147  68.894  1.00  0.00    -0.125 C  
HETATM   23  C   UNL     1      -9.417  10.419  66.314  1.00  0.00    -0.171 C  
HETATM   24  C   UNL     1      -8.185   9.829  69.192  1.00  0.00    -0.130 C  
HETATM   25  N   UNL     1      -8.332   8.972  68.036  1.00  0.00    -0.117 NA 
HETATM   26  C   UNL     1     -10.652   7.124  67.390  1.00  0.00    -0.302 C  
HETATM   27  C   UNL     1      -7.126   8.343  67.505  1.00  0.00    -0.083 C  
HETATM   28  N   UNL     1      -9.311   9.239  67.060  1.00  0.00    -0.140 N  
HETATM   29  C   UNL     1      -7.518   7.020  66.832  1.00  0.00    -0.086 C  
HETATM   30  C   UNL     1      -9.833   7.987  66.421  1.00  0.00    -0.167 C  
HETATM   31  C   UNL     1      -8.653   7.204  65.818  1.00  0.00    -0.143 C  
ENDBRANCH  15  17
ENDBRANCH   6  15
ENDBRANCH   4   6
ENDBRANCH   3   4
ENDBRANCH   2   3
TORSDOF 8
ENDMDL
MODEL       76
REMARK 921   NORMALIZED FREE ENERGY PREDICTED BY IDOCK:   -5.60 KCAL/MOL
REMARK 922        TOTAL FREE ENERGY PREDICTED BY IDOCK:   -9.43 KCAL/MOL
REMARK 923 INTER-LIGAND FREE ENERGY PREDICTED BY IDOCK:   -8.31 KCAL/MOL
REMARK 924 INTRA-LIGAND FREE ENERGY PREDICTED BY IDOCK:   -1.12 KCAL/MOL
REMARK 927      BINDING AFFINITY PREDICTED BY RF-SCORE:    0.00 PKD
ROOT
HETATM    1  C   UNL     1     -14.238   8.130  72.028  1.00  0.00    -0.486 C  
HETATM    2  C   UNL     1     -13.768   9.549  72.287  1.00  0.00    -0.371 C  
ENDROOT
BRANCH   2   3
HETATM    3  O   UNL     1     -12.431   9.720  71.797  1.00  0.00    -0.371 OA 
BRANCH   3   4
HETATM    4  C   UNL     1     -12.238  10.792  70.977  1.00  0.00    -0.380 C  
HETATM    5  O   UNL     1     -12.673  11.923  71.173  1.00  0.00    -0.371 OA 
BRANCH   4   6
HETATM    6  C   UNL     1     -11.364  10.391  69.775  1.00  0.00    -0.289 C  
BRANCH   6   7
HETATM    7  C   UNL     1     -11.840  11.135  68.522  1.00  0.00    -0.330 C  
BRANCH   7   8
HETATM    8  C   UNL     1     -10.679  11.599  67.632  1.00  0.00    -0.249 C  
BRANCH   8   9
HETATM    9  C   UNL     1     -11.187  11.894  66.242  1.00  0.00    -0.392 A  
HETATM   10  C   UNL     1     -11.994  12.596  63.656  1.00  0.00    -0.615 A  
HETATM   11  C   UNL     1     -10.918  11.731  63.838  1.00  0.00    -0.476 A  
HETATM   12  C   UNL     1     -10.514  11.380  65.126  1.00  0.00    -0.351 A  
HETATM   13  C   UNL     1     -12.677  13.103  64.760  1.00  0.00    -0.373 A  
HETATM   14  C   UNL     1     -12.277  12.752  66.050  1.00  0.00    -0.380 A  
ENDBRANCH   8   9
ENDBRANCH   7   8
ENDBRANCH   6   7
BRANCH   6  15
HETATM   15  N   UNL     1     -11.428   8.922  69.651  1.00  0.00    -0.420 NA 
HETATM   16  H   UNL     1     -12.326   8.441  69.598  1.00  0.00     0.000 HD 
BRANCH  15  17
HETATM   17  C   UNL     1     -10.150   8.156  69.603  1.00  0.00    -0.199 C  
HETATM   18  O   UNL     1     -11.696   6.309  69.720  1.00  0.00    -0.403 OA 
HETATM   19  C   UNL     1      -9.149   8.871  70.502  1.00  0.00    -0.233 C  
HETATM   20  O   UNL     1      -9.882   2.383  71.939  1.00  0.00    -0.144 OA 
HETATM   21  O   UNL     1      -9.122   4.369  72.693  1.00  0.00    -0.116 OA 
HETATM   22  C   UNL     1      -7.732   8.340  70.405  1.00  0.00    -0.084 C  
HETATM   23  C   UNL     1     -10.537   6.681  69.970  1.00  0.00    -0.224 C  
HETATM   24  C   UNL     1      -7.598   7.034  71.149  1.00  0.00    -0.086 C  
HETATM   25  N   UNL     1      -8.215   5.911  70.476  1.00  0.00    -0.117 NA 
HETATM   26  C   UNL     1      -9.678   3.575  71.746  1.00  0.00    -0.164 C  
HETATM   27  C   UNL     1      -7.561   5.402  69.275  1.00  0.00    -0.077 C  
HETATM   28  N   UNL     1      -9.615   5.754  70.471  1.00  0.00    -0.169 N  
HETATM   29  C   UNL     1      -7.884   3.908  69.137  1.00  0.00    -0.052 C  
HETATM   30  C   UNL     1     -10.025   4.313  70.446  1.00  0.00    -0.142 C  
HETATM   31  C   UNL     1      -9.390   3.634  69.220  1.00  0.00    -0.245 C  
ENDBRANCH  15  17
ENDBRANCH   6  15
ENDBRANCH   4   6
ENDBRANCH   3   4
ENDBRANCH   2   3
TORSDOF 8
ENDMDL
MODEL       77
REMARK 921   NORMALIZED FREE ENERGY PREDICTED BY IDOCK:   -5.59 KCAL/MOL
REMARK 922        TOTAL FREE ENERGY PREDICTED BY IDOCK:   -9.41 KCAL/MOL
REMARK 923 INTER-LIGAND FREE ENERGY PREDICTED BY IDOCK:   -8.14 KCAL/MOL
REMARK 924 INTRA-LIGAND FREE ENERGY PREDICTED BY IDOCK:   -1.27 KCAL/MOL
REMARK 927      BINDING AFFINITY PREDICTED BY RF-SCORE:    0.00 PKD
ROOT
HETATM    1  C   UNL     1     -10.908   6.836  66.904  1.00  0.00    -0.402 C  
HETATM    2  C   UNL     1      -9.820   7.817  66.512  1.00  0.00    -0.185 C  
ENDROOT
BRANCH   2   3
HETATM    3  O   UNL     1      -9.774   8.900  67.450  1.00  0.00    -0.159 OA 
BRANCH   3   4
HETATM    4  C   UNL     1      -8.694   9.726  67.344  1.00  0.00    -0.132 C  
HETATM    5  O   UNL     1      -8.284  10.229  66.302  1.00  0.00    -0.124 OA 
BRANCH   4   6
HETATM    6  C   UNL     1      -8.071   9.966  68.731  1.00  0.00    -0.102 C  
BRANCH   6   7
HETATM    7  C   UNL     1      -8.431   8.806  69.665  1.00  0.00    -0.129 C  
BRANCH   7   8
HETATM    8  C   UNL     1      -9.162   9.270  70.932  1.00  0.00    -0.300 C  
BRANCH   8   9
HETATM    9  C   UNL     1     -10.519   8.616  71.009  1.00  0.00    -0.276 A  
HETATM   10  C   UNL     1     -12.989   7.341  71.341  1.00  0.00    -0.420 A  
HETATM   11  C   UNL     1     -12.824   8.658  71.763  1.00  0.00    -0.397 A  
HETATM   12  C   UNL     1     -11.593   9.295  71.598  1.00  0.00    -0.463 A  
HETATM   13  C   UNL     1     -11.930   6.662  70.741  1.00  0.00    -0.412 A  
HETATM   14  C   UNL     1     -10.699   7.297  70.573  1.00  0.00    -0.249 A  
ENDBRANCH   8   9
ENDBRANCH   7   8
ENDBRANCH   6   7
BRANCH   6  15
HETATM   15  N   UNL     1      -8.545  11.280  69.208  1.00  0.00    -0.373 NA 
HETATM   16  H   UNL     1      -8.225  11.657  70.101  1.00  0.00     0.000 HD 
BRANCH  15  17
HETATM   17  C   UNL     1      -9.502  12.044  68.358  1.00  0.00    -0.181 C  
HETATM   18  O   UNL     1      -7.701  13.646  68.436  1.00  0.00    -0.125 OA 
HETATM   19  C   UNL     1     -10.895  11.855  68.947  1.00  0.00    -0.261 C  
HETATM   20  O   UNL     1      -9.182  18.264  68.111  1.00  0.00    -0.285 OA 
HETATM   21  O   UNL     1     -10.609  16.851  69.138  1.00  0.00    -0.325 OA 
HETATM   22  C   UNL     1     -12.017  12.396  68.081  1.00  0.00    -0.272 C  
HETATM   23  C   UNL     1      -8.927  13.502  68.294  1.00  0.00    -0.180 C  
HETATM   24  C   UNL     1     -12.085  13.901  68.175  1.00  0.00    -0.282 C  
HETATM   25  N   UNL     1     -11.022  14.581  67.467  1.00  0.00    -0.285 NA 
HETATM   26  C   UNL     1      -9.584  17.122  68.295  1.00  0.00    -0.280 C  
HETATM   27  C   UNL     1     -11.072  14.575  66.008  1.00  0.00    -0.329 C  
HETATM   28  N   UNL     1      -9.716  14.618  67.991  1.00  0.00    -0.212 N  
HETATM   29  C   UNL     1     -10.373  15.840  65.489  1.00  0.00    -0.430 C  
HETATM   30  C   UNL     1      -8.991  15.877  67.622  1.00  0.00    -0.190 C  
HETATM   31  C   UNL     1      -8.973  16.012  66.089  1.00  0.00    -0.381 C  
ENDBRANCH  15  17
ENDBRANCH   6  15
ENDBRANCH   4   6
ENDBRANCH   3   4
ENDBRANCH   2   3
TORSDOF 8
ENDMDL
MODEL       78
REMARK 921   NORMALIZED FREE ENERGY PREDICTED BY IDOCK:   -5.58 KCAL/MOL
REMARK 922        TOTAL FREE ENERGY PREDICTED BY IDOCK:   -9.40 KCAL/MOL
REMARK 923 INTER-LIGAND FREE ENERGY PREDICTED BY IDOCK:   -8.62 KCAL/MOL
REMARK 924 INTRA-LIGAND FREE ENERGY PREDICTED BY IDOCK:   -0.79 KCAL/MOL
REMARK 927      BINDING AFFINITY PREDICTED BY RF-SCORE:    0.00 PKD
ROOT
HETATM    1  C   UNL     1      -6.426  20.582  66.862  1.00  0.00    -0.283 C  
HETATM    2  C   UNL     1      -7.292  20.407  65.629  1.00  0.00    -0.127 C  
ENDROOT
BRANCH   2   3
HETATM    3  O   UNL     1      -8.293  19.410  65.871  1.00  0.00    -0.431 OA 
BRANCH   3   4
HETATM    4  C   UNL     1      -9.114  19.644  66.935  1.00  0.00    -0.342 C  
HETATM    5  O   UNL     1      -9.587  20.736  67.239  1.00  0.00    -0.457 OA 
BRANCH   4   6
HETATM    6  C   UNL     1      -9.390  18.333  67.691  1.00  0.00    -0.267 C  
BRANCH   6   7
HETATM    7  C   UNL     1      -8.111  17.864  68.392  1.00  0.00    -0.302 C  
BRANCH   7   8
HETATM    8  C   UNL     1      -7.182  17.072  67.463  1.00  0.00    -0.173 C  
BRANCH   8   9
HETATM    9  C   UNL     1      -6.737  15.802  68.144  1.00  0.00    -0.130 A  
HETATM   10  C   UNL     1      -6.107  13.414  69.462  1.00  0.00    -0.110 A  
HETATM   11  C   UNL     1      -6.505  13.388  68.127  1.00  0.00    -0.119 A  
HETATM   12  C   UNL     1      -6.819  14.577  67.469  1.00  0.00    -0.168 A  
HETATM   13  C   UNL     1      -6.010  14.629  70.139  1.00  0.00    -0.149 A  
HETATM   14  C   UNL     1      -6.322  15.820  69.482  1.00  0.00    -0.171 A  
ENDBRANCH   8   9
ENDBRANCH   7   8
ENDBRANCH   6   7
BRANCH   6  15
HETATM   15  N   UNL     1      -9.922  17.362  66.716  1.00  0.00    -0.294 NA 
HETATM   16  H   UNL     1     -10.142  17.648  65.762  1.00  0.00     0.000 HD 
BRANCH  15  17
HETATM   17  C   UNL     1     -10.131  15.953  67.156  1.00  0.00    -0.264 C  
HETATM   18  O   UNL     1      -9.952  15.586  64.780  1.00  0.00    -0.245 OA 
HETATM   19  C   UNL     1     -11.205  15.961  68.237  1.00  0.00    -0.354 C  
HETATM   20  O   UNL     1     -12.505  11.765  63.197  1.00  0.00    -0.490 OA 
HETATM   21  O   UNL     1     -13.383  12.863  64.962  1.00  0.00    -0.682 OA 
HETATM   22  C   UNL     1     -11.391  14.632  68.942  1.00  0.00    -0.305 C  
HETATM   23  C   UNL     1     -10.423  15.147  65.843  1.00  0.00    -0.336 C  
HETATM   24  C   UNL     1     -12.154  13.666  68.069  1.00  0.00    -0.274 C  
HETATM   25  N   UNL     1     -11.380  13.134  66.969  1.00  0.00    -0.298 NA 
HETATM   26  C   UNL     1     -12.350  12.500  64.163  1.00  0.00    -0.462 C  
HETATM   27  C   UNL     1     -10.333  12.166  67.286  1.00  0.00    -0.212 C  
HETATM   28  N   UNL     1     -11.100  13.922  65.836  1.00  0.00    -0.290 N  
HETATM   29  C   UNL     1     -10.142  11.237  66.079  1.00  0.00    -0.283 C  
HETATM   30  C   UNL     1     -11.003  13.104  64.584  1.00  0.00    -0.356 C  
HETATM   31  C   UNL     1      -9.929  12.019  64.778  1.00  0.00    -0.241 C  
ENDBRANCH  15  17
ENDBRANCH   6  15
ENDBRANCH   4   6
ENDBRANCH   3   4
ENDBRANCH   2   3
TORSDOF 8
ENDMDL
MODEL       79
REMARK 921   NORMALIZED FREE ENERGY PREDICTED BY IDOCK:   -5.58 KCAL/MOL
REMARK 922        TOTAL FREE ENERGY PREDICTED BY IDOCK:   -9.40 KCAL/MOL
REMARK 923 INTER-LIGAND FREE ENERGY PREDICTED BY IDOCK:   -8.07 KCAL/MOL
REMARK 924 INTRA-LIGAND FREE ENERGY PREDICTED BY IDOCK:   -1.33 KCAL/MOL
REMARK 927      BINDING AFFINITY PREDICTED BY RF-SCORE:    0.00 PKD
ROOT
HETATM    1  C   UNL     1     -13.001  10.521  71.813  1.00  0.00    -0.582 C  
HETATM    2  C   UNL     1     -12.669  10.694  70.343  1.00  0.00    -0.265 C  
ENDROOT
BRANCH   2   3
HETATM    3  O   UNL     1     -11.308  11.121  70.195  1.00  0.00    -0.279 OA 
BRANCH   3   4
HETATM    4  C   UNL     1     -10.422  10.150  69.834  1.00  0.00    -0.275 C  
HETATM    5  O   UNL     1      -9.647   9.578  70.595  1.00  0.00    -0.258 OA 
BRANCH   4   6
HETATM    6  C   UNL     1     -10.550   9.846  68.331  1.00  0.00    -0.222 C  
BRANCH   6   7
HETATM    7  C   UNL     1     -10.375   8.342  68.093  1.00  0.00    -0.255 C  
BRANCH   7   8
HETATM    8  C   UNL     1     -10.117   8.001  66.619  1.00  0.00    -0.329 C  
BRANCH   8   9
HETATM    9  C   UNL     1      -9.549   6.608  66.508  1.00  0.00    -0.187 A  
HETATM   10  C   UNL     1      -8.468   4.026  66.506  1.00  0.00    -0.105 A  
HETATM   11  C   UNL     1      -9.832   4.209  66.726  1.00  0.00    -0.203 A  
HETATM   12  C   UNL     1     -10.372   5.496  66.727  1.00  0.00    -0.321 A  
HETATM   13  C   UNL     1      -7.644   5.126  66.274  1.00  0.00    -0.088 A  
HETATM   14  C   UNL     1      -8.182   6.414  66.273  1.00  0.00    -0.118 A  
ENDBRANCH   8   9
ENDBRANCH   7   8
ENDBRANCH   6   7
BRANCH   6  15
HETATM   15  N   UNL     1      -9.556  10.676  67.623  1.00  0.00    -0.160 NA 
HETATM   16  H   UNL     1      -8.559  10.473  67.698  1.00  0.00     0.000 HD 
BRANCH  15  17
HETATM   17  C   UNL     1     -10.041  11.819  66.798  1.00  0.00    -0.209 C  
HETATM   18  O   UNL     1      -8.763  13.048  68.432  1.00  0.00    -0.172 OA 
HETATM   19  C   UNL     1     -11.501  11.551  66.450  1.00  0.00    -0.150 C  
HETATM   20  O   UNL     1     -10.476  17.514  69.293  1.00  0.00    -0.321 OA 
HETATM   21  O   UNL     1     -12.023  15.960  68.764  1.00  0.00    -0.368 OA 
HETATM   22  C   UNL     1     -12.088  12.515  65.437  1.00  0.00    -0.494 C  
HETATM   23  C   UNL     1      -9.715  13.104  67.635  1.00  0.00    -0.213 C  
HETATM   24  C   UNL     1     -12.395  13.844  66.081  1.00  0.00    -0.465 C  
HETATM   25  N   UNL     1     -11.222  14.641  66.369  1.00  0.00    -0.332 NA 
HETATM   26  C   UNL     1     -10.758  16.447  68.764  1.00  0.00    -0.321 C  
HETATM   27  C   UNL     1     -10.522  15.245  65.239  1.00  0.00    -0.411 C  
HETATM   28  N   UNL     1     -10.382  14.322  67.453  1.00  0.00    -0.258 N  
HETATM   29  C   UNL     1      -9.834  16.529  65.718  1.00  0.00    -0.275 C  
HETATM   30  C   UNL     1      -9.745  15.537  68.056  1.00  0.00    -0.207 C  
HETATM   31  C   UNL     1      -8.970  16.291  66.961  1.00  0.00    -0.227 C  
ENDBRANCH  15  17
ENDBRANCH   6  15
ENDBRANCH   4   6
ENDBRANCH   3   4
ENDBRANCH   2   3
TORSDOF 8
ENDMDL
MODEL       80
REMARK 921   NORMALIZED FREE ENERGY PREDICTED BY IDOCK:   -5.57 KCAL/MOL
REMARK 922        TOTAL FREE ENERGY PREDICTED BY IDOCK:   -9.39 KCAL/MOL
REMARK 923 INTER-LIGAND FREE ENERGY PREDICTED BY IDOCK:   -8.10 KCAL/MOL
REMARK 924 INTRA-LIGAND FREE ENERGY PREDICTED BY IDOCK:   -1.29 KCAL/MOL
REMARK 927      BINDING AFFINITY PREDICTED BY RF-SCORE:    0.00 PKD
ROOT
HETATM    1  C   UNL     1      -5.287   7.634  67.710  1.00  0.00    -0.031 C  
HETATM    2  C   UNL     1      -5.899   8.072  69.027  1.00  0.00    -0.035 C  
ENDROOT
BRANCH   2   3
HETATM    3  O   UNL     1      -6.839   9.131  68.803  1.00  0.00    -0.059 OA 
BRANCH   3   4
HETATM    4  C   UNL     1      -7.563   9.517  69.892  1.00  0.00    -0.123 C  
HETATM    5  O   UNL     1      -7.092   9.848  70.976  1.00  0.00    -0.339 OA 
BRANCH   4   6
HETATM    6  C   UNL     1      -9.066   9.508  69.562  1.00  0.00    -0.185 C  
BRANCH   6   7
HETATM    7  C   UNL     1      -9.628   8.096  69.759  1.00  0.00    -0.171 C  
BRANCH   7   8
HETATM    8  C   UNL     1     -10.026   7.813  71.214  1.00  0.00    -0.199 C  
BRANCH   8   9
HETATM    9  C   UNL     1     -11.497   8.084  71.404  1.00  0.00    -0.293 A  
HETATM   10  C   UNL     1     -14.203   8.542  71.956  1.00  0.00    -0.535 A  
HETATM   11  C   UNL     1     -13.278   9.573  72.108  1.00  0.00    -0.539 A  
HETATM   12  C   UNL     1     -11.929   9.345  71.833  1.00  0.00    -0.416 A  
HETATM   13  C   UNL     1     -13.785   7.287  71.518  1.00  0.00    -0.451 A  
HETATM   14  C   UNL     1     -12.437   7.058  71.240  1.00  0.00    -0.430 A  
ENDBRANCH   8   9
ENDBRANCH   7   8
ENDBRANCH   6   7
BRANCH   6  15
HETATM   15  N   UNL     1      -9.222  10.021  68.188  1.00  0.00    -0.127 NA 
HETATM   16  H   UNL     1      -8.582   9.731  67.447  1.00  0.00     0.000 HD 
BRANCH  15  17
HETATM   17  C   UNL     1     -10.334  10.972  67.904  1.00  0.00    -0.186 C  
HETATM   18  O   UNL     1      -8.703  11.820  66.343  1.00  0.00    -0.193 OA 
HETATM   19  C   UNL     1     -10.957  11.365  69.238  1.00  0.00    -0.282 C  
HETATM   20  O   UNL     1      -9.105  16.590  65.500  1.00  0.00    -0.404 OA 
HETATM   21  O   UNL     1      -9.685  15.912  67.572  1.00  0.00    -0.222 OA 
HETATM   22  C   UNL     1     -12.239  12.166  69.116  1.00  0.00    -0.086 C  
HETATM   23  C   UNL     1      -9.696  12.109  67.032  1.00  0.00    -0.202 C  
HETATM   24  C   UNL     1     -11.941  13.595  68.734  1.00  0.00    -0.359 C  
HETATM   25  N   UNL     1     -11.540  13.762  67.354  1.00  0.00    -0.341 NA 
HETATM   26  C   UNL     1      -9.480  15.698  66.250  1.00  0.00    -0.319 C  
HETATM   27  C   UNL     1     -12.568  13.603  66.328  1.00  0.00    -0.291 C  
HETATM   28  N   UNL     1     -10.251  13.390  66.928  1.00  0.00    -0.249 N  
HETATM   29  C   UNL     1     -12.188  14.463  65.116  1.00  0.00    -0.393 C  
HETATM   30  C   UNL     1      -9.751  14.253  65.809  1.00  0.00    -0.234 C  
HETATM   31  C   UNL     1     -10.754  14.192  64.644  1.00  0.00    -0.408 C  
ENDBRANCH  15  17
ENDBRANCH   6  15
ENDBRANCH   4   6
ENDBRANCH   3   4
ENDBRANCH   2   3
TORSDOF 8
ENDMDL
MODEL       81
REMARK 921   NORMALIZED FREE ENERGY PREDICTED BY IDOCK:   -5.57 KCAL/MOL
REMARK 922        TOTAL FREE ENERGY PREDICTED BY IDOCK:   -9.39 KCAL/MOL
REMARK 923 INTER-LIGAND FREE ENERGY PREDICTED BY IDOCK:   -7.19 KCAL/MOL
REMARK 924 INTRA-LIGAND FREE ENERGY PREDICTED BY IDOCK:   -2.20 KCAL/MOL
REMARK 927      BINDING AFFINITY PREDICTED BY RF-SCORE:    0.00 PKD
ROOT
HETATM    1  C   UNL     1     -12.150  13.573  64.287  1.00  0.00    -0.482 C  
HETATM    2  C   UNL     1     -12.672  13.948  65.660  1.00  0.00    -0.495 C  
ENDROOT
BRANCH   2   3
HETATM    3  O   UNL     1     -12.520  12.844  66.561  1.00  0.00    -0.396 OA 
BRANCH   3   4
HETATM    4  C   UNL     1     -11.674  13.051  67.611  1.00  0.00    -0.366 C  
HETATM    5  O   UNL     1     -11.918  13.747  68.592  1.00  0.00    -0.351 OA 
BRANCH   4   6
HETATM    6  C   UNL     1     -10.370  12.259  67.407  1.00  0.00    -0.206 C  
BRANCH   6   7
HETATM    7  C   UNL     1     -10.620  11.096  66.442  1.00  0.00    -0.315 C  
BRANCH   7   8
HETATM    8  C   UNL     1      -9.644  11.086  65.258  1.00  0.00    -0.270 C  
BRANCH   8   9
HETATM    9  C   UNL     1      -8.734   9.887  65.355  1.00  0.00    -0.175 A  
HETATM   10  C   UNL     1      -7.038   7.693  65.737  1.00  0.00    -0.061 A  
HETATM   11  C   UNL     1      -8.416   7.537  65.864  1.00  0.00    -0.153 A  
HETATM   12  C   UNL     1      -9.263   8.629  65.674  1.00  0.00    -0.204 A  
HETATM   13  C   UNL     1      -6.503   8.937  65.407  1.00  0.00    -0.067 A  
HETATM   14  C   UNL     1      -7.348  10.031  65.215  1.00  0.00    -0.137 A  
ENDBRANCH   8   9
ENDBRANCH   7   8
ENDBRANCH   6   7
BRANCH   6  15
HETATM   15  N   UNL     1      -9.897  11.834  68.738  1.00  0.00    -0.374 NA 
HETATM   16  H   UNL     1      -9.908  12.480  69.527  1.00  0.00     0.000 HD 
BRANCH  15  17
HETATM   17  C   UNL     1      -9.402  10.437  68.904  1.00  0.00    -0.186 C  
HETATM   18  O   UNL     1     -11.389  10.300  70.264  1.00  0.00    -0.277 OA 
HETATM   19  C   UNL     1      -7.890  10.502  69.087  1.00  0.00    -0.138 C  
HETATM   20  O   UNL     1     -11.032   7.124  73.925  1.00  0.00    -0.177 OA 
HETATM   21  O   UNL     1      -9.114   8.155  73.337  1.00  0.00    -0.266 OA 
HETATM   22  C   UNL     1      -7.200   9.152  69.061  1.00  0.00    -0.072 C  
HETATM   23  C   UNL     1     -10.253   9.832  70.074  1.00  0.00    -0.263 C  
HETATM   24  C   UNL     1      -7.413   8.418  70.363  1.00  0.00    -0.067 C  
HETATM   25  N   UNL     1      -8.750   7.889  70.524  1.00  0.00    -0.135 NA 
HETATM   26  C   UNL     1     -10.372   7.719  73.084  1.00  0.00    -0.340 C  
HETATM   27  C   UNL     1      -9.124   6.739  69.706  1.00  0.00    -0.143 C  
HETATM   28  N   UNL     1      -9.829   8.738  70.838  1.00  0.00    -0.204 N  
HETATM   29  C   UNL     1     -10.183   5.924  70.460  1.00  0.00    -0.271 C  
HETATM   30  C   UNL     1     -10.869   8.052  71.671  1.00  0.00    -0.237 C  
HETATM   31  C   UNL     1     -11.355   6.796  70.927  1.00  0.00    -0.363 C  
ENDBRANCH  15  17
ENDBRANCH   6  15
ENDBRANCH   4   6
ENDBRANCH   3   4
ENDBRANCH   2   3
TORSDOF 8
ENDMDL
MODEL       82
REMARK 921   NORMALIZED FREE ENERGY PREDICTED BY IDOCK:   -5.55 KCAL/MOL
REMARK 922        TOTAL FREE ENERGY PREDICTED BY IDOCK:   -9.36 KCAL/MOL
REMARK 923 INTER-LIGAND FREE ENERGY PREDICTED BY IDOCK:   -7.71 KCAL/MOL
REMARK 924 INTRA-LIGAND FREE ENERGY PREDICTED BY IDOCK:   -1.64 KCAL/MOL
REMARK 927      BINDING AFFINITY PREDICTED BY RF-SCORE:    0.00 PKD
ROOT
HETATM    1  C   UNL     1      -7.457   5.186  66.966  1.00  0.00    -0.087 C  
HETATM    2  C   UNL     1      -7.075   6.492  67.635  1.00  0.00    -0.084 C  
ENDROOT
BRANCH   2   3
HETATM    3  O   UNL     1      -7.094   7.558  66.677  1.00  0.00    -0.074 OA 
BRANCH   3   4
HETATM    4  C   UNL     1      -8.332   7.993  66.304  1.00  0.00    -0.121 C  
HETATM    5  O   UNL     1      -8.723   8.110  65.146  1.00  0.00    -0.122 OA 
BRANCH   4   6
HETATM    6  C   UNL     1      -9.188   8.290  67.547  1.00  0.00    -0.137 C  
BRANCH   6   7
HETATM    7  C   UNL     1     -10.649   7.927  67.265  1.00  0.00    -0.365 C  
BRANCH   7   8
HETATM    8  C   UNL     1     -10.969   6.462  67.590  1.00  0.00    -0.441 C  
BRANCH   8   9
HETATM    9  C   UNL     1     -10.881   6.237  69.079  1.00  0.00    -0.400 A  
HETATM   10  C   UNL     1     -10.862   5.676  71.821  1.00  0.00    -0.301 A  
HETATM   11  C   UNL     1     -10.073   4.926  70.952  1.00  0.00    -0.292 A  
HETATM   12  C   UNL     1     -10.081   5.204  69.585  1.00  0.00    -0.332 A  
HETATM   13  C   UNL     1     -11.651   6.714  71.328  1.00  0.00    -0.374 A  
HETATM   14  C   UNL     1     -11.660   6.996  69.961  1.00  0.00    -0.226 A  
ENDBRANCH   8   9
ENDBRANCH   7   8
ENDBRANCH   6   7
BRANCH   6  15
HETATM   15  N   UNL     1      -8.987   9.710  67.895  1.00  0.00    -0.119 NA 
HETATM   16  H   UNL     1      -8.091  10.037  68.258  1.00  0.00     0.000 HD 
BRANCH  15  17
HETATM   17  C   UNL     1     -10.122  10.658  67.704  1.00  0.00    -0.177 C  
HETATM   18  O   UNL     1      -8.534  11.660  66.191  1.00  0.00    -0.126 OA 
HETATM   19  C   UNL     1     -10.730  10.932  69.075  1.00  0.00    -0.262 C  
HETATM   20  O   UNL     1      -9.041  16.472  65.735  1.00  0.00    -0.487 OA 
HETATM   21  O   UNL     1      -9.572  15.621  67.756  1.00  0.00    -0.209 OA 
HETATM   22  C   UNL     1     -12.028  11.714  69.037  1.00  0.00    -0.368 C  
HETATM   23  C   UNL     1      -9.520  11.873  66.916  1.00  0.00    -0.199 C  
HETATM   24  C   UNL     1     -11.764  13.174  68.765  1.00  0.00    -0.324 C  
HETATM   25  N   UNL     1     -11.390  13.457  67.396  1.00  0.00    -0.295 NA 
HETATM   26  C   UNL     1      -9.386  15.516  66.418  1.00  0.00    -0.298 C  
HETATM   27  C   UNL     1     -12.432  13.360  66.378  1.00  0.00    -0.236 C  
HETATM   28  N   UNL     1     -10.101  13.147  66.922  1.00  0.00    -0.241 N  
HETATM   29  C   UNL     1     -12.088  14.321  65.232  1.00  0.00    -0.400 C  
HETATM   30  C   UNL     1      -9.637  14.105  65.868  1.00  0.00    -0.178 C  
HETATM   31  C   UNL     1     -10.659  14.116  64.717  1.00  0.00    -0.439 C  
ENDBRANCH  15  17
ENDBRANCH   6  15
ENDBRANCH   4   6
ENDBRANCH   3   4
ENDBRANCH   2   3
TORSDOF 8
ENDMDL
MODEL       83
REMARK 921   NORMALIZED FREE ENERGY PREDICTED BY IDOCK:   -5.49 KCAL/MOL
REMARK 922        TOTAL FREE ENERGY PREDICTED BY IDOCK:   -9.27 KCAL/MOL
REMARK 923 INTER-LIGAND FREE ENERGY PREDICTED BY IDOCK:   -8.22 KCAL/MOL
REMARK 924 INTRA-LIGAND FREE ENERGY PREDICTED BY IDOCK:   -1.06 KCAL/MOL
REMARK 927      BINDING AFFINITY PREDICTED BY RF-SCORE:    0.00 PKD
ROOT
HETATM    1  C   UNL     1      -7.854   9.921  66.892  1.00  0.00    -0.102 C  
HETATM    2  C   UNL     1      -8.570  10.226  65.590  1.00  0.00    -0.161 C  
ENDROOT
BRANCH   2   3
HETATM    3  O   UNL     1      -8.956  11.607  65.555  1.00  0.00    -0.109 OA 
BRANCH   3   4
HETATM    4  C   UNL     1     -10.294  11.842  65.432  1.00  0.00    -0.268 C  
HETATM    5  O   UNL     1     -10.963  11.618  64.427  1.00  0.00    -0.319 OA 
BRANCH   4   6
HETATM    6  C   UNL     1     -10.859  12.402  66.749  1.00  0.00    -0.248 C  
BRANCH   6   7
HETATM    7  C   UNL     1     -11.444  11.259  67.585  1.00  0.00    -0.341 C  
BRANCH   7   8
HETATM    8  C   UNL     1     -10.635  10.984  68.860  1.00  0.00    -0.239 C  
BRANCH   8   9
HETATM    9  C   UNL     1     -11.568  10.615  69.987  1.00  0.00    -0.406 A  
HETATM   10  C   UNL     1     -13.149   9.985  72.210  1.00  0.00    -0.385 A  
HETATM   11  C   UNL     1     -13.133  11.287  71.713  1.00  0.00    -0.527 A  
HETATM   12  C   UNL     1     -12.346  11.602  70.606  1.00  0.00    -0.437 A  
HETATM   13  C   UNL     1     -12.388   8.994  71.594  1.00  0.00    -0.416 A  
HETATM   14  C   UNL     1     -11.601   9.305  70.484  1.00  0.00    -0.266 A  
ENDBRANCH   8   9
ENDBRANCH   7   8
ENDBRANCH   6   7
BRANCH   6  15
HETATM   15  N   UNL     1     -11.842  13.445  66.401  1.00  0.00    -0.375 NA 
HETATM   16  H   UNL     1     -12.539  13.284  65.673  1.00  0.00     0.000 HD 
BRANCH  15  17
HETATM   17  C   UNL     1     -11.797  14.741  67.138  1.00  0.00    -0.286 C  
HETATM   18  O   UNL     1     -10.001  15.130  65.576  1.00  0.00    -0.335 OA 
HETATM   19  C   UNL     1     -11.981  14.436  68.620  1.00  0.00    -0.332 C  
HETATM   20  O   UNL     1      -6.527  18.066  67.287  1.00  0.00    -0.164 OA 
HETATM   21  O   UNL     1      -7.559  16.775  68.823  1.00  0.00    -0.217 OA 
HETATM   22  C   UNL     1     -12.170  15.664  69.490  1.00  0.00    -0.231 C  
HETATM   23  C   UNL     1     -10.457  15.424  66.694  1.00  0.00    -0.293 C  
HETATM   24  C   UNL     1     -10.854  16.370  69.709  1.00  0.00    -0.343 C  
HETATM   25  N   UNL     1     -10.377  17.092  68.550  1.00  0.00    -0.341 NA 
HETATM   26  C   UNL     1      -7.503  17.410  67.626  1.00  0.00    -0.183 C  
HETATM   27  C   UNL     1     -11.080  18.318  68.181  1.00  0.00     0.320 C  
HETATM   28  N   UNL     1      -9.815  16.408  67.455  1.00  0.00    -0.236 N  
HETATM   29  C   UNL     1     -10.093  19.255  67.474  1.00  0.00    -0.487 C  
HETATM   30  C   UNL     1      -8.757  17.213  66.764  1.00  0.00    -0.244 C  
HETATM   31  C   UNL     1      -9.361  18.558  66.322  1.00  0.00    -0.243 C  
ENDBRANCH  15  17
ENDBRANCH   6  15
ENDBRANCH   4   6
ENDBRANCH   3   4
ENDBRANCH   2   3
TORSDOF 8
ENDMDL
MODEL       84
REMARK 921   NORMALIZED FREE ENERGY PREDICTED BY IDOCK:   -5.49 KCAL/MOL
REMARK 922        TOTAL FREE ENERGY PREDICTED BY IDOCK:   -9.27 KCAL/MOL
REMARK 923 INTER-LIGAND FREE ENERGY PREDICTED BY IDOCK:   -7.87 KCAL/MOL
REMARK 924 INTRA-LIGAND FREE ENERGY PREDICTED BY IDOCK:   -1.40 KCAL/MOL
REMARK 927      BINDING AFFINITY PREDICTED BY RF-SCORE:    0.00 PKD
ROOT
HETATM    1  C   UNL     1      -8.838   5.646  66.706  1.00  0.00    -0.115 C  
HETATM    2  C   UNL     1      -8.502   6.881  65.892  1.00  0.00    -0.144 C  
ENDROOT
BRANCH   2   3
HETATM    3  O   UNL     1      -8.581   8.050  66.718  1.00  0.00    -0.123 OA 
BRANCH   3   4
HETATM    4  C   UNL     1      -9.318   9.080  66.213  1.00  0.00    -0.225 C  
HETATM    5  O   UNL     1      -9.854   9.093  65.108  1.00  0.00     0.001 OA 
BRANCH   4   6
HETATM    6  C   UNL     1      -9.411  10.222  67.240  1.00  0.00    -0.149 C  
BRANCH   6   7
HETATM    7  C   UNL     1     -10.848  10.329  67.762  1.00  0.00    -0.346 C  
BRANCH   7   8
HETATM    8  C   UNL     1     -10.959  10.022  69.261  1.00  0.00    -0.264 C  
BRANCH   8   9
HETATM    9  C   UNL     1     -11.735  11.115  69.952  1.00  0.00    -0.433 A  
HETATM   10  C   UNL     1     -13.007  13.185  71.342  1.00  0.00    -0.386 A  
HETATM   11  C   UNL     1     -12.282  13.466  70.187  1.00  0.00    -0.385 A  
HETATM   12  C   UNL     1     -11.648  12.435  69.493  1.00  0.00    -0.353 A  
HETATM   13  C   UNL     1     -13.111  11.872  71.800  1.00  0.00    -0.465 A  
HETATM   14  C   UNL     1     -12.479  10.839  71.107  1.00  0.00    -0.519 A  
ENDBRANCH   8   9
ENDBRANCH   7   8
ENDBRANCH   6   7
BRANCH   6  15
HETATM   15  N   UNL     1      -8.926  11.450  66.583  1.00  0.00    -0.175 NA 
HETATM   16  H   UNL     1      -8.783  11.480  65.573  1.00  0.00     0.000 HD 
BRANCH  15  17
HETATM   17  C   UNL     1      -8.649  12.648  67.427  1.00  0.00    -0.189 C  
HETATM   18  O   UNL     1     -10.560  13.475  66.210  1.00  0.00    -0.282 OA 
HETATM   19  C   UNL     1      -7.139  12.848  67.463  1.00  0.00    -0.153 C  
HETATM   20  O   UNL     1     -10.518  18.291  65.552  1.00  0.00    -0.616 OA 
HETATM   21  O   UNL     1      -8.495  17.295  65.604  1.00  0.00    -0.475 OA 
HETATM   22  C   UNL     1      -6.673  13.901  68.450  1.00  0.00    -0.099 C  
HETATM   23  C   UNL     1      -9.524  13.797  66.815  1.00  0.00    -0.275 C  
HETATM   24  C   UNL     1      -6.931  15.287  67.914  1.00  0.00    -0.146 C  
HETATM   25  N   UNL     1      -8.324  15.676  67.942  1.00  0.00    -0.144 NA 
HETATM   26  C   UNL     1      -9.817  17.348  65.896  1.00  0.00    -0.103 C  
HETATM   27  C   UNL     1      -8.917  15.968  69.244  1.00  0.00    -0.228 C  
HETATM   28  N   UNL     1      -9.238  15.155  67.006  1.00  0.00    -0.211 N  
HETATM   29  C   UNL     1     -10.051  16.983  69.050  1.00  0.00    -0.290 C  
HETATM   30  C   UNL     1     -10.328  16.127  66.673  1.00  0.00    -0.296 C  
HETATM   31  C   UNL     1     -11.045  16.538  67.971  1.00  0.00    -0.275 C  
ENDBRANCH  15  17
ENDBRANCH   6  15
ENDBRANCH   4   6
ENDBRANCH   3   4
ENDBRANCH   2   3
TORSDOF 8
ENDMDL
MODEL       85
REMARK 921   NORMALIZED FREE ENERGY PREDICTED BY IDOCK:   -5.48 KCAL/MOL
REMARK 922        TOTAL FREE ENERGY PREDICTED BY IDOCK:   -9.25 KCAL/MOL
REMARK 923 INTER-LIGAND FREE ENERGY PREDICTED BY IDOCK:   -8.04 KCAL/MOL
REMARK 924 INTRA-LIGAND FREE ENERGY PREDICTED BY IDOCK:   -1.21 KCAL/MOL
REMARK 927      BINDING AFFINITY PREDICTED BY RF-SCORE:    0.00 PKD
ROOT
HETATM    1  C   UNL     1     -10.233  11.732  63.468  1.00  0.00    -0.483 C  
HETATM    2  C   UNL     1     -10.116  11.809  64.978  1.00  0.00    -0.263 C  
ENDROOT
BRANCH   2   3
HETATM    3  O   UNL     1     -11.419  11.752  65.575  1.00  0.00    -0.281 OA 
BRANCH   3   4
HETATM    4  C   UNL     1     -11.596  12.532  66.680  1.00  0.00    -0.380 C  
HETATM    5  O   UNL     1     -12.503  13.345  66.836  1.00  0.00    -0.254 OA 
BRANCH   4   6
HETATM    6  C   UNL     1     -10.509  12.227  67.725  1.00  0.00    -0.209 C  
BRANCH   6   7
HETATM    7  C   UNL     1     -10.754  10.841  68.333  1.00  0.00    -0.255 C  
BRANCH   7   8
HETATM    8  C   UNL     1      -9.453  10.126  68.720  1.00  0.00    -0.171 C  
BRANCH   8   9
HETATM    9  C   UNL     1      -9.420   8.752  68.097  1.00  0.00    -0.152 A  
HETATM   10  C   UNL     1      -9.485   6.142  67.089  1.00  0.00    -0.128 A  
HETATM   11  C   UNL     1     -10.454   7.063  66.697  1.00  0.00    -0.209 A  
HETATM   12  C   UNL     1     -10.422   8.365  67.199  1.00  0.00    -0.380 A  
HETATM   13  C   UNL     1      -8.476   6.521  67.972  1.00  0.00    -0.119 A  
HETATM   14  C   UNL     1      -8.441   7.823  68.474  1.00  0.00    -0.129 A  
ENDBRANCH   8   9
ENDBRANCH   7   8
ENDBRANCH   6   7
BRANCH   6  15
HETATM   15  N   UNL     1     -10.528  13.319  68.716  1.00  0.00    -0.363 NA 
HETATM   16  H   UNL     1     -11.216  13.329  69.470  1.00  0.00     0.000 HD 
BRANCH  15  17
HETATM   17  C   UNL     1      -9.519  14.410  68.593  1.00  0.00    -0.193 C  
HETATM   18  O   UNL     1     -11.516  15.755  68.737  1.00  0.00    -0.347 OA 
HETATM   19  C   UNL     1      -8.500  13.980  67.545  1.00  0.00    -0.201 C  
HETATM   20  O   UNL     1     -11.199  19.980  66.354  1.00  0.00    -0.007 OA 
HETATM   21  O   UNL     1     -10.037  18.265  65.460  1.00  0.00    -0.465 OA 
HETATM   22  C   UNL     1      -7.286  14.884  67.446  1.00  0.00    -0.222 C  
HETATM   23  C   UNL     1     -10.348  15.712  68.314  1.00  0.00    -0.244 C  
HETATM   24  C   UNL     1      -7.629  16.160  66.716  1.00  0.00    -0.233 C  
HETATM   25  N   UNL     1      -8.429  17.083  67.492  1.00  0.00    -0.198 NA 
HETATM   26  C   UNL     1     -10.648  18.895  66.493  1.00  0.00    -0.389 C  
HETATM   27  C   UNL     1      -7.774  17.780  68.596  1.00  0.00    -0.283 C  
HETATM   28  N   UNL     1      -9.801  16.847  67.703  1.00  0.00    -0.254 N  
HETATM   29  C   UNL     1      -8.474  19.128  68.808  1.00  0.00    -0.376 C  
HETATM   30  C   UNL     1     -10.586  18.119  67.815  1.00  0.00    -0.389 C  
HETATM   31  C   UNL     1      -9.993  18.973  68.950  1.00  0.00    -0.460 C  
ENDBRANCH  15  17
ENDBRANCH   6  15
ENDBRANCH   4   6
ENDBRANCH   3   4
ENDBRANCH   2   3
TORSDOF 8
ENDMDL
MODEL       86
REMARK 921   NORMALIZED FREE ENERGY PREDICTED BY IDOCK:   -5.46 KCAL/MOL
REMARK 922        TOTAL FREE ENERGY PREDICTED BY IDOCK:   -9.23 KCAL/MOL
REMARK 923 INTER-LIGAND FREE ENERGY PREDICTED BY IDOCK:   -7.52 KCAL/MOL
REMARK 924 INTRA-LIGAND FREE ENERGY PREDICTED BY IDOCK:   -1.71 KCAL/MOL
REMARK 927      BINDING AFFINITY PREDICTED BY RF-SCORE:    0.00 PKD
ROOT
HETATM    1  C   UNL     1     -10.307  11.376  63.753  1.00  0.00    -0.447 C  
HETATM    2  C   UNL     1     -10.238  10.627  65.070  1.00  0.00    -0.310 C  
ENDROOT
BRANCH   2   3
HETATM    3  O   UNL     1      -9.153  11.127  65.863  1.00  0.00    -0.195 OA 
BRANCH   3   4
HETATM    4  C   UNL     1      -8.818  10.370  66.947  1.00  0.00    -0.133 C  
HETATM    5  O   UNL     1      -8.279   9.268  66.904  1.00  0.00    -0.117 OA 
BRANCH   4   6
HETATM    6  C   UNL     1      -9.186  11.110  68.246  1.00  0.00    -0.169 C  
BRANCH   6   7
HETATM    7  C   UNL     1      -8.755  12.576  68.143  1.00  0.00    -0.190 C  
BRANCH   7   8
HETATM    8  C   UNL     1      -9.900  13.553  68.444  1.00  0.00    -0.225 C  
BRANCH   8   9
HETATM    9  C   UNL     1     -10.578  13.958  67.159  1.00  0.00    -0.277 A  
HETATM   10  C   UNL     1     -11.791  14.523  64.700  1.00  0.00    -0.462 A  
HETATM   11  C   UNL     1     -12.519  13.890  65.706  1.00  0.00    -0.530 A  
HETATM   12  C   UNL     1     -11.915  13.608  66.932  1.00  0.00    -0.454 A  
HETATM   13  C   UNL     1     -10.464  14.886  64.921  1.00  0.00    -0.389 A  
HETATM   14  C   UNL     1      -9.858  14.607  66.148  1.00  0.00    -0.334 A  
ENDBRANCH   8   9
ENDBRANCH   7   8
ENDBRANCH   6   7
BRANCH   6  15
HETATM   15  N   UNL     1      -8.554  10.384  69.364  1.00  0.00    -0.276 NA 
HETATM   16  H   UNL     1      -7.538  10.333  69.445  1.00  0.00     0.000 HD 
BRANCH  15  17
HETATM   17  C   UNL     1      -9.431   9.726  70.374  1.00  0.00    -0.143 C  
HETATM   18  O   UNL     1      -7.581   8.180  70.415  1.00  0.00    -0.072 OA 
HETATM   19  C   UNL     1     -10.862   9.788  69.852  1.00  0.00    -0.306 C  
HETATM   20  O   UNL     1      -8.871   3.620  71.494  1.00  0.00    -0.090 OA 
HETATM   21  O   UNL     1     -10.406   4.828  70.365  1.00  0.00    -0.223 OA 
HETATM   22  C   UNL     1     -11.911   9.348  70.854  1.00  0.00    -0.351 C  
HETATM   23  C   UNL     1      -8.801   8.310  70.611  1.00  0.00    -0.143 C  
HETATM   24  C   UNL     1     -11.930   7.845  70.983  1.00  0.00    -0.252 C  
HETATM   25  N   UNL     1     -10.804   7.305  71.714  1.00  0.00    -0.223 NA 
HETATM   26  C   UNL     1      -9.324   4.711  71.173  1.00  0.00    -0.146 C  
HETATM   27  C   UNL     1     -10.769   7.522  73.157  1.00  0.00    -0.398 C  
HETATM   28  N   UNL     1      -9.530   7.228  71.120  1.00  0.00    -0.157 N  
HETATM   29  C   UNL     1      -9.997   6.367  73.808  1.00  0.00    -0.252 C  
HETATM   30  C   UNL     1      -8.739   6.057  71.621  1.00  0.00    -0.135 C  
HETATM   31  C   UNL     1      -8.628   6.148  73.153  1.00  0.00    -0.117 C  
ENDBRANCH  15  17
ENDBRANCH   6  15
ENDBRANCH   4   6
ENDBRANCH   3   4
ENDBRANCH   2   3
TORSDOF 8
ENDMDL
MODEL       87
REMARK 921   NORMALIZED FREE ENERGY PREDICTED BY IDOCK:   -5.44 KCAL/MOL
REMARK 922        TOTAL FREE ENERGY PREDICTED BY IDOCK:   -9.20 KCAL/MOL
REMARK 923 INTER-LIGAND FREE ENERGY PREDICTED BY IDOCK:   -8.05 KCAL/MOL
REMARK 924 INTRA-LIGAND FREE ENERGY PREDICTED BY IDOCK:   -1.15 KCAL/MOL
REMARK 927      BINDING AFFINITY PREDICTED BY RF-SCORE:    0.00 PKD
ROOT
HETATM    1  C   UNL     1     -12.400   8.786  72.099  1.00  0.00    -0.458 C  
HETATM    2  C   UNL     1     -13.092  10.106  71.821  1.00  0.00    -0.463 C  
ENDROOT
BRANCH   2   3
HETATM    3  O   UNL     1     -12.905  10.479  70.449  1.00  0.00    -0.331 OA 
BRANCH   3   4
HETATM    4  C   UNL     1     -12.370  11.716  70.243  1.00  0.00    -0.258 C  
HETATM    5  O   UNL     1     -12.290  12.604  71.088  1.00  0.00    -0.314 OA 
BRANCH   4   6
HETATM    6  C   UNL     1     -11.849  11.836  68.800  1.00  0.00    -0.320 C  
BRANCH   6   7
HETATM    7  C   UNL     1     -10.342  11.556  68.772  1.00  0.00    -0.213 C  
BRANCH   7   8
HETATM    8  C   UNL     1     -10.000  10.115  69.174  1.00  0.00    -0.221 C  
BRANCH   8   9
HETATM    9  C   UNL     1      -8.552   9.828  68.863  1.00  0.00    -0.134 A  
HETATM   10  C   UNL     1      -5.898   9.374  68.098  1.00  0.00    -0.037 A  
HETATM   11  C   UNL     1      -6.264  10.602  68.644  1.00  0.00    -0.046 A  
HETATM   12  C   UNL     1      -7.587  10.829  69.025  1.00  0.00    -0.126 A  
HETATM   13  C   UNL     1      -6.848   8.366  67.945  1.00  0.00    -0.067 A  
HETATM   14  C   UNL     1      -8.172   8.591  68.327  1.00  0.00    -0.123 A  
ENDBRANCH   8   9
ENDBRANCH   7   8
ENDBRANCH   6   7
BRANCH   6  15
HETATM   15  N   UNL     1     -12.210  13.180  68.308  1.00  0.00    -0.154 NA 
HETATM   16  H   UNL     1     -13.106  13.601  68.554  1.00  0.00     0.000 HD 
BRANCH  15  17
HETATM   17  C   UNL     1     -11.237  13.907  67.444  1.00  0.00    -0.312 C  
HETATM   18  O   UNL     1     -10.937  15.155  69.486  1.00  0.00    -0.247 OA 
HETATM   19  C   UNL     1     -11.881  14.088  66.075  1.00  0.00    -0.401 C  
HETATM   20  O   UNL     1      -9.674  19.793  68.772  1.00  0.00    -0.377 OA 
HETATM   21  O   UNL     1     -11.006  18.890  67.191  1.00  0.00    -0.410 OA 
HETATM   22  C   UNL     1     -10.944  14.626  65.011  1.00  0.00    -0.415 C  
HETATM   23  C   UNL     1     -10.854  15.199  68.247  1.00  0.00    -0.262 C  
HETATM   24  C   UNL     1     -10.718  16.106  65.197  1.00  0.00    -0.371 C  
HETATM   25  N   UNL     1      -9.861  16.432  66.316  1.00  0.00    -0.295 NA 
HETATM   26  C   UNL     1     -10.103  18.801  68.198  1.00  0.00    -0.379 C  
HETATM   27  C   UNL     1      -8.437  16.137  66.184  1.00  0.00    -0.253 C  
HETATM   28  N   UNL     1     -10.339  16.349  67.638  1.00  0.00    -0.277 N  
HETATM   29  C   UNL     1      -7.649  17.127  67.051  1.00  0.00    -0.223 C  
HETATM   30  C   UNL     1      -9.697  17.361  68.539  1.00  0.00    -0.304 C  
HETATM   31  C   UNL     1      -8.170  17.174  68.492  1.00  0.00    -0.261 C  
ENDBRANCH  15  17
ENDBRANCH   6  15
ENDBRANCH   4   6
ENDBRANCH   3   4
ENDBRANCH   2   3
TORSDOF 8
ENDMDL
MODEL       88
REMARK 921   NORMALIZED FREE ENERGY PREDICTED BY IDOCK:   -5.44 KCAL/MOL
REMARK 922        TOTAL FREE ENERGY PREDICTED BY IDOCK:   -9.20 KCAL/MOL
REMARK 923 INTER-LIGAND FREE ENERGY PREDICTED BY IDOCK:   -7.77 KCAL/MOL
REMARK 924 INTRA-LIGAND FREE ENERGY PREDICTED BY IDOCK:   -1.43 KCAL/MOL
REMARK 927      BINDING AFFINITY PREDICTED BY RF-SCORE:    0.00 PKD
ROOT
HETATM    1  C   UNL     1      -6.804  16.998  66.930  1.00  0.00    -0.247 C  
HETATM    2  C   UNL     1      -6.943  15.601  67.505  1.00  0.00    -0.189 C  
ENDROOT
BRANCH   2   3
HETATM    3  O   UNL     1      -7.997  14.898  66.834  1.00  0.00    -0.180 OA 
BRANCH   3   4
HETATM    4  C   UNL     1      -8.651  13.963  67.582  1.00  0.00    -0.190 C  
HETATM    5  O   UNL     1      -8.245  13.491  68.641  1.00  0.00    -0.130 OA 
BRANCH   4   6
HETATM    6  C   UNL     1      -9.994  13.601  66.925  1.00  0.00    -0.260 C  
BRANCH   6   7
HETATM    7  C   UNL     1     -10.838  14.868  66.746  1.00  0.00    -0.320 C  
BRANCH   7   8
HETATM    8  C   UNL     1     -10.924  15.708  68.027  1.00  0.00    -0.318 C  
BRANCH   8   9
HETATM    9  C   UNL     1     -10.531  17.134  67.732  1.00  0.00    -0.362 A  
HETATM   10  C   UNL     1      -9.996  19.832  67.211  1.00  0.00    -0.530 A  
HETATM   11  C   UNL     1      -9.977  19.359  68.522  1.00  0.00    -0.520 A  
HETATM   12  C   UNL     1     -10.243  18.015  68.782  1.00  0.00    -0.362 A  
HETATM   13  C   UNL     1     -10.269  18.961  66.158  1.00  0.00    -0.485 A  
HETATM   14  C   UNL     1     -10.533  17.615  66.416  1.00  0.00    -0.286 A  
ENDBRANCH   8   9
ENDBRANCH   7   8
ENDBRANCH   6   7
BRANCH   6  15
HETATM   15  N   UNL     1     -10.638  12.575  67.767  1.00  0.00    -0.215 NA 
HETATM   16  H   UNL     1     -11.064  12.826  68.660  1.00  0.00     0.000 HD 
BRANCH  15  17
HETATM   17  C   UNL     1     -10.653  11.165  67.286  1.00  0.00    -0.239 C  
HETATM   18  O   UNL     1     -10.444  10.754  69.653  1.00  0.00    -0.219 OA 
HETATM   19  C   UNL     1      -9.792  11.097  66.030  1.00  0.00    -0.270 C  
HETATM   20  O   UNL     1      -8.048   6.663  70.721  1.00  0.00    -0.115 OA 
HETATM   21  O   UNL     1      -7.391   7.716  68.837  1.00  0.00    -0.086 OA 
HETATM   22  C   UNL     1      -9.868   9.774  65.292  1.00  0.00    -0.335 C  
HETATM   23  C   UNL     1     -10.216  10.300  68.519  1.00  0.00    -0.172 C  
HETATM   24  C   UNL     1      -9.064   8.716  66.007  1.00  0.00    -0.204 C  
HETATM   25  N   UNL     1      -9.681   8.233  67.223  1.00  0.00    -0.163 NA 
HETATM   26  C   UNL     1      -8.298   7.435  69.805  1.00  0.00    -0.134 C  
HETATM   27  C   UNL     1     -10.859   7.381  67.090  1.00  0.00    -0.270 C  
HETATM   28  N   UNL     1      -9.674   9.015  68.394  1.00  0.00    -0.153 N  
HETATM   29  C   UNL     1     -10.925   6.444  68.303  1.00  0.00    -0.396 C  
HETATM   30  C   UNL     1      -9.630   8.178  69.637  1.00  0.00    -0.168 C  
HETATM   31  C   UNL     1     -10.825   7.208  69.629  1.00  0.00    -0.254 C  
ENDBRANCH  15  17
ENDBRANCH   6  15
ENDBRANCH   4   6
ENDBRANCH   3   4
ENDBRANCH   2   3
TORSDOF 8
ENDMDL
MODEL       89
REMARK 921   NORMALIZED FREE ENERGY PREDICTED BY IDOCK:   -5.41 KCAL/MOL
REMARK 922        TOTAL FREE ENERGY PREDICTED BY IDOCK:   -9.15 KCAL/MOL
REMARK 923 INTER-LIGAND FREE ENERGY PREDICTED BY IDOCK:   -7.52 KCAL/MOL
REMARK 924 INTRA-LIGAND FREE ENERGY PREDICTED BY IDOCK:   -1.63 KCAL/MOL
REMARK 927      BINDING AFFINITY PREDICTED BY RF-SCORE:    0.00 PKD
ROOT
HETATM    1  C   UNL     1     -12.651   8.956  72.175  1.00  0.00    -0.467 C  
HETATM    2  C   UNL     1     -11.765   8.491  71.036  1.00  0.00    -0.275 C  
ENDROOT
BRANCH   2   3
HETATM    3  O   UNL     1     -10.393   8.783  71.332  1.00  0.00    -0.228 OA 
BRANCH   3   4
HETATM    4  C   UNL     1      -9.488   8.368  70.399  1.00  0.00    -0.168 C  
HETATM    5  O   UNL     1      -8.666   7.470  70.558  1.00  0.00    -0.143 OA 
BRANCH   4   6
HETATM    6  C   UNL     1      -9.662   9.170  69.097  1.00  0.00    -0.163 C  
BRANCH   6   7
HETATM    7  C   UNL     1      -8.671   8.663  68.044  1.00  0.00    -0.141 C  
BRANCH   7   8
HETATM    8  C   UNL     1      -9.367   8.006  66.844  1.00  0.00    -0.209 C  
BRANCH   8   9
HETATM    9  C   UNL     1      -9.331   8.938  65.659  1.00  0.00    -0.259 A  
HETATM   10  C   UNL     1      -9.406  10.549  63.370  1.00  0.00    -0.335 A  
HETATM   11  C   UNL     1     -10.303  10.777  64.412  1.00  0.00    -0.405 A  
HETATM   12  C   UNL     1     -10.267   9.975  65.553  1.00  0.00    -0.248 A  
HETATM   13  C   UNL     1      -8.463   9.528  63.472  1.00  0.00    -0.197 A  
HETATM   14  C   UNL     1      -8.423   8.725  64.613  1.00  0.00    -0.169 A  
ENDBRANCH   8   9
ENDBRANCH   7   8
ENDBRANCH   6   7
BRANCH   6  15
HETATM   15  N   UNL     1      -9.493  10.598  69.429  1.00  0.00    -0.395 NA 
HETATM   16  H   UNL     1      -8.725  10.907  70.025  1.00  0.00     0.000 HD 
BRANCH  15  17
HETATM   17  C   UNL     1     -10.470  11.578  68.875  1.00  0.00    -0.187 C  
HETATM   18  O   UNL     1      -8.577  12.096  67.473  1.00  0.00    -0.154 OA 
HETATM   19  C   UNL     1     -11.228  12.188  70.049  1.00  0.00     0.129 C  
HETATM   20  O   UNL     1      -8.442  16.728  66.008  1.00  0.00    -0.444 OA 
HETATM   21  O   UNL     1      -9.349  16.373  68.043  1.00  0.00    -0.212 OA 
HETATM   22  C   UNL     1     -12.406  13.054  69.648  1.00  0.00    -0.104 C  
HETATM   23  C   UNL     1      -9.624  12.542  67.973  1.00  0.00    -0.212 C  
HETATM   24  C   UNL     1     -11.936  14.396  69.142  1.00  0.00    -0.322 C  
HETATM   25  N   UNL     1     -11.341  14.349  67.824  1.00  0.00    -0.296 NA 
HETATM   26  C   UNL     1      -8.990  15.972  66.799  1.00  0.00    -0.246 C  
HETATM   27  C   UNL     1     -12.233  14.129  66.689  1.00  0.00    -0.418 C  
HETATM   28  N   UNL     1     -10.045  13.834  67.635  1.00  0.00    -0.239 N  
HETATM   29  C   UNL     1     -11.621  14.792  65.448  1.00  0.00    -0.316 C  
HETATM   30  C   UNL     1      -9.326  14.504  66.503  1.00  0.00    -0.284 C  
HETATM   31  C   UNL     1     -10.167  14.360  65.222  1.00  0.00    -0.416 C  
ENDBRANCH  15  17
ENDBRANCH   6  15
ENDBRANCH   4   6
ENDBRANCH   3   4
ENDBRANCH   2   3
TORSDOF 8
ENDMDL
MODEL       90
REMARK 921   NORMALIZED FREE ENERGY PREDICTED BY IDOCK:   -5.36 KCAL/MOL
REMARK 922        TOTAL FREE ENERGY PREDICTED BY IDOCK:   -9.08 KCAL/MOL
REMARK 923 INTER-LIGAND FREE ENERGY PREDICTED BY IDOCK:   -7.90 KCAL/MOL
REMARK 924 INTRA-LIGAND FREE ENERGY PREDICTED BY IDOCK:   -1.18 KCAL/MOL
REMARK 927      BINDING AFFINITY PREDICTED BY RF-SCORE:    0.00 PKD
ROOT
HETATM    1  C   UNL     1      -8.727  18.478  66.438  1.00  0.00    -0.274 C  
HETATM    2  C   UNL     1      -7.575  17.513  66.230  1.00  0.00    -0.308 C  
ENDROOT
BRANCH   2   3
HETATM    3  O   UNL     1      -7.963  16.192  66.629  1.00  0.00    -0.235 OA 
BRANCH   3   4
HETATM    4  C   UNL     1      -8.219  16.029  67.959  1.00  0.00    -0.149 C  
HETATM    5  O   UNL     1      -7.528  16.470  68.873  1.00  0.00    -0.201 OA 
BRANCH   4   6
HETATM    6  C   UNL     1      -9.522  15.234  68.156  1.00  0.00    -0.203 C  
BRANCH   6   7
HETATM    7  C   UNL     1     -10.568  16.122  68.838  1.00  0.00    -0.275 C  
BRANCH   7   8
HETATM    8  C   UNL     1     -11.920  15.418  69.012  1.00  0.00    -0.313 C  
BRANCH   8   9
HETATM    9  C   UNL     1     -12.278  15.352  70.476  1.00  0.00    -0.436 A  
HETATM   10  C   UNL     1     -13.074  15.384  73.160  1.00  0.00    -0.643 A  
HETATM   11  C   UNL     1     -13.785  14.626  72.232  1.00  0.00    -0.565 A  
HETATM   12  C   UNL     1     -13.389  14.609  70.894  1.00  0.00    -0.350 A  
HETATM   13  C   UNL     1     -11.959  16.117  72.756  1.00  0.00    -0.638 A  
HETATM   14  C   UNL     1     -11.560  16.100  71.418  1.00  0.00    -0.495 A  
ENDBRANCH   8   9
ENDBRANCH   7   8
ENDBRANCH   6   7
BRANCH   6  15
HETATM   15  N   UNL     1      -9.188  14.018  68.922  1.00  0.00    -0.393 NA 
HETATM   16  H   UNL     1      -9.344  13.977  69.929  1.00  0.00     0.000 HD 
BRANCH  15  17
HETATM   17  C   UNL     1      -8.617  12.851  68.192  1.00  0.00    -0.188 C  
HETATM   18  O   UNL     1     -10.814  11.971  68.655  1.00  0.00    -0.219 OA 
HETATM   19  C   UNL     1      -7.183  12.663  68.671  1.00  0.00    -0.108 C  
HETATM   20  O   UNL     1     -10.915   7.137  69.153  1.00  0.00    -0.198 OA 
HETATM   21  O   UNL     1      -9.015   8.148  69.826  1.00  0.00    -0.142 OA 
HETATM   22  C   UNL     1      -6.387  11.646  67.875  1.00  0.00    -0.054 C  
HETATM   23  C   UNL     1      -9.628  11.676  68.433  1.00  0.00    -0.195 C  
HETATM   24  C   UNL     1      -6.790  10.241  68.252  1.00  0.00    -0.065 C  
HETATM   25  N   UNL     1      -8.081   9.843  67.735  1.00  0.00    -0.109 NA 
HETATM   26  C   UNL     1     -10.156   8.095  69.097  1.00  0.00    -0.202 C  
HETATM   27  C   UNL     1      -8.186   9.589  66.301  1.00  0.00    -0.115 C  
HETATM   28  N   UNL     1      -9.270  10.327  68.315  1.00  0.00    -0.136 N  
HETATM   29  C   UNL     1      -9.299   8.560  66.065  1.00  0.00    -0.266 C  
HETATM   30  C   UNL     1     -10.391   9.336  68.226  1.00  0.00    -0.217 C  
HETATM   31  C   UNL     1     -10.611   8.963  66.749  1.00  0.00    -0.212 C  
ENDBRANCH  15  17
ENDBRANCH   6  15
ENDBRANCH   4   6
ENDBRANCH   3   4
ENDBRANCH   2   3
TORSDOF 8
ENDMDL
MODEL       91
REMARK 921   NORMALIZED FREE ENERGY PREDICTED BY IDOCK:   -5.33 KCAL/MOL
REMARK 922        TOTAL FREE ENERGY PREDICTED BY IDOCK:   -9.03 KCAL/MOL
REMARK 923 INTER-LIGAND FREE ENERGY PREDICTED BY IDOCK:   -7.81 KCAL/MOL
REMARK 924 INTRA-LIGAND FREE ENERGY PREDICTED BY IDOCK:   -1.22 KCAL/MOL
REMARK 927      BINDING AFFINITY PREDICTED BY RF-SCORE:    0.00 PKD
ROOT
HETATM    1  C   UNL     1     -14.192   8.552  71.893  1.00  0.00    -0.536 C  
HETATM    2  C   UNL     1     -13.469   9.876  71.737  1.00  0.00    -0.353 C  
ENDROOT
BRANCH   2   3
HETATM    3  O   UNL     1     -12.716   9.883  70.517  1.00  0.00    -0.192 OA 
BRANCH   3   4
HETATM    4  C   UNL     1     -11.365  10.002  70.659  1.00  0.00    -0.348 C  
HETATM    5  O   UNL     1     -10.709   9.558  71.597  1.00  0.00    -0.320 OA 
BRANCH   4   6
HETATM    6  C   UNL     1     -10.767  10.750  69.455  1.00  0.00    -0.233 C  
BRANCH   6   7
HETATM    7  C   UNL     1     -11.889  11.157  68.494  1.00  0.00    -0.330 C  
BRANCH   7   8
HETATM    8  C   UNL     1     -11.692  12.565  67.915  1.00  0.00    -0.416 C  
BRANCH   8   9
HETATM    9  C   UNL     1     -11.668  12.500  66.408  1.00  0.00    -0.458 A  
HETATM   10  C   UNL     1     -11.447  12.487  63.618  1.00  0.00    -0.568 A  
HETATM   11  C   UNL     1     -10.820  11.496  64.370  1.00  0.00    -0.405 A  
HETATM   12  C   UNL     1     -10.930  11.501  65.761  1.00  0.00    -0.305 A  
HETATM   13  C   UNL     1     -12.194  13.477  64.252  1.00  0.00    -0.450 A  
HETATM   14  C   UNL     1     -12.307  13.484  65.643  1.00  0.00    -0.522 A  
ENDBRANCH   8   9
ENDBRANCH   7   8
ENDBRANCH   6   7
BRANCH   6  15
HETATM   15  N   UNL     1      -9.754   9.869  68.843  1.00  0.00    -0.168 NA 
HETATM   16  H   UNL     1      -8.870  10.249  68.502  1.00  0.00     0.000 HD 
BRANCH  15  17
HETATM   17  C   UNL     1     -10.049   8.412  68.735  1.00  0.00    -0.196 C  
HETATM   18  O   UNL     1      -8.077   8.298  70.119  1.00  0.00    -0.106 OA 
HETATM   19  C   UNL     1     -10.456   8.129  67.294  1.00  0.00    -0.379 C  
HETATM   20  O   UNL     1      -5.483   4.236  69.488  1.00  0.00    -0.010 OA 
HETATM   21  O   UNL     1      -6.568   4.995  67.661  1.00  0.00    -0.047 OA 
HETATM   22  C   UNL     1     -10.992   6.730  67.061  1.00  0.00    -0.439 C  
HETATM   23  C   UNL     1      -8.772   7.688  69.289  1.00  0.00    -0.136 C  
HETATM   24  C   UNL     1      -9.867   5.725  67.032  1.00  0.00    -0.151 C  
HETATM   25  N   UNL     1      -9.300   5.442  68.333  1.00  0.00    -0.111 NA 
HETATM   26  C   UNL     1      -6.390   4.898  69.002  1.00  0.00    -0.032 C  
HETATM   27  C   UNL     1     -10.105   4.655  69.263  1.00  0.00    -0.100 C  
HETATM   28  N   UNL     1      -8.445   6.366  68.963  1.00  0.00    -0.124 N  
HETATM   29  C   UNL     1      -9.162   3.888  70.199  1.00  0.00    -0.217 C  
HETATM   30  C   UNL     1      -7.415   5.695  69.820  1.00  0.00    -0.074 C  
HETATM   31  C   UNL     1      -8.128   4.809  70.857  1.00  0.00    -0.083 C  
ENDBRANCH  15  17
ENDBRANCH   6  15
ENDBRANCH   4   6
ENDBRANCH   3   4
ENDBRANCH   2   3
TORSDOF 8
ENDMDL
MODEL       92
REMARK 921   NORMALIZED FREE ENERGY PREDICTED BY IDOCK:   -5.29 KCAL/MOL
REMARK 922        TOTAL FREE ENERGY PREDICTED BY IDOCK:   -8.98 KCAL/MOL
REMARK 923 INTER-LIGAND FREE ENERGY PREDICTED BY IDOCK:   -7.57 KCAL/MOL
REMARK 924 INTRA-LIGAND FREE ENERGY PREDICTED BY IDOCK:   -1.40 KCAL/MOL
REMARK 927      BINDING AFFINITY PREDICTED BY RF-SCORE:    0.00 PKD
ROOT
HETATM    1  C   UNL     1     -11.908  15.524  69.301  1.00  0.00    -0.372 C  
HETATM    2  C   UNL     1     -11.284  14.348  68.573  1.00  0.00    -0.265 C  
ENDROOT
BRANCH   2   3
HETATM    3  O   UNL     1     -12.227  13.788  67.649  1.00  0.00    -0.337 OA 
BRANCH   3   4
HETATM    4  C   UNL     1     -11.950  13.991  66.329  1.00  0.00    -0.432 C  
HETATM    5  O   UNL     1     -12.783  14.034  65.428  1.00  0.00    -0.561 OA 
BRANCH   4   6
HETATM    6  C   UNL     1     -10.437  14.190  66.128  1.00  0.00    -0.296 C  
BRANCH   6   7
HETATM    7  C   UNL     1     -10.189  15.468  65.320  1.00  0.00    -0.380 C  
BRANCH   7   8
HETATM    8  C   UNL     1     -11.137  16.610  65.712  1.00  0.00     0.168 C  
BRANCH   8   9
HETATM    9  C   UNL     1     -10.348  17.747  66.312  1.00  0.00    -0.358 A  
HETATM   10  C   UNL     1      -8.758  19.846  67.263  1.00  0.00    -0.399 A  
HETATM   11  C   UNL     1      -9.811  20.111  66.389  1.00  0.00    -0.560 A  
HETATM   12  C   UNL     1     -10.603  19.065  65.914  1.00  0.00    -0.466 A  
HETATM   13  C   UNL     1      -8.504  18.539  67.674  1.00  0.00    -0.276 A  
HETATM   14  C   UNL     1      -9.297  17.492  67.202  1.00  0.00    -0.250 A  
ENDBRANCH   8   9
ENDBRANCH   7   8
ENDBRANCH   6   7
BRANCH   6  15
HETATM   15  N   UNL     1      -9.911  12.972  65.483  1.00  0.00    -0.416 NA 
HETATM   16  H   UNL     1     -10.167  12.737  64.523  1.00  0.00     0.000 HD 
BRANCH  15  17
HETATM   17  C   UNL     1      -8.998  12.090  66.265  1.00  0.00    -0.129 C  
HETATM   18  O   UNL     1     -10.968  10.699  66.275  1.00  0.00    -0.099 OA 
HETATM   19  C   UNL     1      -8.214  12.974  67.227  1.00  0.00    -0.174 C  
HETATM   20  O   UNL     1     -11.346   7.880  70.216  1.00  0.00    -0.247 OA 
HETATM   21  O   UNL     1     -10.337   9.873  70.534  1.00  0.00    -0.286 OA 
HETATM   22  C   UNL     1      -7.088  12.262  67.952  1.00  0.00    -0.105 C  
HETATM   23  C   UNL     1      -9.919  10.979  66.880  1.00  0.00    -0.196 C  
HETATM   24  C   UNL     1      -7.631  11.391  69.058  1.00  0.00    -0.084 C  
HETATM   25  N   UNL     1      -8.280  10.186  68.589  1.00  0.00    -0.106 NA 
HETATM   26  C   UNL     1     -10.735   8.836  69.757  1.00  0.00    -0.218 C  
HETATM   27  C   UNL     1      -7.431   9.129  68.047  1.00  0.00    -0.084 C  
HETATM   28  N   UNL     1      -9.563  10.236  68.011  1.00  0.00    -0.145 N  
HETATM   29  C   UNL     1      -8.122   7.779  68.276  1.00  0.00    -0.124 C  
HETATM   30  C   UNL     1     -10.356   8.992  68.278  1.00  0.00    -0.209 C  
HETATM   31  C   UNL     1      -9.566   7.776  67.762  1.00  0.00    -0.172 C  
ENDBRANCH  15  17
ENDBRANCH   6  15
ENDBRANCH   4   6
ENDBRANCH   3   4
ENDBRANCH   2   3
TORSDOF 8
ENDMDL
MODEL       93
REMARK 921   NORMALIZED FREE ENERGY PREDICTED BY IDOCK:   -5.29 KCAL/MOL
REMARK 922        TOTAL FREE ENERGY PREDICTED BY IDOCK:   -8.97 KCAL/MOL
REMARK 923 INTER-LIGAND FREE ENERGY PREDICTED BY IDOCK:   -7.68 KCAL/MOL
REMARK 924 INTRA-LIGAND FREE ENERGY PREDICTED BY IDOCK:   -1.29 KCAL/MOL
REMARK 927      BINDING AFFINITY PREDICTED BY RF-SCORE:    0.00 PKD
ROOT
HETATM    1  C   UNL     1     -12.029  13.672  69.574  1.00  0.00    -0.397 C  
HETATM    2  C   UNL     1     -11.645  12.272  69.135  1.00  0.00    -0.318 C  
ENDROOT
BRANCH   2   3
HETATM    3  O   UNL     1     -12.001  12.073  67.761  1.00  0.00    -0.538 OA 
BRANCH   3   4
HETATM    4  C   UNL     1     -10.994  11.642  66.948  1.00  0.00    -0.292 C  
HETATM    5  O   UNL     1     -11.101  11.418  65.745  1.00  0.00    -0.252 OA 
BRANCH   4   6
HETATM    6  C   UNL     1      -9.687  11.505  67.747  1.00  0.00    -0.174 C  
BRANCH   6   7
HETATM    7  C   UNL     1      -8.666  12.532  67.245  1.00  0.00    -0.193 C  
BRANCH   7   8
HETATM    8  C   UNL     1      -8.515  13.730  68.193  1.00  0.00    -0.173 C  
BRANCH   8   9
HETATM    9  C   UNL     1      -9.093  14.966  67.551  1.00  0.00    -0.186 A  
HETATM   10  C   UNL     1     -10.350  17.201  66.427  1.00  0.00    -0.307 A  
HETATM   11  C   UNL     1      -9.925  17.235  67.753  1.00  0.00    -0.301 A  
HETATM   12  C   UNL     1      -9.298  16.122  68.315  1.00  0.00    -0.205 A  
HETATM   13  C   UNL     1     -10.139  16.060  65.656  1.00  0.00    -0.384 A  
HETATM   14  C   UNL     1      -9.510  14.946  66.214  1.00  0.00    -0.339 A  
ENDBRANCH   8   9
ENDBRANCH   7   8
ENDBRANCH   6   7
BRANCH   6  15
HETATM   15  N   UNL     1      -9.232  10.108  67.619  1.00  0.00    -0.140 NA 
HETATM   16  H   UNL     1      -8.344   9.887  67.167  1.00  0.00     0.000 HD 
BRANCH  15  17
HETATM   17  C   UNL     1     -10.099   9.024  68.162  1.00  0.00    -0.191 C  
HETATM   18  O   UNL     1      -8.998   9.687  70.203  1.00  0.00    -0.218 OA 
HETATM   19  C   UNL     1     -10.072   7.869  67.168  1.00  0.00    -0.328 C  
HETATM   20  O   UNL     1      -8.489   6.071  73.410  1.00  0.00    -0.117 OA 
HETATM   21  O   UNL     1      -8.417   5.467  71.238  1.00  0.00    -0.122 OA 
HETATM   22  C   UNL     1     -11.069   6.765  67.467  1.00  0.00    -0.340 C  
HETATM   23  C   UNL     1      -9.565   8.752  69.612  1.00  0.00    -0.171 C  
HETATM   24  C   UNL     1     -10.588   5.907  68.611  1.00  0.00    -0.256 C  
HETATM   25  N   UNL     1     -10.693   6.544  69.906  1.00  0.00    -0.233 NA 
HETATM   26  C   UNL     1      -8.770   6.305  72.242  1.00  0.00    -0.132 C  
HETATM   27  C   UNL     1     -12.030   6.711  70.470  1.00  0.00    -0.316 C  
HETATM   28  N   UNL     1      -9.784   7.548  70.291  1.00  0.00    -0.179 N  
HETATM   29  C   UNL     1     -11.920   6.710  72.000  1.00  0.00    -0.361 C  
HETATM   30  C   UNL     1      -9.532   7.551  71.768  1.00  0.00    -0.145 C  
HETATM   31  C   UNL     1     -10.874   7.711  72.504  1.00  0.00    -0.367 C  
ENDBRANCH  15  17
ENDBRANCH   6  15
ENDBRANCH   4   6
ENDBRANCH   3   4
ENDBRANCH   2   3
TORSDOF 8
ENDMDL
MODEL       94
REMARK 921   NORMALIZED FREE ENERGY PREDICTED BY IDOCK:   -5.28 KCAL/MOL
REMARK 922        TOTAL FREE ENERGY PREDICTED BY IDOCK:   -8.96 KCAL/MOL
REMARK 923 INTER-LIGAND FREE ENERGY PREDICTED BY IDOCK:   -7.29 KCAL/MOL
REMARK 924 INTRA-LIGAND FREE ENERGY PREDICTED BY IDOCK:   -1.67 KCAL/MOL
REMARK 927      BINDING AFFINITY PREDICTED BY RF-SCORE:    0.00 PKD
ROOT
HETATM    1  C   UNL     1      -6.694  11.474  69.541  1.00  0.00    -0.106 C  
HETATM    2  C   UNL     1      -6.785   9.990  69.836  1.00  0.00    -0.099 C  
ENDROOT
BRANCH   2   3
HETATM    3  O   UNL     1      -6.997   9.260  68.621  1.00  0.00    -0.061 OA 
BRANCH   3   4
HETATM    4  C   UNL     1      -7.569   8.030  68.764  1.00  0.00    -0.103 C  
HETATM    5  O   UNL     1      -7.017   7.041  69.237  1.00  0.00    -0.069 OA 
BRANCH   4   6
HETATM    6  C   UNL     1      -9.028   8.062  68.274  1.00  0.00    -0.132 C  
BRANCH   6   7
HETATM    7  C   UNL     1      -9.456   6.657  67.840  1.00  0.00    -0.117 C  
BRANCH   7   8
HETATM    8  C   UNL     1     -10.909   6.337  68.216  1.00  0.00    -0.397 C  
BRANCH   8   9
HETATM    9  C   UNL     1     -10.995   6.003  69.685  1.00  0.00    -0.470 A  
HETATM   10  C   UNL     1     -11.029   5.541  72.446  1.00  0.00    -0.310 A  
HETATM   11  C   UNL     1     -11.925   6.445  71.880  1.00  0.00    -0.381 A  
HETATM   12  C   UNL     1     -11.910   6.676  70.505  1.00  0.00    -0.430 A  
HETATM   13  C   UNL     1     -10.123   4.857  71.636  1.00  0.00    -0.266 A  
HETATM   14  C   UNL     1     -10.107   5.084  70.259  1.00  0.00    -0.339 A  
ENDBRANCH   8   9
ENDBRANCH   7   8
ENDBRANCH   6   7
BRANCH   6  15
HETATM   15  N   UNL     1      -9.112   9.066  67.196  1.00  0.00    -0.135 NA 
HETATM   16  H   UNL     1      -8.503   9.006  66.379  1.00  0.00     0.000 HD 
BRANCH  15  17
HETATM   17  C   UNL     1     -10.105  10.170  67.326  1.00  0.00    -0.206 C  
HETATM   18  O   UNL     1      -8.543  11.240  65.833  1.00  0.00    -0.167 OA 
HETATM   19  C   UNL     1     -10.526  10.242  68.789  1.00  0.00    -0.222 C  
HETATM   20  O   UNL     1      -8.366  16.072  66.329  1.00  0.00    -0.308 OA 
HETATM   21  O   UNL     1      -8.816  14.913  68.211  1.00  0.00    -0.161 OA 
HETATM   22  C   UNL     1     -11.690  11.176  69.058  1.00  0.00    -0.408 C  
HETATM   23  C   UNL     1      -9.410  11.430  66.703  1.00  0.00    -0.185 C  
HETATM   24  C   UNL     1     -11.238  12.616  69.026  1.00  0.00    -0.269 C  
HETATM   25  N   UNL     1     -10.964  13.114  67.696  1.00  0.00    -0.256 NA 
HETATM   26  C   UNL     1      -8.781  15.052  66.864  1.00  0.00    -0.256 C  
HETATM   27  C   UNL     1     -12.104  13.354  66.816  1.00  0.00    -0.365 C  
HETATM   28  N   UNL     1      -9.789  12.741  67.014  1.00  0.00    -0.226 N  
HETATM   29  C   UNL     1     -11.736  14.471  65.830  1.00  0.00    -0.345 C  
HETATM   30  C   UNL     1      -9.293  13.822  66.102  1.00  0.00    -0.080 C  
HETATM   31  C   UNL     1     -10.412  14.191  65.111  1.00  0.00    -0.422 C  
ENDBRANCH  15  17
ENDBRANCH   6  15
ENDBRANCH   4   6
ENDBRANCH   3   4
ENDBRANCH   2   3
TORSDOF 8
ENDMDL
MODEL       95
REMARK 921   NORMALIZED FREE ENERGY PREDICTED BY IDOCK:   -5.25 KCAL/MOL
REMARK 922        TOTAL FREE ENERGY PREDICTED BY IDOCK:   -8.92 KCAL/MOL
REMARK 923 INTER-LIGAND FREE ENERGY PREDICTED BY IDOCK:   -7.47 KCAL/MOL
REMARK 924 INTRA-LIGAND FREE ENERGY PREDICTED BY IDOCK:   -1.45 KCAL/MOL
REMARK 927      BINDING AFFINITY PREDICTED BY RF-SCORE:    0.00 PKD
ROOT
HETATM    1  C   UNL     1      -7.831   4.730  69.106  1.00  0.00    -0.071 C  
HETATM    2  C   UNL     1      -6.986   5.988  69.146  1.00  0.00    -0.064 C  
ENDROOT
BRANCH   2   3
HETATM    3  O   UNL     1      -6.827   6.514  67.821  1.00  0.00    -0.073 OA 
BRANCH   3   4
HETATM    4  C   UNL     1      -7.926   7.125  67.294  1.00  0.00    -0.111 C  
HETATM    5  O   UNL     1      -8.588   6.701  66.351  1.00  0.00    -0.119 OA 
BRANCH   4   6
HETATM    6  C   UNL     1      -8.242   8.415  68.071  1.00  0.00    -0.127 C  
BRANCH   6   7
HETATM    7  C   UNL     1      -9.589   8.268  68.785  1.00  0.00    -0.150 C  
BRANCH   7   8
HETATM    8  C   UNL     1      -9.486   8.501  70.299  1.00  0.00    -0.176 C  
BRANCH   8   9
HETATM    9  C   UNL     1     -10.769   9.106  70.812  1.00  0.00    -0.327 A  
HETATM   10  C   UNL     1     -13.249  10.125  71.617  1.00  0.00    -0.518 A  
HETATM   11  C   UNL     1     -12.800   8.907  72.122  1.00  0.00    -0.471 A  
HETATM   12  C   UNL     1     -11.564   8.398  71.722  1.00  0.00    -0.372 A  
HETATM   13  C   UNL     1     -12.459  10.843  70.721  1.00  0.00    -0.489 A  
HETATM   14  C   UNL     1     -11.222  10.337  70.320  1.00  0.00    -0.395 A  
ENDBRANCH   8   9
ENDBRANCH   7   8
ENDBRANCH   6   7
BRANCH   6  15
HETATM   15  N   UNL     1      -8.200   9.533  67.109  1.00  0.00    -0.112 NA 
HETATM   16  H   UNL     1      -7.971   9.370  66.129  1.00  0.00     0.000 HD 
BRANCH  15  17
HETATM   17  C   UNL     1      -8.501  10.908  67.602  1.00  0.00    -0.123 C  
HETATM   18  O   UNL     1     -10.566  10.462  66.439  1.00  0.00    -0.206 OA 
HETATM   19  C   UNL     1      -7.243  11.748  67.423  1.00  0.00    -0.133 C  
HETATM   20  O   UNL     1     -12.687  14.444  64.633  1.00  0.00    -0.655 OA 
HETATM   21  O   UNL     1     -10.433  14.485  64.702  1.00  0.00    -0.388 OA 
HETATM   22  C   UNL     1      -7.311  13.119  68.068  1.00  0.00    -0.125 C  
HETATM   23  C   UNL     1      -9.792  11.352  66.830  1.00  0.00    -0.193 C  
HETATM   24  C   UNL     1      -8.159  14.056  67.243  1.00  0.00    -0.156 C  
HETATM   25  N   UNL     1      -9.579  13.790  67.329  1.00  0.00    -0.230 NA 
HETATM   26  C   UNL     1     -11.641  14.032  65.116  1.00  0.00    -0.342 C  
HETATM   27  C   UNL     1     -10.254  14.128  68.579  1.00  0.00    -0.247 C  
HETATM   28  N   UNL     1     -10.149  12.694  66.654  1.00  0.00    -0.236 N  
HETATM   29  C   UNL     1     -11.721  14.455  68.271  1.00  0.00    -0.376 C  
HETATM   30  C   UNL     1     -11.557  12.966  66.217  1.00  0.00    -0.372 C  
HETATM   31  C   UNL     1     -12.397  13.352  67.448  1.00  0.00    -0.113 C  
ENDBRANCH  15  17
ENDBRANCH   6  15
ENDBRANCH   4   6
ENDBRANCH   3   4
ENDBRANCH   2   3
TORSDOF 8
ENDMDL
MODEL       96
REMARK 921   NORMALIZED FREE ENERGY PREDICTED BY IDOCK:   -5.25 KCAL/MOL
REMARK 922        TOTAL FREE ENERGY PREDICTED BY IDOCK:   -8.91 KCAL/MOL
REMARK 923 INTER-LIGAND FREE ENERGY PREDICTED BY IDOCK:   -7.38 KCAL/MOL
REMARK 924 INTRA-LIGAND FREE ENERGY PREDICTED BY IDOCK:   -1.54 KCAL/MOL
REMARK 927      BINDING AFFINITY PREDICTED BY RF-SCORE:    0.00 PKD
ROOT
HETATM    1  C   UNL     1     -10.625   7.927  72.355  1.00  0.00    -0.359 C  
HETATM    2  C   UNL     1      -9.170   8.278  72.115  1.00  0.00    -0.222 C  
ENDROOT
BRANCH   2   3
HETATM    3  O   UNL     1      -9.077   9.438  71.277  1.00  0.00    -0.277 OA 
BRANCH   3   4
HETATM    4  C   UNL     1      -7.868   9.636  70.677  1.00  0.00    -0.049 C  
HETATM    5  O   UNL     1      -6.785   9.661  71.255  1.00  0.00    -0.293 OA 
BRANCH   4   6
HETATM    6  C   UNL     1      -8.048   9.796  69.157  1.00  0.00    -0.107 C  
BRANCH   6   7
HETATM    7  C   UNL     1      -7.005   8.946  68.423  1.00  0.00    -0.065 C  
BRANCH   7   8
HETATM    8  C   UNL     1      -7.559   8.299  67.147  1.00  0.00    -0.093 C  
BRANCH   8   9
HETATM    9  C   UNL     1      -8.764   7.455  67.483  1.00  0.00    -0.124 A  
HETATM   10  C   UNL     1     -11.067   6.046  68.221  1.00  0.00    -0.259 A  
HETATM   11  C   UNL     1     -11.096   6.897  67.119  1.00  0.00    -0.362 A  
HETATM   12  C   UNL     1      -9.948   7.600  66.750  1.00  0.00    -0.317 A  
HETATM   13  C   UNL     1      -9.890   5.886  68.950  1.00  0.00    -0.183 A  
HETATM   14  C   UNL     1      -8.740   6.586  68.582  1.00  0.00    -0.123 A  
ENDBRANCH   8   9
ENDBRANCH   7   8
ENDBRANCH   6   7
BRANCH   6  15
HETATM   15  N   UNL     1      -7.962  11.236  68.849  1.00  0.00    -0.247 NA 
HETATM   16  H   UNL     1      -7.283  11.832  69.324  1.00  0.00     0.000 HD 
BRANCH  15  17
HETATM   17  C   UNL     1      -8.887  11.802  67.827  1.00  0.00    -0.163 C  
HETATM   18  O   UNL     1      -7.841  13.846  68.563  1.00  0.00    -0.133 OA 
HETATM   19  C   UNL     1     -10.224  11.084  67.967  1.00  0.00    -0.201 C  
HETATM   20  O   UNL     1     -10.721  17.746  68.225  1.00  0.00    -0.343 OA 
HETATM   21  O   UNL     1     -11.766  15.796  68.666  1.00  0.00    -0.375 OA 
HETATM   22  C   UNL     1     -11.217  11.393  66.863  1.00  0.00    -0.331 C  
HETATM   23  C   UNL     1      -8.864  13.353  68.059  1.00  0.00    -0.183 C  
HETATM   24  C   UNL     1     -11.830  12.758  67.063  1.00  0.00    -0.361 C  
HETATM   25  N   UNL     1     -10.935  13.853  66.757  1.00  0.00    -0.296 NA 
HETATM   26  C   UNL     1     -10.728  16.523  68.184  1.00  0.00    -0.343 C  
HETATM   27  C   UNL     1     -10.622  14.096  65.351  1.00  0.00    -0.346 C  
HETATM   28  N   UNL     1      -9.895  14.202  67.639  1.00  0.00    -0.226 N  
HETATM   29  C   UNL     1     -10.308  15.587  65.170  1.00  0.00    -0.388 C  
HETATM   30  C   UNL     1      -9.591  15.669  67.607  1.00  0.00    -0.220 C  
HETATM   31  C   UNL     1      -9.248  16.077  66.164  1.00  0.00    -0.388 C  
ENDBRANCH  15  17
ENDBRANCH   6  15
ENDBRANCH   4   6
ENDBRANCH   3   4
ENDBRANCH   2   3
TORSDOF 8
ENDMDL
MODEL       97
REMARK 921   NORMALIZED FREE ENERGY PREDICTED BY IDOCK:   -5.25 KCAL/MOL
REMARK 922        TOTAL FREE ENERGY PREDICTED BY IDOCK:   -8.91 KCAL/MOL
REMARK 923 INTER-LIGAND FREE ENERGY PREDICTED BY IDOCK:   -7.83 KCAL/MOL
REMARK 924 INTRA-LIGAND FREE ENERGY PREDICTED BY IDOCK:   -1.08 KCAL/MOL
REMARK 927      BINDING AFFINITY PREDICTED BY RF-SCORE:    0.00 PKD
ROOT
HETATM    1  C   UNL     1      -5.298  12.644  68.400  1.00  0.00    -0.058 C  
HETATM    2  C   UNL     1      -6.128  13.896  68.606  1.00  0.00    -0.088 C  
ENDROOT
BRANCH   2   3
HETATM    3  O   UNL     1      -7.344  13.808  67.853  1.00  0.00    -0.117 OA 
BRANCH   3   4
HETATM    4  C   UNL     1      -8.466  14.248  68.492  1.00  0.00    -0.164 C  
HETATM    5  O   UNL     1      -8.526  15.233  69.222  1.00  0.00    -0.217 OA 
BRANCH   4   6
HETATM    6  C   UNL     1      -9.664  13.348  68.143  1.00  0.00    -0.226 C  
BRANCH   6   7
HETATM    7  C   UNL     1     -10.968  14.048  68.540  1.00  0.00    -0.274 C  
BRANCH   7   8
HETATM    8  C   UNL     1     -11.859  13.178  69.436  1.00  0.00    -0.383 C  
BRANCH   8   9
HETATM    9  C   UNL     1     -12.242  13.946  70.677  1.00  0.00    -0.443 A  
HETATM   10  C   UNL     1     -13.115  15.439  72.878  1.00  0.00    -0.598 A  
HETATM   11  C   UNL     1     -13.589  14.143  72.684  1.00  0.00    -0.618 A  
HETATM   12  C   UNL     1     -13.154  13.398  71.588  1.00  0.00    -0.463 A  
HETATM   13  C   UNL     1     -12.197  15.988  71.985  1.00  0.00    -0.582 A  
HETATM   14  C   UNL     1     -11.759  15.244  70.888  1.00  0.00    -0.386 A  
ENDBRANCH   8   9
ENDBRANCH   7   8
ENDBRANCH   6   7
BRANCH   6  15
HETATM   15  N   UNL     1      -9.458  12.053  68.820  1.00  0.00    -0.397 NA 
HETATM   16  H   UNL     1      -9.053  12.012  69.755  1.00  0.00     0.000 HD 
BRANCH  15  17
HETATM   17  C   UNL     1      -9.853  10.805  68.106  1.00  0.00    -0.158 C  
HETATM   18  O   UNL     1      -9.216   9.844  70.224  1.00  0.00    -0.215 OA 
HETATM   19  C   UNL     1      -9.318  10.898  66.682  1.00  0.00    -0.191 C  
HETATM   20  O   UNL     1      -7.492   5.314  69.872  1.00  0.00    -0.062 OA 
HETATM   21  O   UNL     1      -7.070   6.659  68.111  1.00  0.00    -0.077 OA 
HETATM   22  C   UNL     1      -9.812   9.802  65.757  1.00  0.00    -0.360 C  
HETATM   23  C   UNL     1      -9.334   9.630  69.006  1.00  0.00    -0.159 C  
HETATM   24  C   UNL     1      -9.093   8.505  66.035  1.00  0.00    -0.194 C  
HETATM   25  N   UNL     1      -9.511   7.855  67.258  1.00  0.00    -0.142 NA 
HETATM   26  C   UNL     1      -7.780   6.301  69.209  1.00  0.00    -0.100 C  
HETATM   27  C   UNL     1     -10.833   7.235  67.276  1.00  0.00    -0.284 C  
HETATM   28  N   UNL     1      -9.096   8.342  68.512  1.00  0.00    -0.137 N  
HETATM   29  C   UNL     1     -10.814   6.067  68.271  1.00  0.00    -0.366 C  
HETATM   30  C   UNL     1      -8.945   7.248  69.526  1.00  0.00    -0.144 C  
HETATM   31  C   UNL     1     -10.279   6.490  69.644  1.00  0.00    -0.220 C  
ENDBRANCH  15  17
ENDBRANCH   6  15
ENDBRANCH   4   6
ENDBRANCH   3   4
ENDBRANCH   2   3
TORSDOF 8
ENDMDL
MODEL       98
REMARK 921   NORMALIZED FREE ENERGY PREDICTED BY IDOCK:   -5.24 KCAL/MOL
REMARK 922        TOTAL FREE ENERGY PREDICTED BY IDOCK:   -8.90 KCAL/MOL
REMARK 923 INTER-LIGAND FREE ENERGY PREDICTED BY IDOCK:   -7.33 KCAL/MOL
REMARK 924 INTRA-LIGAND FREE ENERGY PREDICTED BY IDOCK:   -1.57 KCAL/MOL
REMARK 927      BINDING AFFINITY PREDICTED BY RF-SCORE:    0.00 PKD
ROOT
HETATM    1  C   UNL     1      -9.478  17.427  66.810  1.00  0.00    -0.282 C  
HETATM    2  C   UNL     1      -9.788  17.366  68.293  1.00  0.00    -0.310 C  
ENDROOT
BRANCH   2   3
HETATM    3  O   UNL     1     -10.961  16.573  68.517  1.00  0.00    -0.331 OA 
BRANCH   3   4
HETATM    4  C   UNL     1     -10.749  15.364  69.112  1.00  0.00    -0.246 C  
HETATM    5  O   UNL     1     -10.597  15.183  70.317  1.00  0.00    -0.247 OA 
BRANCH   4   6
HETATM    6  C   UNL     1     -10.758  14.244  68.057  1.00  0.00    -0.238 C  
BRANCH   6   7
HETATM    7  C   UNL     1     -12.122  14.203  67.361  1.00  0.00    -0.379 C  
BRANCH   7   8
HETATM    8  C   UNL     1     -12.069  14.732  65.921  1.00  0.00    -0.106 C  
BRANCH   8   9
HETATM    9  C   UNL     1     -11.663  13.623  64.983  1.00  0.00    -0.354 A  
HETATM   10  C   UNL     1     -10.903  11.439  63.405  1.00  0.00    -0.375 A  
HETATM   11  C   UNL     1     -12.250  11.665  63.678  1.00  0.00    -0.348 A  
HETATM   12  C   UNL     1     -12.630  12.753  64.464  1.00  0.00    -0.463 A  
HETATM   13  C   UNL     1      -9.934  12.306  63.906  1.00  0.00    -0.303 A  
HETATM   14  C   UNL     1     -10.311  13.397  64.692  1.00  0.00    -0.400 A  
ENDBRANCH   8   9
ENDBRANCH   7   8
ENDBRANCH   6   7
BRANCH   6  15
HETATM   15  N   UNL     1     -10.406  12.985  68.742  1.00  0.00    -0.403 NA 
HETATM   16  H   UNL     1     -10.564  12.875  69.744  1.00  0.00     0.000 HD 
BRANCH  15  17
HETATM   17  C   UNL     1      -9.814  11.878  67.939  1.00  0.00    -0.190 C  
HETATM   18  O   UNL     1     -11.285  10.582  69.342  1.00  0.00    -0.235 OA 
HETATM   19  C   UNL     1      -8.323  12.160  67.793  1.00  0.00    -0.159 C  
HETATM   20  O   UNL     1      -9.675   6.083  70.231  1.00  0.00    -0.160 OA 
HETATM   21  O   UNL     1      -8.080   7.657  69.969  1.00  0.00    -0.115 OA 
HETATM   22  C   UNL     1      -7.606  11.239  66.825  1.00  0.00    -0.151 C  
HETATM   23  C   UNL     1     -10.239  10.559  68.673  1.00  0.00    -0.183 C  
HETATM   24  C   UNL     1      -7.377   9.884  67.447  1.00  0.00    -0.090 C  
HETATM   25  N   UNL     1      -8.573   9.076  67.549  1.00  0.00    -0.120 NA 
HETATM   26  C   UNL     1      -9.332   7.171  69.787  1.00  0.00    -0.146 C  
HETATM   27  C   UNL     1      -9.119   8.521  66.313  1.00  0.00    -0.185 C  
HETATM   28  N   UNL     1      -9.548   9.350  68.527  1.00  0.00    -0.145 N  
HETATM   29  C   UNL     1      -9.857   7.217  66.646  1.00  0.00    -0.257 C  
HETATM   30  C   UNL     1     -10.250   8.111  68.993  1.00  0.00    -0.220 C  
HETATM   31  C   UNL     1     -10.875   7.404  67.777  1.00  0.00    -0.186 C  
ENDBRANCH  15  17
ENDBRANCH   6  15
ENDBRANCH   4   6
ENDBRANCH   3   4
ENDBRANCH   2   3
TORSDOF 8
ENDMDL
MODEL       99
REMARK 921   NORMALIZED FREE ENERGY PREDICTED BY IDOCK:   -5.23 KCAL/MOL
REMARK 922        TOTAL FREE ENERGY PREDICTED BY IDOCK:   -8.89 KCAL/MOL
REMARK 923 INTER-LIGAND FREE ENERGY PREDICTED BY IDOCK:   -7.75 KCAL/MOL
REMARK 924 INTRA-LIGAND FREE ENERGY PREDICTED BY IDOCK:   -1.14 KCAL/MOL
REMARK 927      BINDING AFFINITY PREDICTED BY RF-SCORE:    0.00 PKD
ROOT
HETATM    1  C   UNL     1      -9.840  18.866  66.378  1.00  0.00    -0.412 C  
HETATM    2  C   UNL     1      -9.115  17.760  67.120  1.00  0.00    -0.246 C  
ENDROOT
BRANCH   2   3
HETATM    3  O   UNL     1     -10.044  16.741  67.512  1.00  0.00    -0.261 OA 
BRANCH   3   4
HETATM    4  C   UNL     1      -9.501  15.517  67.772  1.00  0.00    -0.204 C  
HETATM    5  O   UNL     1      -8.631  15.290  68.609  1.00  0.00    -0.155 OA 
BRANCH   4   6
HETATM    6  C   UNL     1     -10.158  14.445  66.886  1.00  0.00    -0.259 C  
BRANCH   6   7
HETATM    7  C   UNL     1     -11.439  13.937  67.556  1.00  0.00    -0.368 C  
BRANCH   7   8
HETATM    8  C   UNL     1     -11.687  14.581  68.926  1.00  0.00    -0.354 C  
BRANCH   8   9
HETATM    9  C   UNL     1     -12.104  13.525  69.920  1.00  0.00    -0.408 A  
HETATM   10  C   UNL     1     -13.056  11.552  71.663  1.00  0.00    -0.478 A  
HETATM   11  C   UNL     1     -12.407  11.187  70.486  1.00  0.00    -0.454 A  
HETATM   12  C   UNL     1     -11.932  12.169  69.616  1.00  0.00    -0.351 A  
HETATM   13  C   UNL     1     -13.220  12.900  71.980  1.00  0.00    -0.549 A  
HETATM   14  C   UNL     1     -12.744  13.884  71.113  1.00  0.00    -0.441 A  
ENDBRANCH   8   9
ENDBRANCH   7   8
ENDBRANCH   6   7
BRANCH   6  15
HETATM   15  N   UNL     1      -9.155  13.389  66.650  1.00  0.00    -0.391 NA 
HETATM   16  H   UNL     1      -8.160  13.614  66.607  1.00  0.00     0.000 HD 
BRANCH  15  17
HETATM   17  C   UNL     1      -9.626  11.985  66.474  1.00  0.00    -0.224 C  
HETATM   18  O   UNL     1      -8.611  11.774  68.651  1.00  0.00    -0.142 OA 
HETATM   19  C   UNL     1      -9.341  11.580  65.032  1.00  0.00    -0.107 C  
HETATM   20  O   UNL     1      -6.830   7.343  69.554  1.00  0.00    -0.047 OA 
HETATM   21  O   UNL     1      -6.753   8.006  67.399  1.00  0.00    -0.065 OA 
HETATM   22  C   UNL     1      -9.949  10.251  64.626  1.00  0.00    -0.377 C  
HETATM   23  C   UNL     1      -8.926  11.167  67.614  1.00  0.00    -0.140 C  
HETATM   24  C   UNL     1      -9.153   9.103  65.198  1.00  0.00    -0.176 C  
HETATM   25  N   UNL     1      -9.339   8.913  66.620  1.00  0.00    -0.170 NA 
HETATM   26  C   UNL     1      -7.256   8.058  68.656  1.00  0.00    -0.081 C  
HETATM   27  C   UNL     1     -10.619   8.372  67.067  1.00  0.00    -0.246 C  
HETATM   28  N   UNL     1      -8.734   9.782  67.549  1.00  0.00    -0.125 N  
HETATM   29  C   UNL     1     -10.396   7.606  68.378  1.00  0.00    -0.228 C  
HETATM   30  C   UNL     1      -8.380   9.088  68.830  1.00  0.00    -0.122 C  
HETATM   31  C   UNL     1      -9.651   8.450  69.419  1.00  0.00    -0.170 C  
ENDBRANCH  15  17
ENDBRANCH   6  15
ENDBRANCH   4   6
ENDBRANCH   3   4
ENDBRANCH   2   3
TORSDOF 8
ENDMDL
MODEL      100
REMARK 921   NORMALIZED FREE ENERGY PREDICTED BY IDOCK:   -5.21 KCAL/MOL
REMARK 922        TOTAL FREE ENERGY PREDICTED BY IDOCK:   -8.86 KCAL/MOL
REMARK 923 INTER-LIGAND FREE ENERGY PREDICTED BY IDOCK:   -7.64 KCAL/MOL
REMARK 924 INTRA-LIGAND FREE ENERGY PREDICTED BY IDOCK:   -1.23 KCAL/MOL
REMARK 927      BINDING AFFINITY PREDICTED BY RF-SCORE:    0.00 PKD
ROOT
HETATM    1  C   UNL     1     -12.690  14.990  72.971  1.00  0.00    -0.560 C  
HETATM    2  C   UNL     1     -11.701  15.923  72.299  1.00  0.00    -0.481 C  
ENDROOT
BRANCH   2   3
HETATM    3  O   UNL     1     -12.099  16.166  70.944  1.00  0.00    -0.349 OA 
BRANCH   3   4
HETATM    4  C   UNL     1     -11.841  15.157  70.064  1.00  0.00    -0.325 C  
HETATM    5  O   UNL     1     -12.528  14.150  69.916  1.00  0.00    -0.341 OA 
BRANCH   4   6
HETATM    6  C   UNL     1     -10.572  15.471  69.252  1.00  0.00    -0.236 C  
BRANCH   6   7
HETATM    7  C   UNL     1     -10.424  16.988  69.095  1.00  0.00    -0.323 C  
BRANCH   7   8
HETATM    8  C   UNL     1      -9.401  17.376  68.019  1.00  0.00    -0.276 C  
BRANCH   8   9
HETATM    9  C   UNL     1      -8.148  17.904  68.672  1.00  0.00    -0.283 A  
HETATM   10  C   UNL     1      -5.732  18.878  69.698  1.00  0.00    -0.249 A  
HETATM   11  C   UNL     1      -6.676  19.763  69.180  1.00  0.00    -0.381 A  
HETATM   12  C   UNL     1      -7.880  19.278  68.669  1.00  0.00    -0.396 A  
HETATM   13  C   UNL     1      -5.995  17.510  69.717  1.00  0.00    -0.245 A  
HETATM   14  C   UNL     1      -7.199  17.023  69.207  1.00  0.00    -0.150 A  
ENDBRANCH   8   9
ENDBRANCH   7   8
ENDBRANCH   6   7
BRANCH   6  15
HETATM   15  N   UNL     1     -10.675  14.750  67.969  1.00  0.00    -0.244 NA 
HETATM   16  H   UNL     1     -11.463  14.912  67.342  1.00  0.00     0.000 HD 
BRANCH  15  17
HETATM   17  C   UNL     1      -9.603  13.780  67.609  1.00  0.00    -0.219 C  
HETATM   18  O   UNL     1     -11.528  12.454  67.016  1.00  0.00    -0.315 OA 
HETATM   19  C   UNL     1      -8.542  13.836  68.702  1.00  0.00    -0.057 C  
HETATM   20  O   UNL     1     -10.828   7.669  67.501  1.00  0.00    -0.223 OA 
HETATM   21  O   UNL     1      -9.706   8.973  68.960  1.00  0.00    -0.161 OA 
HETATM   22  C   UNL     1      -7.278  13.061  68.386  1.00  0.00    -0.110 C  
HETATM   23  C   UNL     1     -10.339  12.415  67.376  1.00  0.00    -0.207 C  
HETATM   24  C   UNL     1      -7.502  11.579  68.559  1.00  0.00    -0.115 C  
HETATM   25  N   UNL     1      -8.299  10.981  67.510  1.00  0.00    -0.117 NA 
HETATM   26  C   UNL     1     -10.347   8.758  67.786  1.00  0.00    -0.237 C  
HETATM   27  C   UNL     1      -7.681  10.829  66.195  1.00  0.00    -0.149 C  
HETATM   28  N   UNL     1      -9.693  11.176  67.462  1.00  0.00    -0.175 N  
HETATM   29  C   UNL     1      -8.318   9.625  65.490  1.00  0.00    -0.143 C  
HETATM   30  C   UNL     1     -10.413   9.997  66.882  1.00  0.00    -0.218 C  
HETATM   31  C   UNL     1      -9.849   9.708  65.479  1.00  0.00    -0.352 C  
ENDBRANCH  15  17
ENDBRANCH   6  15
ENDBRANCH   4   6
ENDBRANCH   3   4
ENDBRANCH   2   3
TORSDOF 8
ENDMDL
MODEL      101
REMARK 921   NORMALIZED FREE ENERGY PREDICTED BY IDOCK:   -5.21 KCAL/MOL
REMARK 922        TOTAL FREE ENERGY PREDICTED BY IDOCK:   -8.85 KCAL/MOL
REMARK 923 INTER-LIGAND FREE ENERGY PREDICTED BY IDOCK:   -7.58 KCAL/MOL
REMARK 924 INTRA-LIGAND FREE ENERGY PREDICTED BY IDOCK:   -1.27 KCAL/MOL
REMARK 927      BINDING AFFINITY PREDICTED BY RF-SCORE:    0.00 PKD
ROOT
HETATM    1  C   UNL     1     -10.774  11.654  63.565  1.00  0.00    -0.495 C  
HETATM    2  C   UNL     1     -11.358  12.038  64.911  1.00  0.00    -0.310 C  
ENDROOT
BRANCH   2   3
HETATM    3  O   UNL     1     -10.359  11.919  65.932  1.00  0.00    -0.227 OA 
BRANCH   3   4
HETATM    4  C   UNL     1     -10.053  13.070  66.595  1.00  0.00    -0.251 C  
HETATM    5  O   UNL     1      -9.816  14.152  66.066  1.00  0.00    -0.304 OA 
BRANCH   4   6
HETATM    6  C   UNL     1     -10.077  12.831  68.115  1.00  0.00    -0.239 C  
BRANCH   6   7
HETATM    7  C   UNL     1     -10.434  14.135  68.836  1.00  0.00    -0.229 C  
BRANCH   7   8
HETATM    8  C   UNL     1     -11.943  14.292  69.065  1.00  0.00    -0.360 C  
BRANCH   8   9
HETATM    9  C   UNL     1     -12.222  14.473  70.536  1.00  0.00    -0.399 A  
HETATM   10  C   UNL     1     -12.908  14.911  73.215  1.00  0.00    -0.646 A  
HETATM   11  C   UNL     1     -13.419  13.806  72.537  1.00  0.00    -0.682 A  
HETATM   12  C   UNL     1     -13.078  13.587  71.202  1.00  0.00    -0.285 A  
HETATM   13  C   UNL     1     -12.045  15.791  72.565  1.00  0.00    -0.591 A  
HETATM   14  C   UNL     1     -11.700  15.573  71.230  1.00  0.00    -0.457 A  
ENDBRANCH   8   9
ENDBRANCH   7   8
ENDBRANCH   6   7
BRANCH   6  15
HETATM   15  N   UNL     1      -8.762  12.282  68.498  1.00  0.00    -0.338 NA 
HETATM   16  H   UNL     1      -7.908  12.816  68.338  1.00  0.00     0.000 HD 
BRANCH  15  17
HETATM   17  C   UNL     1      -8.709  10.931  69.125  1.00  0.00    -0.043 C  
HETATM   18  O   UNL     1      -7.234  10.541  67.258  1.00  0.00    -0.086 OA 
HETATM   19  C   UNL     1     -10.123  10.569  69.564  1.00  0.00    -0.208 C  
HETATM   20  O   UNL     1      -7.259   5.944  65.678  1.00  0.00    -0.071 OA 
HETATM   21  O   UNL     1      -9.209   6.696  66.526  1.00  0.00    -0.151 OA 
HETATM   22  C   UNL     1     -10.212   9.314  70.410  1.00  0.00    -0.284 C  
HETATM   23  C   UNL     1      -8.016  10.008  68.063  1.00  0.00    -0.101 C  
HETATM   24  C   UNL     1     -10.070   8.081  69.551  1.00  0.00    -0.196 C  
HETATM   25  N   UNL     1      -8.720   7.842  69.088  1.00  0.00    -0.138 NA 
HETATM   26  C   UNL     1      -7.861   6.731  66.397  1.00  0.00    -0.104 C  
HETATM   27  C   UNL     1      -7.740   7.386  70.070  1.00  0.00    -0.095 C  
HETATM   28  N   UNL     1      -8.167   8.616  68.050  1.00  0.00    -0.115 N  
HETATM   29  C   UNL     1      -6.678   6.546  69.348  1.00  0.00    -0.056 C  
HETATM   30  C   UNL     1      -7.190   7.839  67.220  1.00  0.00    -0.090 C  
HETATM   31  C   UNL     1      -6.088   7.280  68.138  1.00  0.00    -0.031 C  
ENDBRANCH  15  17
ENDBRANCH   6  15
ENDBRANCH   4   6
ENDBRANCH   3   4
ENDBRANCH   2   3
TORSDOF 8
ENDMDL
MODEL      102
REMARK 921   NORMALIZED FREE ENERGY PREDICTED BY IDOCK:   -5.19 KCAL/MOL
REMARK 922        TOTAL FREE ENERGY PREDICTED BY IDOCK:   -8.82 KCAL/MOL
REMARK 923 INTER-LIGAND FREE ENERGY PREDICTED BY IDOCK:   -8.02 KCAL/MOL
REMARK 924 INTRA-LIGAND FREE ENERGY PREDICTED BY IDOCK:   -0.80 KCAL/MOL
REMARK 927      BINDING AFFINITY PREDICTED BY RF-SCORE:    0.00 PKD
ROOT
HETATM    1  C   UNL     1     -14.409   7.926  71.479  1.00  0.00    -0.563 C  
HETATM    2  C   UNL     1     -13.082   8.221  72.151  1.00  0.00    -0.287 C  
ENDROOT
BRANCH   2   3
HETATM    3  O   UNL     1     -12.057   8.383  71.163  1.00  0.00    -0.289 OA 
BRANCH   3   4
HETATM    4  C   UNL     1     -11.211   7.324  71.012  1.00  0.00    -0.266 C  
HETATM    5  O   UNL     1     -11.230   6.299  71.688  1.00  0.00    -0.262 OA 
BRANCH   4   6
HETATM    6  C   UNL     1     -10.239   7.581  69.847  1.00  0.00    -0.210 C  
BRANCH   6   7
HETATM    7  C   UNL     1      -8.975   8.269  70.373  1.00  0.00    -0.146 C  
BRANCH   7   8
HETATM    8  C   UNL     1      -9.023   8.522  71.886  1.00  0.00    -0.301 C  
BRANCH   8   9
HETATM    9  C   UNL     1      -7.760   8.009  72.531  1.00  0.00    -0.155 A  
HETATM   10  C   UNL     1      -5.319   7.223  73.654  1.00  0.00    -0.046 A  
HETATM   11  C   UNL     1      -6.166   8.078  74.357  1.00  0.00    -0.114 A  
HETATM   12  C   UNL     1      -7.382   8.470  73.798  1.00  0.00    -0.080 A  
HETATM   13  C   UNL     1      -5.692   6.749  72.398  1.00  0.00    -0.038 A  
HETATM   14  C   UNL     1      -6.909   7.138  71.837  1.00  0.00    -0.059 A  
ENDBRANCH   8   9
ENDBRANCH   7   8
ENDBRANCH   6   7
BRANCH   6  15
HETATM   15  N   UNL     1     -10.963   8.370  68.832  1.00  0.00    -0.428 NA 
HETATM   16  H   UNL     1     -11.963   8.236  68.682  1.00  0.00     0.000 HD 
BRANCH  15  17
HETATM   17  C   UNL     1     -10.201   9.369  68.029  1.00  0.00    -0.204 C  
HETATM   18  O   UNL     1     -12.100  10.730  68.622  1.00  0.00    -0.480 OA 
HETATM   19  C   UNL     1      -9.643   8.649  66.806  1.00  0.00    -0.269 C  
HETATM   20  O   UNL     1     -13.179  14.123  65.312  1.00  0.00    -0.760 OA 
HETATM   21  O   UNL     1     -12.301  12.210  64.500  1.00  0.00    -0.379 OA 
HETATM   22  C   UNL     1      -8.665   9.472  65.990  1.00  0.00    -0.166 C  
HETATM   23  C   UNL     1     -11.198  10.555  67.786  1.00  0.00    -0.273 C  
HETATM   24  C   UNL     1      -9.395  10.500  65.160  1.00  0.00    -0.216 C  
HETATM   25  N   UNL     1      -9.909  11.614  65.927  1.00  0.00    -0.226 NA 
HETATM   26  C   UNL     1     -12.513  13.111  65.490  1.00  0.00    -0.458 C  
HETATM   27  C   UNL     1      -8.944  12.580  66.445  1.00  0.00    -0.073 C  
HETATM   28  N   UNL     1     -11.054  11.466  66.733  1.00  0.00    -0.294 N  
HETATM   29  C   UNL     1      -9.634  13.945  66.567  1.00  0.00    -0.299 C  
HETATM   30  C   UNL     1     -11.854  12.731  66.822  1.00  0.00    -0.382 C  
HETATM   31  C   UNL     1     -10.949  13.858  67.352  1.00  0.00    -0.299 C  
ENDBRANCH  15  17
ENDBRANCH   6  15
ENDBRANCH   4   6
ENDBRANCH   3   4
ENDBRANCH   2   3
TORSDOF 8
ENDMDL
MODEL      103
REMARK 921   NORMALIZED FREE ENERGY PREDICTED BY IDOCK:   -5.17 KCAL/MOL
REMARK 922        TOTAL FREE ENERGY PREDICTED BY IDOCK:   -8.80 KCAL/MOL
REMARK 923 INTER-LIGAND FREE ENERGY PREDICTED BY IDOCK:   -7.41 KCAL/MOL
REMARK 924 INTRA-LIGAND FREE ENERGY PREDICTED BY IDOCK:   -1.40 KCAL/MOL
REMARK 927      BINDING AFFINITY PREDICTED BY RF-SCORE:    0.00 PKD
ROOT
HETATM    1  C   UNL     1      -6.729  18.540  65.951  1.00  0.00    -0.310 C  
HETATM    2  C   UNL     1      -6.422  17.607  67.106  1.00  0.00    -0.161 C  
ENDROOT
BRANCH   2   3
HETATM    3  O   UNL     1      -6.725  16.254  66.738  1.00  0.00    -0.229 OA 
BRANCH   3   4
HETATM    4  C   UNL     1      -7.649  15.624  67.519  1.00  0.00    -0.175 C  
HETATM    5  O   UNL     1      -7.666  15.634  68.747  1.00  0.00    -0.143 OA 
BRANCH   4   6
HETATM    6  C   UNL     1      -8.695  14.917  66.639  1.00  0.00    -0.227 C  
BRANCH   6   7
HETATM    7  C   UNL     1      -9.571  15.962  65.941  1.00  0.00    -0.378 C  
BRANCH   7   8
HETATM    8  C   UNL     1     -10.648  16.547  66.865  1.00  0.00    -0.238 C  
BRANCH   8   9
HETATM    9  C   UNL     1     -10.332  17.990  67.170  1.00  0.00    -0.382 A  
HETATM   10  C   UNL     1      -9.556  20.633  67.667  1.00  0.00    -0.441 A  
HETATM   11  C   UNL     1     -10.031  20.272  66.408  1.00  0.00    -0.507 A  
HETATM   12  C   UNL     1     -10.418  18.955  66.159  1.00  0.00    -0.521 A  
HETATM   13  C   UNL     1      -9.480  19.683  68.683  1.00  0.00    -0.422 A  
HETATM   14  C   UNL     1      -9.868  18.365  68.437  1.00  0.00    -0.396 A  
ENDBRANCH   8   9
ENDBRANCH   7   8
ENDBRANCH   6   7
BRANCH   6  15
HETATM   15  N   UNL     1      -9.452  13.993  67.505  1.00  0.00    -0.215 NA 
HETATM   16  H   UNL     1      -9.718  14.265  68.452  1.00  0.00     0.000 HD 
BRANCH  15  17
HETATM   17  C   UNL     1      -9.820  12.652  66.967  1.00  0.00    -0.225 C  
HETATM   18  O   UNL     1      -7.542  12.191  67.608  1.00  0.00    -0.119 OA 
HETATM   19  C   UNL     1     -10.631  12.872  65.695  1.00  0.00    -0.295 C  
HETATM   20  O   UNL     1      -5.389   8.807  64.861  1.00  0.00    -0.038 OA 
HETATM   21  O   UNL     1      -6.920  10.088  63.811  1.00  0.00    -0.123 OA 
HETATM   22  C   UNL     1     -11.264  11.614  65.133  1.00  0.00    -0.262 C  
HETATM   23  C   UNL     1      -8.467  11.869  66.843  1.00  0.00    -0.174 C  
HETATM   24  C   UNL     1     -10.232  10.765  64.432  1.00  0.00    -0.364 C  
HETATM   25  N   UNL     1      -9.330  10.078  65.331  1.00  0.00    -0.208 NA 
HETATM   26  C   UNL     1      -6.372   9.534  64.920  1.00  0.00    -0.081 C  
HETATM   27  C   UNL     1      -9.865   8.959  66.100  1.00  0.00    -0.256 C  
HETATM   28  N   UNL     1      -8.296  10.775  65.987  1.00  0.00    -0.161 N  
HETATM   29  C   UNL     1      -8.724   7.976  66.395  1.00  0.00    -0.169 C  
HETATM   30  C   UNL     1      -7.091   9.916  66.221  1.00  0.00    -0.101 C  
HETATM   31  C   UNL     1      -7.512   8.672  67.024  1.00  0.00    -0.084 C  
ENDBRANCH  15  17
ENDBRANCH   6  15
ENDBRANCH   4   6
ENDBRANCH   3   4
ENDBRANCH   2   3
TORSDOF 8
ENDMDL
MODEL      104
REMARK 921   NORMALIZED FREE ENERGY PREDICTED BY IDOCK:   -5.16 KCAL/MOL
REMARK 922        TOTAL FREE ENERGY PREDICTED BY IDOCK:   -8.79 KCAL/MOL
REMARK 923 INTER-LIGAND FREE ENERGY PREDICTED BY IDOCK:   -7.27 KCAL/MOL
REMARK 924 INTRA-LIGAND FREE ENERGY PREDICTED BY IDOCK:   -1.52 KCAL/MOL
REMARK 927      BINDING AFFINITY PREDICTED BY RF-SCORE:    0.00 PKD
ROOT
HETATM    1  C   UNL     1      -6.798   6.182  67.682  1.00  0.00    -0.060 C  
HETATM    2  C   UNL     1      -6.184   7.549  67.911  1.00  0.00    -0.048 C  
ENDROOT
BRANCH   2   3
HETATM    3  O   UNL     1      -6.328   8.356  66.735  1.00  0.00    -0.054 OA 
BRANCH   3   4
HETATM    4  C   UNL     1      -6.888   9.585  66.928  1.00  0.00    -0.080 C  
HETATM    5  O   UNL     1      -6.297  10.575  67.350  1.00  0.00    -0.057 OA 
BRANCH   4   6
HETATM    6  C   UNL     1      -8.369   9.565  66.510  1.00  0.00    -0.119 C  
BRANCH   6   7
HETATM    7  C   UNL     1      -8.579  10.505  65.318  1.00  0.00    -0.185 C  
BRANCH   7   8
HETATM    8  C   UNL     1      -9.901  10.245  64.584  1.00  0.00    -0.396 C  
BRANCH   8   9
HETATM    9  C   UNL     1     -10.785  11.464  64.673  1.00  0.00    -0.378 A  
HETATM   10  C   UNL     1     -12.588  13.600  64.834  1.00  0.00    -0.380 A  
HETATM   11  C   UNL     1     -12.170  12.953  65.995  1.00  0.00    -0.431 A  
HETATM   12  C   UNL     1     -11.272  11.888  65.916  1.00  0.00    -0.373 A  
HETATM   13  C   UNL     1     -12.099  13.193  63.593  1.00  0.00    -0.583 A  
HETATM   14  C   UNL     1     -11.199  12.129  63.512  1.00  0.00    -0.536 A  
ENDBRANCH   8   9
ENDBRANCH   7   8
ENDBRANCH   6   7
BRANCH   6  15
HETATM   15  N   UNL     1      -9.169   9.925  67.696  1.00  0.00    -0.134 NA 
HETATM   16  H   UNL     1      -9.092  10.852  68.116  1.00  0.00     0.000 HD 
BRANCH  15  17
HETATM   17  C   UNL     1     -10.093   8.904  68.268  1.00  0.00    -0.187 C  
HETATM   18  O   UNL     1      -9.004   9.610  70.300  1.00  0.00    -0.231 OA 
HETATM   19  C   UNL     1     -10.098   7.706  67.326  1.00  0.00    -0.306 C  
HETATM   20  O   UNL     1      -8.716   6.121  73.672  1.00  0.00    -0.124 OA 
HETATM   21  O   UNL     1      -8.628   5.418  71.530  1.00  0.00    -0.127 OA 
HETATM   22  C   UNL     1     -11.147   6.661  67.650  1.00  0.00    -0.357 C  
HETATM   23  C   UNL     1      -9.600   8.675  69.738  1.00  0.00    -0.171 C  
HETATM   24  C   UNL     1     -10.727   5.834  68.841  1.00  0.00    -0.263 C  
HETATM   25  N   UNL     1     -10.829   6.532  70.104  1.00  0.00    -0.256 NA 
HETATM   26  C   UNL     1      -8.964   6.315  72.489  1.00  0.00    -0.137 C  
HETATM   27  C   UNL     1     -12.168   6.781  70.631  1.00  0.00    -0.254 C  
HETATM   28  N   UNL     1      -9.885   7.512  70.464  1.00  0.00    -0.183 N  
HETATM   29  C   UNL     1     -12.088   6.843  72.163  1.00  0.00    -0.278 C  
HETATM   30  C   UNL     1      -9.661   7.570  71.945  1.00  0.00    -0.159 C  
HETATM   31  C   UNL     1     -11.009   7.820  72.644  1.00  0.00    -0.422 C  
ENDBRANCH  15  17
ENDBRANCH   6  15
ENDBRANCH   4   6
ENDBRANCH   3   4
ENDBRANCH   2   3
TORSDOF 8
ENDMDL
MODEL      105
REMARK 921   NORMALIZED FREE ENERGY PREDICTED BY IDOCK:   -5.14 KCAL/MOL
REMARK 922        TOTAL FREE ENERGY PREDICTED BY IDOCK:   -8.76 KCAL/MOL
REMARK 923 INTER-LIGAND FREE ENERGY PREDICTED BY IDOCK:   -7.73 KCAL/MOL
REMARK 924 INTRA-LIGAND FREE ENERGY PREDICTED BY IDOCK:   -1.03 KCAL/MOL
REMARK 927      BINDING AFFINITY PREDICTED BY RF-SCORE:    0.00 PKD
ROOT
HETATM    1  C   UNL     1     -10.013  15.677  69.482  1.00  0.00    -0.285 C  
HETATM    2  C   UNL     1     -10.155  14.802  68.252  1.00  0.00    -0.221 C  
ENDROOT
BRANCH   2   3
HETATM    3  O   UNL     1      -9.578  13.512  68.498  1.00  0.00    -0.214 OA 
BRANCH   3   4
HETATM    4  C   UNL     1      -8.423  13.246  67.825  1.00  0.00    -0.181 C  
HETATM    5  O   UNL     1      -7.709  14.084  67.282  1.00  0.00    -0.175 OA 
BRANCH   4   6
HETATM    6  C   UNL     1      -8.119  11.738  67.867  1.00  0.00    -0.144 C  
BRANCH   6   7
HETATM    7  C   UNL     1      -8.316  11.134  66.472  1.00  0.00    -0.166 C  
BRANCH   7   8
HETATM    8  C   UNL     1      -9.682  10.454  66.308  1.00  0.00    -0.256 C  
BRANCH   8   9
HETATM    9  C   UNL     1     -10.571  11.299  65.431  1.00  0.00    -0.312 A  
HETATM   10  C   UNL     1     -12.078  13.013  63.809  1.00  0.00    -0.574 A  
HETATM   11  C   UNL     1     -11.141  12.156  63.235  1.00  0.00    -0.408 A  
HETATM   12  C   UNL     1     -10.390  11.301  64.042  1.00  0.00    -0.430 A  
HETATM   13  C   UNL     1     -12.275  13.009  65.188  1.00  0.00    -0.507 A  
HETATM   14  C   UNL     1     -11.526  12.154  65.998  1.00  0.00    -0.427 A  
ENDBRANCH   8   9
ENDBRANCH   7   8
ENDBRANCH   6   7
BRANCH   6  15
HETATM   15  N   UNL     1      -8.986  11.139  68.899  1.00  0.00    -0.328 NA 
HETATM   16  H   UNL     1      -9.765  11.665  69.295  1.00  0.00     0.000 HD 
BRANCH  15  17
HETATM   17  C   UNL     1      -8.699   9.747  69.351  1.00  0.00    -0.174 C  
HETATM   18  O   UNL     1     -11.099   9.597  69.160  1.00  0.00    -0.192 OA 
HETATM   19  C   UNL     1      -7.639   9.826  70.443  1.00  0.00    -0.165 C  
HETATM   20  O   UNL     1     -13.109   6.435  72.256  1.00  0.00    -0.066 OA 
HETATM   21  O   UNL     1     -11.252   7.481  72.996  1.00  0.00    -0.361 OA 
HETATM   22  C   UNL     1      -7.080   8.482  70.867  1.00  0.00    -0.063 C  
HETATM   23  C   UNL     1     -10.094   9.138  69.730  1.00  0.00    -0.199 C  
HETATM   24  C   UNL     1      -8.060   7.750  71.750  1.00  0.00    -0.106 C  
HETATM   25  N   UNL     1      -9.199   7.210  71.040  1.00  0.00    -0.158 NA 
HETATM   26  C   UNL     1     -12.069   7.033  72.012  1.00  0.00    -0.294 C  
HETATM   27  C   UNL     1      -8.970   6.054  70.177  1.00  0.00    -0.147 C  
HETATM   28  N   UNL     1     -10.239   8.050  70.599  1.00  0.00    -0.195 N  
HETATM   29  C   UNL     1     -10.264   5.233  70.104  1.00  0.00    -0.350 C  
HETATM   30  C   UNL     1     -11.568   7.358  70.598  1.00  0.00    -0.268 C  
HETATM   31  C   UNL     1     -11.473   6.095  69.723  1.00  0.00    -0.362 C  
ENDBRANCH  15  17
ENDBRANCH   6  15
ENDBRANCH   4   6
ENDBRANCH   3   4
ENDBRANCH   2   3
TORSDOF 8
ENDMDL
MODEL      106
REMARK 921   NORMALIZED FREE ENERGY PREDICTED BY IDOCK:   -5.14 KCAL/MOL
REMARK 922        TOTAL FREE ENERGY PREDICTED BY IDOCK:   -8.75 KCAL/MOL
REMARK 923 INTER-LIGAND FREE ENERGY PREDICTED BY IDOCK:   -7.76 KCAL/MOL
REMARK 924 INTRA-LIGAND FREE ENERGY PREDICTED BY IDOCK:   -0.99 KCAL/MOL
REMARK 927      BINDING AFFINITY PREDICTED BY RF-SCORE:    0.00 PKD
ROOT
HETATM    1  C   UNL     1      -8.964   4.929  65.266  1.00  0.00    -0.152 C  
HETATM    2  C   UNL     1      -8.624   6.392  65.475  1.00  0.00    -0.109 C  
ENDROOT
BRANCH   2   3
HETATM    3  O   UNL     1      -8.462   6.664  66.873  1.00  0.00    -0.112 OA 
BRANCH   3   4
HETATM    4  C   UNL     1      -8.796   7.925  67.271  1.00  0.00    -0.127 C  
HETATM    5  O   UNL     1      -8.015   8.755  67.727  1.00  0.00    -0.105 OA 
BRANCH   4   6
HETATM    6  C   UNL     1     -10.296   8.176  67.039  1.00  0.00    -0.333 C  
BRANCH   6   7
HETATM    7  C   UNL     1     -10.549   9.679  66.883  1.00  0.00    -0.241 C  
BRANCH   7   8
HETATM    8  C   UNL     1     -10.135  10.210  65.504  1.00  0.00    -0.338 C  
BRANCH   8   9
HETATM    9  C   UNL     1     -10.970  11.414  65.147  1.00  0.00    -0.259 A  
HETATM   10  C   UNL     1     -12.345  13.756  64.467  1.00  0.00    -0.399 A  
HETATM   11  C   UNL     1     -11.888  12.902  63.466  1.00  0.00    -0.605 A  
HETATM   12  C   UNL     1     -11.203  11.734  63.804  1.00  0.00    -0.518 A  
HETATM   13  C   UNL     1     -12.129  13.440  65.808  1.00  0.00    -0.481 A  
HETATM   14  C   UNL     1     -11.446  12.272  66.148  1.00  0.00    -0.429 A  
ENDBRANCH   8   9
ENDBRANCH   7   8
ENDBRANCH   6   7
BRANCH   6  15
HETATM   15  N   UNL     1     -11.028   7.566  68.166  1.00  0.00    -0.454 NA 
HETATM   16  H   UNL     1     -11.887   7.040  68.006  1.00  0.00     0.000 HD 
BRANCH  15  17
HETATM   17  C   UNL     1     -10.484   7.737  69.543  1.00  0.00    -0.225 C  
HETATM   18  O   UNL     1     -10.192   5.354  69.313  1.00  0.00    -0.208 OA 
HETATM   19  C   UNL     1     -11.392   8.715  70.280  1.00  0.00    -0.146 C  
HETATM   20  O   UNL     1     -10.487   2.936  73.519  1.00  0.00    -0.124 OA 
HETATM   21  O   UNL     1     -11.764   4.790  73.367  1.00  0.00    -0.284 OA 
HETATM   22  C   UNL     1     -10.863   9.161  71.629  1.00  0.00    -0.442 C  
HETATM   23  C   UNL     1     -10.354   6.284  70.121  1.00  0.00    -0.205 C  
HETATM   24  C   UNL     1     -11.048   8.076  72.661  1.00  0.00    -0.387 C  
HETATM   25  N   UNL     1     -10.134   6.965  72.514  1.00  0.00    -0.170 NA 
HETATM   26  C   UNL     1     -10.706   4.024  73.003  1.00  0.00    -0.165 C  
HETATM   27  C   UNL     1      -8.735   7.191  72.865  1.00  0.00    -0.122 C  
HETATM   28  N   UNL     1     -10.316   6.012  71.493  1.00  0.00    -0.207 N  
HETATM   29  C   UNL     1      -8.124   5.860  73.325  1.00  0.00    -0.116 C  
HETATM   30  C   UNL     1      -9.843   4.648  71.898  1.00  0.00    -0.179 C  
HETATM   31  C   UNL     1      -8.363   4.735  72.312  1.00  0.00    -0.116 C  
ENDBRANCH  15  17
ENDBRANCH   6  15
ENDBRANCH   4   6
ENDBRANCH   3   4
ENDBRANCH   2   3
TORSDOF 8
ENDMDL
MODEL      107
REMARK 921   NORMALIZED FREE ENERGY PREDICTED BY IDOCK:   -5.14 KCAL/MOL
REMARK 922        TOTAL FREE ENERGY PREDICTED BY IDOCK:   -8.75 KCAL/MOL
REMARK 923 INTER-LIGAND FREE ENERGY PREDICTED BY IDOCK:   -8.37 KCAL/MOL
REMARK 924 INTRA-LIGAND FREE ENERGY PREDICTED BY IDOCK:   -0.38 KCAL/MOL
REMARK 927      BINDING AFFINITY PREDICTED BY RF-SCORE:    0.00 PKD
ROOT
HETATM    1  C   UNL     1      -9.905  15.942  65.964  1.00  0.00    -0.366 C  
HETATM    2  C   UNL     1     -10.876  15.068  65.193  1.00  0.00    -0.407 C  
ENDROOT
BRANCH   2   3
HETATM    3  O   UNL     1     -10.497  13.690  65.314  1.00  0.00    -0.317 OA 
BRANCH   3   4
HETATM    4  C   UNL     1     -11.373  12.896  65.994  1.00  0.00    -0.317 C  
HETATM    5  O   UNL     1     -12.560  12.749  65.717  1.00  0.00    -0.562 OA 
BRANCH   4   6
HETATM    6  C   UNL     1     -10.654  12.180  67.150  1.00  0.00    -0.226 C  
BRANCH   6   7
HETATM    7  C   UNL     1     -10.336  13.186  68.261  1.00  0.00    -0.256 C  
BRANCH   7   8
HETATM    8  C   UNL     1     -11.560  14.010  68.683  1.00  0.00    -0.360 C  
BRANCH   8   9
HETATM    9  C   UNL     1     -12.116  13.474  69.978  1.00  0.00    -0.411 A  
HETATM   10  C   UNL     1     -13.326  12.446  72.284  1.00  0.00    -0.427 A  
HETATM   11  C   UNL     1     -12.707  11.585  71.380  1.00  0.00    -0.469 A  
HETATM   12  C   UNL     1     -12.104  12.097  70.230  1.00  0.00    -0.385 A  
HETATM   13  C   UNL     1     -13.332  13.820  72.048  1.00  0.00    -0.536 A  
HETATM   14  C   UNL     1     -12.728  14.334  70.900  1.00  0.00    -0.427 A  
ENDBRANCH   8   9
ENDBRANCH   7   8
ENDBRANCH   6   7
BRANCH   6  15
HETATM   15  N   UNL     1      -9.459  11.521  66.589  1.00  0.00    -0.188 NA 
HETATM   16  H   UNL     1      -9.113  11.770  65.662  1.00  0.00     0.000 HD 
BRANCH  15  17
HETATM   17  C   UNL     1      -8.767  10.484  67.406  1.00  0.00    -0.125 C  
HETATM   18  O   UNL     1     -11.017   9.626  67.531  1.00  0.00    -0.260 OA 
HETATM   19  C   UNL     1      -7.760  11.197  68.301  1.00  0.00    -0.116 C  
HETATM   20  O   UNL     1     -11.956   7.201  71.637  1.00  0.00    -0.284 OA 
HETATM   21  O   UNL     1     -10.479   8.897  71.821  1.00  0.00    -0.314 OA 
HETATM   22  C   UNL     1      -6.822  10.268  69.048  1.00  0.00    -0.058 C  
HETATM   23  C   UNL     1      -9.913   9.670  68.101  1.00  0.00    -0.159 C  
HETATM   24  C   UNL     1      -7.530   9.619  70.213  1.00  0.00    -0.158 C  
HETATM   25  N   UNL     1      -8.469   8.588  69.827  1.00  0.00    -0.127 NA 
HETATM   26  C   UNL     1     -11.143   7.950  71.113  1.00  0.00    -0.255 C  
HETATM   27  C   UNL     1      -7.922   7.327  69.334  1.00  0.00    -0.125 C  
HETATM   28  N   UNL     1      -9.717   8.922  69.268  1.00  0.00    -0.162 N  
HETATM   29  C   UNL     1      -8.916   6.203  69.654  1.00  0.00    -0.134 C  
HETATM   30  C   UNL     1     -10.782   7.929  69.621  1.00  0.00    -0.218 C  
HETATM   31  C   UNL     1     -10.332   6.530  69.164  1.00  0.00    -0.226 C  
ENDBRANCH  15  17
ENDBRANCH   6  15
ENDBRANCH   4   6
ENDBRANCH   3   4
ENDBRANCH   2   3
TORSDOF 8
ENDMDL
MODEL      108
REMARK 921   NORMALIZED FREE ENERGY PREDICTED BY IDOCK:   -5.13 KCAL/MOL
REMARK 922        TOTAL FREE ENERGY PREDICTED BY IDOCK:   -8.74 KCAL/MOL
REMARK 923 INTER-LIGAND FREE ENERGY PREDICTED BY IDOCK:   -7.55 KCAL/MOL
REMARK 924 INTRA-LIGAND FREE ENERGY PREDICTED BY IDOCK:   -1.20 KCAL/MOL
REMARK 927      BINDING AFFINITY PREDICTED BY RF-SCORE:    0.00 PKD
ROOT
HETATM    1  C   UNL     1      -8.069   9.411  63.568  1.00  0.00    -0.157 C  
HETATM    2  C   UNL     1      -8.481   8.679  64.830  1.00  0.00    -0.161 C  
ENDROOT
BRANCH   2   3
HETATM    3  O   UNL     1      -9.438   9.459  65.560  1.00  0.00    -0.245 OA 
BRANCH   3   4
HETATM    4  C   UNL     1      -8.971  10.053  66.695  1.00  0.00    -0.139 C  
HETATM    5  O   UNL     1      -7.800  10.353  66.908  1.00  0.00    -0.110 OA 
BRANCH   4   6
HETATM    6  C   UNL     1     -10.132  10.326  67.668  1.00  0.00    -0.191 C  
BRANCH   6   7
HETATM    7  C   UNL     1     -10.738   8.997  68.132  1.00  0.00    -0.165 C  
BRANCH   7   8
HETATM    8  C   UNL     1     -10.289   8.602  69.545  1.00  0.00    -0.214 C  
BRANCH   8   9
HETATM    9  C   UNL     1     -11.455   8.699  70.497  1.00  0.00    -0.208 A  
HETATM   10  C   UNL     1     -13.742   8.877  72.101  1.00  0.00    -0.527 A  
HETATM   11  C   UNL     1     -13.266   7.629  71.705  1.00  0.00    -0.395 A  
HETATM   12  C   UNL     1     -12.126   7.539  70.905  1.00  0.00    -0.254 A  
HETATM   13  C   UNL     1     -13.074  10.036  71.711  1.00  0.00    -0.562 A  
HETATM   14  C   UNL     1     -11.932   9.949  70.913  1.00  0.00    -0.434 A  
ENDBRANCH   8   9
ENDBRANCH   7   8
ENDBRANCH   6   7
BRANCH   6  15
HETATM   15  N   UNL     1     -11.093  11.205  66.977  1.00  0.00    -0.294 NA 
HETATM   16  H   UNL     1     -11.612  10.874  66.163  1.00  0.00     0.000 HD 
BRANCH  15  17
HETATM   17  C   UNL     1     -11.291  12.590  67.493  1.00  0.00    -0.312 C  
HETATM   18  O   UNL     1      -9.857  13.086  65.619  1.00  0.00    -0.251 OA 
HETATM   19  C   UNL     1     -11.211  12.531  69.014  1.00  0.00    -0.321 C  
HETATM   20  O   UNL     1      -7.065  17.008  66.282  1.00  0.00    -0.258 OA 
HETATM   21  O   UNL     1      -7.540  15.823  68.142  1.00  0.00    -0.120 OA 
HETATM   22  C   UNL     1     -11.600  13.822  69.709  1.00  0.00    -0.324 C  
HETATM   23  C   UNL     1     -10.233  13.469  66.739  1.00  0.00    -0.264 C  
HETATM   24  C   UNL     1     -10.491  14.840  69.603  1.00  0.00    -0.111 C  
HETATM   25  N   UNL     1     -10.357  15.425  68.287  1.00  0.00    -0.234 NA 
HETATM   26  C   UNL     1      -7.793  16.220  66.871  1.00  0.00    -0.243 C  
HETATM   27  C   UNL     1     -11.389  16.365  67.858  1.00  0.00    -0.095 C  
HETATM   28  N   UNL     1      -9.777  14.698  67.230  1.00  0.00    -0.228 N  
HETATM   29  C   UNL     1     -10.767  17.358  66.866  1.00  0.00    -0.125 C  
HETATM   30  C   UNL     1      -9.050  15.583  66.263  1.00  0.00    -0.334 C  
HETATM   31  C   UNL     1     -10.025  16.646  65.728  1.00  0.00    -0.271 C  
ENDBRANCH  15  17
ENDBRANCH   6  15
ENDBRANCH   4   6
ENDBRANCH   3   4
ENDBRANCH   2   3
TORSDOF 8
ENDMDL
MODEL      109
REMARK 921   NORMALIZED FREE ENERGY PREDICTED BY IDOCK:   -5.13 KCAL/MOL
REMARK 922        TOTAL FREE ENERGY PREDICTED BY IDOCK:   -8.74 KCAL/MOL
REMARK 923 INTER-LIGAND FREE ENERGY PREDICTED BY IDOCK:   -7.70 KCAL/MOL
REMARK 924 INTRA-LIGAND FREE ENERGY PREDICTED BY IDOCK:   -1.04 KCAL/MOL
REMARK 927      BINDING AFFINITY PREDICTED BY RF-SCORE:    0.00 PKD
ROOT
HETATM    1  C   UNL     1      -9.450  11.213  62.807  1.00  0.00    -0.357 C  
HETATM    2  C   UNL     1     -10.168  10.825  64.085  1.00  0.00    -0.344 C  
ENDROOT
BRANCH   2   3
HETATM    3  O   UNL     1     -10.031  11.867  65.061  1.00  0.00    -0.253 OA 
BRANCH   3   4
HETATM    4  C   UNL     1      -9.717  11.455  66.323  1.00  0.00    -0.212 C  
HETATM    5  O   UNL     1      -8.861  10.621  66.604  1.00  0.00    -0.138 OA 
BRANCH   4   6
HETATM    6  C   UNL     1     -10.572  12.209  67.356  1.00  0.00    -0.226 C  
BRANCH   6   7
HETATM    7  C   UNL     1     -11.496  11.223  68.078  1.00  0.00    -0.369 C  
BRANCH   7   8
HETATM    8  C   UNL     1     -11.127  11.037  69.556  1.00  0.00    -0.322 C  
BRANCH   8   9
HETATM    9  C   UNL     1     -10.322   9.774  69.727  1.00  0.00    -0.274 A  
HETATM   10  C   UNL     1      -8.875   7.434  70.245  1.00  0.00    -0.147 A  
HETATM   11  C   UNL     1     -10.237   7.361  69.964  1.00  0.00    -0.211 A  
HETATM   12  C   UNL     1     -10.959   8.527  69.706  1.00  0.00    -0.131 A  
HETATM   13  C   UNL     1      -8.228   8.668  70.256  1.00  0.00    -0.119 A  
HETATM   14  C   UNL     1      -8.948   9.836  69.996  1.00  0.00    -0.255 A  
ENDBRANCH   8   9
ENDBRANCH   7   8
ENDBRANCH   6   7
BRANCH   6  15
HETATM   15  N   UNL     1     -11.293  13.279  66.640  1.00  0.00    -0.310 NA 
HETATM   16  H   UNL     1     -11.737  13.096  65.740  1.00  0.00     0.000 HD 
BRANCH  15  17
HETATM   17  C   UNL     1     -11.357  14.633  67.259  1.00  0.00    -0.353 C  
HETATM   18  O   UNL     1      -9.441  14.961  65.831  1.00  0.00    -0.307 OA 
HETATM   19  C   UNL     1     -11.664  14.449  68.741  1.00  0.00    -0.372 C  
HETATM   20  O   UNL     1      -6.234  18.171  67.572  1.00  0.00    -0.168 OA 
HETATM   21  O   UNL     1      -7.358  16.975  69.121  1.00  0.00    -0.242 OA 
HETATM   22  C   UNL     1     -11.971  15.738  69.479  1.00  0.00    -0.326 C  
HETATM   23  C   UNL     1     -10.005  15.330  66.875  1.00  0.00    -0.239 C  
HETATM   24  C   UNL     1     -10.704  16.513  69.749  1.00  0.00    -0.298 C  
HETATM   25  N   UNL     1     -10.148  17.153  68.576  1.00  0.00    -0.307 NA 
HETATM   26  C   UNL     1      -7.215  17.507  67.882  1.00  0.00    -0.191 C  
HETATM   27  C   UNL     1     -10.856  18.312  68.041  1.00  0.00    -0.152 C  
HETATM   28  N   UNL     1      -9.468  16.401  67.599  1.00  0.00    -0.224 N  
HETATM   29  C   UNL     1      -9.840  19.226  67.342  1.00  0.00    -0.425 C  
HETATM   30  C   UNL     1      -8.378  17.187  66.934  1.00  0.00    -0.224 C  
HETATM   31  C   UNL     1      -8.984  18.463  66.324  1.00  0.00    -0.205 C  
ENDBRANCH  15  17
ENDBRANCH   6  15
ENDBRANCH   4   6
ENDBRANCH   3   4
ENDBRANCH   2   3
TORSDOF 8
ENDMDL
MODEL      110
REMARK 921   NORMALIZED FREE ENERGY PREDICTED BY IDOCK:   -5.11 KCAL/MOL
REMARK 922        TOTAL FREE ENERGY PREDICTED BY IDOCK:   -8.71 KCAL/MOL
REMARK 923 INTER-LIGAND FREE ENERGY PREDICTED BY IDOCK:   -7.37 KCAL/MOL
REMARK 924 INTRA-LIGAND FREE ENERGY PREDICTED BY IDOCK:   -1.33 KCAL/MOL
REMARK 927      BINDING AFFINITY PREDICTED BY RF-SCORE:    0.00 PKD
ROOT
HETATM    1  C   UNL     1      -5.841  10.282  67.249  1.00  0.00    -0.049 C  
HETATM    2  C   UNL     1      -6.246  11.718  67.522  1.00  0.00    -0.092 C  
ENDROOT
BRANCH   2   3
HETATM    3  O   UNL     1      -7.382  12.068  66.719  1.00  0.00    -0.088 OA 
BRANCH   3   4
HETATM    4  C   UNL     1      -8.558  12.213  67.394  1.00  0.00    -0.175 C  
HETATM    5  O   UNL     1      -8.767  11.835  68.544  1.00  0.00    -0.163 OA 
BRANCH   4   6
HETATM    6  C   UNL     1      -9.586  12.950  66.518  1.00  0.00    -0.259 C  
BRANCH   6   7
HETATM    7  C   UNL     1      -9.919  12.098  65.289  1.00  0.00    -0.260 C  
BRANCH   7   8
HETATM    8  C   UNL     1     -10.576  10.761  65.654  1.00  0.00    -0.199 C  
BRANCH   8   9
HETATM    9  C   UNL     1      -9.605   9.632  65.414  1.00  0.00    -0.361 A  
HETATM   10  C   UNL     1      -7.668   7.637  65.087  1.00  0.00    -0.110 A  
HETATM   11  C   UNL     1      -8.528   7.598  66.182  1.00  0.00    -0.147 A  
HETATM   12  C   UNL     1      -9.494   8.592  66.346  1.00  0.00    -0.297 A  
HETATM   13  C   UNL     1      -7.778   8.661  64.148  1.00  0.00    -0.129 A  
HETATM   14  C   UNL     1      -8.745   9.655  64.308  1.00  0.00    -0.229 A  
ENDBRANCH   8   9
ENDBRANCH   7   8
ENDBRANCH   6   7
BRANCH   6  15
HETATM   15  N   UNL     1      -9.021  14.272  66.188  1.00  0.00    -0.476 NA 
HETATM   16  H   UNL     1      -8.178  14.352  65.618  1.00  0.00     0.000 HD 
BRANCH  15  17
HETATM   17  C   UNL     1      -9.708  15.490  66.705  1.00  0.00    -0.247 C  
HETATM   18  O   UNL     1      -7.733  16.529  65.790  1.00  0.00     0.098 OA 
HETATM   19  C   UNL     1     -10.296  15.145  68.068  1.00  0.00    -0.240 C  
HETATM   20  O   UNL     1      -6.401  20.579  68.124  1.00  0.00    -0.273 OA 
HETATM   21  O   UNL     1      -7.388  18.999  69.396  1.00  0.00    -0.228 OA 
HETATM   22  C   UNL     1     -11.209  16.211  68.642  1.00  0.00    -0.369 C  
HETATM   23  C   UNL     1      -8.635  16.631  66.639  1.00  0.00    -0.258 C  
HETATM   24  C   UNL     1     -10.405  17.368  69.183  1.00  0.00    -0.271 C  
HETATM   25  N   UNL     1      -9.830  18.212  68.159  1.00  0.00    -0.324 NA 
HETATM   26  C   UNL     1      -7.132  19.601  68.209  1.00  0.00    -0.302 C  
HETATM   27  C   UNL     1     -10.738  19.074  67.406  1.00  0.00    -0.473 C  
HETATM   28  N   UNL     1      -8.707  17.790  67.422  1.00  0.00    -0.233 N  
HETATM   29  C   UNL     1      -9.965  20.314  66.941  1.00  0.00    -0.592 C  
HETATM   30  C   UNL     1      -7.830  18.935  67.015  1.00  0.00    -0.243 C  
HETATM   31  C   UNL     1      -8.668  19.945  66.211  1.00  0.00    -0.384 C  
ENDBRANCH  15  17
ENDBRANCH   6  15
ENDBRANCH   4   6
ENDBRANCH   3   4
ENDBRANCH   2   3
TORSDOF 8
ENDMDL
MODEL      111
REMARK 921   NORMALIZED FREE ENERGY PREDICTED BY IDOCK:   -5.08 KCAL/MOL
REMARK 922        TOTAL FREE ENERGY PREDICTED BY IDOCK:   -8.67 KCAL/MOL
REMARK 923 INTER-LIGAND FREE ENERGY PREDICTED BY IDOCK:   -7.48 KCAL/MOL
REMARK 924 INTRA-LIGAND FREE ENERGY PREDICTED BY IDOCK:   -1.19 KCAL/MOL
REMARK 927      BINDING AFFINITY PREDICTED BY RF-SCORE:    0.00 PKD
ROOT
HETATM    1  C   UNL     1     -13.274  11.285  71.991  1.00  0.00    -0.437 C  
HETATM    2  C   UNL     1     -12.655  10.980  70.640  1.00  0.00    -0.338 C  
ENDROOT
BRANCH   2   3
HETATM    3  O   UNL     1     -11.979  12.141  70.137  1.00  0.00    -0.339 OA 
BRANCH   3   4
HETATM    4  C   UNL     1     -11.626  12.093  68.821  1.00  0.00    -0.327 C  
HETATM    5  O   UNL     1     -12.410  12.028  67.878  1.00  0.00    -0.338 OA 
BRANCH   4   6
HETATM    6  C   UNL     1     -10.096  12.163  68.678  1.00  0.00    -0.151 C  
BRANCH   6   7
HETATM    7  C   UNL     1      -9.701  13.483  68.007  1.00  0.00    -0.228 C  
BRANCH   7   8
HETATM    8  C   UNL     1      -9.044  13.277  66.635  1.00  0.00    -0.181 C  
BRANCH   8   9
HETATM    9  C   UNL     1     -10.095  13.312  65.554  1.00  0.00    -0.274 A  
HETATM   10  C   UNL     1     -12.168  13.270  63.673  1.00  0.00    -0.522 A  
HETATM   11  C   UNL     1     -12.121  14.277  64.634  1.00  0.00    -0.478 A  
HETATM   12  C   UNL     1     -11.088  14.299  65.572  1.00  0.00    -0.323 A  
HETATM   13  C   UNL     1     -11.178  12.290  63.639  1.00  0.00    -0.539 A  
HETATM   14  C   UNL     1     -10.142  12.311  64.575  1.00  0.00    -0.280 A  
ENDBRANCH   8   9
ENDBRANCH   7   8
ENDBRANCH   6   7
BRANCH   6  15
HETATM   15  N   UNL     1      -9.664  10.967  67.931  1.00  0.00    -0.163 NA 
HETATM   16  H   UNL     1      -9.813  10.899  66.924  1.00  0.00     0.000 HD 
BRANCH  15  17
HETATM   17  C   UNL     1      -9.006   9.858  68.679  1.00  0.00    -0.128 C  
HETATM   18  O   UNL     1     -11.217   8.919  68.479  1.00  0.00     0.167 OA 
HETATM   19  C   UNL     1      -8.119  10.486  69.748  1.00  0.00     0.017 C  
HETATM   20  O   UNL     1     -12.424   5.969  72.149  1.00  0.00    -0.203 OA 
HETATM   21  O   UNL     1     -11.048   7.675  72.680  1.00  0.00    -0.300 OA 
HETATM   22  C   UNL     1      -7.214   9.502  70.465  1.00  0.00    -0.141 C  
HETATM   23  C   UNL     1     -10.174   8.926  69.154  1.00  0.00    -0.206 C  
HETATM   24  C   UNL     1      -7.996   8.689  71.467  1.00  0.00    -0.136 C  
HETATM   25  N   UNL     1      -8.849   7.685  70.869  1.00  0.00    -0.145 NA 
HETATM   26  C   UNL     1     -11.600   6.804  71.801  1.00  0.00    -0.297 C  
HETATM   27  C   UNL     1      -8.203   6.514  70.282  1.00  0.00    -0.126 C  
HETATM   28  N   UNL     1     -10.054   8.046  70.236  1.00  0.00    -0.191 N  
HETATM   29  C   UNL     1      -9.172   5.327  70.364  1.00  0.00    -0.190 C  
HETATM   30  C   UNL     1     -11.102   6.982  70.360  1.00  0.00    -0.287 C  
HETATM   31  C   UNL     1     -10.550   5.667  69.782  1.00  0.00    -0.400 C  
ENDBRANCH  15  17
ENDBRANCH   6  15
ENDBRANCH   4   6
ENDBRANCH   3   4
ENDBRANCH   2   3
TORSDOF 8
ENDMDL
MODEL      112
REMARK 921   NORMALIZED FREE ENERGY PREDICTED BY IDOCK:   -5.08 KCAL/MOL
REMARK 922        TOTAL FREE ENERGY PREDICTED BY IDOCK:   -8.67 KCAL/MOL
REMARK 923 INTER-LIGAND FREE ENERGY PREDICTED BY IDOCK:   -7.16 KCAL/MOL
REMARK 924 INTRA-LIGAND FREE ENERGY PREDICTED BY IDOCK:   -1.51 KCAL/MOL
REMARK 927      BINDING AFFINITY PREDICTED BY RF-SCORE:    0.00 PKD
ROOT
HETATM    1  C   UNL     1      -5.473  15.626  70.539  1.00  0.00    -0.144 C  
HETATM    2  C   UNL     1      -6.532  15.874  69.482  1.00  0.00    -0.186 C  
ENDROOT
BRANCH   2   3
HETATM    3  O   UNL     1      -7.375  14.721  69.353  1.00  0.00    -0.161 OA 
BRANCH   3   4
HETATM    4  C   UNL     1      -7.624  14.313  68.076  1.00  0.00    -0.142 C  
HETATM    5  O   UNL     1      -6.858  14.447  67.126  1.00  0.00    -0.190 OA 
BRANCH   4   6
HETATM    6  C   UNL     1      -9.000  13.629  67.996  1.00  0.00    -0.188 C  
BRANCH   6   7
HETATM    7  C   UNL     1     -10.060  14.526  68.642  1.00  0.00    -0.244 C  
BRANCH   7   8
HETATM    8  C   UNL     1     -11.492  14.094  68.298  1.00  0.00    -0.335 C  
BRANCH   8   9
HETATM    9  C   UNL     1     -11.648  13.984  66.802  1.00  0.00    -0.406 A  
HETATM   10  C   UNL     1     -12.116  13.880  64.044  1.00  0.00    -0.437 A  
HETATM   11  C   UNL     1     -11.481  14.988  64.601  1.00  0.00    -0.382 A  
HETATM   12  C   UNL     1     -11.247  15.041  65.975  1.00  0.00    -0.310 A  
HETATM   13  C   UNL     1     -12.507  12.818  64.857  1.00  0.00    -0.563 A  
HETATM   14  C   UNL     1     -12.272  12.867  66.232  1.00  0.00    -0.340 A  
ENDBRANCH   8   9
ENDBRANCH   7   8
ENDBRANCH   6   7
BRANCH   6  15
HETATM   15  N   UNL     1      -8.875  12.305  68.635  1.00  0.00    -0.373 NA 
HETATM   16  H   UNL     1      -8.417  12.205  69.542  1.00  0.00     0.000 HD 
BRANCH  15  17
HETATM   17  C   UNL     1      -9.432  11.116  67.928  1.00  0.00    -0.175 C  
HETATM   18  O   UNL     1      -8.708  10.042  69.962  1.00  0.00    -0.191 OA 
HETATM   19  C   UNL     1      -9.009  11.208  66.467  1.00  0.00    -0.185 C  
HETATM   20  O   UNL     1      -7.409   5.398  69.361  1.00  0.00    -0.063 OA 
HETATM   21  O   UNL     1      -7.020   6.756  67.603  1.00  0.00    -0.077 OA 
HETATM   22  C   UNL     1      -9.667  10.186  65.561  1.00  0.00    -0.344 C  
HETATM   23  C   UNL     1      -8.943   9.876  68.754  1.00  0.00    -0.140 C  
HETATM   24  C   UNL     1      -9.041   8.825  65.748  1.00  0.00    -0.212 C  
HETATM   25  N   UNL     1      -9.411   8.175  66.986  1.00  0.00    -0.165 NA 
HETATM   26  C   UNL     1      -7.665   6.425  68.748  1.00  0.00    -0.101 C  
HETATM   27  C   UNL     1     -10.776   7.666  67.100  1.00  0.00    -0.290 C  
HETATM   28  N   UNL     1      -8.855   8.588  68.212  1.00  0.00    -0.142 N  
HETATM   29  C   UNL     1     -10.775   6.471  68.063  1.00  0.00    -0.351 C  
HETATM   30  C   UNL     1      -8.716   7.455  69.184  1.00  0.00    -0.136 C  
HETATM   31  C   UNL     1     -10.096   6.806  69.396  1.00  0.00    -0.183 C  
ENDBRANCH  15  17
ENDBRANCH   6  15
ENDBRANCH   4   6
ENDBRANCH   3   4
ENDBRANCH   2   3
TORSDOF 8
ENDMDL
MODEL      113
REMARK 921   NORMALIZED FREE ENERGY PREDICTED BY IDOCK:   -5.03 KCAL/MOL
REMARK 922        TOTAL FREE ENERGY PREDICTED BY IDOCK:   -8.60 KCAL/MOL
REMARK 923 INTER-LIGAND FREE ENERGY PREDICTED BY IDOCK:   -7.41 KCAL/MOL
REMARK 924 INTRA-LIGAND FREE ENERGY PREDICTED BY IDOCK:   -1.19 KCAL/MOL
REMARK 927      BINDING AFFINITY PREDICTED BY RF-SCORE:    0.00 PKD
ROOT
HETATM    1  C   UNL     1      -5.688  12.753  68.998  1.00  0.00    -0.072 C  
HETATM    2  C   UNL     1      -6.875  13.600  68.582  1.00  0.00    -0.097 C  
ENDROOT
BRANCH   2   3
HETATM    3  O   UNL     1      -7.871  12.778  67.960  1.00  0.00    -0.126 OA 
BRANCH   3   4
HETATM    4  C   UNL     1      -9.163  13.168  68.155  1.00  0.00    -0.215 C  
HETATM    5  O   UNL     1      -9.547  14.331  68.239  1.00  0.00    -0.208 OA 
BRANCH   4   6
HETATM    6  C   UNL     1     -10.085  11.938  68.225  1.00  0.00    -0.203 C  
BRANCH   6   7
HETATM    7  C   UNL     1     -11.520  12.387  68.521  1.00  0.00    -0.350 C  
BRANCH   7   8
HETATM    8  C   UNL     1     -12.020  11.908  69.890  1.00  0.00    -0.398 C  
BRANCH   8   9
HETATM    9  C   UNL     1     -12.606  13.069  70.655  1.00  0.00    -0.270 A  
HETATM   10  C   UNL     1     -13.513  15.240  72.172  1.00  0.00    -0.546 A  
HETATM   11  C   UNL     1     -12.844  15.461  70.970  1.00  0.00    -0.525 A  
HETATM   12  C   UNL     1     -12.391  14.380  70.213  1.00  0.00    -0.410 A  
HETATM   13  C   UNL     1     -13.742  13.938  72.614  1.00  0.00    -0.582 A  
HETATM   14  C   UNL     1     -13.293  12.855  71.857  1.00  0.00    -0.530 A  
ENDBRANCH   8   9
ENDBRANCH   7   8
ENDBRANCH   6   7
BRANCH   6  15
HETATM   15  N   UNL     1      -9.529  11.024  69.240  1.00  0.00    -0.416 NA 
HETATM   16  H   UNL     1      -9.199  11.380  70.138  1.00  0.00     0.000 HD 
BRANCH  15  17
HETATM   17  C   UNL     1      -9.460   9.568  68.927  1.00  0.00    -0.155 C  
HETATM   18  O   UNL     1      -9.960   9.425  71.281  1.00  0.00    -0.287 OA 
HETATM   19  C   UNL     1      -8.276   9.353  67.991  1.00  0.00    -0.114 C  
HETATM   20  O   UNL     1      -8.139   5.462  73.427  1.00  0.00    -0.110 OA 
HETATM   21  O   UNL     1      -6.924   6.292  71.716  1.00  0.00    -0.073 OA 
HETATM   22  C   UNL     1      -8.189   7.956  67.407  1.00  0.00    -0.123 C  
HETATM   23  C   UNL     1      -9.432   8.845  70.318  1.00  0.00    -0.187 C  
HETATM   24  C   UNL     1      -7.667   6.980  68.432  1.00  0.00    -0.120 C  
HETATM   25  N   UNL     1      -8.628   6.641  69.460  1.00  0.00    -0.131 NA 
HETATM   26  C   UNL     1      -8.082   6.128  72.402  1.00  0.00    -0.105 C  
HETATM   27  C   UNL     1      -9.750   5.788  69.080  1.00  0.00    -0.147 C  
HETATM   28  N   UNL     1      -8.929   7.550  70.493  1.00  0.00    -0.151 N  
HETATM   29  C   UNL     1     -10.201   4.993  70.313  1.00  0.00    -0.328 C  
HETATM   30  C   UNL     1      -9.279   6.857  71.775  1.00  0.00    -0.142 C  
HETATM   31  C   UNL     1     -10.458   5.902  71.521  1.00  0.00    -0.287 C  
ENDBRANCH  15  17
ENDBRANCH   6  15
ENDBRANCH   4   6
ENDBRANCH   3   4
ENDBRANCH   2   3
TORSDOF 8
ENDMDL
MODEL      114
REMARK 921   NORMALIZED FREE ENERGY PREDICTED BY IDOCK:   -5.03 KCAL/MOL
REMARK 922        TOTAL FREE ENERGY PREDICTED BY IDOCK:   -8.59 KCAL/MOL
REMARK 923 INTER-LIGAND FREE ENERGY PREDICTED BY IDOCK:   -7.37 KCAL/MOL
REMARK 924 INTRA-LIGAND FREE ENERGY PREDICTED BY IDOCK:   -1.22 KCAL/MOL
REMARK 927      BINDING AFFINITY PREDICTED BY RF-SCORE:    0.00 PKD
ROOT
HETATM    1  C   UNL     1     -11.805  14.805  65.072  1.00  0.00    -0.343 C  
HETATM    2  C   UNL     1     -12.543  13.611  65.646  1.00  0.00    -0.484 C  
ENDROOT
BRANCH   2   3
HETATM    3  O   UNL     1     -11.612  12.575  65.985  1.00  0.00    -0.362 OA 
BRANCH   3   4
HETATM    4  C   UNL     1     -11.477  12.317  67.317  1.00  0.00    -0.357 C  
HETATM    5  O   UNL     1     -12.398  12.058  68.086  1.00  0.00    -0.304 OA 
BRANCH   4   6
HETATM    6  C   UNL     1      -9.993  12.366  67.720  1.00  0.00    -0.205 C  
BRANCH   6   7
HETATM    7  C   UNL     1      -9.517  10.962  68.107  1.00  0.00    -0.167 C  
BRANCH   7   8
HETATM    8  C   UNL     1      -8.175  10.974  68.851  1.00  0.00    -0.127 C  
BRANCH   8   9
HETATM    9  C   UNL     1      -7.987   9.673  69.589  1.00  0.00    -0.137 A  
HETATM   10  C   UNL     1      -7.483   7.216  70.833  1.00  0.00    -0.080 A  
HETATM   11  C   UNL     1      -6.797   8.357  71.242  1.00  0.00    -0.065 A  
HETATM   12  C   UNL     1      -7.047   9.582  70.623  1.00  0.00    -0.128 A  
HETATM   13  C   UNL     1      -8.430   7.298  69.814  1.00  0.00    -0.136 A  
HETATM   14  C   UNL     1      -8.684   8.523  69.194  1.00  0.00    -0.134 A  
ENDBRANCH   8   9
ENDBRANCH   7   8
ENDBRANCH   6   7
BRANCH   6  15
HETATM   15  N   UNL     1      -9.861  13.356  68.806  1.00  0.00    -0.418 NA 
HETATM   16  H   UNL     1     -10.367  13.238  69.684  1.00  0.00     0.000 HD 
BRANCH  15  17
HETATM   17  C   UNL     1      -8.971  14.533  68.593  1.00  0.00    -0.181 C  
HETATM   18  O   UNL     1     -11.083  15.683  68.770  1.00  0.00    -0.269 OA 
HETATM   19  C   UNL     1      -7.957  14.157  67.520  1.00  0.00    -0.202 C  
HETATM   20  O   UNL     1     -11.281  19.806  66.204  1.00  0.00    -0.133 OA 
HETATM   21  O   UNL     1      -9.992  18.173  65.331  1.00  0.00    -0.232 OA 
HETATM   22  C   UNL     1      -6.843  15.169  67.330  1.00  0.00    -0.166 C  
HETATM   23  C   UNL     1      -9.934  15.734  68.298  1.00  0.00    -0.221 C  
HETATM   24  C   UNL     1      -7.339  16.371  66.564  1.00  0.00    -0.141 C  
HETATM   25  N   UNL     1      -8.195  17.246  67.336  1.00  0.00    -0.189 NA 
HETATM   26  C   UNL     1     -10.621  18.788  66.363  1.00  0.00    -0.368 C  
HETATM   27  C   UNL     1      -7.568  18.052  68.380  1.00  0.00    -0.284 C  
HETATM   28  N   UNL     1      -9.527  16.888  67.617  1.00  0.00    -0.239 N  
HETATM   29  C   UNL     1      -8.389  19.335  68.568  1.00  0.00    -0.401 C  
HETATM   30  C   UNL     1     -10.429  18.081  67.712  1.00  0.00    -0.408 C  
HETATM   31  C   UNL     1      -9.878  19.040  68.783  1.00  0.00    -0.485 C  
ENDBRANCH  15  17
ENDBRANCH   6  15
ENDBRANCH   4   6
ENDBRANCH   3   4
ENDBRANCH   2   3
TORSDOF 8
ENDMDL
MODEL      115
REMARK 921   NORMALIZED FREE ENERGY PREDICTED BY IDOCK:   -5.01 KCAL/MOL
REMARK 922        TOTAL FREE ENERGY PREDICTED BY IDOCK:   -8.57 KCAL/MOL
REMARK 923 INTER-LIGAND FREE ENERGY PREDICTED BY IDOCK:   -7.08 KCAL/MOL
REMARK 924 INTRA-LIGAND FREE ENERGY PREDICTED BY IDOCK:   -1.48 KCAL/MOL
REMARK 927      BINDING AFFINITY PREDICTED BY RF-SCORE:    0.00 PKD
ROOT
HETATM    1  C   UNL     1      -6.802  18.514  65.891  1.00  0.00    -0.318 C  
HETATM    2  C   UNL     1      -6.477  17.550  67.016  1.00  0.00    -0.167 C  
ENDROOT
BRANCH   2   3
HETATM    3  O   UNL     1      -6.842  16.216  66.639  1.00  0.00    -0.236 OA 
BRANCH   3   4
HETATM    4  C   UNL     1      -7.389  15.452  67.628  1.00  0.00    -0.180 C  
HETATM    5  O   UNL     1      -7.186  15.597  68.830  1.00  0.00    -0.126 OA 
BRANCH   4   6
HETATM    6  C   UNL     1      -8.330  14.395  67.024  1.00  0.00    -0.145 C  
BRANCH   6   7
HETATM    7  C   UNL     1      -9.481  15.089  66.288  1.00  0.00    -0.342 C  
BRANCH   7   8
HETATM    8  C   UNL     1     -10.490  15.737  67.244  1.00  0.00    -0.308 C  
BRANCH   8   9
HETATM    9  C   UNL     1     -10.383  17.239  67.160  1.00  0.00    -0.321 A  
HETATM   10  C   UNL     1     -10.385  20.036  67.040  1.00  0.00    -0.555 A  
HETATM   11  C   UNL     1     -10.233  19.392  68.266  1.00  0.00    -0.535 A  
HETATM   12  C   UNL     1     -10.232  17.999  68.327  1.00  0.00    -0.402 A  
HETATM   13  C   UNL     1     -10.524  19.289  65.871  1.00  0.00    -0.534 A  
HETATM   14  C   UNL     1     -10.521  17.895  65.929  1.00  0.00    -0.253 A  
ENDBRANCH   8   9
ENDBRANCH   7   8
ENDBRANCH   6   7
BRANCH   6  15
HETATM   15  N   UNL     1      -8.774  13.517  68.124  1.00  0.00    -0.170 NA 
HETATM   16  H   UNL     1      -9.415  13.861  68.839  1.00  0.00     0.000 HD 
BRANCH  15  17
HETATM   17  C   UNL     1      -8.266  12.116  68.167  1.00  0.00    -0.164 C  
HETATM   18  O   UNL     1     -10.631  11.666  68.308  1.00  0.00    -0.190 OA 
HETATM   19  C   UNL     1      -7.040  12.097  69.071  1.00  0.00    -0.062 C  
HETATM   20  O   UNL     1     -11.704   7.625  70.788  1.00  0.00    -0.287 OA 
HETATM   21  O   UNL     1      -9.863   8.734  71.476  1.00  0.00    -0.244 OA 
HETATM   22  C   UNL     1      -6.275  10.787  69.058  1.00  0.00    -0.042 C  
HETATM   23  C   UNL     1      -9.498  11.241  68.588  1.00  0.00    -0.175 C  
HETATM   24  C   UNL     1      -6.997   9.740  69.869  1.00  0.00    -0.093 C  
HETATM   25  N   UNL     1      -8.183   9.216  69.227  1.00  0.00    -0.114 NA 
HETATM   26  C   UNL     1     -10.794   8.408  70.546  1.00  0.00    -0.232 C  
HETATM   27  C   UNL     1      -7.994   8.332  68.079  1.00  0.00    -0.123 C  
HETATM   28  N   UNL     1      -9.368   9.974  69.171  1.00  0.00    -0.182 N  
HETATM   29  C   UNL     1      -9.187   7.370  68.000  1.00  0.00    -0.132 C  
HETATM   30  C   UNL     1     -10.595   9.115  69.199  1.00  0.00    -0.208 C  
HETATM   31  C   UNL     1     -10.529   8.111  68.034  1.00  0.00    -0.242 C  
ENDBRANCH  15  17
ENDBRANCH   6  15
ENDBRANCH   4   6
ENDBRANCH   3   4
ENDBRANCH   2   3
TORSDOF 8
ENDMDL
MODEL      116
REMARK 921   NORMALIZED FREE ENERGY PREDICTED BY IDOCK:   -5.00 KCAL/MOL
REMARK 922        TOTAL FREE ENERGY PREDICTED BY IDOCK:   -8.55 KCAL/MOL
REMARK 923 INTER-LIGAND FREE ENERGY PREDICTED BY IDOCK:   -7.83 KCAL/MOL
REMARK 924 INTRA-LIGAND FREE ENERGY PREDICTED BY IDOCK:   -0.72 KCAL/MOL
REMARK 927      BINDING AFFINITY PREDICTED BY RF-SCORE:    0.00 PKD
ROOT
HETATM    1  C   UNL     1     -13.238  14.658  70.501  1.00  0.00    -0.167 C  
HETATM    2  C   UNL     1     -12.204  13.602  70.158  1.00  0.00    -0.342 C  
ENDROOT
BRANCH   2   3
HETATM    3  O   UNL     1     -12.410  13.132  68.819  1.00  0.00    -0.146 OA 
BRANCH   3   4
HETATM    4  C   UNL     1     -11.698  13.779  67.852  1.00  0.00    -0.360 C  
HETATM    5  O   UNL     1     -12.137  14.661  67.119  1.00  0.00    -0.362 OA 
BRANCH   4   6
HETATM    6  C   UNL     1     -10.247  13.267  67.826  1.00  0.00    -0.228 C  
BRANCH   6   7
HETATM    7  C   UNL     1     -10.243  11.735  67.784  1.00  0.00    -0.205 C  
BRANCH   7   8
HETATM    8  C   UNL     1      -9.012  11.127  68.469  1.00  0.00    -0.168 C  
BRANCH   8   9
HETATM    9  C   UNL     1      -9.443  10.306  69.659  1.00  0.00    -0.180 A  
HETATM   10  C   UNL     1     -10.253   8.619  71.742  1.00  0.00    -0.378 A  
HETATM   11  C   UNL     1      -8.901   8.730  71.421  1.00  0.00    -0.292 A  
HETATM   12  C   UNL     1      -8.497   9.570  70.383  1.00  0.00    -0.238 A  
HETATM   13  C   UNL     1     -11.201   9.357  71.035  1.00  0.00    -0.412 A  
HETATM   14  C   UNL     1     -10.798  10.200  69.998  1.00  0.00    -0.361 A  
ENDBRANCH   8   9
ENDBRANCH   7   8
ENDBRANCH   6   7
BRANCH   6  15
HETATM   15  N   UNL     1      -9.558  13.828  69.003  1.00  0.00    -0.404 NA 
HETATM   16  H   UNL     1      -9.810  13.531  69.947  1.00  0.00     0.000 HD 
BRANCH  15  17
HETATM   17  C   UNL     1      -8.484  14.840  68.785  1.00  0.00    -0.170 C  
HETATM   18  O   UNL     1     -10.328  16.332  69.217  1.00  0.00    -0.241 OA 
HETATM   19  C   UNL     1      -7.641  14.371  67.605  1.00  0.00    -0.195 C  
HETATM   20  O   UNL     1      -9.955  20.607  66.935  1.00  0.00    -0.418 OA 
HETATM   21  O   UNL     1      -9.060  18.841  65.853  1.00  0.00    -0.456 OA 
HETATM   22  C   UNL     1      -6.378  15.179  67.381  1.00  0.00    -0.005 C  
HETATM   23  C   UNL     1      -9.229  16.213  68.650  1.00  0.00    -0.220 C  
HETATM   24  C   UNL     1      -6.700  16.505  66.736  1.00  0.00    -0.167 C  
HETATM   25  N   UNL     1      -7.318  17.457  67.632  1.00  0.00    -0.173 NA 
HETATM   26  C   UNL     1      -9.485  19.478  66.972  1.00  0.00    -0.337 C  
HETATM   27  C   UNL     1      -6.477  18.057  68.664  1.00  0.00    -0.223 C  
HETATM   28  N   UNL     1      -8.668  17.323  68.007  1.00  0.00    -0.225 N  
HETATM   29  C   UNL     1      -7.030  19.448  69.001  1.00  0.00    -0.390 C  
HETATM   30  C   UNL     1      -9.325  18.648  68.253  1.00  0.00    -0.328 C  
HETATM   31  C   UNL     1      -8.528  19.409  69.328  1.00  0.00    -0.037 C  
ENDBRANCH  15  17
ENDBRANCH   6  15
ENDBRANCH   4   6
ENDBRANCH   3   4
ENDBRANCH   2   3
TORSDOF 8
ENDMDL
MODEL      117
REMARK 921   NORMALIZED FREE ENERGY PREDICTED BY IDOCK:   -5.00 KCAL/MOL
REMARK 922        TOTAL FREE ENERGY PREDICTED BY IDOCK:   -8.54 KCAL/MOL
REMARK 923 INTER-LIGAND FREE ENERGY PREDICTED BY IDOCK:   -7.84 KCAL/MOL
REMARK 924 INTRA-LIGAND FREE ENERGY PREDICTED BY IDOCK:   -0.70 KCAL/MOL
REMARK 927      BINDING AFFINITY PREDICTED BY RF-SCORE:    0.00 PKD
ROOT
HETATM    1  C   UNL     1     -11.471  12.556  63.881  1.00  0.00    -0.507 C  
HETATM    2  C   UNL     1     -10.826  11.670  64.928  1.00  0.00    -0.301 C  
ENDROOT
BRANCH   2   3
HETATM    3  O   UNL     1     -10.418  12.458  66.054  1.00  0.00    -0.245 OA 
BRANCH   3   4
HETATM    4  C   UNL     1     -11.057  12.184  67.228  1.00  0.00    -0.287 C  
HETATM    5  O   UNL     1     -12.270  12.045  67.359  1.00  0.00    -0.491 OA 
BRANCH   4   6
HETATM    6  C   UNL     1     -10.035  12.042  68.369  1.00  0.00    -0.208 C  
BRANCH   6   7
HETATM    7  C   UNL     1     -10.408  10.843  69.248  1.00  0.00    -0.211 C  
BRANCH   7   8
HETATM    8  C   UNL     1     -11.355  11.220  70.395  1.00  0.00    -0.068 C  
BRANCH   8   9
HETATM    9  C   UNL     1     -11.984   9.976  70.969  1.00  0.00    -0.469 A  
HETATM   10  C   UNL     1     -13.210   7.616  71.844  1.00  0.00    -0.293 A  
HETATM   11  C   UNL     1     -11.887   7.593  71.408  1.00  0.00    -0.320 A  
HETATM   12  C   UNL     1     -11.275   8.768  70.972  1.00  0.00    -0.329 A  
HETATM   13  C   UNL     1     -13.920   8.815  71.856  1.00  0.00    -0.493 A  
HETATM   14  C   UNL     1     -13.309   9.993  71.422  1.00  0.00    -0.432 A  
ENDBRANCH   8   9
ENDBRANCH   7   8
ENDBRANCH   6   7
BRANCH   6  15
HETATM   15  N   UNL     1     -10.004  13.324  69.099  1.00  0.00    -0.375 NA 
HETATM   16  H   UNL     1      -9.995  13.343  70.119  1.00  0.00     0.000 HD 
BRANCH  15  17
HETATM   17  C   UNL     1      -9.985  14.591  68.313  1.00  0.00    -0.229 C  
HETATM   18  O   UNL     1      -7.617  14.352  68.703  1.00  0.00    -0.120 OA 
HETATM   19  C   UNL     1     -11.145  15.452  68.798  1.00  0.00    -0.284 C  
HETATM   20  O   UNL     1      -5.241  18.585  68.940  1.00  0.00    -0.184 OA 
HETATM   21  O   UNL     1      -7.369  18.617  69.688  1.00  0.00     0.046 OA 
HETATM   22  C   UNL     1     -11.398  16.689  67.958  1.00  0.00    -0.052 C  
HETATM   23  C   UNL     1      -8.533  15.161  68.480  1.00  0.00    -0.160 C  
HETATM   24  C   UNL     1     -10.370  17.754  68.254  1.00  0.00    -0.385 C  
HETATM   25  N   UNL     1      -9.062  17.475  67.702  1.00  0.00    -0.241 NA 
HETATM   26  C   UNL     1      -6.363  18.096  68.944  1.00  0.00    -0.224 C  
HETATM   27  C   UNL     1      -8.901  17.588  66.255  1.00  0.00    -0.184 C  
HETATM   28  N   UNL     1      -8.220  16.513  68.293  1.00  0.00    -0.178 N  
HETATM   29  C   UNL     1      -7.444  17.962  65.952  1.00  0.00    -0.212 C  
HETATM   30  C   UNL     1      -6.769  16.854  68.138  1.00  0.00    -0.146 C  
HETATM   31  C   UNL     1      -6.452  17.018  66.641  1.00  0.00    -0.262 C  
ENDBRANCH  15  17
ENDBRANCH   6  15
ENDBRANCH   4   6
ENDBRANCH   3   4
ENDBRANCH   2   3
TORSDOF 8
ENDMDL
MODEL      118
REMARK 921   NORMALIZED FREE ENERGY PREDICTED BY IDOCK:   -4.99 KCAL/MOL
REMARK 922        TOTAL FREE ENERGY PREDICTED BY IDOCK:   -8.54 KCAL/MOL
REMARK 923 INTER-LIGAND FREE ENERGY PREDICTED BY IDOCK:   -7.61 KCAL/MOL
REMARK 924 INTRA-LIGAND FREE ENERGY PREDICTED BY IDOCK:   -0.93 KCAL/MOL
REMARK 927      BINDING AFFINITY PREDICTED BY RF-SCORE:    0.00 PKD
ROOT
HETATM    1  C   UNL     1      -8.252   9.914  64.884  1.00  0.00    -0.146 C  
HETATM    2  C   UNL     1      -9.210  10.878  65.556  1.00  0.00    -0.209 C  
ENDROOT
BRANCH   2   3
HETATM    3  O   UNL     1      -9.743  10.287  66.749  1.00  0.00    -0.173 OA 
BRANCH   3   4
HETATM    4  C   UNL     1      -9.612  11.031  67.885  1.00  0.00    -0.172 C  
HETATM    5  O   UNL     1      -8.851  11.984  68.024  1.00  0.00    -0.165 OA 
BRANCH   4   6
HETATM    6  C   UNL     1     -10.582  10.525  68.967  1.00  0.00    -0.222 C  
BRANCH   6   7
HETATM    7  C   UNL     1     -11.673  11.572  69.210  1.00  0.00    -0.397 C  
BRANCH   7   8
HETATM    8  C   UNL     1     -12.181  11.574  70.658  1.00  0.00    -0.473 C  
BRANCH   8   9
HETATM    9  C   UNL     1     -12.678  12.950  71.025  1.00  0.00    -0.338 A  
HETATM   10  C   UNL     1     -13.765  15.468  71.589  1.00  0.00    -0.562 A  
HETATM   11  C   UNL     1     -14.116  14.368  72.369  1.00  0.00    -0.544 A  
HETATM   12  C   UNL     1     -13.574  13.113  72.088  1.00  0.00    -0.637 A  
HETATM   13  C   UNL     1     -12.864  15.319  70.536  1.00  0.00    -0.421 A  
HETATM   14  C   UNL     1     -12.320  14.065  70.255  1.00  0.00    -0.425 A  
ENDBRANCH   8   9
ENDBRANCH   7   8
ENDBRANCH   6   7
BRANCH   6  15
HETATM   15  N   UNL     1      -9.783  10.212  70.167  1.00  0.00    -0.407 NA 
HETATM   16  H   UNL     1      -9.703  10.885  70.930  1.00  0.00     0.000 HD 
BRANCH  15  17
HETATM   17  C   UNL     1      -9.096   8.891  70.242  1.00  0.00    -0.181 C  
HETATM   18  O   UNL     1     -11.191   8.288  71.273  1.00  0.00    -0.246 OA 
HETATM   19  C   UNL     1      -7.650   9.145  70.648  1.00  0.00    -0.143 C  
HETATM   20  O   UNL     1     -10.795   4.725  74.556  1.00  0.00    -0.347 OA 
HETATM   21  O   UNL     1      -9.007   6.090  74.375  1.00  0.00    -0.125 OA 
HETATM   22  C   UNL     1      -6.755   7.924  70.567  1.00  0.00    -0.038 C  
HETATM   23  C   UNL     1      -9.981   8.017  71.197  1.00  0.00    -0.174 C  
HETATM   24  C   UNL     1      -7.010   6.996  71.729  1.00  0.00    -0.068 C  
HETATM   25  N   UNL     1      -8.255   6.265  71.633  1.00  0.00    -0.117 NA 
HETATM   26  C   UNL     1     -10.138   5.518  73.893  1.00  0.00    -0.219 C  
HETATM   27  C   UNL     1      -8.335   5.196  70.642  1.00  0.00    -0.111 C  
HETATM   28  N   UNL     1      -9.486   6.901  71.883  1.00  0.00    -0.142 N  
HETATM   29  C   UNL     1      -9.336   4.143  71.135  1.00  0.00    -0.219 C  
HETATM   30  C   UNL     1     -10.500   5.966  72.471  1.00  0.00    -0.204 C  
HETATM   31  C   UNL     1     -10.682   4.767  71.524  1.00  0.00     0.018 C  
ENDBRANCH  15  17
ENDBRANCH   6  15
ENDBRANCH   4   6
ENDBRANCH   3   4
ENDBRANCH   2   3
TORSDOF 8
ENDMDL
MODEL      119
REMARK 921   NORMALIZED FREE ENERGY PREDICTED BY IDOCK:   -4.99 KCAL/MOL
REMARK 922        TOTAL FREE ENERGY PREDICTED BY IDOCK:   -8.54 KCAL/MOL
REMARK 923 INTER-LIGAND FREE ENERGY PREDICTED BY IDOCK:   -7.23 KCAL/MOL
REMARK 924 INTRA-LIGAND FREE ENERGY PREDICTED BY IDOCK:   -1.31 KCAL/MOL
REMARK 927      BINDING AFFINITY PREDICTED BY RF-SCORE:    0.00 PKD
ROOT
HETATM    1  C   UNL     1     -12.252  14.109  64.468  1.00  0.00    -0.468 C  
HETATM    2  C   UNL     1     -12.393  14.485  65.930  1.00  0.00    -0.224 C  
ENDROOT
BRANCH   2   3
HETATM    3  O   UNL     1     -12.187  13.331  66.756  1.00  0.00    -0.363 OA 
BRANCH   3   4
HETATM    4  C   UNL     1     -11.628  13.572  67.976  1.00  0.00    -0.337 C  
HETATM    5  O   UNL     1     -12.054  14.370  68.807  1.00  0.00    -0.308 OA 
BRANCH   4   6
HETATM    6  C   UNL     1     -10.395  12.674  68.183  1.00  0.00    -0.234 C  
BRANCH   6   7
HETATM    7  C   UNL     1      -9.407  12.884  67.031  1.00  0.00    -0.235 C  
BRANCH   7   8
HETATM    8  C   UNL     1      -8.310  11.811  66.988  1.00  0.00    -0.172 C  
BRANCH   8   9
HETATM    9  C   UNL     1      -8.411  11.029  65.702  1.00  0.00    -0.099 A  
HETATM   10  C   UNL     1      -8.504   9.733  63.222  1.00  0.00    -0.181 A  
HETATM   11  C   UNL     1      -7.381   9.600  64.035  1.00  0.00    -0.121 A  
HETATM   12  C   UNL     1      -7.333  10.245  65.271  1.00  0.00    -0.139 A  
HETATM   13  C   UNL     1      -9.587  10.500  63.648  1.00  0.00    -0.370 A  
HETATM   14  C   UNL     1      -9.543  11.145  64.885  1.00  0.00    -0.279 A  
ENDBRANCH   8   9
ENDBRANCH   7   8
ENDBRANCH   6   7
BRANCH   6  15
HETATM   15  N   UNL     1     -10.874  11.284  68.307  1.00  0.00    -0.190 NA 
HETATM   16  H   UNL     1     -11.227  10.780  67.493  1.00  0.00     0.000 HD 
BRANCH  15  17
HETATM   17  C   UNL     1     -10.830  10.632  69.646  1.00  0.00    -0.268 C  
HETATM   18  O   UNL     1      -9.490   9.052  68.412  1.00  0.00    -0.145 OA 
HETATM   19  C   UNL     1     -12.226  10.725  70.251  1.00  0.00    -0.431 C  
HETATM   20  O   UNL     1      -9.778   4.506  70.106  1.00  0.00    -0.182 OA 
HETATM   21  O   UNL     1     -11.644   5.753  70.335  1.00  0.00    -0.061 OA 
HETATM   22  C   UNL     1     -12.307  10.295  71.703  1.00  0.00    -0.445 C  
HETATM   23  C   UNL     1     -10.238   9.202  69.393  1.00  0.00    -0.210 C  
HETATM   24  C   UNL     1     -12.263   8.791  71.817  1.00  0.00    -0.349 C  
HETATM   25  N   UNL     1     -10.955   8.223  71.576  1.00  0.00    -0.243 NA 
HETATM   26  C   UNL     1     -10.305   5.608  70.179  1.00  0.00    -0.271 C  
HETATM   27  C   UNL     1      -9.932   8.425  72.599  1.00  0.00    -0.258 C  
HETATM   28  N   UNL     1     -10.440   8.129  70.269  1.00  0.00    -0.214 N  
HETATM   29  C   UNL     1      -8.948   7.249  72.546  1.00  0.00    -0.152 C  
HETATM   30  C   UNL     1      -9.545   6.939  70.095  1.00  0.00    -0.161 C  
HETATM   31  C   UNL     1      -8.409   7.012  71.131  1.00  0.00    -0.118 C  
ENDBRANCH  15  17
ENDBRANCH   6  15
ENDBRANCH   4   6
ENDBRANCH   3   4
ENDBRANCH   2   3
TORSDOF 8
ENDMDL
MODEL      120
REMARK 921   NORMALIZED FREE ENERGY PREDICTED BY IDOCK:   -4.99 KCAL/MOL
REMARK 922        TOTAL FREE ENERGY PREDICTED BY IDOCK:   -8.54 KCAL/MOL
REMARK 923 INTER-LIGAND FREE ENERGY PREDICTED BY IDOCK:   -6.67 KCAL/MOL
REMARK 924 INTRA-LIGAND FREE ENERGY PREDICTED BY IDOCK:   -1.87 KCAL/MOL
REMARK 927      BINDING AFFINITY PREDICTED BY RF-SCORE:    0.00 PKD
ROOT
HETATM    1  C   UNL     1     -10.216  11.056  64.071  1.00  0.00    -0.420 C  
HETATM    2  C   UNL     1     -10.143  10.354  65.413  1.00  0.00    -0.284 C  
ENDROOT
BRANCH   2   3
HETATM    3  O   UNL     1      -8.821   9.844  65.629  1.00  0.00    -0.145 OA 
BRANCH   3   4
HETATM    4  C   UNL     1      -7.930  10.727  66.166  1.00  0.00    -0.157 C  
HETATM    5  O   UNL     1      -6.800  10.943  65.737  1.00  0.00    -0.090 OA 
BRANCH   4   6
HETATM    6  C   UNL     1      -8.554  11.443  67.376  1.00  0.00    -0.142 C  
BRANCH   6   7
HETATM    7  C   UNL     1      -8.270  12.946  67.288  1.00  0.00    -0.176 C  
BRANCH   7   8
HETATM    8  C   UNL     1      -9.476  13.749  66.782  1.00  0.00    -0.281 C  
BRANCH   8   9
HETATM    9  C   UNL     1     -10.250  14.303  67.953  1.00  0.00    -0.237 A  
HETATM   10  C   UNL     1     -11.607  15.178  70.239  1.00  0.00    -0.325 A  
HETATM   11  C   UNL     1     -10.305  15.608  69.996  1.00  0.00    -0.309 A  
HETATM   12  C   UNL     1      -9.627  15.172  68.857  1.00  0.00    -0.223 A  
HETATM   13  C   UNL     1     -12.240  14.323  69.339  1.00  0.00    -0.319 A  
HETATM   14  C   UNL     1     -11.565  13.887  68.197  1.00  0.00    -0.370 A  
ENDBRANCH   8   9
ENDBRANCH   7   8
ENDBRANCH   6   7
BRANCH   6  15
HETATM   15  N   UNL     1      -8.015  10.809  68.594  1.00  0.00    -0.124 NA 
HETATM   16  H   UNL     1      -7.009  10.688  68.717  1.00  0.00     0.000 HD 
BRANCH  15  17
HETATM   17  C   UNL     1      -8.971  10.349  69.642  1.00  0.00    -0.037 C  
HETATM   18  O   UNL     1      -7.565   8.394  69.527  1.00  0.00    -0.086 OA 
HETATM   19  C   UNL     1     -10.368  10.784  69.214  1.00  0.00    -0.228 C  
HETATM   20  O   UNL     1      -9.889   4.255  70.574  1.00  0.00    -0.200 OA 
HETATM   21  O   UNL     1     -11.135   5.849  69.575  1.00  0.00    -0.381 OA 
HETATM   22  C   UNL     1     -11.436  10.578  70.271  1.00  0.00    -0.416 C  
HETATM   23  C   UNL     1      -8.701   8.813  69.803  1.00  0.00    -0.133 C  
HETATM   24  C   UNL     1     -11.822   9.122  70.364  1.00  0.00    -0.020 C  
HETATM   25  N   UNL     1     -10.827   8.292  71.007  1.00  0.00    -0.228 NA 
HETATM   26  C   UNL     1     -10.073   5.436  70.309  1.00  0.00    -0.248 C  
HETATM   27  C   UNL     1     -10.658   8.437  72.451  1.00  0.00    -0.335 C  
HETATM   28  N   UNL     1      -9.647   7.926  70.331  1.00  0.00    -0.171 N  
HETATM   29  C   UNL     1     -10.163   7.102  73.022  1.00  0.00    -0.290 C  
HETATM   30  C   UNL     1      -9.146   6.577  70.752  1.00  0.00    -0.154 C  
HETATM   31  C   UNL     1      -8.931   6.577  72.275  1.00  0.00    -0.138 C  
ENDBRANCH  15  17
ENDBRANCH   6  15
ENDBRANCH   4   6
ENDBRANCH   3   4
ENDBRANCH   2   3
TORSDOF 8
ENDMDL
MODEL      121
REMARK 921   NORMALIZED FREE ENERGY PREDICTED BY IDOCK:   -4.99 KCAL/MOL
REMARK 922        TOTAL FREE ENERGY PREDICTED BY IDOCK:   -8.54 KCAL/MOL
REMARK 923 INTER-LIGAND FREE ENERGY PREDICTED BY IDOCK:   -7.57 KCAL/MOL
REMARK 924 INTRA-LIGAND FREE ENERGY PREDICTED BY IDOCK:   -0.97 KCAL/MOL
REMARK 927      BINDING AFFINITY PREDICTED BY RF-SCORE:    0.00 PKD
ROOT
HETATM    1  C   UNL     1     -13.259  15.119  71.081  1.00  0.00    -0.535 C  
HETATM    2  C   UNL     1     -12.107  14.235  70.643  1.00  0.00    -0.346 C  
ENDROOT
BRANCH   2   3
HETATM    3  O   UNL     1     -12.271  13.862  69.268  1.00  0.00    -0.346 OA 
BRANCH   3   4
HETATM    4  C   UNL     1     -11.555  14.597  68.369  1.00  0.00    -0.323 C  
HETATM    5  O   UNL     1     -12.029  15.207  67.414  1.00  0.00    -0.200 OA 
BRANCH   4   6
HETATM    6  C   UNL     1     -10.061  14.582  68.739  1.00  0.00    -0.239 C  
BRANCH   6   7
HETATM    7  C   UNL     1      -9.689  15.897  69.431  1.00  0.00    -0.268 C  
BRANCH   7   8
HETATM    8  C   UNL     1      -8.472  16.579  68.793  1.00  0.00    -0.248 C  
BRANCH   8   9
HETATM    9  C   UNL     1      -8.872  17.921  68.233  1.00  0.00    -0.277 A  
HETATM   10  C   UNL     1      -9.559  20.495  67.372  1.00  0.00    -0.578 A  
HETATM   11  C   UNL     1      -8.253  20.034  67.216  1.00  0.00    -0.368 A  
HETATM   12  C   UNL     1      -7.910  18.752  67.645  1.00  0.00    -0.257 A  
HETATM   13  C   UNL     1     -10.526  19.671  67.945  1.00  0.00    -0.556 A  
HETATM   14  C   UNL     1     -10.186  18.387  68.372  1.00  0.00    -0.407 A  
ENDBRANCH   8   9
ENDBRANCH   7   8
ENDBRANCH   6   7
BRANCH   6  15
HETATM   15  N   UNL     1      -9.300  14.329  67.500  1.00  0.00    -0.194 NA 
HETATM   16  H   UNL     1      -9.372  14.964  66.705  1.00  0.00     0.000 HD 
BRANCH  15  17
HETATM   17  C   UNL     1      -8.425  13.124  67.436  1.00  0.00    -0.201 C  
HETATM   18  O   UNL     1     -10.339  12.265  66.247  1.00  0.00    -0.225 OA 
HETATM   19  C   UNL     1      -7.755  12.967  68.796  1.00  0.00     0.007 C  
HETATM   20  O   UNL     1     -10.943   7.466  66.728  1.00  0.00    -0.249 OA 
HETATM   21  O   UNL     1     -10.035   8.519  68.505  1.00  0.00    -0.173 OA 
HETATM   22  C   UNL     1      -6.669  11.909  68.838  1.00  0.00    -0.095 C  
HETATM   23  C   UNL     1      -9.354  11.961  66.942  1.00  0.00    -0.196 C  
HETATM   24  C   UNL     1      -7.271  10.526  68.878  1.00  0.00    -0.086 C  
HETATM   25  N   UNL     1      -7.836  10.097  67.617  1.00  0.00    -0.098 NA 
HETATM   26  C   UNL     1     -10.330   8.422  67.186  1.00  0.00    -0.311 C  
HETATM   27  C   UNL     1      -6.908   9.763  66.540  1.00  0.00    -0.084 C  
HETATM   28  N   UNL     1      -9.068  10.609  67.167  1.00  0.00    -0.143 N  
HETATM   29  C   UNL     1      -7.568   8.719  65.630  1.00  0.00    -0.086 C  
HETATM   30  C   UNL     1      -9.835   9.612  66.353  1.00  0.00    -0.244 C  
HETATM   31  C   UNL     1      -8.963   9.156  65.170  1.00  0.00    -0.238 C  
ENDBRANCH  15  17
ENDBRANCH   6  15
ENDBRANCH   4   6
ENDBRANCH   3   4
ENDBRANCH   2   3
TORSDOF 8
ENDMDL
MODEL      122
REMARK 921   NORMALIZED FREE ENERGY PREDICTED BY IDOCK:   -4.98 KCAL/MOL
REMARK 922        TOTAL FREE ENERGY PREDICTED BY IDOCK:   -8.52 KCAL/MOL
REMARK 923 INTER-LIGAND FREE ENERGY PREDICTED BY IDOCK:   -7.65 KCAL/MOL
REMARK 924 INTRA-LIGAND FREE ENERGY PREDICTED BY IDOCK:   -0.87 KCAL/MOL
REMARK 927      BINDING AFFINITY PREDICTED BY RF-SCORE:    0.00 PKD
ROOT
HETATM    1  C   UNL     1     -12.114  14.379  69.541  1.00  0.00    -0.366 C  
HETATM    2  C   UNL     1     -11.805  13.339  68.481  1.00  0.00    -0.349 C  
ENDROOT
BRANCH   2   3
HETATM    3  O   UNL     1     -12.221  13.813  67.193  1.00  0.00    -0.391 OA 
BRANCH   3   4
HETATM    4  C   UNL     1     -11.359  13.561  66.166  1.00  0.00    -0.308 C  
HETATM    5  O   UNL     1     -11.687  13.221  65.033  1.00  0.00    -0.314 OA 
BRANCH   4   6
HETATM    6  C   UNL     1      -9.908  13.793  66.621  1.00  0.00    -0.284 C  
BRANCH   6   7
HETATM    7  C   UNL     1      -9.444  15.182  66.172  1.00  0.00    -0.354 C  
BRANCH   7   8
HETATM    8  C   UNL     1      -8.836  16.003  67.317  1.00  0.00    -0.207 C  
BRANCH   8   9
HETATM    9  C   UNL     1      -9.123  17.469  67.104  1.00  0.00    -0.247 A  
HETATM   10  C   UNL     1      -9.733  20.139  66.525  1.00  0.00    -0.553 A  
HETATM   11  C   UNL     1     -10.694  19.316  67.108  1.00  0.00    -0.584 A  
HETATM   12  C   UNL     1     -10.391  17.985  67.397  1.00  0.00    -0.391 A  
HETATM   13  C   UNL     1      -8.464  19.638  66.242  1.00  0.00    -0.383 A  
HETATM   14  C   UNL     1      -8.158  18.307  66.532  1.00  0.00    -0.293 A  
ENDBRANCH   8   9
ENDBRANCH   7   8
ENDBRANCH   6   7
BRANCH   6  15
HETATM   15  N   UNL     1      -9.091  12.691  66.077  1.00  0.00    -0.434 NA 
HETATM   16  H   UNL     1      -8.327  12.880  65.428  1.00  0.00     0.000 HD 
BRANCH  15  17
HETATM   17  C   UNL     1      -9.406  11.296  66.496  1.00  0.00    -0.185 C  
HETATM   18  O   UNL     1      -8.441  12.101  68.554  1.00  0.00    -0.151 OA 
HETATM   19  C   UNL     1      -9.038  10.372  65.341  1.00  0.00    -0.221 C  
HETATM   20  O   UNL     1      -6.233   8.641  71.158  1.00  0.00    -0.037 OA 
HETATM   21  O   UNL     1      -6.161   8.374  68.919  1.00  0.00    -0.043 OA 
HETATM   22  C   UNL     1      -9.490   8.936  65.522  1.00  0.00    -0.162 C  
HETATM   23  C   UNL     1      -8.659  11.093  67.860  1.00  0.00    -0.135 C  
HETATM   24  C   UNL     1      -8.597   8.214  66.500  1.00  0.00    -0.138 C  
HETATM   25  N   UNL     1      -8.804   8.600  67.878  1.00  0.00    -0.137 NA 
HETATM   26  C   UNL     1      -6.705   8.878  70.054  1.00  0.00    -0.043 C  
HETATM   27  C   UNL     1     -10.033   8.153  68.527  1.00  0.00    -0.190 C  
HETATM   28  N   UNL     1      -8.321   9.831  68.362  1.00  0.00    -0.109 N  
HETATM   29  C   UNL     1      -9.771   8.017  70.033  1.00  0.00    -0.173 C  
HETATM   30  C   UNL     1      -7.936   9.762  69.809  1.00  0.00    -0.164 C  
HETATM   31  C   UNL     1      -9.150   9.286  70.627  1.00  0.00    -0.309 C  
ENDBRANCH  15  17
ENDBRANCH   6  15
ENDBRANCH   4   6
ENDBRANCH   3   4
ENDBRANCH   2   3
TORSDOF 8
ENDMDL
MODEL      123
REMARK 921   NORMALIZED FREE ENERGY PREDICTED BY IDOCK:   -4.97 KCAL/MOL
REMARK 922        TOTAL FREE ENERGY PREDICTED BY IDOCK:   -8.51 KCAL/MOL
REMARK 923 INTER-LIGAND FREE ENERGY PREDICTED BY IDOCK:   -7.56 KCAL/MOL
REMARK 924 INTRA-LIGAND FREE ENERGY PREDICTED BY IDOCK:   -0.95 KCAL/MOL
REMARK 927      BINDING AFFINITY PREDICTED BY RF-SCORE:    0.00 PKD
ROOT
HETATM    1  C   UNL     1      -8.993  12.991  68.176  1.00  0.00    -0.198 C  
HETATM    2  C   UNL     1      -9.506  11.610  67.819  1.00  0.00    -0.178 C  
ENDROOT
BRANCH   2   3
HETATM    3  O   UNL     1      -8.724  10.609  68.483  1.00  0.00    -0.127 OA 
BRANCH   3   4
HETATM    4  C   UNL     1      -9.274  10.087  69.617  1.00  0.00    -0.215 C  
HETATM    5  O   UNL     1      -8.647   9.731  70.611  1.00  0.00    -0.184 OA 
BRANCH   4   6
HETATM    6  C   UNL     1     -10.806  10.032  69.487  1.00  0.00    -0.253 C  
BRANCH   6   7
HETATM    7  C   UNL     1     -11.443  10.097  70.879  1.00  0.00    -0.444 C  
BRANCH   7   8
HETATM    8  C   UNL     1     -12.867  10.668  70.854  1.00  0.00    -0.473 C  
BRANCH   8   9
HETATM    9  C   UNL     1     -12.830  12.148  71.143  1.00  0.00    -0.313 A  
HETATM   10  C   UNL     1     -12.935  14.912  71.573  1.00  0.00    -0.419 A  
HETATM   11  C   UNL     1     -13.600  14.048  72.439  1.00  0.00    -0.658 A  
HETATM   12  C   UNL     1     -13.548  12.670  72.226  1.00  0.00    -0.508 A  
HETATM   13  C   UNL     1     -12.206  14.402  70.500  1.00  0.00    -0.411 A  
HETATM   14  C   UNL     1     -12.151  13.024  70.286  1.00  0.00    -0.388 A  
ENDBRANCH   8   9
ENDBRANCH   7   8
ENDBRANCH   6   7
BRANCH   6  15
HETATM   15  N   UNL     1     -11.145   8.808  68.737  1.00  0.00    -0.421 NA 
HETATM   16  H   UNL     1     -11.972   8.774  68.139  1.00  0.00     0.000 HD 
BRANCH  15  17
HETATM   17  C   UNL     1     -10.254   7.620  68.872  1.00  0.00    -0.210 C  
HETATM   18  O   UNL     1      -9.793   8.180  66.572  1.00  0.00    -0.240 OA 
HETATM   19  C   UNL     1     -11.013   6.562  69.664  1.00  0.00    -0.394 C  
HETATM   20  O   UNL     1      -8.631   4.344  63.825  1.00  0.00    -0.110 OA 
HETATM   21  O   UNL     1     -10.084   3.939  65.502  1.00  0.00    -0.158 OA 
HETATM   22  C   UNL     1     -10.173   5.367  70.073  1.00  0.00    -0.349 C  
HETATM   23  C   UNL     1      -9.815   7.262  67.410  1.00  0.00    -0.159 C  
HETATM   24  C   UNL     1      -9.944   4.449  68.897  1.00  0.00    -0.012 C  
HETATM   25  N   UNL     1      -8.998   4.960  67.929  1.00  0.00    -0.107 NA 
HETATM   26  C   UNL     1      -9.099   4.658  64.911  1.00  0.00    -0.154 C  
HETATM   27  C   UNL     1      -7.588   4.980  68.308  1.00  0.00    -0.079 C  
HETATM   28  N   UNL     1      -9.362   5.990  67.041  1.00  0.00    -0.119 N  
HETATM   29  C   UNL     1      -6.737   4.852  67.038  1.00  0.00    -0.055 C  
HETATM   30  C   UNL     1      -8.654   5.882  65.724  1.00  0.00    -0.154 C  
HETATM   31  C   UNL     1      -7.136   5.879  65.972  1.00  0.00    -0.074 C  
ENDBRANCH  15  17
ENDBRANCH   6  15
ENDBRANCH   4   6
ENDBRANCH   3   4
ENDBRANCH   2   3
TORSDOF 8
ENDMDL
MODEL      124
REMARK 921   NORMALIZED FREE ENERGY PREDICTED BY IDOCK:   -4.97 KCAL/MOL
REMARK 922        TOTAL FREE ENERGY PREDICTED BY IDOCK:   -8.51 KCAL/MOL
REMARK 923 INTER-LIGAND FREE ENERGY PREDICTED BY IDOCK:   -6.98 KCAL/MOL
REMARK 924 INTRA-LIGAND FREE ENERGY PREDICTED BY IDOCK:   -1.53 KCAL/MOL
REMARK 927      BINDING AFFINITY PREDICTED BY RF-SCORE:    0.00 PKD
ROOT
HETATM    1  C   UNL     1     -10.343   4.313  65.304  1.00  0.00    -0.220 C  
HETATM    2  C   UNL     1      -9.250   5.281  65.713  1.00  0.00    -0.151 C  
ENDROOT
BRANCH   2   3
HETATM    3  O   UNL     1      -9.665   6.032  66.862  1.00  0.00    -0.135 OA 
BRANCH   3   4
HETATM    4  C   UNL     1      -9.691   7.386  66.703  1.00  0.00    -0.194 C  
HETATM    5  O   UNL     1      -9.022   8.018  65.890  1.00  0.00    -0.170 OA 
BRANCH   4   6
HETATM    6  C   UNL     1     -10.707   8.016  67.673  1.00  0.00    -0.132 C  
BRANCH   6   7
HETATM    7  C   UNL     1     -10.209   9.395  68.116  1.00  0.00    -0.239 C  
BRANCH   7   8
HETATM    8  C   UNL     1     -10.944  10.545  67.416  1.00  0.00    -0.352 C  
BRANCH   8   9
HETATM    9  C   UNL     1     -11.502  11.497  68.444  1.00  0.00    -0.364 A  
HETATM   10  C   UNL     1     -12.345  13.305  70.408  1.00  0.00    -0.365 A  
HETATM   11  C   UNL     1     -12.027  13.763  69.132  1.00  0.00    -0.403 A  
HETATM   12  C   UNL     1     -11.607  12.863  68.152  1.00  0.00    -0.378 A  
HETATM   13  C   UNL     1     -12.256  11.946  70.705  1.00  0.00    -0.401 A  
HETATM   14  C   UNL     1     -11.839  11.043  69.726  1.00  0.00    -0.421 A  
ENDBRANCH   8   9
ENDBRANCH   7   8
ENDBRANCH   6   7
BRANCH   6  15
HETATM   15  N   UNL     1     -10.901   7.069  68.788  1.00  0.00    -0.382 NA 
HETATM   16  H   UNL     1     -11.260   6.129  68.618  1.00  0.00     0.000 HD 
BRANCH  15  17
HETATM   17  C   UNL     1     -10.562   7.517  70.169  1.00  0.00    -0.235 C  
HETATM   18  O   UNL     1      -8.736   5.983  69.809  1.00  0.00    -0.128 OA 
HETATM   19  C   UNL     1     -11.860   7.587  70.964  1.00  0.00    -0.319 C  
HETATM   20  O   UNL     1      -7.130   3.869  73.880  1.00  0.00    -0.056 OA 
HETATM   21  O   UNL     1      -9.332   4.358  73.837  1.00  0.00    -0.112 OA 
HETATM   22  C   UNL     1     -11.721   8.227  72.331  1.00  0.00    -0.463 C  
HETATM   23  C   UNL     1      -9.454   6.524  70.666  1.00  0.00    -0.166 C  
HETATM   24  C   UNL     1     -11.075   7.272  73.305  1.00  0.00    -0.237 C  
HETATM   25  N   UNL     1      -9.656   7.088  73.091  1.00  0.00    -0.155 NA 
HETATM   26  C   UNL     1      -8.053   4.533  73.425  1.00  0.00    -0.095 C  
HETATM   27  C   UNL     1      -8.771   8.195  73.445  1.00  0.00    -0.251 C  
HETATM   28  N   UNL     1      -9.183   6.303  72.022  1.00  0.00    -0.146 N  
HETATM   29  C   UNL     1      -7.400   7.623  73.828  1.00  0.00    -0.139 C  
HETATM   30  C   UNL     1      -7.892   5.615  72.349  1.00  0.00    -0.103 C  
HETATM   31  C   UNL     1      -6.852   6.673  72.757  1.00  0.00    -0.068 C  
ENDBRANCH  15  17
ENDBRANCH   6  15
ENDBRANCH   4   6
ENDBRANCH   3   4
ENDBRANCH   2   3
TORSDOF 8
ENDMDL
MODEL      125
REMARK 921   NORMALIZED FREE ENERGY PREDICTED BY IDOCK:   -4.97 KCAL/MOL
REMARK 922        TOTAL FREE ENERGY PREDICTED BY IDOCK:   -8.50 KCAL/MOL
REMARK 923 INTER-LIGAND FREE ENERGY PREDICTED BY IDOCK:   -7.76 KCAL/MOL
REMARK 924 INTRA-LIGAND FREE ENERGY PREDICTED BY IDOCK:   -0.74 KCAL/MOL
REMARK 927      BINDING AFFINITY PREDICTED BY RF-SCORE:    0.00 PKD
ROOT
HETATM    1  C   UNL     1      -7.995  16.699  66.270  1.00  0.00    -0.340 C  
HETATM    2  C   UNL     1      -9.245  15.840  66.270  1.00  0.00    -0.333 C  
ENDROOT
BRANCH   2   3
HETATM    3  O   UNL     1      -9.049  14.689  67.103  1.00  0.00    -0.202 OA 
BRANCH   3   4
HETATM    4  C   UNL     1      -9.863  13.627  66.840  1.00  0.00    -0.261 C  
HETATM    5  O   UNL     1     -10.113  13.184  65.722  1.00  0.00    -0.286 OA 
BRANCH   4   6
HETATM    6  C   UNL     1     -10.405  13.035  68.153  1.00  0.00    -0.240 C  
BRANCH   6   7
HETATM    7  C   UNL     1     -11.055  14.143  68.988  1.00  0.00    -0.292 C  
BRANCH   7   8
HETATM    8  C   UNL     1     -12.396  13.717  69.598  1.00  0.00    -0.257 C  
BRANCH   8   9
HETATM    9  C   UNL     1     -12.696  14.559  70.813  1.00  0.00    -0.425 A  
HETATM   10  C   UNL     1     -13.232  15.953  73.181  1.00  0.00    -0.692 A  
HETATM   11  C   UNL     1     -11.916  15.788  72.752  1.00  0.00    -0.598 A  
HETATM   12  C   UNL     1     -11.648  15.094  71.572  1.00  0.00    -0.443 A  
HETATM   13  C   UNL     1     -14.282  15.436  72.425  1.00  0.00    -0.584 A  
HETATM   14  C   UNL     1     -14.017  14.742  71.243  1.00  0.00    -0.444 A  
ENDBRANCH   8   9
ENDBRANCH   7   8
ENDBRANCH   6   7
BRANCH   6  15
HETATM   15  N   UNL     1      -9.282  12.362  68.833  1.00  0.00    -0.373 NA 
HETATM   16  H   UNL     1      -8.665  12.881  69.458  1.00  0.00     0.000 HD 
BRANCH  15  17
HETATM   17  C   UNL     1      -9.069  10.907  68.588  1.00  0.00    -0.175 C  
HETATM   18  O   UNL     1      -7.395  11.792  67.095  1.00  0.00    -0.132 OA 
HETATM   19  C   UNL     1     -10.440  10.246  68.510  1.00  0.00    -0.217 C  
HETATM   20  O   UNL     1      -6.551   8.980  63.222  1.00  0.00    -0.090 OA 
HETATM   21  O   UNL     1      -8.662   8.941  64.015  1.00  0.00    -0.155 OA 
HETATM   22  C   UNL     1     -10.401   8.731  68.473  1.00  0.00    -0.231 C  
HETATM   23  C   UNL     1      -8.149  10.830  67.320  1.00  0.00    -0.117 C  
HETATM   24  C   UNL     1      -9.991   8.240  67.106  1.00  0.00    -0.239 C  
HETATM   25  N   UNL     1      -8.585   8.424  66.815  1.00  0.00    -0.116 NA 
HETATM   26  C   UNL     1      -7.330   9.152  64.149  1.00  0.00    -0.104 C  
HETATM   27  C   UNL     1      -7.634   7.563  67.513  1.00  0.00    -0.113 C  
HETATM   28  N   UNL     1      -8.074   9.697  66.501  1.00  0.00    -0.118 N  
HETATM   29  C   UNL     1      -6.393   7.386  66.628  1.00  0.00    -0.045 C  
HETATM   30  C   UNL     1      -6.918   9.627  65.549  1.00  0.00    -0.093 C  
HETATM   31  C   UNL     1      -5.825   8.730  66.157  1.00  0.00    -0.047 C  
ENDBRANCH  15  17
ENDBRANCH   6  15
ENDBRANCH   4   6
ENDBRANCH   3   4
ENDBRANCH   2   3
TORSDOF 8
ENDMDL
MODEL      126
REMARK 921   NORMALIZED FREE ENERGY PREDICTED BY IDOCK:   -4.96 KCAL/MOL
REMARK 922        TOTAL FREE ENERGY PREDICTED BY IDOCK:   -8.49 KCAL/MOL
REMARK 923 INTER-LIGAND FREE ENERGY PREDICTED BY IDOCK:   -7.86 KCAL/MOL
REMARK 924 INTRA-LIGAND FREE ENERGY PREDICTED BY IDOCK:   -0.63 KCAL/MOL
REMARK 927      BINDING AFFINITY PREDICTED BY RF-SCORE:    0.00 PKD
ROOT
HETATM    1  C   UNL     1      -7.460   8.829  63.856  1.00  0.00    -0.117 C  
HETATM    2  C   UNL     1      -7.766   7.975  65.071  1.00  0.00    -0.112 C  
ENDROOT
BRANCH   2   3
HETATM    3  O   UNL     1      -8.849   8.549  65.815  1.00  0.00    -0.175 OA 
BRANCH   3   4
HETATM    4  C   UNL     1      -8.488   9.340  66.866  1.00  0.00    -0.127 C  
HETATM    5  O   UNL     1      -7.409   9.295  67.450  1.00  0.00    -0.086 OA 
BRANCH   4   6
HETATM    6  C   UNL     1      -9.619  10.328  67.200  1.00  0.00    -0.168 C  
BRANCH   6   7
HETATM    7  C   UNL     1     -10.744   9.592  67.937  1.00  0.00    -0.302 C  
BRANCH   7   8
HETATM    8  C   UNL     1     -10.303   9.051  69.303  1.00  0.00    -0.227 C  
BRANCH   8   9
HETATM    9  C   UNL     1     -11.320   9.422  70.353  1.00  0.00    -0.295 A  
HETATM   10  C   UNL     1     -13.355  10.074  72.162  1.00  0.00    -0.469 A  
HETATM   11  C   UNL     1     -12.942   8.750  72.026  1.00  0.00    -0.437 A  
HETATM   12  C   UNL     1     -11.928   8.425  71.125  1.00  0.00    -0.301 A  
HETATM   13  C   UNL     1     -12.747  11.076  71.408  1.00  0.00    -0.534 A  
HETATM   14  C   UNL     1     -11.731  10.753  70.507  1.00  0.00    -0.449 A  
ENDBRANCH   8   9
ENDBRANCH   7   8
ENDBRANCH   6   7
BRANCH   6  15
HETATM   15  N   UNL     1     -10.051  10.954  65.936  1.00  0.00    -0.243 NA 
HETATM   16  H   UNL     1     -10.067  10.418  65.068  1.00  0.00     0.000 HD 
BRANCH  15  17
HETATM   17  C   UNL     1     -10.462  12.387  65.954  1.00  0.00    -0.256 C  
HETATM   18  O   UNL     1      -8.151  12.648  66.593  1.00  0.00     0.004 OA 
HETATM   19  C   UNL     1     -11.843  12.462  66.594  1.00  0.00    -0.394 C  
HETATM   20  O   UNL     1      -7.340  16.488  69.459  1.00  0.00    -0.190 OA 
HETATM   21  O   UNL     1      -9.352  15.497  69.701  1.00  0.00    -0.275 OA 
HETATM   22  C   UNL     1     -12.500  13.826  66.501  1.00  0.00    -0.356 C  
HETATM   23  C   UNL     1      -9.287  13.147  66.663  1.00  0.00    -0.239 C  
HETATM   24  C   UNL     1     -11.891  14.781  67.498  1.00  0.00    -0.301 C  
HETATM   25  N   UNL     1     -10.566  15.239  67.137  1.00  0.00    -0.295 NA 
HETATM   26  C   UNL     1      -8.231  15.789  68.996  1.00  0.00    -0.234 C  
HETATM   27  C   UNL     1     -10.457  16.180  66.026  1.00  0.00    -0.338 C  
HETATM   28  N   UNL     1      -9.449  14.394  67.277  1.00  0.00    -0.209 N  
HETATM   29  C   UNL     1      -9.212  17.051  66.242  1.00  0.00    -0.278 C  
HETATM   30  C   UNL     1      -8.198  15.155  67.599  1.00  0.00    -0.164 C  
HETATM   31  C   UNL     1      -7.958  16.208  66.502  1.00  0.00    -0.294 C  
ENDBRANCH  15  17
ENDBRANCH   6  15
ENDBRANCH   4   6
ENDBRANCH   3   4
ENDBRANCH   2   3
TORSDOF 8
ENDMDL
MODEL      127
REMARK 921   NORMALIZED FREE ENERGY PREDICTED BY IDOCK:   -4.94 KCAL/MOL
REMARK 922        TOTAL FREE ENERGY PREDICTED BY IDOCK:   -8.46 KCAL/MOL
REMARK 923 INTER-LIGAND FREE ENERGY PREDICTED BY IDOCK:   -7.59 KCAL/MOL
REMARK 924 INTRA-LIGAND FREE ENERGY PREDICTED BY IDOCK:   -0.87 KCAL/MOL
REMARK 927      BINDING AFFINITY PREDICTED BY RF-SCORE:    0.00 PKD
ROOT
HETATM    1  C   UNL     1      -5.798  11.329  66.212  1.00  0.00    -0.114 C  
HETATM    2  C   UNL     1      -6.338  10.073  65.556  1.00  0.00    -0.094 C  
ENDROOT
BRANCH   2   3
HETATM    3  O   UNL     1      -7.277  10.422  64.530  1.00  0.00    -0.110 OA 
BRANCH   3   4
HETATM    4  C   UNL     1      -8.424   9.683  64.505  1.00  0.00    -0.178 C  
HETATM    5  O   UNL     1      -8.891   9.133  63.512  1.00  0.00    -0.181 OA 
BRANCH   4   6
HETATM    6  C   UNL     1      -9.039   9.609  65.914  1.00  0.00    -0.178 C  
BRANCH   6   7
HETATM    7  C   UNL     1      -9.080   8.151  66.382  1.00  0.00    -0.226 C  
BRANCH   7   8
HETATM    8  C   UNL     1     -10.500   7.674  66.715  1.00  0.00    -0.319 C  
BRANCH   8   9
HETATM    9  C   UNL     1     -10.612   7.392  68.192  1.00  0.00    -0.216 A  
HETATM   10  C   UNL     1     -11.019   6.914  70.920  1.00  0.00    -0.290 A  
HETATM   11  C   UNL     1     -11.235   5.895  69.995  1.00  0.00    -0.341 A  
HETATM   12  C   UNL     1     -11.033   6.132  68.635  1.00  0.00    -0.415 A  
HETATM   13  C   UNL     1     -10.587   8.167  70.490  1.00  0.00    -0.228 A  
HETATM   14  C   UNL     1     -10.382   8.406  69.130  1.00  0.00    -0.229 A  
ENDBRANCH   8   9
ENDBRANCH   7   8
ENDBRANCH   6   7
BRANCH   6  15
HETATM   15  N   UNL     1     -10.368  10.248  65.852  1.00  0.00    -0.211 NA 
HETATM   16  H   UNL     1     -11.214   9.712  66.043  1.00  0.00     0.000 HD 
BRANCH  15  17
HETATM   17  C   UNL     1     -10.446  11.696  65.503  1.00  0.00    -0.273 C  
HETATM   18  O   UNL     1      -9.496  11.889  67.711  1.00  0.00    -0.174 OA 
HETATM   19  C   UNL     1     -11.780  11.931  64.805  1.00  0.00    -0.282 C  
HETATM   20  O   UNL     1     -10.733  15.984  70.017  1.00  0.00    -0.304 OA 
HETATM   21  O   UNL     1     -12.282  15.153  68.604  1.00  0.00    -0.189 OA 
HETATM   22  C   UNL     1     -11.932  13.311  64.196  1.00  0.00    -0.505 C  
HETATM   23  C   UNL     1     -10.180  12.461  66.846  1.00  0.00    -0.225 C  
HETATM   24  C   UNL     1     -12.211  14.339  65.266  1.00  0.00    -0.414 C  
HETATM   25  N   UNL     1     -11.059  14.668  66.077  1.00  0.00    -0.327 NA 
HETATM   26  C   UNL     1     -11.009  15.291  69.048  1.00  0.00    -0.254 C  
HETATM   27  C   UNL     1     -10.003  15.464  65.458  1.00  0.00    -0.344 C  
HETATM   28  N   UNL     1     -10.595  13.780  67.066  1.00  0.00    -0.277 N  
HETATM   29  C   UNL     1      -9.296  16.276  66.551  1.00  0.00    -0.298 C  
HETATM   30  C   UNL     1      -9.981  14.495  68.231  1.00  0.00    -0.229 C  
HETATM   31  C   UNL     1      -8.841  15.394  67.720  1.00  0.00    -0.170 C  
ENDBRANCH  15  17
ENDBRANCH   6  15
ENDBRANCH   4   6
ENDBRANCH   3   4
ENDBRANCH   2   3
TORSDOF 8
ENDMDL
MODEL      128
REMARK 921   NORMALIZED FREE ENERGY PREDICTED BY IDOCK:   -4.93 KCAL/MOL
REMARK 922        TOTAL FREE ENERGY PREDICTED BY IDOCK:   -8.45 KCAL/MOL
REMARK 923 INTER-LIGAND FREE ENERGY PREDICTED BY IDOCK:   -6.43 KCAL/MOL
REMARK 924 INTRA-LIGAND FREE ENERGY PREDICTED BY IDOCK:   -2.01 KCAL/MOL
REMARK 927      BINDING AFFINITY PREDICTED BY RF-SCORE:    0.00 PKD
ROOT
HETATM    1  C   UNL     1     -10.222  10.729  64.262  1.00  0.00    -0.422 C  
HETATM    2  C   UNL     1     -10.018   9.918  65.527  1.00  0.00    -0.292 C  
ENDROOT
BRANCH   2   3
HETATM    3  O   UNL     1      -8.621   9.667  65.730  1.00  0.00    -0.128 OA 
BRANCH   3   4
HETATM    4  C   UNL     1      -7.979  10.543  66.555  1.00  0.00    -0.132 C  
HETATM    5  O   UNL     1      -6.944  11.146  66.282  1.00  0.00    -0.123 OA 
BRANCH   4   6
HETATM    6  C   UNL     1      -8.755  10.697  67.875  1.00  0.00    -0.127 C  
BRANCH   6   7
HETATM    7  C   UNL     1      -8.845  12.180  68.250  1.00  0.00    -0.182 C  
BRANCH   7   8
HETATM    8  C   UNL     1     -10.293  12.682  68.338  1.00  0.00    -0.241 C  
BRANCH   8   9
HETATM    9  C   UNL     1     -10.748  13.170  66.985  1.00  0.00    -0.270 A  
HETATM   10  C   UNL     1     -11.637  14.257  64.563  1.00  0.00    -0.397 A  
HETATM   11  C   UNL     1     -10.312  14.429  64.959  1.00  0.00    -0.449 A  
HETATM   12  C   UNL     1      -9.868  13.888  66.166  1.00  0.00    -0.316 A  
HETATM   13  C   UNL     1     -12.517  13.533  65.366  1.00  0.00    -0.540 A  
HETATM   14  C   UNL     1     -12.075  12.989  66.573  1.00  0.00    -0.410 A  
ENDBRANCH   8   9
ENDBRANCH   7   8
ENDBRANCH   6   7
BRANCH   6  15
HETATM   15  N   UNL     1      -8.073   9.870  68.889  1.00  0.00    -0.100 NA 
HETATM   16  H   UNL     1      -7.109  10.066  69.159  1.00  0.00     0.000 HD 
BRANCH  15  17
HETATM   17  C   UNL     1      -8.824   8.742  69.511  1.00  0.00    -0.144 C  
HETATM   18  O   UNL     1      -7.261   7.472  68.185  1.00  0.00    -0.085 OA 
HETATM   19  C   UNL     1     -10.303   9.110  69.500  1.00  0.00    -0.220 C  
HETATM   20  O   UNL     1      -8.995   3.179  66.705  1.00  0.00    -0.137 OA 
HETATM   21  O   UNL     1     -10.519   4.829  66.912  1.00  0.00    -0.194 OA 
HETATM   22  C   UNL     1     -11.187   8.162  70.286  1.00  0.00    -0.182 C  
HETATM   23  C   UNL     1      -8.384   7.463  68.718  1.00  0.00    -0.129 C  
HETATM   24  C   UNL     1     -11.411   6.881  69.520  1.00  0.00    -0.167 C  
HETATM   25  N   UNL     1     -10.258   6.007  69.493  1.00  0.00    -0.190 NA 
HETATM   26  C   UNL     1      -9.330   4.247  67.201  1.00  0.00    -0.167 C  
HETATM   27  C   UNL     1      -9.906   5.316  70.730  1.00  0.00    -0.196 C  
HETATM   28  N   UNL     1      -9.154   6.295  68.668  1.00  0.00    -0.127 N  
HETATM   29  C   UNL     1      -9.206   3.998  70.373  1.00  0.00    -0.204 C  
HETATM   30  C   UNL     1      -8.468   5.054  68.181  1.00  0.00    -0.099 C  
HETATM   31  C   UNL     1      -8.044   4.209  69.395  1.00  0.00    -0.063 C  
ENDBRANCH  15  17
ENDBRANCH   6  15
ENDBRANCH   4   6
ENDBRANCH   3   4
ENDBRANCH   2   3
TORSDOF 8
ENDMDL
MODEL      129
REMARK 921   NORMALIZED FREE ENERGY PREDICTED BY IDOCK:   -4.92 KCAL/MOL
REMARK 922        TOTAL FREE ENERGY PREDICTED BY IDOCK:   -8.43 KCAL/MOL
REMARK 923 INTER-LIGAND FREE ENERGY PREDICTED BY IDOCK:   -7.52 KCAL/MOL
REMARK 924 INTRA-LIGAND FREE ENERGY PREDICTED BY IDOCK:   -0.91 KCAL/MOL
REMARK 927      BINDING AFFINITY PREDICTED BY RF-SCORE:    0.00 PKD
ROOT
HETATM    1  C   UNL     1     -13.357  11.004  72.146  1.00  0.00    -0.285 C  
HETATM    2  C   UNL     1     -12.560  10.036  71.293  1.00  0.00    -0.393 C  
ENDROOT
BRANCH   2   3
HETATM    3  O   UNL     1     -11.421  10.701  70.731  1.00  0.00    -0.327 OA 
BRANCH   3   4
HETATM    4  C   UNL     1     -11.289  10.604  69.377  1.00  0.00    -0.284 C  
HETATM    5  O   UNL     1     -12.158  10.890  68.558  1.00  0.00    -0.545 OA 
BRANCH   4   6
HETATM    6  C   UNL     1      -9.878  10.110  69.014  1.00  0.00    -0.205 C  
BRANCH   6   7
HETATM    7  C   UNL     1      -9.446  10.723  67.678  1.00  0.00    -0.166 C  
BRANCH   7   8
HETATM    8  C   UNL     1      -9.825   9.850  66.474  1.00  0.00    -0.274 C  
BRANCH   8   9
HETATM    9  C   UNL     1     -10.371  10.716  65.367  1.00  0.00    -0.303 A  
HETATM   10  C   UNL     1     -11.240  12.462  63.358  1.00  0.00    -0.492 A  
HETATM   11  C   UNL     1     -10.223  11.547  63.093  1.00  0.00    -0.389 A  
HETATM   12  C   UNL     1      -9.789  10.677  64.093  1.00  0.00    -0.396 A  
HETATM   13  C   UNL     1     -11.834  12.500  64.618  1.00  0.00    -0.439 A  
HETATM   14  C   UNL     1     -11.404  11.629  65.620  1.00  0.00    -0.233 A  
ENDBRANCH   8   9
ENDBRANCH   7   8
ENDBRANCH   6   7
BRANCH   6  15
HETATM   15  N   UNL     1      -9.913   8.635  69.004  1.00  0.00    -0.187 NA 
HETATM   16  H   UNL     1     -10.537   8.132  68.372  1.00  0.00     0.000 HD 
BRANCH  15  17
HETATM   17  C   UNL     1      -9.018   7.895  69.939  1.00  0.00    -0.146 C  
HETATM   18  O   UNL     1     -10.807   6.286  69.775  1.00  0.00    -0.264 OA 
HETATM   19  C   UNL     1      -8.468   8.899  70.944  1.00  0.00    -0.226 C  
HETATM   20  O   UNL     1     -11.380   3.591  73.779  1.00  0.00    -0.196 OA 
HETATM   21  O   UNL     1     -10.648   5.698  74.117  1.00  0.00    -0.272 OA 
HETATM   22  C   UNL     1      -7.374   8.351  71.840  1.00  0.00    -0.118 C  
HETATM   23  C   UNL     1      -9.883   6.708  70.490  1.00  0.00    -0.176 C  
HETATM   24  C   UNL     1      -7.957   7.464  72.913  1.00  0.00    -0.100 C  
HETATM   25  N   UNL     1      -8.403   6.175  72.430  1.00  0.00    -0.116 NA 
HETATM   26  C   UNL     1     -10.824   4.594  73.351  1.00  0.00    -0.276 C  
HETATM   27  C   UNL     1      -7.378   5.205  72.054  1.00  0.00    -0.090 C  
HETATM   28  N   UNL     1      -9.597   6.054  71.695  1.00  0.00    -0.152 N  
HETATM   29  C   UNL     1      -7.940   3.793  72.265  1.00  0.00    -0.069 C  
HETATM   30  C   UNL     1     -10.276   4.737  71.925  1.00  0.00    -0.193 C  
HETATM   31  C   UNL     1      -9.296   3.603  71.575  1.00  0.00    -0.207 C  
ENDBRANCH  15  17
ENDBRANCH   6  15
ENDBRANCH   4   6
ENDBRANCH   3   4
ENDBRANCH   2   3
TORSDOF 8
ENDMDL
MODEL      130
REMARK 921   NORMALIZED FREE ENERGY PREDICTED BY IDOCK:   -4.91 KCAL/MOL
REMARK 922        TOTAL FREE ENERGY PREDICTED BY IDOCK:   -8.42 KCAL/MOL
REMARK 923 INTER-LIGAND FREE ENERGY PREDICTED BY IDOCK:   -6.93 KCAL/MOL
REMARK 924 INTRA-LIGAND FREE ENERGY PREDICTED BY IDOCK:   -1.49 KCAL/MOL
REMARK 927      BINDING AFFINITY PREDICTED BY RF-SCORE:    0.00 PKD
ROOT
HETATM    1  C   UNL     1     -12.437  13.559  71.020  1.00  0.00    -0.451 C  
HETATM    2  C   UNL     1     -12.930  12.345  71.784  1.00  0.00    -0.316 C  
ENDROOT
BRANCH   2   3
HETATM    3  O   UNL     1     -12.312  11.158  71.270  1.00  0.00    -0.347 OA 
BRANCH   3   4
HETATM    4  C   UNL     1     -12.757   9.984  71.803  1.00  0.00    -0.428 C  
HETATM    5  O   UNL     1     -13.815   9.835  72.408  1.00  0.00    -0.330 OA 
BRANCH   4   6
HETATM    6  C   UNL     1     -11.753   8.854  71.513  1.00  0.00    -0.324 C  
BRANCH   6   7
HETATM    7  C   UNL     1     -11.518   8.034  72.786  1.00  0.00    -0.420 C  
BRANCH   7   8
HETATM    8  C   UNL     1     -10.117   7.410  72.839  1.00  0.00    -0.293 C  
BRANCH   8   9
HETATM    9  C   UNL     1     -10.212   5.922  72.613  1.00  0.00    -0.209 A  
HETATM   10  C   UNL     1     -10.229   3.137  72.324  1.00  0.00    -0.173 A  
HETATM   11  C   UNL     1     -10.947   3.734  73.357  1.00  0.00    -0.317 A  
HETATM   12  C   UNL     1     -10.940   5.122  73.503  1.00  0.00    -0.370 A  
HETATM   13  C   UNL     1      -9.512   3.926  71.426  1.00  0.00    -0.222 A  
HETATM   14  C   UNL     1      -9.504   5.315  71.568  1.00  0.00    -0.191 A  
ENDBRANCH   8   9
ENDBRANCH   7   8
ENDBRANCH   6   7
BRANCH   6  15
HETATM   15  N   UNL     1     -10.528   9.477  70.976  1.00  0.00    -0.314 NA 
HETATM   16  H   UNL     1     -10.084  10.258  71.460  1.00  0.00     0.000 HD 
BRANCH  15  17
HETATM   17  C   UNL     1      -9.952   8.940  69.710  1.00  0.00    -0.191 C  
HETATM   18  O   UNL     1      -9.593  11.292  69.321  1.00  0.00    -0.020 OA 
HETATM   19  C   UNL     1     -10.869   7.824  69.222  1.00  0.00    -0.091 C  
HETATM   20  O   UNL     1      -9.697  12.532  64.623  1.00  0.00    -0.092 OA 
HETATM   21  O   UNL     1     -11.035  10.813  65.209  1.00  0.00    -0.069 OA 
HETATM   22  C   UNL     1     -10.318   7.028  68.055  1.00  0.00    -0.234 C  
HETATM   23  C   UNL     1      -9.761  10.187  68.778  1.00  0.00    -0.172 C  
HETATM   24  C   UNL     1     -10.441   7.810  66.770  1.00  0.00    -0.248 C  
HETATM   25  N   UNL     1      -9.497   8.900  66.655  1.00  0.00    -0.184 NA 
HETATM   26  C   UNL     1      -9.964  11.622  65.396  1.00  0.00    -0.250 C  
HETATM   27  C   UNL     1      -8.096   8.558  66.422  1.00  0.00    -0.103 C  
HETATM   28  N   UNL     1      -9.678  10.091  67.384  1.00  0.00    -0.157 N  
HETATM   29  C   UNL     1      -7.432   9.708  65.653  1.00  0.00    -0.101 C  
HETATM   30  C   UNL     1      -9.151  11.290  66.655  1.00  0.00    -0.179 C  
HETATM   31  C   UNL     1      -7.664  11.064  66.329  1.00  0.00    -0.132 C  
ENDBRANCH  15  17
ENDBRANCH   6  15
ENDBRANCH   4   6
ENDBRANCH   3   4
ENDBRANCH   2   3
TORSDOF 8
ENDMDL
MODEL      131
REMARK 921   NORMALIZED FREE ENERGY PREDICTED BY IDOCK:   -4.91 KCAL/MOL
REMARK 922        TOTAL FREE ENERGY PREDICTED BY IDOCK:   -8.42 KCAL/MOL
REMARK 923 INTER-LIGAND FREE ENERGY PREDICTED BY IDOCK:   -6.54 KCAL/MOL
REMARK 924 INTRA-LIGAND FREE ENERGY PREDICTED BY IDOCK:   -1.88 KCAL/MOL
REMARK 927      BINDING AFFINITY PREDICTED BY RF-SCORE:    0.00 PKD
ROOT
HETATM    1  C   UNL     1     -10.569  15.725  69.498  1.00  0.00    -0.272 C  
HETATM    2  C   UNL     1     -11.236  14.642  68.671  1.00  0.00    -0.275 C  
ENDROOT
BRANCH   2   3
HETATM    3  O   UNL     1     -10.480  13.427  68.754  1.00  0.00    -0.242 OA 
BRANCH   3   4
HETATM    4  C   UNL     1      -9.824  13.062  67.615  1.00  0.00    -0.212 C  
HETATM    5  O   UNL     1      -9.621  13.791  66.649  1.00  0.00    -0.271 OA 
BRANCH   4   6
HETATM    6  C   UNL     1      -9.342  11.604  67.724  1.00  0.00    -0.178 C  
BRANCH   6   7
HETATM    7  C   UNL     1     -10.359  10.675  67.054  1.00  0.00    -0.280 C  
BRANCH   7   8
HETATM    8  C   UNL     1      -9.718   9.742  66.018  1.00  0.00    -0.319 C  
BRANCH   8   9
HETATM    9  C   UNL     1      -9.644   8.340  66.568  1.00  0.00    -0.312 A  
HETATM   10  C   UNL     1      -9.548   5.668  67.399  1.00  0.00    -0.123 A  
HETATM   11  C   UNL     1      -8.406   6.278  66.884  1.00  0.00    -0.109 A  
HETATM   12  C   UNL     1      -8.453   7.610  66.469  1.00  0.00    -0.133 A  
HETATM   13  C   UNL     1     -10.734   6.390  67.513  1.00  0.00    -0.396 A  
HETATM   14  C   UNL     1     -10.783   7.723  67.100  1.00  0.00    -0.337 A  
ENDBRANCH   8   9
ENDBRANCH   7   8
ENDBRANCH   6   7
BRANCH   6  15
HETATM   15  N   UNL     1      -9.125  11.314  69.154  1.00  0.00    -0.402 NA 
HETATM   16  H   UNL     1      -9.419  11.977  69.871  1.00  0.00     0.000 HD 
BRANCH  15  17
HETATM   17  C   UNL     1      -8.468  10.029  69.528  1.00  0.00    -0.176 C  
HETATM   18  O   UNL     1     -10.686   9.574  70.357  1.00  0.00    -0.239 OA 
HETATM   19  C   UNL     1      -7.085  10.361  70.077  1.00  0.00    -0.155 C  
HETATM   20  O   UNL     1     -10.764   6.586  74.189  1.00  0.00    -0.207 OA 
HETATM   21  O   UNL     1      -8.954   7.924  74.031  1.00  0.00    -0.267 OA 
HETATM   22  C   UNL     1      -6.199   9.152  70.310  1.00  0.00    -0.045 C  
HETATM   23  C   UNL     1      -9.479   9.308  70.486  1.00  0.00    -0.264 C  
HETATM   24  C   UNL     1      -6.616   8.420  71.562  1.00  0.00    -0.064 C  
HETATM   25  N   UNL     1      -7.844   7.668  71.420  1.00  0.00    -0.088 NA 
HETATM   26  C   UNL     1     -10.017   7.269  73.501  1.00  0.00    -0.320 C  
HETATM   27  C   UNL     1      -7.802   6.454  70.610  1.00  0.00    -0.107 C  
HETATM   28  N   UNL     1      -9.091   8.322  71.400  1.00  0.00    -0.155 N  
HETATM   29  C   UNL     1      -8.871   5.482  71.128  1.00  0.00    -0.142 C  
HETATM   30  C   UNL     1     -10.183   7.481  71.990  1.00  0.00    -0.196 C  
HETATM   31  C   UNL     1     -10.250   6.144  71.232  1.00  0.00    -0.252 C  
ENDBRANCH  15  17
ENDBRANCH   6  15
ENDBRANCH   4   6
ENDBRANCH   3   4
ENDBRANCH   2   3
TORSDOF 8
ENDMDL
MODEL      132
REMARK 921   NORMALIZED FREE ENERGY PREDICTED BY IDOCK:   -4.91 KCAL/MOL
REMARK 922        TOTAL FREE ENERGY PREDICTED BY IDOCK:   -8.42 KCAL/MOL
REMARK 923 INTER-LIGAND FREE ENERGY PREDICTED BY IDOCK:   -7.26 KCAL/MOL
REMARK 924 INTRA-LIGAND FREE ENERGY PREDICTED BY IDOCK:   -1.15 KCAL/MOL
REMARK 927      BINDING AFFINITY PREDICTED BY RF-SCORE:    0.00 PKD
ROOT
HETATM    1  C   UNL     1     -10.975  18.247  67.986  1.00  0.00    -0.022 C  
HETATM    2  C   UNL     1     -10.441  17.127  68.857  1.00  0.00    -0.346 C  
ENDROOT
BRANCH   2   3
HETATM    3  O   UNL     1     -11.413  16.077  68.956  1.00  0.00    -0.348 OA 
BRANCH   3   4
HETATM    4  C   UNL     1     -11.017  14.972  69.651  1.00  0.00    -0.279 C  
HETATM    5  O   UNL     1     -10.791  14.936  70.857  1.00  0.00    -0.125 OA 
BRANCH   4   6
HETATM    6  C   UNL     1     -10.924  13.758  68.710  1.00  0.00    -0.264 C  
BRANCH   6   7
HETATM    7  C   UNL     1     -11.636  14.072  67.391  1.00  0.00    -0.397 C  
BRANCH   7   8
HETATM    8  C   UNL     1     -10.728  13.888  66.168  1.00  0.00    -0.283 C  
BRANCH   8   9
HETATM    9  C   UNL     1      -9.561  14.841  66.249  1.00  0.00    -0.339 A  
HETATM   10  C   UNL     1      -7.483  16.689  66.567  1.00  0.00    -0.306 A  
HETATM   11  C   UNL     1      -7.434  15.465  67.231  1.00  0.00    -0.242 A  
HETATM   12  C   UNL     1      -8.469  14.543  67.073  1.00  0.00    -0.222 A  
HETATM   13  C   UNL     1      -8.559  16.989  65.734  1.00  0.00     0.189 A  
HETATM   14  C   UNL     1      -9.596  16.067  65.573  1.00  0.00    -0.110 A  
ENDBRANCH   8   9
ENDBRANCH   7   8
ENDBRANCH   6   7
BRANCH   6  15
HETATM   15  N   UNL     1     -11.488  12.597  69.426  1.00  0.00    -0.377 NA 
HETATM   16  H   UNL     1     -12.265  12.714  70.077  1.00  0.00     0.000 HD 
BRANCH  15  17
HETATM   17  C   UNL     1     -10.899  11.251  69.176  1.00  0.00    -0.222 C  
HETATM   18  O   UNL     1     -12.058  10.780  71.237  1.00  0.00    -0.330 OA 
HETATM   19  C   UNL     1      -9.471  11.456  68.685  1.00  0.00    -0.168 C  
HETATM   20  O   UNL     1      -9.938   7.331  73.926  1.00  0.00    -0.311 OA 
HETATM   21  O   UNL     1      -8.542   8.607  72.696  1.00  0.00    -0.376 OA 
HETATM   22  C   UNL     1      -8.796  10.193  68.184  1.00  0.00    -0.126 C  
HETATM   23  C   UNL     1     -11.105  10.454  70.510  1.00  0.00    -0.265 C  
HETATM   24  C   UNL     1      -8.367   9.323  69.340  1.00  0.00    -0.127 C  
HETATM   25  N   UNL     1      -9.461   8.644  70.000  1.00  0.00    -0.163 NA 
HETATM   26  C   UNL     1      -9.756   8.068  72.966  1.00  0.00    -0.278 C  
HETATM   27  C   UNL     1     -10.101   7.543  69.287  1.00  0.00    -0.188 C  
HETATM   28  N   UNL     1     -10.328   9.343  70.862  1.00  0.00    -0.294 N  
HETATM   29  C   UNL     1     -10.667   6.556  70.316  1.00  0.00    -0.307 C  
HETATM   30  C   UNL     1     -10.848   8.478  71.969  1.00  0.00    -0.335 C  
HETATM   31  C   UNL     1     -11.550   7.252  71.357  1.00  0.00    -0.305 C  
ENDBRANCH  15  17
ENDBRANCH   6  15
ENDBRANCH   4   6
ENDBRANCH   3   4
ENDBRANCH   2   3
TORSDOF 8
ENDMDL
MODEL      133
REMARK 921   NORMALIZED FREE ENERGY PREDICTED BY IDOCK:   -4.88 KCAL/MOL
REMARK 922        TOTAL FREE ENERGY PREDICTED BY IDOCK:   -8.37 KCAL/MOL
REMARK 923 INTER-LIGAND FREE ENERGY PREDICTED BY IDOCK:   -7.28 KCAL/MOL
REMARK 924 INTRA-LIGAND FREE ENERGY PREDICTED BY IDOCK:   -1.09 KCAL/MOL
REMARK 927      BINDING AFFINITY PREDICTED BY RF-SCORE:    0.00 PKD
ROOT
HETATM    1  C   UNL     1      -9.012  12.230  68.162  1.00  0.00    -0.192 C  
HETATM    2  C   UNL     1      -9.660  10.868  68.006  1.00  0.00    -0.162 C  
ENDROOT
BRANCH   2   3
HETATM    3  O   UNL     1      -8.903   9.881  68.719  1.00  0.00    -0.126 OA 
BRANCH   3   4
HETATM    4  C   UNL     1      -9.325   9.621  69.990  1.00  0.00    -0.241 C  
HETATM    5  O   UNL     1      -8.604   9.588  70.984  1.00  0.00    -0.273 OA 
BRANCH   4   6
HETATM    6  C   UNL     1     -10.848   9.403  70.011  1.00  0.00    -0.241 C  
BRANCH   6   7
HETATM    7  C   UNL     1     -11.436   9.999  71.295  1.00  0.00    -0.390 C  
BRANCH   7   8
HETATM    8  C   UNL     1     -12.836  10.590  71.087  1.00  0.00    -0.513 C  
BRANCH   8   9
HETATM    9  C   UNL     1     -12.785  12.091  71.228  1.00  0.00    -0.382 A  
HETATM   10  C   UNL     1     -12.858  14.885  71.374  1.00  0.00    -0.416 A  
HETATM   11  C   UNL     1     -13.576  14.121  72.292  1.00  0.00    -0.596 A  
HETATM   12  C   UNL     1     -13.540  12.728  72.221  1.00  0.00    -0.563 A  
HETATM   13  C   UNL     1     -12.094  14.260  70.391  1.00  0.00    -0.409 A  
HETATM   14  C   UNL     1     -12.055  12.866  70.318  1.00  0.00    -0.377 A  
ENDBRANCH   8   9
ENDBRANCH   7   8
ENDBRANCH   6   7
BRANCH   6  15
HETATM   15  N   UNL     1     -11.091   7.955  69.866  1.00  0.00    -0.413 NA 
HETATM   16  H   UNL     1     -11.650   7.596  69.092  1.00  0.00     0.000 HD 
BRANCH  15  17
HETATM   17  C   UNL     1     -10.502   7.029  70.874  1.00  0.00    -0.214 C  
HETATM   18  O   UNL     1      -9.057   6.528  69.010  1.00  0.00    -0.132 OA 
HETATM   19  C   UNL     1     -11.653   6.385  71.638  1.00  0.00    -0.363 C  
HETATM   20  O   UNL     1      -7.373   1.968  69.017  1.00  0.00    -0.043 OA 
HETATM   21  O   UNL     1      -9.432   2.250  69.895  1.00  0.00    -0.114 OA 
HETATM   22  C   UNL     1     -11.225   5.571  72.843  1.00  0.00    -0.358 C  
HETATM   23  C   UNL     1      -9.546   6.086  70.064  1.00  0.00    -0.163 C  
HETATM   24  C   UNL     1     -10.651   4.243  72.415  1.00  0.00    -0.075 C  
HETATM   25  N   UNL     1      -9.330   4.336  71.832  1.00  0.00    -0.126 NA 
HETATM   26  C   UNL     1      -8.205   2.701  69.536  1.00  0.00    -0.044 C  
HETATM   27  C   UNL     1      -8.217   4.634  72.728  1.00  0.00    -0.100 C  
HETATM   28  N   UNL     1      -9.152   4.824  70.523  1.00  0.00    -0.115 N  
HETATM   29  C   UNL     1      -6.939   4.014  72.146  1.00  0.00    -0.049 C  
HETATM   30  C   UNL     1      -7.982   4.189  69.834  1.00  0.00    -0.055 C  
HETATM   31  C   UNL     1      -6.719   4.417  70.683  1.00  0.00    -0.036 C  
ENDBRANCH  15  17
ENDBRANCH   6  15
ENDBRANCH   4   6
ENDBRANCH   3   4
ENDBRANCH   2   3
TORSDOF 8
ENDMDL
MODEL      134
REMARK 921   NORMALIZED FREE ENERGY PREDICTED BY IDOCK:   -4.88 KCAL/MOL
REMARK 922        TOTAL FREE ENERGY PREDICTED BY IDOCK:   -8.37 KCAL/MOL
REMARK 923 INTER-LIGAND FREE ENERGY PREDICTED BY IDOCK:   -7.06 KCAL/MOL
REMARK 924 INTRA-LIGAND FREE ENERGY PREDICTED BY IDOCK:   -1.31 KCAL/MOL
REMARK 927      BINDING AFFINITY PREDICTED BY RF-SCORE:    0.00 PKD
ROOT
HETATM    1  C   UNL     1     -12.120  15.131  69.773  1.00  0.00    -0.354 C  
HETATM    2  C   UNL     1     -11.472  13.851  69.279  1.00  0.00    -0.297 C  
ENDROOT
BRANCH   2   3
HETATM    3  O   UNL     1     -12.178  13.355  68.134  1.00  0.00    -0.284 OA 
BRANCH   3   4
HETATM    4  C   UNL     1     -11.790  13.872  66.933  1.00  0.00    -0.423 C  
HETATM    5  O   UNL     1     -12.543  14.148  66.004  1.00  0.00    -0.478 OA 
BRANCH   4   6
HETATM    6  C   UNL     1     -10.268  14.093  66.916  1.00  0.00    -0.267 C  
BRANCH   6   7
HETATM    7  C   UNL     1      -9.962  15.543  66.525  1.00  0.00    -0.283 C  
BRANCH   7   8
HETATM    8  C   UNL     1      -9.217  16.309  67.626  1.00  0.00    -0.206 C  
BRANCH   8   9
HETATM    9  C   UNL     1      -8.335  17.365  67.008  1.00  0.00    -0.239 A  
HETATM   10  C   UNL     1      -6.697  19.420  66.043  1.00  0.00    -0.252 A  
HETATM   11  C   UNL     1      -6.128  18.305  66.654  1.00  0.00    -0.189 A  
HETATM   12  C   UNL     1      -6.943  17.280  67.136  1.00  0.00    -0.207 A  
HETATM   13  C   UNL     1      -8.080  19.508  65.899  1.00  0.00    -0.204 A  
HETATM   14  C   UNL     1      -8.899  18.483  66.378  1.00  0.00    -0.267 A  
ENDBRANCH   8   9
ENDBRANCH   7   8
ENDBRANCH   6   7
BRANCH   6  15
HETATM   15  N   UNL     1      -9.685  13.097  65.997  1.00  0.00    -0.404 NA 
HETATM   16  H   UNL     1      -9.870  13.141  64.994  1.00  0.00     0.000 HD 
BRANCH  15  17
HETATM   17  C   UNL     1      -8.821  12.023  66.565  1.00  0.00    -0.172 C  
HETATM   18  O   UNL     1     -10.427  10.645  65.407  1.00  0.00    -0.258 OA 
HETATM   19  C   UNL     1      -8.470  12.420  67.994  1.00  0.00    -0.176 C  
HETATM   20  O   UNL     1     -11.138   6.310  67.487  1.00  0.00    -0.348 OA 
HETATM   21  O   UNL     1     -10.645   8.001  68.897  1.00  0.00    -0.210 OA 
HETATM   22  C   UNL     1      -7.424  11.537  68.648  1.00  0.00    -0.116 C  
HETATM   23  C   UNL     1      -9.621  10.691  66.353  1.00  0.00    -0.190 C  
HETATM   24  C   UNL     1      -8.026  10.219  69.069  1.00  0.00    -0.125 C  
HETATM   25  N   UNL     1      -8.298   9.321  67.967  1.00  0.00    -0.119 NA 
HETATM   26  C   UNL     1     -10.639   7.412  67.676  1.00  0.00    -0.239 C  
HETATM   27  C   UNL     1      -7.154   8.696  67.308  1.00  0.00    -0.079 C  
HETATM   28  N   UNL     1      -9.397   9.538  67.115  1.00  0.00    -0.140 N  
HETATM   29  C   UNL     1      -7.599   7.345  66.731  1.00  0.00    -0.101 C  
HETATM   30  C   UNL     1      -9.968   8.257  66.586  1.00  0.00    -0.278 C  
HETATM   31  C   UNL     1      -8.856   7.475  65.863  1.00  0.00    -0.157 C  
ENDBRANCH  15  17
ENDBRANCH   6  15
ENDBRANCH   4   6
ENDBRANCH   3   4
ENDBRANCH   2   3
TORSDOF 8
ENDMDL
MODEL      135
REMARK 921   NORMALIZED FREE ENERGY PREDICTED BY IDOCK:   -4.86 KCAL/MOL
REMARK 922        TOTAL FREE ENERGY PREDICTED BY IDOCK:   -8.35 KCAL/MOL
REMARK 923 INTER-LIGAND FREE ENERGY PREDICTED BY IDOCK:   -8.12 KCAL/MOL
REMARK 924 INTRA-LIGAND FREE ENERGY PREDICTED BY IDOCK:   -0.23 KCAL/MOL
REMARK 927      BINDING AFFINITY PREDICTED BY RF-SCORE:    0.00 PKD
ROOT
HETATM    1  C   UNL     1     -11.903  12.045  63.435  1.00  0.00    -0.542 C  
HETATM    2  C   UNL     1     -10.431  12.070  63.800  1.00  0.00    -0.429 C  
ENDROOT
BRANCH   2   3
HETATM    3  O   UNL     1     -10.193  13.058  64.811  1.00  0.00    -0.321 OA 
BRANCH   3   4
HETATM    4  C   UNL     1     -10.428  12.658  66.093  1.00  0.00    -0.258 C  
HETATM    5  O   UNL     1     -11.538  12.498  66.594  1.00  0.00    -0.340 OA 
BRANCH   4   6
HETATM    6  C   UNL     1      -9.098  12.402  66.824  1.00  0.00    -0.212 C  
BRANCH   6   7
HETATM    7  C   UNL     1      -9.034  10.942  67.282  1.00  0.00    -0.139 C  
BRANCH   7   8
HETATM    8  C   UNL     1     -10.087  10.059  66.598  1.00  0.00    -0.289 C  
BRANCH   8   9
HETATM    9  C   UNL     1     -10.335   8.824  67.426  1.00  0.00    -0.349 A  
HETATM   10  C   UNL     1     -10.998   6.569  68.948  1.00  0.00    -0.376 A  
HETATM   11  C   UNL     1     -10.942   6.479  67.559  1.00  0.00    -0.444 A  
HETATM   12  C   UNL     1     -10.612   7.602  66.799  1.00  0.00    -0.256 A  
HETATM   13  C   UNL     1     -10.712   7.777  69.582  1.00  0.00    -0.223 A  
HETATM   14  C   UNL     1     -10.379   8.901  68.824  1.00  0.00    -0.232 A  
ENDBRANCH   8   9
ENDBRANCH   7   8
ENDBRANCH   6   7
BRANCH   6  15
HETATM   15  N   UNL     1      -9.006  13.374  67.930  1.00  0.00    -0.191 NA 
HETATM   16  H   UNL     1      -8.688  13.083  68.855  1.00  0.00     0.000 HD 
BRANCH  15  17
HETATM   17  C   UNL     1      -9.388  14.791  67.668  1.00  0.00    -0.195 C  
HETATM   18  O   UNL     1      -7.023  14.948  67.222  1.00  0.00    -0.213 OA 
HETATM   19  C   UNL     1     -10.382  15.209  68.745  1.00  0.00    -0.236 C  
HETATM   20  O   UNL     1      -5.139  19.321  68.195  1.00  0.00    -0.175 OA 
HETATM   21  O   UNL     1      -6.860  18.685  69.508  1.00  0.00    -0.219 OA 
HETATM   22  C   UNL     1     -11.032  16.557  68.505  1.00  0.00    -0.350 C  
HETATM   23  C   UNL     1      -8.033  15.577  67.580  1.00  0.00    -0.168 C  
HETATM   24  C   UNL     1     -10.075  17.677  68.831  1.00  0.00    -0.351 C  
HETATM   25  N   UNL     1      -9.024  17.853  67.852  1.00  0.00    -0.259 NA 
HETATM   26  C   UNL     1      -6.135  18.629  68.364  1.00  0.00    -0.212 C  
HETATM   27  C   UNL     1      -9.394  18.420  66.558  1.00  0.00    -0.309 C  
HETATM   28  N   UNL     1      -7.939  16.957  67.791  1.00  0.00    -0.177 N  
HETATM   29  C   UNL     1      -8.181  19.162  65.983  1.00  0.00    -0.178 C  
HETATM   30  C   UNL     1      -6.676  17.625  67.338  1.00  0.00    -0.160 C  
HETATM   31  C   UNL     1      -6.922  18.285  65.970  1.00  0.00    -0.315 C  
ENDBRANCH  15  17
ENDBRANCH   6  15
ENDBRANCH   4   6
ENDBRANCH   3   4
ENDBRANCH   2   3
TORSDOF 8
ENDMDL
MODEL      136
REMARK 921   NORMALIZED FREE ENERGY PREDICTED BY IDOCK:   -4.81 KCAL/MOL
REMARK 922        TOTAL FREE ENERGY PREDICTED BY IDOCK:   -8.27 KCAL/MOL
REMARK 923 INTER-LIGAND FREE ENERGY PREDICTED BY IDOCK:   -6.34 KCAL/MOL
REMARK 924 INTRA-LIGAND FREE ENERGY PREDICTED BY IDOCK:   -1.94 KCAL/MOL
REMARK 927      BINDING AFFINITY PREDICTED BY RF-SCORE:    0.00 PKD
ROOT
HETATM    1  C   UNL     1     -12.803   9.490  71.523  1.00  0.00    -0.464 C  
HETATM    2  C   UNL     1     -12.922   8.002  71.794  1.00  0.00    -0.331 C  
ENDROOT
BRANCH   2   3
HETATM    3  O   UNL     1     -11.700   7.508  72.359  1.00  0.00    -0.300 OA 
BRANCH   3   4
HETATM    4  C   UNL     1     -11.513   6.160  72.269  1.00  0.00    -0.312 C  
HETATM    5  O   UNL     1     -12.084   5.317  72.954  1.00  0.00    -0.177 OA 
BRANCH   4   6
HETATM    6  C   UNL     1     -10.498   5.837  71.158  1.00  0.00    -0.239 C  
BRANCH   6   7
HETATM    7  C   UNL     1      -9.696   4.588  71.539  1.00  0.00    -0.243 C  
BRANCH   7   8
HETATM    8  C   UNL     1      -8.318   4.541  70.867  1.00  0.00    -0.095 C  
BRANCH   8   9
HETATM    9  C   UNL     1      -8.412   3.800  69.557  1.00  0.00    -0.095 A  
HETATM   10  C   UNL     1      -8.727   2.564  67.065  1.00  0.00    -0.137 A  
HETATM   11  C   UNL     1      -7.812   3.603  67.216  1.00  0.00    -0.079 A  
HETATM   12  C   UNL     1      -7.654   4.220  68.457  1.00  0.00    -0.063 A  
HETATM   13  C   UNL     1      -9.477   2.130  68.157  1.00  0.00    -0.221 A  
HETATM   14  C   UNL     1      -9.320   2.744  69.400  1.00  0.00    -0.189 A  
ENDBRANCH   8   9
ENDBRANCH   7   8
ENDBRANCH   6   7
BRANCH   6  15
HETATM   15  N   UNL     1      -9.664   7.037  70.956  1.00  0.00    -0.174 NA 
HETATM   16  H   UNL     1      -9.252   7.525  71.752  1.00  0.00     0.000 HD 
BRANCH  15  17
HETATM   17  C   UNL     1      -9.437   7.522  69.565  1.00  0.00    -0.156 C  
HETATM   18  O   UNL     1      -9.390   9.640  70.715  1.00  0.00    -0.207 OA 
HETATM   19  C   UNL     1     -10.365   6.737  68.645  1.00  0.00    -0.202 C  
HETATM   20  O   UNL     1     -10.939  13.367  68.007  1.00  0.00    -0.232 OA 
HETATM   21  O   UNL     1     -11.913  11.377  67.578  1.00  0.00    -0.626 OA 
HETATM   22  C   UNL     1     -10.112   6.958  67.167  1.00  0.00    -0.272 C  
HETATM   23  C   UNL     1      -9.620   9.078  69.632  1.00  0.00    -0.171 C  
HETATM   24  C   UNL     1     -10.661   8.293  66.725  1.00  0.00    -0.156 C  
HETATM   25  N   UNL     1      -9.879   9.425  67.172  1.00  0.00    -0.175 NA 
HETATM   26  C   UNL     1     -10.900  12.144  68.051  1.00  0.00    -0.222 C  
HETATM   27  C   UNL     1      -8.582   9.642  66.537  1.00  0.00    -0.127 C  
HETATM   28  N   UNL     1      -9.934   9.856  68.511  1.00  0.00    -0.155 N  
HETATM   29  C   UNL     1      -8.260  11.142  66.580  1.00  0.00    -0.167 C  
HETATM   30  C   UNL     1      -9.736  11.336  68.640  1.00  0.00    -0.195 C  
HETATM   31  C   UNL     1      -8.393  11.719  67.994  1.00  0.00    -0.154 C  
ENDBRANCH  15  17
ENDBRANCH   6  15
ENDBRANCH   4   6
ENDBRANCH   3   4
ENDBRANCH   2   3
TORSDOF 8
ENDMDL
MODEL      137
REMARK 921   NORMALIZED FREE ENERGY PREDICTED BY IDOCK:   -4.81 KCAL/MOL
REMARK 922        TOTAL FREE ENERGY PREDICTED BY IDOCK:   -8.27 KCAL/MOL
REMARK 923 INTER-LIGAND FREE ENERGY PREDICTED BY IDOCK:   -6.73 KCAL/MOL
REMARK 924 INTRA-LIGAND FREE ENERGY PREDICTED BY IDOCK:   -1.54 KCAL/MOL
REMARK 927      BINDING AFFINITY PREDICTED BY RF-SCORE:    0.00 PKD
ROOT
HETATM    1  C   UNL     1     -14.313   8.162  71.579  1.00  0.00    -0.534 C  
HETATM    2  C   UNL     1     -13.661   9.186  72.488  1.00  0.00    -0.436 C  
ENDROOT
BRANCH   2   3
HETATM    3  O   UNL     1     -12.345   9.497  72.011  1.00  0.00    -0.368 OA 
BRANCH   3   4
HETATM    4  C   UNL     1     -12.258  10.578  71.183  1.00  0.00    -0.391 C  
HETATM    5  O   UNL     1     -12.837  11.648  71.350  1.00  0.00    -0.409 OA 
BRANCH   4   6
HETATM    6  C   UNL     1     -11.302  10.278  70.015  1.00  0.00    -0.301 C  
BRANCH   6   7
HETATM    7  C   UNL     1     -11.782  11.006  68.756  1.00  0.00    -0.383 C  
BRANCH   7   8
HETATM    8  C   UNL     1     -10.714  11.934  68.164  1.00  0.00    -0.246 C  
BRANCH   8   9
HETATM    9  C   UNL     1      -9.885  11.181  67.153  1.00  0.00    -0.212 A  
HETATM   10  C   UNL     1      -8.409   9.609  65.367  1.00  0.00    -0.146 A  
HETATM   11  C   UNL     1      -9.742   9.909  65.093  1.00  0.00    -0.376 A  
HETATM   12  C   UNL     1     -10.478  10.692  65.983  1.00  0.00    -0.250 A  
HETATM   13  C   UNL     1      -7.806  10.102  66.523  1.00  0.00    -0.112 A  
HETATM   14  C   UNL     1      -8.540  10.887  67.413  1.00  0.00    -0.127 A  
ENDBRANCH   8   9
ENDBRANCH   7   8
ENDBRANCH   6   7
BRANCH   6  15
HETATM   15  N   UNL     1     -11.235   8.812  69.862  1.00  0.00    -0.433 NA 
HETATM   16  H   UNL     1     -12.080   8.243  69.915  1.00  0.00     0.000 HD 
BRANCH  15  17
HETATM   17  C   UNL     1      -9.905   8.180  69.627  1.00  0.00    -0.184 C  
HETATM   18  O   UNL     1     -11.295   6.571  68.489  1.00  0.00    -0.258 OA 
HETATM   19  C   UNL     1      -9.106   8.292  70.920  1.00  0.00    -0.176 C  
HETATM   20  O   UNL     1      -9.504   2.054  68.551  1.00  0.00    -0.180 OA 
HETATM   21  O   UNL     1      -9.027   3.318  70.357  1.00  0.00    -0.080 OA 
HETATM   22  C   UNL     1      -7.651   7.885  70.792  1.00  0.00    -0.078 C  
HETATM   23  C   UNL     1     -10.219   6.742  69.086  1.00  0.00    -0.181 C  
HETATM   24  C   UNL     1      -7.520   6.383  70.739  1.00  0.00    -0.087 C  
HETATM   25  N   UNL     1      -7.940   5.801  69.482  1.00  0.00    -0.095 NA 
HETATM   26  C   UNL     1      -9.374   3.160  69.056  1.00  0.00    -0.160 C  
HETATM   27  C   UNL     1      -7.079   6.011  68.321  1.00  0.00    -0.082 C  
HETATM   28  N   UNL     1      -9.306   5.683  69.163  1.00  0.00    -0.121 N  
HETATM   29  C   UNL     1      -7.255   4.828  67.361  1.00  0.00    -0.073 C  
HETATM   30  C   UNL     1      -9.589   4.484  68.310  1.00  0.00    -0.143 C  
HETATM   31  C   UNL     1      -8.730   4.565  67.035  1.00  0.00    -0.104 C  
ENDBRANCH  15  17
ENDBRANCH   6  15
ENDBRANCH   4   6
ENDBRANCH   3   4
ENDBRANCH   2   3
TORSDOF 8
ENDMDL
MODEL      138
REMARK 921   NORMALIZED FREE ENERGY PREDICTED BY IDOCK:   -4.80 KCAL/MOL
REMARK 922        TOTAL FREE ENERGY PREDICTED BY IDOCK:   -8.26 KCAL/MOL
REMARK 923 INTER-LIGAND FREE ENERGY PREDICTED BY IDOCK:   -6.93 KCAL/MOL
REMARK 924 INTRA-LIGAND FREE ENERGY PREDICTED BY IDOCK:   -1.34 KCAL/MOL
REMARK 927      BINDING AFFINITY PREDICTED BY RF-SCORE:    0.00 PKD
ROOT
HETATM    1  C   UNL     1     -12.040  15.776  64.246  1.00  0.00     0.010 C  
HETATM    2  C   UNL     1     -11.980  14.377  64.827  1.00  0.00    -0.447 C  
ENDROOT
BRANCH   2   3
HETATM    3  O   UNL     1     -10.633  13.888  64.791  1.00  0.00    -0.391 OA 
BRANCH   3   4
HETATM    4  C   UNL     1     -10.393  12.766  65.528  1.00  0.00    -0.284 C  
HETATM    5  O   UNL     1      -9.656  11.843  65.196  1.00  0.00    -0.212 OA 
BRANCH   4   6
HETATM    6  C   UNL     1     -11.157  12.834  66.862  1.00  0.00    -0.270 C  
BRANCH   6   7
HETATM    7  C   UNL     1     -10.294  13.535  67.916  1.00  0.00    -0.249 C  
BRANCH   7   8
HETATM    8  C   UNL     1      -8.912  13.934  67.381  1.00  0.00    -0.211 C  
BRANCH   8   9
HETATM    9  C   UNL     1      -7.835  13.339  68.252  1.00  0.00    -0.143 A  
HETATM   10  C   UNL     1      -5.972  12.226  70.021  1.00  0.00    -0.153 A  
HETATM   11  C   UNL     1      -6.805  11.395  69.275  1.00  0.00    -0.119 A  
HETATM   12  C   UNL     1      -7.734  11.949  68.393  1.00  0.00    -0.131 A  
HETATM   13  C   UNL     1      -6.056  13.610  69.878  1.00  0.00    -0.135 A  
HETATM   14  C   UNL     1      -6.982  14.166  68.995  1.00  0.00    -0.112 A  
ENDBRANCH   8   9
ENDBRANCH   7   8
ENDBRANCH   6   7
BRANCH   6  15
HETATM   15  N   UNL     1     -11.534  11.455  67.228  1.00  0.00    -0.504 NA 
HETATM   16  H   UNL     1     -12.094  10.882  66.596  1.00  0.00     0.000 HD 
BRANCH  15  17
HETATM   17  C   UNL     1     -11.078  10.916  68.541  1.00  0.00    -0.256 C  
HETATM   18  O   UNL     1     -10.116   9.246  67.092  1.00  0.00    -0.201 OA 
HETATM   19  C   UNL     1     -12.236  11.053  69.523  1.00  0.00    -0.352 C  
HETATM   20  O   UNL     1      -9.760   4.854  69.144  1.00  0.00    -0.152 OA 
HETATM   21  O   UNL     1     -11.511   6.108  69.818  1.00  0.00    -0.433 OA 
HETATM   22  C   UNL     1     -11.873  10.745  70.963  1.00  0.00    -0.349 C  
HETATM   23  C   UNL     1     -10.546   9.473  68.236  1.00  0.00    -0.216 C  
HETATM   24  C   UNL     1     -11.754   9.255  71.176  1.00  0.00    -0.325 C  
HETATM   25  N   UNL     1     -10.558   8.675  70.602  1.00  0.00    -0.204 NA 
HETATM   26  C   UNL     1     -10.274   5.956  69.284  1.00  0.00    -0.213 C  
HETATM   27  C   UNL     1      -9.286   8.966  71.258  1.00  0.00    -0.266 C  
HETATM   28  N   UNL     1     -10.449   8.475  69.213  1.00  0.00    -0.222 N  
HETATM   29  C   UNL     1      -8.327   7.794  71.007  1.00  0.00    -0.114 C  
HETATM   30  C   UNL     1      -9.612   7.279  68.875  1.00  0.00    -0.143 C  
HETATM   31  C   UNL     1      -8.224   7.443  69.519  1.00  0.00    -0.131 C  
ENDBRANCH  15  17
ENDBRANCH   6  15
ENDBRANCH   4   6
ENDBRANCH   3   4
ENDBRANCH   2   3
TORSDOF 8
ENDMDL
MODEL      139
REMARK 921   NORMALIZED FREE ENERGY PREDICTED BY IDOCK:   -4.80 KCAL/MOL
REMARK 922        TOTAL FREE ENERGY PREDICTED BY IDOCK:   -8.26 KCAL/MOL
REMARK 923 INTER-LIGAND FREE ENERGY PREDICTED BY IDOCK:   -6.66 KCAL/MOL
REMARK 924 INTRA-LIGAND FREE ENERGY PREDICTED BY IDOCK:   -1.60 KCAL/MOL
REMARK 927      BINDING AFFINITY PREDICTED BY RF-SCORE:    0.00 PKD
ROOT
HETATM    1  C   UNL     1      -7.141   2.238  64.738  1.00  0.00    -0.053 C  
HETATM    2  C   UNL     1      -7.806   2.857  65.953  1.00  0.00    -0.081 C  
ENDROOT
BRANCH   2   3
HETATM    3  O   UNL     1      -8.962   3.605  65.552  1.00  0.00    -0.126 OA 
BRANCH   3   4
HETATM    4  C   UNL     1      -8.753   4.932  65.319  1.00  0.00    -0.146 C  
HETATM    5  O   UNL     1      -8.554   5.436  64.217  1.00  0.00    -0.125 OA 
BRANCH   4   6
HETATM    6  C   UNL     1      -8.832   5.722  66.637  1.00  0.00    -0.121 C  
BRANCH   6   7
HETATM    7  C   UNL     1     -10.047   5.255  67.445  1.00  0.00    -0.228 C  
BRANCH   7   8
HETATM    8  C   UNL     1      -9.657   4.596  68.774  1.00  0.00    -0.229 C  
BRANCH   8   9
HETATM    9  C   UNL     1     -10.377   5.274  69.913  1.00  0.00    -0.374 A  
HETATM   10  C   UNL     1     -11.855   6.382  72.017  1.00  0.00    -0.382 A  
HETATM   11  C   UNL     1     -10.889   5.413  72.279  1.00  0.00    -0.286 A  
HETATM   12  C   UNL     1     -10.152   4.860  71.232  1.00  0.00    -0.269 A  
HETATM   13  C   UNL     1     -12.077   6.810  70.709  1.00  0.00    -0.402 A  
HETATM   14  C   UNL     1     -11.340   6.259  69.659  1.00  0.00    -0.492 A  
ENDBRANCH   8   9
ENDBRANCH   7   8
ENDBRANCH   6   7
BRANCH   6  15
HETATM   15  N   UNL     1      -8.866   7.157  66.292  1.00  0.00    -0.145 NA 
HETATM   16  H   UNL     1      -8.624   7.474  65.353  1.00  0.00     0.000 HD 
BRANCH  15  17
HETATM   17  C   UNL     1      -9.261   8.133  67.347  1.00  0.00    -0.137 C  
HETATM   18  O   UNL     1      -9.958   9.375  65.401  1.00  0.00    -0.235 OA 
HETATM   19  C   UNL     1      -8.149   8.163  68.389  1.00  0.00    -0.128 C  
HETATM   20  O   UNL     1      -9.725  14.196  65.976  1.00  0.00    -0.301 OA 
HETATM   21  O   UNL     1      -8.178  13.002  67.104  1.00  0.00    -0.177 OA 
HETATM   22  C   UNL     1      -8.487   8.951  69.640  1.00  0.00    -0.129 C  
HETATM   23  C   UNL     1      -9.581   9.464  66.582  1.00  0.00    -0.192 C  
HETATM   24  C   UNL     1      -8.399  10.434  69.377  1.00  0.00    -0.142 C  
HETATM   25  N   UNL     1      -9.493  10.954  68.584  1.00  0.00    -0.184 NA 
HETATM   26  C   UNL     1      -9.373  13.137  66.478  1.00  0.00    -0.216 C  
HETATM   27  C   UNL     1     -10.803  11.050  69.222  1.00  0.00    -0.238 C  
HETATM   28  N   UNL     1      -9.552  10.722  67.197  1.00  0.00    -0.160 N  
HETATM   29  C   UNL     1     -11.584  12.197  68.568  1.00  0.00    -0.366 C  
HETATM   30  C   UNL     1     -10.208  11.849  66.459  1.00  0.00    -0.203 C  
HETATM   31  C   UNL     1     -11.615  12.075  67.040  1.00  0.00    -0.387 C  
ENDBRANCH  15  17
ENDBRANCH   6  15
ENDBRANCH   4   6
ENDBRANCH   3   4
ENDBRANCH   2   3
TORSDOF 8
ENDMDL
MODEL      140
REMARK 921   NORMALIZED FREE ENERGY PREDICTED BY IDOCK:   -4.80 KCAL/MOL
REMARK 922        TOTAL FREE ENERGY PREDICTED BY IDOCK:   -8.26 KCAL/MOL
REMARK 923 INTER-LIGAND FREE ENERGY PREDICTED BY IDOCK:   -6.41 KCAL/MOL
REMARK 924 INTRA-LIGAND FREE ENERGY PREDICTED BY IDOCK:   -1.84 KCAL/MOL
REMARK 927      BINDING AFFINITY PREDICTED BY RF-SCORE:    0.00 PKD
ROOT
HETATM    1  C   UNL     1     -10.973   6.439  68.853  1.00  0.00    -0.412 C  
HETATM    2  C   UNL     1     -11.012   6.590  67.345  1.00  0.00    -0.378 C  
ENDROOT
BRANCH   2   3
HETATM    3  O   UNL     1     -10.497   7.874  66.967  1.00  0.00    -0.315 OA 
BRANCH   3   4
HETATM    4  C   UNL     1      -9.420   7.853  66.129  1.00  0.00    -0.088 C  
HETATM    5  O   UNL     1      -8.820   6.844  65.771  1.00  0.00    -0.145 OA 
BRANCH   4   6
HETATM    6  C   UNL     1      -9.079   9.281  65.668  1.00  0.00    -0.216 C  
BRANCH   6   7
HETATM    7  C   UNL     1      -7.597   9.567  65.934  1.00  0.00    -0.100 C  
BRANCH   7   8
HETATM    8  C   UNL     1      -7.214   9.384  67.408  1.00  0.00    -0.087 C  
BRANCH   8   9
HETATM    9  C   UNL     1      -6.668  10.677  67.960  1.00  0.00    -0.064 A  
HETATM   10  C   UNL     1      -5.848  13.138  69.013  1.00  0.00    -0.079 A  
HETATM   11  C   UNL     1      -6.091  12.063  69.865  1.00  0.00    -0.150 A  
HETATM   12  C   UNL     1      -6.499  10.836  69.341  1.00  0.00    -0.076 A  
HETATM   13  C   UNL     1      -6.000  12.987  67.636  1.00  0.00    -0.145 A  
HETATM   14  C   UNL     1      -6.407  11.760  67.109  1.00  0.00    -0.145 A  
ENDBRANCH   8   9
ENDBRANCH   7   8
ENDBRANCH   6   7
BRANCH   6  15
HETATM   15  N   UNL     1      -9.995  10.204  66.365  1.00  0.00    -0.223 NA 
HETATM   16  H   UNL     1     -10.672   9.853  67.043  1.00  0.00     0.000 HD 
BRANCH  15  17
HETATM   17  C   UNL     1      -9.909  11.660  66.057  1.00  0.00    -0.230 C  
HETATM   18  O   UNL     1      -9.716  11.768  68.459  1.00  0.00    -0.200 OA 
HETATM   19  C   UNL     1     -10.938  11.965  64.975  1.00  0.00    -0.365 C  
HETATM   20  O   UNL     1     -11.495  15.864  70.377  1.00  0.00    -0.324 OA 
HETATM   21  O   UNL     1     -12.532  15.128  68.514  1.00  0.00     0.062 OA 
HETATM   22  C   UNL     1     -10.840  13.362  64.396  1.00  0.00    -0.422 C  
HETATM   23  C   UNL     1     -10.066  12.386  67.439  1.00  0.00    -0.201 C  
HETATM   24  C   UNL     1     -11.415  14.378  65.352  1.00  0.00    -0.344 C  
HETATM   25  N   UNL     1     -10.576  14.643  66.501  1.00  0.00    -0.294 NA 
HETATM   26  C   UNL     1     -11.466  15.202  69.348  1.00  0.00    -0.306 C  
HETATM   27  C   UNL     1      -9.351  15.406  66.280  1.00  0.00    -0.316 C  
HETATM   28  N   UNL     1     -10.486  13.716  67.556  1.00  0.00    -0.240 N  
HETATM   29  C   UNL     1      -9.008  16.166  67.568  1.00  0.00    -0.197 C  
HETATM   30  C   UNL     1     -10.257  14.382  68.880  1.00  0.00    -0.213 C  
HETATM   31  C   UNL     1      -8.984  15.243  68.792  1.00  0.00    -0.200 C  
ENDBRANCH  15  17
ENDBRANCH   6  15
ENDBRANCH   4   6
ENDBRANCH   3   4
ENDBRANCH   2   3
TORSDOF 8
ENDMDL
MODEL      141
REMARK 921   NORMALIZED FREE ENERGY PREDICTED BY IDOCK:   -4.79 KCAL/MOL
REMARK 922        TOTAL FREE ENERGY PREDICTED BY IDOCK:   -8.24 KCAL/MOL
REMARK 923 INTER-LIGAND FREE ENERGY PREDICTED BY IDOCK:   -7.09 KCAL/MOL
REMARK 924 INTRA-LIGAND FREE ENERGY PREDICTED BY IDOCK:   -1.15 KCAL/MOL
REMARK 927      BINDING AFFINITY PREDICTED BY RF-SCORE:    0.00 PKD
ROOT
HETATM    1  C   UNL     1     -12.872  15.324  70.641  1.00  0.00    -0.462 C  
HETATM    2  C   UNL     1     -11.659  15.236  69.736  1.00  0.00    -0.314 C  
ENDROOT
BRANCH   2   3
HETATM    3  O   UNL     1     -11.533  13.907  69.212  1.00  0.00    -0.265 OA 
BRANCH   3   4
HETATM    4  C   UNL     1     -11.632  13.797  67.856  1.00  0.00    -0.341 C  
HETATM    5  O   UNL     1     -12.492  14.330  67.162  1.00  0.00    -0.266 OA 
BRANCH   4   6
HETATM    6  C   UNL     1     -10.486  12.928  67.309  1.00  0.00    -0.234 C  
BRANCH   6   7
HETATM    7  C   UNL     1      -9.678  13.728  66.282  1.00  0.00    -0.297 C  
BRANCH   7   8
HETATM    8  C   UNL     1      -9.373  15.157  66.751  1.00  0.00    -0.268 C  
BRANCH   8   9
HETATM    9  C   UNL     1      -8.186  15.148  67.682  1.00  0.00    -0.178 A  
HETATM   10  C   UNL     1      -5.888  15.253  69.277  1.00  0.00    -0.099 A  
HETATM   11  C   UNL     1      -6.871  16.232  69.407  1.00  0.00    -0.213 A  
HETATM   12  C   UNL     1      -8.017  16.180  68.613  1.00  0.00    -0.201 A  
HETATM   13  C   UNL     1      -6.054  14.214  68.363  1.00  0.00    -0.101 A  
HETATM   14  C   UNL     1      -7.200  14.159  67.569  1.00  0.00    -0.188 A  
ENDBRANCH   8   9
ENDBRANCH   7   8
ENDBRANCH   6   7
BRANCH   6  15
HETATM   15  N   UNL     1     -11.086  11.696  66.761  1.00  0.00    -0.298 NA 
HETATM   16  H   UNL     1     -11.904  11.741  66.152  1.00  0.00     0.000 HD 
BRANCH  15  17
HETATM   17  C   UNL     1     -10.472  10.385  67.116  1.00  0.00    -0.256 C  
HETATM   18  O   UNL     1     -12.181  10.476  68.815  1.00  0.00    -0.286 OA 
HETATM   19  C   UNL     1      -8.960  10.537  67.001  1.00  0.00    -0.149 C  
HETATM   20  O   UNL     1     -10.975   8.169  72.920  1.00  0.00    -0.364 OA 
HETATM   21  O   UNL     1      -9.265   9.113  71.791  1.00  0.00    -0.338 OA 
HETATM   22  C   UNL     1      -8.191   9.236  67.125  1.00  0.00    -0.117 C  
HETATM   23  C   UNL     1     -11.065  10.016  68.520  1.00  0.00    -0.167 C  
HETATM   24  C   UNL     1      -8.125   8.791  68.566  1.00  0.00    -0.116 C  
HETATM   25  N   UNL     1      -9.373   8.265  69.074  1.00  0.00    -0.147 NA 
HETATM   26  C   UNL     1     -10.513   8.592  71.868  1.00  0.00    -0.340 C  
HETATM   27  C   UNL     1      -9.800   6.955  68.591  1.00  0.00    -0.145 C  
HETATM   28  N   UNL     1     -10.439   9.125  69.400  1.00  0.00    -0.216 N  
HETATM   29  C   UNL     1     -10.653   6.286  69.677  1.00  0.00    -0.323 C  
HETATM   30  C   UNL     1     -11.269   8.599  70.532  1.00  0.00    -0.241 C  
HETATM   31  C   UNL     1     -11.786   7.198  70.163  1.00  0.00    -0.165 C  
ENDBRANCH  15  17
ENDBRANCH   6  15
ENDBRANCH   4   6
ENDBRANCH   3   4
ENDBRANCH   2   3
TORSDOF 8
ENDMDL
MODEL      142
REMARK 921   NORMALIZED FREE ENERGY PREDICTED BY IDOCK:   -4.79 KCAL/MOL
REMARK 922        TOTAL FREE ENERGY PREDICTED BY IDOCK:   -8.23 KCAL/MOL
REMARK 923 INTER-LIGAND FREE ENERGY PREDICTED BY IDOCK:   -7.07 KCAL/MOL
REMARK 924 INTRA-LIGAND FREE ENERGY PREDICTED BY IDOCK:   -1.16 KCAL/MOL
REMARK 927      BINDING AFFINITY PREDICTED BY RF-SCORE:    0.00 PKD
ROOT
HETATM    1  C   UNL     1      -7.663   2.633  65.563  1.00  0.00    -0.077 C  
HETATM    2  C   UNL     1      -8.368   3.974  65.509  1.00  0.00    -0.109 C  
ENDROOT
BRANCH   2   3
HETATM    3  O   UNL     1      -8.949   4.275  66.785  1.00  0.00    -0.113 OA 
BRANCH   3   4
HETATM    4  C   UNL     1     -10.076   5.042  66.754  1.00  0.00    -0.239 C  
HETATM    5  O   UNL     1     -11.031   4.870  66.002  1.00  0.00    -0.245 OA 
BRANCH   4   6
HETATM    6  C   UNL     1      -9.997   6.146  67.823  1.00  0.00    -0.127 C  
BRANCH   6   7
HETATM    7  C   UNL     1     -10.868   5.764  69.024  1.00  0.00    -0.330 C  
BRANCH   7   8
HETATM    8  C   UNL     1     -10.409   6.433  70.326  1.00  0.00    -0.252 C  
BRANCH   8   9
HETATM    9  C   UNL     1     -11.387   7.513  70.717  1.00  0.00    -0.300 A  
HETATM   10  C   UNL     1     -13.113   9.520  71.629  1.00  0.00    -0.486 A  
HETATM   11  C   UNL     1     -11.878   9.860  71.082  1.00  0.00    -0.472 A  
HETATM   12  C   UNL     1     -11.017   8.861  70.627  1.00  0.00    -0.287 A  
HETATM   13  C   UNL     1     -13.495   8.182  71.712  1.00  0.00    -0.381 A  
HETATM   14  C   UNL     1     -12.637   7.181  71.256  1.00  0.00    -0.421 A  
ENDBRANCH   8   9
ENDBRANCH   7   8
ENDBRANCH   6   7
BRANCH   6  15
HETATM   15  N   UNL     1     -10.397   7.414  67.182  1.00  0.00    -0.276 NA 
HETATM   16  H   UNL     1     -11.357   7.561  66.871  1.00  0.00     0.000 HD 
BRANCH  15  17
HETATM   17  C   UNL     1      -9.366   8.476  66.998  1.00  0.00    -0.161 C  
HETATM   18  O   UNL     1     -11.278   9.876  67.441  1.00  0.00    -0.163 OA 
HETATM   19  C   UNL     1      -8.490   8.070  65.819  1.00  0.00    -0.159 C  
HETATM   20  O   UNL     1     -11.068  14.213  65.257  1.00  0.00    -0.307 OA 
HETATM   21  O   UNL     1     -10.084  12.513  64.148  1.00  0.00    -0.337 OA 
HETATM   22  C   UNL     1      -7.261   8.937  65.627  1.00  0.00    -0.085 C  
HETATM   23  C   UNL     1     -10.169   9.818  66.884  1.00  0.00    -0.245 C  
HETATM   24  C   UNL     1      -7.634  10.262  65.007  1.00  0.00    -0.124 C  
HETATM   25  N   UNL     1      -8.303  11.166  65.917  1.00  0.00    -0.123 NA 
HETATM   26  C   UNL     1     -10.548  13.105  65.275  1.00  0.00    -0.313 C  
HETATM   27  C   UNL     1      -7.500  11.779  66.972  1.00  0.00    -0.137 C  
HETATM   28  N   UNL     1      -9.650  10.966  66.273  1.00  0.00    -0.193 N  
HETATM   29  C   UNL     1      -8.117  13.137  67.332  1.00  0.00    -0.181 C  
HETATM   30  C   UNL     1     -10.366  12.255  66.540  1.00  0.00    -0.227 C  
HETATM   31  C   UNL     1      -9.615  13.025  67.640  1.00  0.00    -0.206 C  
ENDBRANCH  15  17
ENDBRANCH   6  15
ENDBRANCH   4   6
ENDBRANCH   3   4
ENDBRANCH   2   3
TORSDOF 8
ENDMDL
MODEL      143
REMARK 921   NORMALIZED FREE ENERGY PREDICTED BY IDOCK:   -4.78 KCAL/MOL
REMARK 922        TOTAL FREE ENERGY PREDICTED BY IDOCK:   -8.22 KCAL/MOL
REMARK 923 INTER-LIGAND FREE ENERGY PREDICTED BY IDOCK:   -7.25 KCAL/MOL
REMARK 924 INTRA-LIGAND FREE ENERGY PREDICTED BY IDOCK:   -0.97 KCAL/MOL
REMARK 927      BINDING AFFINITY PREDICTED BY RF-SCORE:    0.00 PKD
ROOT
HETATM    1  C   UNL     1      -8.779  18.039  66.535  1.00  0.00    -0.279 C  
HETATM    2  C   UNL     1      -7.868  16.829  66.460  1.00  0.00    -0.303 C  
ENDROOT
BRANCH   2   3
HETATM    3  O   UNL     1      -8.650  15.627  66.451  1.00  0.00    -0.285 OA 
BRANCH   3   4
HETATM    4  C   UNL     1      -9.074  15.190  67.671  1.00  0.00    -0.180 C  
HETATM    5  O   UNL     1      -8.616  15.552  68.752  1.00  0.00    -0.161 OA 
BRANCH   4   6
HETATM    6  C   UNL     1     -10.236  14.196  67.506  1.00  0.00    -0.241 C  
BRANCH   6   7
HETATM    7  C   UNL     1     -11.467  14.714  68.257  1.00  0.00    -0.337 C  
BRANCH   7   8
HETATM    8  C   UNL     1     -12.056  13.673  69.219  1.00  0.00    -0.360 C  
BRANCH   8   9
HETATM    9  C   UNL     1     -12.305  14.303  70.566  1.00  0.00    -0.430 A  
HETATM   10  C   UNL     1     -12.591  15.390  73.130  1.00  0.00    -0.580 A  
HETATM   11  C   UNL     1     -11.869  16.080  72.158  1.00  0.00    -0.623 A  
HETATM   12  C   UNL     1     -11.726  15.539  70.880  1.00  0.00    -0.413 A  
HETATM   13  C   UNL     1     -13.182  14.166  72.823  1.00  0.00    -0.604 A  
HETATM   14  C   UNL     1     -13.042  13.624  71.545  1.00  0.00    -0.431 A  
ENDBRANCH   8   9
ENDBRANCH   7   8
ENDBRANCH   6   7
BRANCH   6  15
HETATM   15  N   UNL     1      -9.765  12.880  67.978  1.00  0.00    -0.218 NA 
HETATM   16  H   UNL     1     -10.320  12.332  68.636  1.00  0.00     0.000 HD 
BRANCH  15  17
HETATM   17  C   UNL     1      -8.459  12.368  67.472  1.00  0.00    -0.175 C  
HETATM   18  O   UNL     1      -9.928  11.276  65.902  1.00  0.00    -0.216 OA 
HETATM   19  C   UNL     1      -7.604  12.009  68.682  1.00  0.00    -0.112 C  
HETATM   20  O   UNL     1      -8.228   7.026  64.269  1.00  0.00    -0.074 OA 
HETATM   21  O   UNL     1      -7.650   7.562  66.383  1.00  0.00    -0.085 OA 
HETATM   22  C   UNL     1      -6.164  11.668  68.350  1.00  0.00    -0.050 C  
HETATM   23  C   UNL     1      -8.824  11.218  66.470  1.00  0.00    -0.179 C  
HETATM   24  C   UNL     1      -6.066  10.283  67.760  1.00  0.00    -0.056 C  
HETATM   25  N   UNL     1      -6.550  10.189  66.400  1.00  0.00    -0.079 NA 
HETATM   26  C   UNL     1      -8.054   7.879  65.129  1.00  0.00    -0.144 C  
HETATM   27  C   UNL     1      -5.735  10.795  65.351  1.00  0.00    -0.103 C  
HETATM   28  N   UNL     1      -7.930  10.198  66.123  1.00  0.00    -0.120 N  
HETATM   29  C   UNL     1      -5.975  10.033  64.041  1.00  0.00    -0.131 C  
HETATM   30  C   UNL     1      -8.273   9.383  64.913  1.00  0.00    -0.142 C  
HETATM   31  C   UNL     1      -7.467   9.909  63.712  1.00  0.00    -0.136 C  
ENDBRANCH  15  17
ENDBRANCH   6  15
ENDBRANCH   4   6
ENDBRANCH   3   4
ENDBRANCH   2   3
TORSDOF 8
ENDMDL
MODEL      144
REMARK 921   NORMALIZED FREE ENERGY PREDICTED BY IDOCK:   -4.78 KCAL/MOL
REMARK 922        TOTAL FREE ENERGY PREDICTED BY IDOCK:   -8.22 KCAL/MOL
REMARK 923 INTER-LIGAND FREE ENERGY PREDICTED BY IDOCK:   -6.78 KCAL/MOL
REMARK 924 INTRA-LIGAND FREE ENERGY PREDICTED BY IDOCK:   -1.44 KCAL/MOL
REMARK 927      BINDING AFFINITY PREDICTED BY RF-SCORE:    0.00 PKD
ROOT
HETATM    1  C   UNL     1     -13.120  10.312  71.323  1.00  0.00    -0.492 C  
HETATM    2  C   UNL     1     -11.747  10.578  70.737  1.00  0.00    -0.356 C  
ENDROOT
BRANCH   2   3
HETATM    3  O   UNL     1     -11.689  11.910  70.209  1.00  0.00    -0.303 OA 
BRANCH   3   4
HETATM    4  C   UNL     1     -11.670  12.005  68.849  1.00  0.00    -0.326 C  
HETATM    5  O   UNL     1     -12.390  11.370  68.083  1.00  0.00    -0.502 OA 
BRANCH   4   6
HETATM    6  C   UNL     1     -10.632  13.050  68.404  1.00  0.00    -0.251 C  
BRANCH   6   7
HETATM    7  C   UNL     1     -11.114  14.452  68.791  1.00  0.00    -0.275 C  
BRANCH   7   8
HETATM    8  C   UNL     1     -11.016  15.454  67.632  1.00  0.00    -0.315 C  
BRANCH   8   9
HETATM    9  C   UNL     1     -10.038  16.547  67.983  1.00  0.00    -0.255 A  
HETATM   10  C   UNL     1      -8.177  18.589  68.434  1.00  0.00    -0.351 A  
HETATM   11  C   UNL     1      -9.496  18.907  68.117  1.00  0.00    -0.377 A  
HETATM   12  C   UNL     1     -10.424  17.890  67.893  1.00  0.00    -0.404 A  
HETATM   13  C   UNL     1      -7.786  17.256  68.538  1.00  0.00    -0.261 A  
HETATM   14  C   UNL     1      -8.713  16.236  68.316  1.00  0.00    -0.190 A  
ENDBRANCH   8   9
ENDBRANCH   7   8
ENDBRANCH   6   7
BRANCH   6  15
HETATM   15  N   UNL     1     -10.421  12.876  66.954  1.00  0.00    -0.245 NA 
HETATM   16  H   UNL     1     -11.180  13.041  66.293  1.00  0.00     0.000 HD 
BRANCH  15  17
HETATM   17  C   UNL     1      -9.073  12.453  66.476  1.00  0.00    -0.181 C  
HETATM   18  O   UNL     1     -10.407  10.759  65.396  1.00  0.00    -0.270 OA 
HETATM   19  C   UNL     1      -8.108  12.578  67.648  1.00  0.00    -0.171 C  
HETATM   20  O   UNL     1      -8.074   6.540  64.776  1.00  0.00    -0.128 OA 
HETATM   21  O   UNL     1      -7.491   7.719  66.610  1.00  0.00    -0.086 OA 
HETATM   22  C   UNL     1      -6.649  12.386  67.279  1.00  0.00    -0.136 C  
HETATM   23  C   UNL     1      -9.282  11.031  65.850  1.00  0.00    -0.199 C  
HETATM   24  C   UNL     1      -6.340  10.925  67.066  1.00  0.00    -0.080 C  
HETATM   25  N   UNL     1      -6.869  10.388  65.831  1.00  0.00    -0.125 NA 
HETATM   26  C   UNL     1      -8.008   7.613  65.361  1.00  0.00    -0.123 C  
HETATM   27  C   UNL     1      -6.228  10.801  64.586  1.00  0.00     0.182 C  
HETATM   28  N   UNL     1      -8.242  10.106  65.697  1.00  0.00    -0.144 N  
HETATM   29  C   UNL     1      -6.398   9.681  63.551  1.00  0.00    -0.108 C  
HETATM   30  C   UNL     1      -8.499   8.947  64.782  1.00  0.00    -0.176 C  
HETATM   31  C   UNL     1      -7.861   9.242  63.412  1.00  0.00    -0.131 C  
ENDBRANCH  15  17
ENDBRANCH   6  15
ENDBRANCH   4   6
ENDBRANCH   3   4
ENDBRANCH   2   3
TORSDOF 8
ENDMDL
MODEL      145
REMARK 921   NORMALIZED FREE ENERGY PREDICTED BY IDOCK:   -4.75 KCAL/MOL
REMARK 922        TOTAL FREE ENERGY PREDICTED BY IDOCK:   -8.19 KCAL/MOL
REMARK 923 INTER-LIGAND FREE ENERGY PREDICTED BY IDOCK:   -7.48 KCAL/MOL
REMARK 924 INTRA-LIGAND FREE ENERGY PREDICTED BY IDOCK:   -0.71 KCAL/MOL
REMARK 927      BINDING AFFINITY PREDICTED BY RF-SCORE:    0.00 PKD
ROOT
HETATM    1  C   UNL     1      -7.683  10.021  65.758  1.00  0.00    -0.122 C  
HETATM    2  C   UNL     1      -8.951  10.706  66.231  1.00  0.00    -0.165 C  
ENDROOT
BRANCH   2   3
HETATM    3  O   UNL     1      -9.677   9.839  67.112  1.00  0.00    -0.163 OA 
BRANCH   3   4
HETATM    4  C   UNL     1      -9.861  10.307  68.380  1.00  0.00    -0.156 C  
HETATM    5  O   UNL     1      -9.037  10.949  69.025  1.00  0.00    -0.163 OA 
BRANCH   4   6
HETATM    6  C   UNL     1     -11.269   9.942  68.883  1.00  0.00    -0.079 C  
BRANCH   6   7
HETATM    7  C   UNL     1     -12.036  11.219  69.240  1.00  0.00    -0.411 C  
BRANCH   7   8
HETATM    8  C   UNL     1     -12.164  11.430  70.754  1.00  0.00    -0.475 C  
BRANCH   8   9
HETATM    9  C   UNL     1     -12.630  12.836  71.037  1.00  0.00    -0.362 A  
HETATM   10  C   UNL     1     -13.332  15.468  71.685  1.00  0.00    -0.585 A  
HETATM   11  C   UNL     1     -12.459  15.221  70.628  1.00  0.00    -0.458 A  
HETATM   12  C   UNL     1     -12.109  13.910  70.304  1.00  0.00    -0.423 A  
HETATM   13  C   UNL     1     -13.867  14.406  72.412  1.00  0.00    -0.595 A  
HETATM   14  C   UNL     1     -13.519  13.093  72.089  1.00  0.00    -0.653 A  
ENDBRANCH   8   9
ENDBRANCH   7   8
ENDBRANCH   6   7
BRANCH   6  15
HETATM   15  N   UNL     1     -11.107   9.012  70.017  1.00  0.00    -0.345 NA 
HETATM   16  H   UNL     1     -11.863   8.871  70.687  1.00  0.00     0.000 HD 
BRANCH  15  17
HETATM   17  C   UNL     1      -9.815   8.283  70.162  1.00  0.00    -0.184 C  
HETATM   18  O   UNL     1     -11.154   6.501  69.242  1.00  0.00    -0.300 OA 
HETATM   19  C   UNL     1      -9.205   8.686  71.499  1.00  0.00    -0.316 C  
HETATM   20  O   UNL     1      -9.774   2.073  70.697  1.00  0.00    -0.110 OA 
HETATM   21  O   UNL     1      -9.461   3.733  72.191  1.00  0.00    -0.119 OA 
HETATM   22  C   UNL     1      -7.786   8.195  71.711  1.00  0.00    -0.135 C  
HETATM   23  C   UNL     1     -10.166   6.770  69.946  1.00  0.00    -0.190 C  
HETATM   24  C   UNL     1      -7.775   6.725  72.050  1.00  0.00    -0.095 C  
HETATM   25  N   UNL     1      -8.054   5.862  70.923  1.00  0.00    -0.118 NA 
HETATM   26  C   UNL     1      -9.627   3.265  70.930  1.00  0.00    -0.164 C  
HETATM   27  C   UNL     1      -7.020   5.730  69.901  1.00  0.00    -0.066 C  
HETATM   28  N   UNL     1      -9.365   5.726  70.426  1.00  0.00    -0.155 N  
HETATM   29  C   UNL     1      -7.153   4.350  69.243  1.00  0.00    -0.051 C  
HETATM   30  C   UNL     1      -9.620   4.363  69.858  1.00  0.00    -0.205 C  
HETATM   31  C   UNL     1      -8.582   4.078  68.758  1.00  0.00    -0.114 C  
ENDBRANCH  15  17
ENDBRANCH   6  15
ENDBRANCH   4   6
ENDBRANCH   3   4
ENDBRANCH   2   3
TORSDOF 8
ENDMDL
MODEL      146
REMARK 921   NORMALIZED FREE ENERGY PREDICTED BY IDOCK:   -4.73 KCAL/MOL
REMARK 922        TOTAL FREE ENERGY PREDICTED BY IDOCK:   -8.16 KCAL/MOL
REMARK 923 INTER-LIGAND FREE ENERGY PREDICTED BY IDOCK:   -7.66 KCAL/MOL
REMARK 924 INTRA-LIGAND FREE ENERGY PREDICTED BY IDOCK:   -0.50 KCAL/MOL
REMARK 927      BINDING AFFINITY PREDICTED BY RF-SCORE:    0.00 PKD
ROOT
HETATM    1  C   UNL     1     -13.264   8.992  72.068  1.00  0.00    -0.486 C  
HETATM    2  C   UNL     1     -13.156  10.498  71.932  1.00  0.00    -0.462 C  
ENDROOT
BRANCH   2   3
HETATM    3  O   UNL     1     -12.834  10.847  70.578  1.00  0.00    -0.300 OA 
BRANCH   3   4
HETATM    4  C   UNL     1     -12.310  12.093  70.400  1.00  0.00    -0.233 C  
HETATM    5  O   UNL     1     -12.321  12.994  71.234  1.00  0.00    -0.281 OA 
BRANCH   4   6
HETATM    6  C   UNL     1     -11.669  12.204  69.005  1.00  0.00    -0.322 C  
BRANCH   6   7
HETATM    7  C   UNL     1     -12.145  13.490  68.321  1.00  0.00    -0.295 C  
BRANCH   7   8
HETATM    8  C   UNL     1     -11.760  14.754  69.100  1.00  0.00    -0.344 C  
BRANCH   8   9
HETATM    9  C   UNL     1     -10.974  15.684  68.210  1.00  0.00    -0.315 A  
HETATM   10  C   UNL     1      -9.691  17.505  66.514  1.00  0.00    -0.302 A  
HETATM   11  C   UNL     1      -9.901  17.830  67.852  1.00  0.00    -0.306 A  
HETATM   12  C   UNL     1     -10.540  16.923  68.699  1.00  0.00    -0.360 A  
HETATM   13  C   UNL     1     -10.108  16.270  66.022  1.00  0.00    -0.377 A  
HETATM   14  C   UNL     1     -10.745  15.360  66.867  1.00  0.00    -0.314 A  
ENDBRANCH   8   9
ENDBRANCH   7   8
ENDBRANCH   6   7
BRANCH   6  15
HETATM   15  N   UNL     1     -12.009  10.977  68.261  1.00  0.00    -0.757 NA 
HETATM   16  H   UNL     1     -12.920  10.532  68.377  1.00  0.00     0.000 HD 
BRANCH  15  17
HETATM   17  C   UNL     1     -10.992  10.400  67.335  1.00  0.00    -0.270 C  
HETATM   18  O   UNL     1     -10.850   8.777  69.112  1.00  0.00    -0.173 OA 
HETATM   19  C   UNL     1     -10.175  11.556  66.769  1.00  0.00    -0.254 C  
HETATM   20  O   UNL     1      -6.453   6.753  69.558  1.00  0.00    -0.041 OA 
HETATM   21  O   UNL     1      -6.476   8.891  68.838  1.00  0.00    -0.047 OA 
HETATM   22  C   UNL     1      -9.233  11.163  65.648  1.00  0.00    -0.238 C  
HETATM   23  C   UNL     1     -10.236   9.313  68.174  1.00  0.00    -0.205 C  
HETATM   24  C   UNL     1      -8.017  10.457  66.196  1.00  0.00    -0.138 C  
HETATM   25  N   UNL     1      -8.276   9.105  66.640  1.00  0.00    -0.114 NA 
HETATM   26  C   UNL     1      -7.051   7.677  69.023  1.00  0.00    -0.078 C  
HETATM   27  C   UNL     1      -8.519   8.092  65.617  1.00  0.00    -0.156 C  
HETATM   28  N   UNL     1      -8.950   8.861  67.852  1.00  0.00    -0.139 N  
HETATM   29  C   UNL     1      -8.071   6.729  66.159  1.00  0.00    -0.115 C  
HETATM   30  C   UNL     1      -8.495   7.594  68.512  1.00  0.00    -0.129 C  
HETATM   31  C   UNL     1      -8.686   6.424  67.531  1.00  0.00    -0.113 C  
ENDBRANCH  15  17
ENDBRANCH   6  15
ENDBRANCH   4   6
ENDBRANCH   3   4
ENDBRANCH   2   3
TORSDOF 8
ENDMDL
MODEL      147
REMARK 921   NORMALIZED FREE ENERGY PREDICTED BY IDOCK:   -4.73 KCAL/MOL
REMARK 922        TOTAL FREE ENERGY PREDICTED BY IDOCK:   -8.16 KCAL/MOL
REMARK 923 INTER-LIGAND FREE ENERGY PREDICTED BY IDOCK:   -6.62 KCAL/MOL
REMARK 924 INTRA-LIGAND FREE ENERGY PREDICTED BY IDOCK:   -1.53 KCAL/MOL
REMARK 927      BINDING AFFINITY PREDICTED BY RF-SCORE:    0.00 PKD
ROOT
HETATM    1  C   UNL     1      -5.574   9.123  66.753  1.00  0.00    -0.040 C  
HETATM    2  C   UNL     1      -5.239   9.300  68.222  1.00  0.00    -0.037 C  
ENDROOT
BRANCH   2   3
HETATM    3  O   UNL     1      -6.362   8.922  69.030  1.00  0.00    -0.043 OA 
BRANCH   3   4
HETATM    4  C   UNL     1      -7.234   9.927  69.333  1.00  0.00    -0.083 C  
HETATM    5  O   UNL     1      -6.917  11.075  69.631  1.00  0.00    -0.127 OA 
BRANCH   4   6
HETATM    6  C   UNL     1      -8.683   9.424  69.218  1.00  0.00    -0.145 C  
BRANCH   6   7
HETATM    7  C   UNL     1      -8.740   7.931  69.558  1.00  0.00    -0.134 C  
BRANCH   7   8
HETATM    8  C   UNL     1     -10.147   7.340  69.403  1.00  0.00    -0.183 C  
BRANCH   8   9
HETATM    9  C   UNL     1     -10.120   6.205  68.410  1.00  0.00    -0.186 A  
HETATM   10  C   UNL     1      -9.888   4.172  66.501  1.00  0.00    -0.214 A  
HETATM   11  C   UNL     1      -9.312   4.013  67.759  1.00  0.00    -0.221 A  
HETATM   12  C   UNL     1      -9.427   5.026  68.712  1.00  0.00    -0.192 A  
HETATM   13  C   UNL     1     -10.591   5.336  66.196  1.00  0.00    -0.251 A  
HETATM   14  C   UNL     1     -10.709   6.350  67.147  1.00  0.00    -0.433 A  
ENDBRANCH   8   9
ENDBRANCH   7   8
ENDBRANCH   6   7
BRANCH   6  15
HETATM   15  N   UNL     1      -9.155   9.739  67.856  1.00  0.00    -0.121 NA 
HETATM   16  H   UNL     1      -8.750   9.274  67.043  1.00  0.00     0.000 HD 
BRANCH  15  17
HETATM   17  C   UNL     1     -10.237  10.752  67.693  1.00  0.00    -0.189 C  
HETATM   18  O   UNL     1      -8.584  11.724  66.230  1.00  0.00    -0.158 OA 
HETATM   19  C   UNL     1     -10.842  11.006  69.068  1.00  0.00    -0.274 C  
HETATM   20  O   UNL     1      -8.832  16.570  65.952  1.00  0.00    -0.464 OA 
HETATM   21  O   UNL     1      -9.427  15.674  67.935  1.00  0.00    -0.203 OA 
HETATM   22  C   UNL     1     -12.097  11.857  69.050  1.00  0.00    -0.245 C  
HETATM   23  C   UNL     1      -9.565  11.962  66.955  1.00  0.00    -0.189 C  
HETATM   24  C   UNL     1     -11.754  13.311  68.835  1.00  0.00    -0.327 C  
HETATM   25  N   UNL     1     -11.353  13.625  67.481  1.00  0.00    -0.294 NA 
HETATM   26  C   UNL     1      -9.233  15.609  66.596  1.00  0.00    -0.266 C  
HETATM   27  C   UNL     1     -12.388  13.620  66.452  1.00  0.00    -0.389 C  
HETATM   28  N   UNL     1     -10.078  13.264  67.005  1.00  0.00    -0.239 N  
HETATM   29  C   UNL     1     -11.984  14.604  65.345  1.00  0.00    -0.275 C  
HETATM   30  C   UNL     1      -9.553  14.235  65.991  1.00  0.00    -0.243 C  
HETATM   31  C   UNL     1     -10.562  14.343  64.834  1.00  0.00    -0.456 C  
ENDBRANCH  15  17
ENDBRANCH   6  15
ENDBRANCH   4   6
ENDBRANCH   3   4
ENDBRANCH   2   3
TORSDOF 8
ENDMDL
MODEL      148
REMARK 921   NORMALIZED FREE ENERGY PREDICTED BY IDOCK:   -4.73 KCAL/MOL
REMARK 922        TOTAL FREE ENERGY PREDICTED BY IDOCK:   -8.15 KCAL/MOL
REMARK 923 INTER-LIGAND FREE ENERGY PREDICTED BY IDOCK:   -7.29 KCAL/MOL
REMARK 924 INTRA-LIGAND FREE ENERGY PREDICTED BY IDOCK:   -0.86 KCAL/MOL
REMARK 927      BINDING AFFINITY PREDICTED BY RF-SCORE:    0.00 PKD
ROOT
HETATM    1  C   UNL     1     -12.223  14.658  64.280  1.00  0.00    -0.432 C  
HETATM    2  C   UNL     1     -11.187  13.552  64.347  1.00  0.00    -0.379 C  
ENDROOT
BRANCH   2   3
HETATM    3  O   UNL     1     -11.269  12.879  65.610  1.00  0.00    -0.285 OA 
BRANCH   3   4
HETATM    4  C   UNL     1     -10.405  13.320  66.569  1.00  0.00    -0.285 C  
HETATM    5  O   UNL     1      -9.475  14.100  66.382  1.00  0.00    -0.283 OA 
BRANCH   4   6
HETATM    6  C   UNL     1     -10.780  12.723  67.937  1.00  0.00    -0.219 C  
BRANCH   6   7
HETATM    7  C   UNL     1     -11.679  13.703  68.698  1.00  0.00    -0.389 C  
BRANCH   7   8
HETATM    8  C   UNL     1     -12.365  13.059  69.910  1.00  0.00    -0.177 C  
BRANCH   8   9
HETATM    9  C   UNL     1     -12.705  14.119  70.928  1.00  0.00    -0.432 A  
HETATM   10  C   UNL     1     -13.295  15.947  72.965  1.00  0.00    -0.663 A  
HETATM   11  C   UNL     1     -11.983  15.799  72.521  1.00  0.00    -0.600 A  
HETATM   12  C   UNL     1     -11.687  14.889  71.506  1.00  0.00    -0.394 A  
HETATM   13  C   UNL     1     -14.316  15.195  72.387  1.00  0.00    -0.453 A  
HETATM   14  C   UNL     1     -14.024  14.285  71.370  1.00  0.00    -0.343 A  
ENDBRANCH   8   9
ENDBRANCH   7   8
ENDBRANCH   6   7
BRANCH   6  15
HETATM   15  N   UNL     1      -9.523  12.404  68.641  1.00  0.00    -0.398 NA 
HETATM   16  H   UNL     1      -9.248  12.921  69.477  1.00  0.00     0.000 HD 
BRANCH  15  17
HETATM   17  C   UNL     1      -8.664  11.310  68.106  1.00  0.00    -0.155 C  
HETATM   18  O   UNL     1      -9.993  10.025  69.653  1.00  0.00    -0.212 OA 
HETATM   19  C   UNL     1      -7.244  11.853  67.989  1.00  0.00    -0.090 C  
HETATM   20  O   UNL     1      -7.665   6.177  71.497  1.00  0.00    -0.097 OA 
HETATM   21  O   UNL     1      -6.372   7.963  71.019  1.00  0.00    -0.037 OA 
HETATM   22  C   UNL     1      -6.282  10.933  67.262  1.00  0.00    -0.064 C  
HETATM   23  C   UNL     1      -8.902  10.089  69.061  1.00  0.00    -0.159 C  
HETATM   24  C   UNL     1      -5.865   9.787  68.151  1.00  0.00    -0.039 C  
HETATM   25  N   UNL     1      -6.894   8.789  68.343  1.00  0.00    -0.064 NA 
HETATM   26  C   UNL     1      -7.490   7.212  70.867  1.00  0.00    -0.080 C  
HETATM   27  C   UNL     1      -7.211   7.921  67.213  1.00  0.00    -0.090 C  
HETATM   28  N   UNL     1      -7.989   9.037  69.194  1.00  0.00    -0.099 N  
HETATM   29  C   UNL     1      -7.722   6.579  67.755  1.00  0.00    -0.107 C  
HETATM   30  C   UNL     1      -8.489   7.788  69.855  1.00  0.00    -0.132 C  
HETATM   31  C   UNL     1      -8.857   6.761  68.769  1.00  0.00    -0.131 C  
ENDBRANCH  15  17
ENDBRANCH   6  15
ENDBRANCH   4   6
ENDBRANCH   3   4
ENDBRANCH   2   3
TORSDOF 8
ENDMDL
MODEL      149
REMARK 921   NORMALIZED FREE ENERGY PREDICTED BY IDOCK:   -4.71 KCAL/MOL
REMARK 922        TOTAL FREE ENERGY PREDICTED BY IDOCK:   -8.13 KCAL/MOL
REMARK 923 INTER-LIGAND FREE ENERGY PREDICTED BY IDOCK:   -7.47 KCAL/MOL
REMARK 924 INTRA-LIGAND FREE ENERGY PREDICTED BY IDOCK:   -0.67 KCAL/MOL
REMARK 927      BINDING AFFINITY PREDICTED BY RF-SCORE:    0.00 PKD
ROOT
HETATM    1  C   UNL     1      -6.893  13.431  68.095  1.00  0.00    -0.117 C  
HETATM    2  C   UNL     1      -8.167  13.064  67.360  1.00  0.00    -0.183 C  
ENDROOT
BRANCH   2   3
HETATM    3  O   UNL     1      -8.538  11.713  67.664  1.00  0.00    -0.133 OA 
BRANCH   3   4
HETATM    4  C   UNL     1      -9.676  11.264  67.062  1.00  0.00    -0.186 C  
HETATM    5  O   UNL     1      -9.856  11.194  65.849  1.00  0.00    -0.213 OA 
BRANCH   4   6
HETATM    6  C   UNL     1     -10.701  10.824  68.122  1.00  0.00    -0.214 C  
BRANCH   6   7
HETATM    7  C   UNL     1     -11.992  11.633  67.957  1.00  0.00    -0.187 C  
BRANCH   7   8
HETATM    8  C   UNL     1     -11.745  13.031  67.374  1.00  0.00    -0.427 C  
BRANCH   8   9
HETATM    9  C   UNL     1     -11.833  14.065  68.470  1.00  0.00    -0.399 A  
HETATM   10  C   UNL     1     -11.805  15.929  70.557  1.00  0.00    -0.374 A  
HETATM   11  C   UNL     1     -11.304  16.279  69.305  1.00  0.00    -0.288 A  
HETATM   12  C   UNL     1     -11.317  15.350  68.264  1.00  0.00    -0.354 A  
HETATM   13  C   UNL     1     -12.332  14.656  70.768  1.00  0.00    -0.398 A  
HETATM   14  C   UNL     1     -12.348  13.726  69.728  1.00  0.00    -0.311 A  
ENDBRANCH   8   9
ENDBRANCH   7   8
ENDBRANCH   6   7
BRANCH   6  15
HETATM   15  N   UNL     1     -10.067  10.985  69.445  1.00  0.00    -0.427 NA 
HETATM   16  H   UNL     1      -9.348  11.693  69.596  1.00  0.00     0.000 HD 
BRANCH  15  17
HETATM   17  C   UNL     1     -10.500  10.089  70.555  1.00  0.00    -0.198 C  
HETATM   18  O   UNL     1      -8.479   8.942  69.910  1.00  0.00    -0.121 OA 
HETATM   19  C   UNL     1     -12.009   9.907  70.440  1.00  0.00    -0.271 C  
HETATM   20  O   UNL     1      -8.623   4.147  70.690  1.00  0.00    -0.073 OA 
HETATM   21  O   UNL     1     -10.595   5.111  70.169  1.00  0.00    -0.272 OA 
HETATM   22  C   UNL     1     -12.642   9.192  71.617  1.00  0.00    -0.433 C  
HETATM   23  C   UNL     1      -9.598   8.812  70.434  1.00  0.00    -0.182 C  
HETATM   24  C   UNL     1     -12.370   7.709  71.551  1.00  0.00    -0.330 C  
HETATM   25  N   UNL     1     -11.009   7.348  71.884  1.00  0.00    -0.229 NA 
HETATM   26  C   UNL     1      -9.325   5.148  70.643  1.00  0.00    -0.159 C  
HETATM   27  C   UNL     1     -10.606   7.454  73.283  1.00  0.00    -0.392 C  
HETATM   28  N   UNL     1      -9.960   7.571  70.972  1.00  0.00    -0.186 N  
HETATM   29  C   UNL     1      -9.497   6.428  73.553  1.00  0.00    -0.156 C  
HETATM   30  C   UNL     1      -8.874   6.545  71.092  1.00  0.00    -0.138 C  
HETATM   31  C   UNL     1      -8.352   6.537  72.539  1.00  0.00    -0.114 C  
ENDBRANCH  15  17
ENDBRANCH   6  15
ENDBRANCH   4   6
ENDBRANCH   3   4
ENDBRANCH   2   3
TORSDOF 8
ENDMDL
MODEL      150
REMARK 921   NORMALIZED FREE ENERGY PREDICTED BY IDOCK:   -4.71 KCAL/MOL
REMARK 922        TOTAL FREE ENERGY PREDICTED BY IDOCK:   -8.12 KCAL/MOL
REMARK 923 INTER-LIGAND FREE ENERGY PREDICTED BY IDOCK:   -7.60 KCAL/MOL
REMARK 924 INTRA-LIGAND FREE ENERGY PREDICTED BY IDOCK:   -0.51 KCAL/MOL
REMARK 927      BINDING AFFINITY PREDICTED BY RF-SCORE:    0.00 PKD
ROOT
HETATM    1  C   UNL     1     -14.363   7.681  71.428  1.00  0.00    -0.537 C  
HETATM    2  C   UNL     1     -13.855   8.969  72.048  1.00  0.00    -0.444 C  
ENDROOT
BRANCH   2   3
HETATM    3  O   UNL     1     -12.956   9.626  71.146  1.00  0.00    -0.336 OA 
BRANCH   3   4
HETATM    4  C   UNL     1     -11.629   9.480  71.426  1.00  0.00    -0.395 C  
HETATM    5  O   UNL     1     -11.161   8.714  72.264  1.00  0.00    -0.354 OA 
BRANCH   4   6
HETATM    6  C   UNL     1     -10.790  10.394  70.516  1.00  0.00    -0.116 C  
BRANCH   6   7
HETATM    7  C   UNL     1     -11.671  10.952  69.393  1.00  0.00    -0.397 C  
BRANCH   7   8
HETATM    8  C   UNL     1     -11.239  12.354  68.942  1.00  0.00    -0.330 C  
BRANCH   8   9
HETATM    9  C   UNL     1     -11.851  13.394  69.847  1.00  0.00    -0.385 A  
HETATM   10  C   UNL     1     -13.158  15.306  71.419  1.00  0.00    -0.529 A  
HETATM   11  C   UNL     1     -13.265  13.954  71.736  1.00  0.00    -0.455 A  
HETATM   12  C   UNL     1     -12.614  13.000  70.954  1.00  0.00    -0.364 A  
HETATM   13  C   UNL     1     -12.391  15.709  70.327  1.00  0.00    -0.402 A  
HETATM   14  C   UNL     1     -11.736  14.757  69.544  1.00  0.00    -0.358 A  
ENDBRANCH   8   9
ENDBRANCH   7   8
ENDBRANCH   6   7
BRANCH   6  15
HETATM   15  N   UNL     1      -9.642   9.604  70.030  1.00  0.00    -0.230 NA 
HETATM   16  H   UNL     1      -8.686   9.924  70.184  1.00  0.00     0.000 HD 
BRANCH  15  17
HETATM   17  C   UNL     1      -9.911   8.327  69.309  1.00  0.00    -0.186 C  
HETATM   18  O   UNL     1      -8.116   7.584  70.738  1.00  0.00    -0.105 OA 
HETATM   19  C   UNL     1     -10.142   8.665  67.841  1.00  0.00    -0.254 C  
HETATM   20  O   UNL     1      -5.434   4.019  68.811  1.00  0.00    -0.011 OA 
HETATM   21  O   UNL     1      -6.301   5.493  67.339  1.00  0.00    -0.036 OA 
HETATM   22  C   UNL     1     -10.636   7.502  67.002  1.00  0.00    -0.409 C  
HETATM   23  C   UNL     1      -8.704   7.390  69.660  1.00  0.00    -0.137 C  
HETATM   24  C   UNL     1      -9.507   6.549  66.695  1.00  0.00    -0.159 C  
HETATM   25  N   UNL     1      -9.097   5.743  67.825  1.00  0.00    -0.107 NA 
HETATM   26  C   UNL     1      -6.282   4.857  68.536  1.00  0.00    -0.031 C  
HETATM   27  C   UNL     1     -10.000   4.681  68.260  1.00  0.00    -0.062 C  
HETATM   28  N   UNL     1      -8.330   6.299  68.866  1.00  0.00    -0.119 N  
HETATM   29  C   UNL     1      -9.169   3.564  68.904  1.00  0.00    -0.227 C  
HETATM   30  C   UNL     1      -7.403   5.298  69.487  1.00  0.00    -0.061 C  
HETATM   31  C   UNL     1      -8.228   4.099  69.990  1.00  0.00    -0.068 C  
ENDBRANCH  15  17
ENDBRANCH   6  15
ENDBRANCH   4   6
ENDBRANCH   3   4
ENDBRANCH   2   3
TORSDOF 8
ENDMDL
MODEL      151
REMARK 921   NORMALIZED FREE ENERGY PREDICTED BY IDOCK:   -4.68 KCAL/MOL
REMARK 922        TOTAL FREE ENERGY PREDICTED BY IDOCK:   -8.07 KCAL/MOL
REMARK 923 INTER-LIGAND FREE ENERGY PREDICTED BY IDOCK:   -6.96 KCAL/MOL
REMARK 924 INTRA-LIGAND FREE ENERGY PREDICTED BY IDOCK:   -1.12 KCAL/MOL
REMARK 927      BINDING AFFINITY PREDICTED BY RF-SCORE:    0.00 PKD
ROOT
HETATM    1  C   UNL     1      -8.479   5.299  65.002  1.00  0.00    -0.150 C  
HETATM    2  C   UNL     1      -7.338   6.293  65.093  1.00  0.00    -0.077 C  
ENDROOT
BRANCH   2   3
HETATM    3  O   UNL     1      -7.813   7.537  65.625  1.00  0.00    -0.097 OA 
BRANCH   3   4
HETATM    4  C   UNL     1      -8.278   8.431  64.706  1.00  0.00    -0.160 C  
HETATM    5  O   UNL     1      -7.773   8.647  63.608  1.00  0.00    -0.121 OA 
BRANCH   4   6
HETATM    6  C   UNL     1      -9.551   9.118  65.230  1.00  0.00    -0.017 C  
BRANCH   6   7
HETATM    7  C   UNL     1      -9.228  10.559  65.639  1.00  0.00    -0.221 C  
BRANCH   7   8
HETATM    8  C   UNL     1      -9.928  11.598  64.753  1.00  0.00    -0.292 C  
BRANCH   8   9
HETATM    9  C   UNL     1     -10.474  12.715  65.607  1.00  0.00    -0.298 A  
HETATM   10  C   UNL     1     -11.501  14.901  67.022  1.00  0.00    -0.333 A  
HETATM   11  C   UNL     1     -12.368  13.984  66.432  1.00  0.00    -0.468 A  
HETATM   12  C   UNL     1     -11.858  12.894  65.727  1.00  0.00    -0.469 A  
HETATM   13  C   UNL     1     -10.122  14.724  66.919  1.00  0.00    -0.246 A  
HETATM   14  C   UNL     1      -9.609  13.633  66.216  1.00  0.00    -0.254 A  
ENDBRANCH   8   9
ENDBRANCH   7   8
ENDBRANCH   6   7
BRANCH   6  15
HETATM   15  N   UNL     1     -10.078   8.293  66.334  1.00  0.00    -0.452 NA 
HETATM   16  H   UNL     1     -10.518   7.391  66.148  1.00  0.00     0.000 HD 
BRANCH  15  17
HETATM   17  C   UNL     1      -9.954   8.806  67.728  1.00  0.00    -0.194 C  
HETATM   18  O   UNL     1      -9.675   6.451  68.165  1.00  0.00    -0.122 OA 
HETATM   19  C   UNL     1     -11.009   9.890  67.917  1.00  0.00    -0.281 C  
HETATM   20  O   UNL     1     -11.249   5.079  72.554  1.00  0.00    -0.198 OA 
HETATM   21  O   UNL     1     -12.373   6.789  71.604  1.00  0.00    -0.345 OA 
HETATM   22  C   UNL     1     -10.883  10.664  69.215  1.00  0.00    -0.282 C  
HETATM   23  C   UNL     1     -10.039   7.537  68.646  1.00  0.00    -0.184 C  
HETATM   24  C   UNL     1     -11.391   9.845  70.376  1.00  0.00    -0.307 C  
HETATM   25  N   UNL     1     -10.505   8.770  70.768  1.00  0.00    -0.208 NA 
HETATM   26  C   UNL     1     -11.278   6.005  71.754  1.00  0.00    -0.275 C  
HETATM   27  C   UNL     1      -9.263   9.132  71.445  1.00  0.00    -0.138 C  
HETATM   28  N   UNL     1     -10.410   7.597  69.995  1.00  0.00    -0.217 N  
HETATM   29  C   UNL     1      -8.850   7.974  72.364  1.00  0.00    -0.232 C  
HETATM   30  C   UNL     1     -10.113   6.388  70.831  1.00  0.00    -0.187 C  
HETATM   31  C   UNL     1      -8.816   6.633  71.621  1.00  0.00    -0.134 C  
ENDBRANCH  15  17
ENDBRANCH   6  15
ENDBRANCH   4   6
ENDBRANCH   3   4
ENDBRANCH   2   3
TORSDOF 8
ENDMDL
MODEL      152
REMARK 921   NORMALIZED FREE ENERGY PREDICTED BY IDOCK:   -4.66 KCAL/MOL
REMARK 922        TOTAL FREE ENERGY PREDICTED BY IDOCK:   -8.06 KCAL/MOL
REMARK 923 INTER-LIGAND FREE ENERGY PREDICTED BY IDOCK:   -6.37 KCAL/MOL
REMARK 924 INTRA-LIGAND FREE ENERGY PREDICTED BY IDOCK:   -1.69 KCAL/MOL
REMARK 927      BINDING AFFINITY PREDICTED BY RF-SCORE:    0.00 PKD
ROOT
HETATM    1  C   UNL     1     -14.403   7.800  71.822  1.00  0.00    -0.594 C  
HETATM    2  C   UNL     1     -13.131   8.457  72.322  1.00  0.00    -0.284 C  
ENDROOT
BRANCH   2   3
HETATM    3  O   UNL     1     -12.236   8.689  71.226  1.00  0.00    -0.294 OA 
BRANCH   3   4
HETATM    4  C   UNL     1     -11.238   7.771  71.075  1.00  0.00    -0.266 C  
HETATM    5  O   UNL     1     -11.036   6.815  71.817  1.00  0.00    -0.230 OA 
BRANCH   4   6
HETATM    6  C   UNL     1     -10.412   8.087  69.816  1.00  0.00    -0.227 C  
BRANCH   6   7
HETATM    7  C   UNL     1      -9.026   8.598  70.224  1.00  0.00    -0.162 C  
BRANCH   7   8
HETATM    8  C   UNL     1      -7.950   8.298  69.172  1.00  0.00    -0.112 C  
BRANCH   8   9
HETATM    9  C   UNL     1      -7.082   9.515  68.967  1.00  0.00    -0.066 A  
HETATM   10  C   UNL     1      -5.628  11.857  68.483  1.00  0.00    -0.052 A  
HETATM   11  C   UNL     1      -6.454  11.769  69.602  1.00  0.00    -0.113 A  
HETATM   12  C   UNL     1      -7.180  10.602  69.844  1.00  0.00    -0.109 A  
HETATM   13  C   UNL     1      -5.515  10.776  67.612  1.00  0.00    -0.043 A  
HETATM   14  C   UNL     1      -6.238   9.606  67.853  1.00  0.00    -0.052 A  
ENDBRANCH   8   9
ENDBRANCH   7   8
ENDBRANCH   6   7
BRANCH   6  15
HETATM   15  N   UNL     1     -11.184   9.051  69.008  1.00  0.00    -0.421 NA 
HETATM   16  H   UNL     1     -12.201   9.093  69.078  1.00  0.00     0.000 HD 
BRANCH  15  17
HETATM   17  C   UNL     1     -10.446   9.962  68.088  1.00  0.00    -0.215 C  
HETATM   18  O   UNL     1     -11.029  11.551  69.806  1.00  0.00    -0.141 OA 
HETATM   19  C   UNL     1     -10.858   9.611  66.663  1.00  0.00     0.001 C  
HETATM   20  O   UNL     1     -11.609  16.085  68.155  1.00  0.00    -0.308 OA 
HETATM   21  O   UNL     1     -12.173  14.442  66.716  1.00  0.00    -0.420 OA 
HETATM   22  C   UNL     1     -10.041  10.304  65.589  1.00  0.00    -0.341 C  
HETATM   23  C   UNL     1     -10.755  11.411  68.602  1.00  0.00    -0.206 C  
HETATM   24  C   UNL     1     -10.459  11.747  65.448  1.00  0.00    -0.272 C  
HETATM   25  N   UNL     1     -10.013  12.595  66.532  1.00  0.00    -0.245 NA 
HETATM   26  C   UNL     1     -11.501  14.922  67.790  1.00  0.00    -0.338 C  
HETATM   27  C   UNL     1      -8.589  12.916  66.596  1.00  0.00     0.019 C  
HETATM   28  N   UNL     1     -10.641  12.547  67.791  1.00  0.00    -0.215 N  
HETATM   29  C   UNL     1      -8.425  14.281  67.277  1.00  0.00    -0.226 C  
HETATM   30  C   UNL     1     -10.623  13.874  68.487  1.00  0.00    -0.252 C  
HETATM   31  C   UNL     1      -9.165  14.349  68.618  1.00  0.00    -0.181 C  
ENDBRANCH  15  17
ENDBRANCH   6  15
ENDBRANCH   4   6
ENDBRANCH   3   4
ENDBRANCH   2   3
TORSDOF 8
ENDMDL
MODEL      153
REMARK 921   NORMALIZED FREE ENERGY PREDICTED BY IDOCK:   -4.63 KCAL/MOL
REMARK 922        TOTAL FREE ENERGY PREDICTED BY IDOCK:   -8.00 KCAL/MOL
REMARK 923 INTER-LIGAND FREE ENERGY PREDICTED BY IDOCK:   -6.57 KCAL/MOL
REMARK 924 INTRA-LIGAND FREE ENERGY PREDICTED BY IDOCK:   -1.44 KCAL/MOL
REMARK 927      BINDING AFFINITY PREDICTED BY RF-SCORE:    0.00 PKD
ROOT
HETATM    1  C   UNL     1     -11.974  12.182  70.298  1.00  0.00    -0.389 C  
HETATM    2  C   UNL     1     -12.757  11.226  71.177  1.00  0.00    -0.390 C  
ENDROOT
BRANCH   2   3
HETATM    3  O   UNL     1     -12.671   9.895  70.653  1.00  0.00    -0.253 OA 
BRANCH   3   4
HETATM    4  C   UNL     1     -13.044   8.900  71.508  1.00  0.00    -0.329 C  
HETATM    5  O   UNL     1     -14.095   8.865  72.141  1.00  0.00    -0.434 OA 
BRANCH   4   6
HETATM    6  C   UNL     1     -11.967   7.801  71.546  1.00  0.00    -0.300 C  
BRANCH   6   7
HETATM    7  C   UNL     1     -10.858   8.200  72.525  1.00  0.00    -0.431 C  
BRANCH   7   8
HETATM    8  C   UNL     1     -10.575   7.115  73.574  1.00  0.00    -0.416 C  
BRANCH   8   9
HETATM    9  C   UNL     1      -9.087   6.988  73.788  1.00  0.00    -0.217 A  
HETATM   10  C   UNL     1      -6.303   6.764  73.982  1.00  0.00    -0.068 A  
HETATM   11  C   UNL     1      -6.900   8.022  73.953  1.00  0.00    -0.141 A  
HETATM   12  C   UNL     1      -8.287   8.135  73.856  1.00  0.00    -0.311 A  
HETATM   13  C   UNL     1      -7.092   5.616  73.928  1.00  0.00    -0.082 A  
HETATM   14  C   UNL     1      -8.480   5.726  73.834  1.00  0.00    -0.118 A  
ENDBRANCH   8   9
ENDBRANCH   7   8
ENDBRANCH   6   7
BRANCH   6  15
HETATM   15  N   UNL     1     -11.491   7.597  70.164  1.00  0.00    -0.472 NA 
HETATM   16  H   UNL     1     -11.925   8.093  69.385  1.00  0.00     0.000 HD 
BRANCH  15  17
HETATM   17  C   UNL     1     -10.363   6.652  69.931  1.00  0.00    -0.200 C  
HETATM   18  O   UNL     1     -10.360   7.778  67.799  1.00  0.00    -0.198 OA 
HETATM   19  C   UNL     1     -10.764   5.302  70.514  1.00  0.00    -0.208 C  
HETATM   20  O   UNL     1      -8.826   4.993  64.123  1.00  0.00    -0.131 OA 
HETATM   21  O   UNL     1      -9.910   3.912  65.780  1.00  0.00    -0.184 OA 
HETATM   22  C   UNL     1      -9.644   4.279  70.548  1.00  0.00    -0.267 C  
HETATM   23  C   UNL     1     -10.071   6.725  68.392  1.00  0.00    -0.162 C  
HETATM   24  C   UNL     1      -9.399   3.711  69.172  1.00  0.00    -0.174 C  
HETATM   25  N   UNL     1      -8.727   4.623  68.272  1.00  0.00    -0.101 NA 
HETATM   26  C   UNL     1      -9.191   4.951  65.290  1.00  0.00    -0.139 C  
HETATM   27  C   UNL     1      -7.313   4.893  68.516  1.00  0.00    -0.066 C  
HETATM   28  N   UNL     1      -9.420   5.703  67.691  1.00  0.00    -0.113 N  
HETATM   29  C   UNL     1      -6.643   5.241  67.180  1.00  0.00    -0.053 C  
HETATM   30  C   UNL     1      -8.900   6.044  66.328  1.00  0.00    -0.141 C  
HETATM   31  C   UNL     1      -7.394   6.347  66.429  1.00  0.00    -0.081 C  
ENDBRANCH  15  17
ENDBRANCH   6  15
ENDBRANCH   4   6
ENDBRANCH   3   4
ENDBRANCH   2   3
TORSDOF 8
ENDMDL
MODEL      154
REMARK 921   NORMALIZED FREE ENERGY PREDICTED BY IDOCK:   -4.63 KCAL/MOL
REMARK 922        TOTAL FREE ENERGY PREDICTED BY IDOCK:   -8.00 KCAL/MOL
REMARK 923 INTER-LIGAND FREE ENERGY PREDICTED BY IDOCK:   -6.42 KCAL/MOL
REMARK 924 INTRA-LIGAND FREE ENERGY PREDICTED BY IDOCK:   -1.58 KCAL/MOL
REMARK 927      BINDING AFFINITY PREDICTED BY RF-SCORE:    0.00 PKD
ROOT
HETATM    1  C   UNL     1     -12.254  12.036  70.521  1.00  0.00    -0.414 C  
HETATM    2  C   UNL     1     -13.018  11.194  71.524  1.00  0.00    -0.437 C  
ENDROOT
BRANCH   2   3
HETATM    3  O   UNL     1     -13.359   9.928  70.944  1.00  0.00    -0.349 OA 
BRANCH   3   4
HETATM    4  C   UNL     1     -13.499   8.895  71.823  1.00  0.00    -0.397 C  
HETATM    5  O   UNL     1     -14.250   8.888  72.795  1.00  0.00    -0.557 OA 
BRANCH   4   6
HETATM    6  C   UNL     1     -12.601   7.717  71.407  1.00  0.00    -0.317 C  
BRANCH   6   7
HETATM    7  C   UNL     1     -11.634   7.379  72.547  1.00  0.00    -0.319 C  
BRANCH   7   8
HETATM    8  C   UNL     1     -10.562   8.457  72.755  1.00  0.00    -0.212 C  
BRANCH   8   9
HETATM    9  C   UNL     1      -9.222   7.806  72.994  1.00  0.00    -0.285 A  
HETATM   10  C   UNL     1      -6.685   6.762  73.551  1.00  0.00    -0.071 A  
HETATM   11  C   UNL     1      -7.742   6.530  74.429  1.00  0.00    -0.100 A  
HETATM   12  C   UNL     1      -9.006   7.049  74.153  1.00  0.00    -0.233 A  
HETATM   13  C   UNL     1      -6.893   7.502  72.389  1.00  0.00    -0.060 A  
HETATM   14  C   UNL     1      -8.158   8.022  72.109  1.00  0.00    -0.172 A  
ENDBRANCH   8   9
ENDBRANCH   7   8
ENDBRANCH   6   7
BRANCH   6  15
HETATM   15  N   UNL     1     -11.925   8.096  70.152  1.00  0.00    -0.297 NA 
HETATM   16  H   UNL     1     -12.291   8.851  69.570  1.00  0.00     0.000 HD 
BRANCH  15  17
HETATM   17  C   UNL     1     -10.696   7.353  69.751  1.00  0.00    -0.241 C  
HETATM   18  O   UNL     1      -9.958   9.596  69.264  1.00  0.00    -0.173 OA 
HETATM   19  C   UNL     1     -11.137   6.103  68.999  1.00  0.00    -0.437 C  
HETATM   20  O   UNL     1      -6.742   9.847  65.629  1.00  0.00    -0.086 OA 
HETATM   21  O   UNL     1      -8.271   8.196  65.468  1.00  0.00    -0.127 OA 
HETATM   22  C   UNL     1     -10.017   5.125  68.703  1.00  0.00    -0.227 C  
HETATM   23  C   UNL     1      -9.814   8.395  68.980  1.00  0.00    -0.183 C  
HETATM   24  C   UNL     1      -9.166   5.620  67.558  1.00  0.00    -0.109 C  
HETATM   25  N   UNL     1      -8.300   6.724  67.907  1.00  0.00    -0.120 NA 
HETATM   26  C   UNL     1      -7.543   9.097  66.171  1.00  0.00    -0.095 C  
HETATM   27  C   UNL     1      -7.150   6.437  68.761  1.00  0.00    -0.082 C  
HETATM   28  N   UNL     1      -8.818   8.024  68.070  1.00  0.00    -0.128 N  
HETATM   29  C   UNL     1      -6.040   7.449  68.444  1.00  0.00    -0.031 C  
HETATM   30  C   UNL     1      -7.831   9.082  67.679  1.00  0.00    -0.101 C  
HETATM   31  C   UNL     1      -6.545   8.895  68.503  1.00  0.00    -0.059 C  
ENDBRANCH  15  17
ENDBRANCH   6  15
ENDBRANCH   4   6
ENDBRANCH   3   4
ENDBRANCH   2   3
TORSDOF 8
ENDMDL
MODEL      155
REMARK 921   NORMALIZED FREE ENERGY PREDICTED BY IDOCK:   -4.63 KCAL/MOL
REMARK 922        TOTAL FREE ENERGY PREDICTED BY IDOCK:   -8.00 KCAL/MOL
REMARK 923 INTER-LIGAND FREE ENERGY PREDICTED BY IDOCK:   -7.33 KCAL/MOL
REMARK 924 INTRA-LIGAND FREE ENERGY PREDICTED BY IDOCK:   -0.68 KCAL/MOL
REMARK 927      BINDING AFFINITY PREDICTED BY RF-SCORE:    0.00 PKD
ROOT
HETATM    1  C   UNL     1      -7.627   3.828  66.890  1.00  0.00    -0.080 C  
HETATM    2  C   UNL     1      -8.375   5.136  66.717  1.00  0.00    -0.107 C  
ENDROOT
BRANCH   2   3
HETATM    3  O   UNL     1      -8.962   5.533  67.963  1.00  0.00    -0.109 OA 
BRANCH   3   4
HETATM    4  C   UNL     1     -10.175   6.149  67.873  1.00  0.00    -0.175 C  
HETATM    5  O   UNL     1     -11.086   5.815  67.120  1.00  0.00    -0.200 OA 
BRANCH   4   6
HETATM    6  C   UNL     1     -10.257   7.312  68.877  1.00  0.00    -0.193 C  
BRANCH   6   7
HETATM    7  C   UNL     1     -10.874   6.817  70.190  1.00  0.00    -0.311 C  
BRANCH   7   8
HETATM    8  C   UNL     1     -10.175   7.394  71.428  1.00  0.00    -0.198 C  
BRANCH   8   9
HETATM    9  C   UNL     1      -9.354   6.322  72.098  1.00  0.00    -0.152 A  
HETATM   10  C   UNL     1      -7.689   4.356  73.194  1.00  0.00    -0.086 A  
HETATM   11  C   UNL     1      -7.506   5.693  73.538  1.00  0.00    -0.091 A  
HETATM   12  C   UNL     1      -8.335   6.674  72.993  1.00  0.00    -0.122 A  
HETATM   13  C   UNL     1      -8.708   3.994  72.315  1.00  0.00    -0.118 A  
HETATM   14  C   UNL     1      -9.540   4.973  71.769  1.00  0.00    -0.205 A  
ENDBRANCH   8   9
ENDBRANCH   7   8
ENDBRANCH   6   7
BRANCH   6  15
HETATM   15  N   UNL     1     -11.022   8.399  68.236  1.00  0.00    -0.439 NA 
HETATM   16  H   UNL     1     -12.041   8.416  68.282  1.00  0.00     0.000 HD 
BRANCH  15  17
HETATM   17  C   UNL     1     -10.274   9.471  67.520  1.00  0.00    -0.228 C  
HETATM   18  O   UNL     1     -12.166  10.765  68.268  1.00  0.00    -0.449 OA 
HETATM   19  C   UNL     1      -9.733   8.872  66.227  1.00  0.00    -0.345 C  
HETATM   20  O   UNL     1     -13.300  14.453  65.312  1.00  0.00    -0.574 OA 
HETATM   21  O   UNL     1     -12.432  12.628  64.309  1.00  0.00    -0.510 OA 
HETATM   22  C   UNL     1      -8.769   9.772  65.478  1.00  0.00    -0.171 C  
HETATM   23  C   UNL     1     -11.276  10.672  67.406  1.00  0.00    -0.205 C  
HETATM   24  C   UNL     1      -9.513  10.872  64.761  1.00  0.00    -0.238 C  
HETATM   25  N   UNL     1     -10.017  11.906  65.637  1.00  0.00    -0.236 NA 
HETATM   26  C   UNL     1     -12.630  13.431  65.383  1.00  0.00    -0.475 C  
HETATM   27  C   UNL     1      -9.046  12.821  66.230  1.00  0.00    -0.024 C  
HETATM   28  N   UNL     1     -11.150  11.680  66.443  1.00  0.00    -0.298 N  
HETATM   29  C   UNL     1      -9.736  14.167  66.491  1.00  0.00    -0.307 C  
HETATM   30  C   UNL     1     -11.950  12.928  66.663  1.00  0.00    -0.366 C  
HETATM   31  C   UNL     1     -11.039  14.002  67.284  1.00  0.00    -0.314 C  
ENDBRANCH  15  17
ENDBRANCH   6  15
ENDBRANCH   4   6
ENDBRANCH   3   4
ENDBRANCH   2   3
TORSDOF 8
ENDMDL
MODEL      156
REMARK 921   NORMALIZED FREE ENERGY PREDICTED BY IDOCK:   -4.61 KCAL/MOL
REMARK 922        TOTAL FREE ENERGY PREDICTED BY IDOCK:   -7.98 KCAL/MOL
REMARK 923 INTER-LIGAND FREE ENERGY PREDICTED BY IDOCK:   -6.81 KCAL/MOL
REMARK 924 INTRA-LIGAND FREE ENERGY PREDICTED BY IDOCK:   -1.17 KCAL/MOL
REMARK 927      BINDING AFFINITY PREDICTED BY RF-SCORE:    0.00 PKD
ROOT
HETATM    1  C   UNL     1      -6.095  15.303  70.342  1.00  0.00    -0.071 C  
HETATM    2  C   UNL     1      -7.216  15.609  69.368  1.00  0.00    -0.212 C  
ENDROOT
BRANCH   2   3
HETATM    3  O   UNL     1      -7.581  14.423  68.651  1.00  0.00    -0.120 OA 
BRANCH   3   4
HETATM    4  C   UNL     1      -8.473  14.599  67.635  1.00  0.00    -0.180 C  
HETATM    5  O   UNL     1      -8.395  15.462  66.765  1.00  0.00    -0.235 OA 
BRANCH   4   6
HETATM    6  C   UNL     1      -9.584  13.538  67.712  1.00  0.00    -0.219 C  
BRANCH   6   7
HETATM    7  C   UNL     1     -10.918  14.212  68.047  1.00  0.00    -0.269 C  
BRANCH   7   8
HETATM    8  C   UNL     1     -12.131  13.371  67.626  1.00  0.00    -0.311 C  
BRANCH   8   9
HETATM    9  C   UNL     1     -12.093  13.130  66.137  1.00  0.00    -0.479 A  
HETATM   10  C   UNL     1     -11.824  12.728  63.380  1.00  0.00    -0.591 A  
HETATM   11  C   UNL     1     -11.572  11.681  64.264  1.00  0.00    -0.306 A  
HETATM   12  C   UNL     1     -11.706  11.880  65.638  1.00  0.00    -0.214 A  
HETATM   13  C   UNL     1     -12.222  13.972  63.866  1.00  0.00    -0.336 A  
HETATM   14  C   UNL     1     -12.358  14.174  65.240  1.00  0.00    -0.469 A  
ENDBRANCH   8   9
ENDBRANCH   7   8
ENDBRANCH   6   7
BRANCH   6  15
HETATM   15  N   UNL     1      -9.165  12.528  68.704  1.00  0.00    -0.397 NA 
HETATM   16  H   UNL     1      -9.208  12.730  69.703  1.00  0.00     0.000 HD 
BRANCH  15  17
HETATM   17  C   UNL     1      -8.679  11.207  68.214  1.00  0.00    -0.151 C  
HETATM   18  O   UNL     1     -10.884  10.554  68.940  1.00  0.00    -0.206 OA 
HETATM   19  C   UNL     1      -7.231  11.052  68.664  1.00  0.00    -0.091 C  
HETATM   20  O   UNL     1     -11.155   5.942  70.450  1.00  0.00    -0.315 OA 
HETATM   21  O   UNL     1      -9.184   6.976  70.818  1.00  0.00    -0.157 OA 
HETATM   22  C   UNL     1      -6.518   9.853  68.069  1.00  0.00    -0.056 C  
HETATM   23  C   UNL     1      -9.723  10.160  68.738  1.00  0.00    -0.172 C  
HETATM   24  C   UNL     1      -6.957   8.580  68.749  1.00  0.00    -0.063 C  
HETATM   25  N   UNL     1      -8.288   8.148  68.381  1.00  0.00    -0.125 NA 
HETATM   26  C   UNL     1     -10.361   6.828  70.163  1.00  0.00    -0.202 C  
HETATM   27  C   UNL     1      -8.474   7.605  67.038  1.00  0.00    -0.125 C  
HETATM   28  N   UNL     1      -9.425   8.801  68.892  1.00  0.00    -0.145 N  
HETATM   29  C   UNL     1      -9.638   6.606  67.070  1.00  0.00    -0.183 C  
HETATM   30  C   UNL     1     -10.589   7.870  69.060  1.00  0.00    -0.162 C  
HETATM   31  C   UNL     1     -10.897   7.208  67.705  1.00  0.00    -0.248 C  
ENDBRANCH  15  17
ENDBRANCH   6  15
ENDBRANCH   4   6
ENDBRANCH   3   4
ENDBRANCH   2   3
TORSDOF 8
ENDMDL
MODEL      157
REMARK 921   NORMALIZED FREE ENERGY PREDICTED BY IDOCK:   -4.57 KCAL/MOL
REMARK 922        TOTAL FREE ENERGY PREDICTED BY IDOCK:   -7.92 KCAL/MOL
REMARK 923 INTER-LIGAND FREE ENERGY PREDICTED BY IDOCK:   -8.90 KCAL/MOL
REMARK 924 INTRA-LIGAND FREE ENERGY PREDICTED BY IDOCK:    0.98 KCAL/MOL
REMARK 927      BINDING AFFINITY PREDICTED BY RF-SCORE:    0.00 PKD
ROOT
HETATM    1  C   UNL     1      -5.260  18.751  71.138  1.00  0.00    -0.289 C  
HETATM    2  C   UNL     1      -5.939  18.836  69.785  1.00  0.00    -0.256 C  
ENDROOT
BRANCH   2   3
HETATM    3  O   UNL     1      -6.756  17.677  69.572  1.00  0.00    -0.216 OA 
BRANCH   3   4
HETATM    4  C   UNL     1      -6.181  16.676  68.846  1.00  0.00    -0.159 C  
HETATM    5  O   UNL     1      -5.126  16.113  69.126  1.00  0.00    -0.108 OA 
BRANCH   4   6
HETATM    6  C   UNL     1      -7.061  16.326  67.633  1.00  0.00    -0.141 C  
BRANCH   6   7
HETATM    7  C   UNL     1      -6.636  17.171  66.428  1.00  0.00    -0.251 C  
BRANCH   7   8
HETATM    8  C   UNL     1      -6.669  18.678  66.719  1.00  0.00    -0.211 C  
BRANCH   8   9
HETATM    9  C   UNL     1      -8.097  19.164  66.740  1.00  0.00    -0.285 A  
HETATM   10  C   UNL     1     -10.771  19.965  66.955  1.00  0.00    -0.478 A  
HETATM   11  C   UNL     1      -9.768  20.717  67.563  1.00  0.00    -0.509 A  
HETATM   12  C   UNL     1      -8.435  20.319  67.456  1.00  0.00    -0.376 A  
HETATM   13  C   UNL     1     -10.443  18.821  66.229  1.00  0.00    -0.489 A  
HETATM   14  C   UNL     1      -9.111  18.421  66.119  1.00  0.00    -0.123 A  
ENDBRANCH   8   9
ENDBRANCH   7   8
ENDBRANCH   6   7
BRANCH   6  15
HETATM   15  N   UNL     1      -8.467  16.528  68.032  1.00  0.00    -0.182 NA 
HETATM   16  H   UNL     1      -8.862  17.467  68.095  1.00  0.00     0.000 HD 
BRANCH  15  17
HETATM   17  C   UNL     1      -9.299  15.330  68.342  1.00  0.00    -0.194 C  
HETATM   18  O   UNL     1      -9.015  14.991  65.971  1.00  0.00    -0.223 OA 
HETATM   19  C   UNL     1     -10.388  15.764  69.316  1.00  0.00    -0.245 C  
HETATM   20  O   UNL     1     -12.735  12.672  63.872  1.00  0.00    -0.677 OA 
HETATM   21  O   UNL     1     -13.269  13.987  65.626  1.00  0.00    -0.634 OA 
HETATM   22  C   UNL     1     -11.196  14.620  69.897  1.00  0.00    -0.271 C  
HETATM   23  C   UNL     1      -9.747  14.765  66.949  1.00  0.00    -0.240 C  
HETATM   24  C   UNL     1     -12.187  14.098  68.886  1.00  0.00    -0.222 C  
HETATM   25  N   UNL     1     -11.586  13.319  67.825  1.00  0.00    -0.320 NA 
HETATM   26  C   UNL     1     -12.398  13.242  64.902  1.00  0.00    -0.425 C  
HETATM   27  C   UNL     1     -11.087  11.989  68.164  1.00  0.00    -0.245 C  
HETATM   28  N   UNL     1     -10.871  13.946  66.786  1.00  0.00    -0.284 N  
HETATM   29  C   UNL     1     -11.166  11.103  66.913  1.00  0.00    -0.258 C  
HETATM   30  C   UNL     1     -10.982  13.201  65.490  1.00  0.00    -0.277 C  
HETATM   31  C   UNL     1     -10.494  11.757  65.701  1.00  0.00    -0.308 C  
ENDBRANCH  15  17
ENDBRANCH   6  15
ENDBRANCH   4   6
ENDBRANCH   3   4
ENDBRANCH   2   3
TORSDOF 8
ENDMDL
MODEL      158
REMARK 921   NORMALIZED FREE ENERGY PREDICTED BY IDOCK:   -4.54 KCAL/MOL
REMARK 922        TOTAL FREE ENERGY PREDICTED BY IDOCK:   -7.87 KCAL/MOL
REMARK 923 INTER-LIGAND FREE ENERGY PREDICTED BY IDOCK:   -7.06 KCAL/MOL
REMARK 924 INTRA-LIGAND FREE ENERGY PREDICTED BY IDOCK:   -0.81 KCAL/MOL
REMARK 927      BINDING AFFINITY PREDICTED BY RF-SCORE:    0.00 PKD
ROOT
HETATM    1  C   UNL     1     -10.490  12.365  63.548  1.00  0.00    -0.430 C  
HETATM    2  C   UNL     1     -10.397  11.066  64.326  1.00  0.00    -0.364 C  
ENDROOT
BRANCH   2   3
HETATM    3  O   UNL     1     -10.208  11.343  65.720  1.00  0.00    -0.231 OA 
BRANCH   3   4
HETATM    4  C   UNL     1     -11.250  11.963  66.345  1.00  0.00    -0.331 C  
HETATM    5  O   UNL     1     -12.409  11.986  65.938  1.00  0.00    -0.463 OA 
BRANCH   4   6
HETATM    6  C   UNL     1     -10.774  12.611  67.657  1.00  0.00    -0.218 C  
BRANCH   6   7
HETATM    7  C   UNL     1     -10.611  14.122  67.455  1.00  0.00    -0.257 C  
BRANCH   7   8
HETATM    8  C   UNL     1     -10.673  14.906  68.773  1.00  0.00    -0.252 C  
BRANCH   8   9
HETATM    9  C   UNL     1      -9.977  16.234  68.611  1.00  0.00    -0.233 A  
HETATM   10  C   UNL     1      -8.690  18.718  68.516  1.00  0.00    -0.380 A  
HETATM   11  C   UNL     1      -7.944  17.554  68.687  1.00  0.00    -0.268 A  
HETATM   12  C   UNL     1      -8.584  16.316  68.735  1.00  0.00    -0.240 A  
HETATM   13  C   UNL     1     -10.075  18.646  68.379  1.00  0.00    -0.426 A  
HETATM   14  C   UNL     1     -10.718  17.408  68.424  1.00  0.00    -0.301 A  
ENDBRANCH   8   9
ENDBRANCH   7   8
ENDBRANCH   6   7
BRANCH   6  15
HETATM   15  N   UNL     1      -9.530  11.930  68.062  1.00  0.00    -0.191 NA 
HETATM   16  H   UNL     1      -8.635  12.185  67.642  1.00  0.00     0.000 HD 
BRANCH  15  17
HETATM   17  C   UNL     1      -9.607  10.862  69.099  1.00  0.00    -0.106 C  
HETATM   18  O   UNL     1      -8.092   9.788  67.561  1.00  0.00    -0.112 OA 
HETATM   19  C   UNL     1     -11.062  10.752  69.540  1.00  0.00    -0.334 C  
HETATM   20  O   UNL     1      -8.410   4.938  67.577  1.00  0.00    -0.105 OA 
HETATM   21  O   UNL     1     -10.329   6.043  68.005  1.00  0.00    -0.160 OA 
HETATM   22  C   UNL     1     -11.283   9.855  70.743  1.00  0.00    -0.427 C  
HETATM   23  C   UNL     1      -8.945   9.600  68.445  1.00  0.00    -0.123 C  
HETATM   24  C   UNL     1     -11.202   8.401  70.347  1.00  0.00    -0.213 C  
HETATM   25  N   UNL     1      -9.857   7.942  70.075  1.00  0.00    -0.180 NA 
HETATM   26  C   UNL     1      -8.977   5.953  67.958  1.00  0.00    -0.118 C  
HETATM   27  C   UNL     1      -8.956   7.779  71.213  1.00  0.00    -0.134 C  
HETATM   28  N   UNL     1      -9.203   8.294  68.879  1.00  0.00    -0.147 N  
HETATM   29  C   UNL     1      -7.933   6.686  70.876  1.00  0.00    -0.110 C  
HETATM   30  C   UNL     1      -8.257   7.229  68.413  1.00  0.00    -0.125 C  
HETATM   31  C   UNL     1      -7.240   6.940  69.532  1.00  0.00    -0.081 C  
ENDBRANCH  15  17
ENDBRANCH   6  15
ENDBRANCH   4   6
ENDBRANCH   3   4
ENDBRANCH   2   3
TORSDOF 8
ENDMDL
MODEL      159
REMARK 921   NORMALIZED FREE ENERGY PREDICTED BY IDOCK:   -4.51 KCAL/MOL
REMARK 922        TOTAL FREE ENERGY PREDICTED BY IDOCK:   -7.83 KCAL/MOL
REMARK 923 INTER-LIGAND FREE ENERGY PREDICTED BY IDOCK:   -6.59 KCAL/MOL
REMARK 924 INTRA-LIGAND FREE ENERGY PREDICTED BY IDOCK:   -1.24 KCAL/MOL
REMARK 927      BINDING AFFINITY PREDICTED BY RF-SCORE:    0.00 PKD
ROOT
HETATM    1  C   UNL     1      -9.741   6.883  74.034  1.00  0.00    -0.326 C  
HETATM    2  C   UNL     1     -10.466   7.742  73.016  1.00  0.00    -0.369 C  
ENDROOT
BRANCH   2   3
HETATM    3  O   UNL     1     -10.215   7.250  71.692  1.00  0.00    -0.193 OA 
BRANCH   3   4
HETATM    4  C   UNL     1     -11.303   7.188  70.871  1.00  0.00    -0.286 C  
HETATM    5  O   UNL     1     -12.473   7.185  71.243  1.00  0.00    -0.356 OA 
BRANCH   4   6
HETATM    6  C   UNL     1     -10.856   7.152  69.399  1.00  0.00    -0.206 C  
BRANCH   6   7
HETATM    7  C   UNL     1     -10.996   5.727  68.853  1.00  0.00    -0.250 C  
BRANCH   7   8
HETATM    8  C   UNL     1      -9.939   4.769  69.417  1.00  0.00    -0.269 C  
BRANCH   8   9
HETATM    9  C   UNL     1      -8.949   4.406  68.338  1.00  0.00    -0.149 A  
HETATM   10  C   UNL     1      -7.114   3.930  66.279  1.00  0.00    -0.064 A  
HETATM   11  C   UNL     1      -6.663   4.332  67.534  1.00  0.00    -0.047 A  
HETATM   12  C   UNL     1      -7.576   4.569  68.561  1.00  0.00    -0.064 A  
HETATM   13  C   UNL     1      -8.477   3.753  66.050  1.00  0.00    -0.110 A  
HETATM   14  C   UNL     1      -9.393   3.988  67.077  1.00  0.00    -0.204 A  
ENDBRANCH   8   9
ENDBRANCH   7   8
ENDBRANCH   6   7
BRANCH   6  15
HETATM   15  N   UNL     1      -9.477   7.674  69.341  1.00  0.00    -0.153 NA 
HETATM   16  H   UNL     1      -8.778   7.380  70.024  1.00  0.00     0.000 HD 
BRANCH  15  17
HETATM   17  C   UNL     1      -9.127   8.643  68.263  1.00  0.00    -0.141 C  
HETATM   18  O   UNL     1     -10.004  10.190  69.892  1.00  0.00    -0.242 OA 
HETATM   19  C   UNL     1      -9.539   8.023  66.934  1.00  0.00    -0.265 C  
HETATM   20  O   UNL     1     -12.051  14.138  67.931  1.00  0.00    -0.358 OA 
HETATM   21  O   UNL     1     -12.224  12.243  66.718  1.00  0.00    -0.558 OA 
HETATM   22  C   UNL     1      -9.063   8.788  65.714  1.00  0.00    -0.267 C  
HETATM   23  C   UNL     1      -9.808   9.993  68.681  1.00  0.00    -0.160 C  
HETATM   24  C   UNL     1      -9.903  10.023  65.497  1.00  0.00    -0.303 C  
HETATM   25  N   UNL     1      -9.636  11.086  66.442  1.00  0.00    -0.193 NA 
HETATM   26  C   UNL     1     -11.634  13.019  67.660  1.00  0.00    -0.355 C  
HETATM   27  C   UNL     1      -8.373  11.807  66.309  1.00  0.00     0.024 C  
HETATM   28  N   UNL     1     -10.109  11.009  67.767  1.00  0.00    -0.175 N  
HETATM   29  C   UNL     1      -8.564  13.232  66.843  1.00  0.00    -0.116 C  
HETATM   30  C   UNL     1     -10.426  12.358  68.337  1.00  0.00    -0.235 C  
HETATM   31  C   UNL     1      -9.170  13.244  68.251  1.00  0.00    -0.197 C  
ENDBRANCH  15  17
ENDBRANCH   6  15
ENDBRANCH   4   6
ENDBRANCH   3   4
ENDBRANCH   2   3
TORSDOF 8
ENDMDL
MODEL      160
REMARK 921   NORMALIZED FREE ENERGY PREDICTED BY IDOCK:   -4.49 KCAL/MOL
REMARK 922        TOTAL FREE ENERGY PREDICTED BY IDOCK:   -7.81 KCAL/MOL
REMARK 923 INTER-LIGAND FREE ENERGY PREDICTED BY IDOCK:   -6.41 KCAL/MOL
REMARK 924 INTRA-LIGAND FREE ENERGY PREDICTED BY IDOCK:   -1.39 KCAL/MOL
REMARK 927      BINDING AFFINITY PREDICTED BY RF-SCORE:    0.00 PKD
ROOT
HETATM    1  C   UNL     1      -9.082   9.911  62.346  1.00  0.00    -0.308 C  
HETATM    2  C   UNL     1      -9.011  10.723  63.624  1.00  0.00    -0.171 C  
ENDROOT
BRANCH   2   3
HETATM    3  O   UNL     1      -9.065   9.852  64.762  1.00  0.00    -0.201 OA 
BRANCH   3   4
HETATM    4  C   UNL     1      -7.862   9.551  65.331  1.00  0.00    -0.109 C  
HETATM    5  O   UNL     1      -6.877   9.136  64.728  1.00  0.00    -0.083 OA 
BRANCH   4   6
HETATM    6  C   UNL     1      -7.903   9.835  66.843  1.00  0.00    -0.102 C  
BRANCH   6   7
HETATM    7  C   UNL     1      -7.844   8.514  67.617  1.00  0.00    -0.103 C  
BRANCH   7   8
HETATM    8  C   UNL     1      -7.780   8.719  69.136  1.00  0.00    -0.093 C  
BRANCH   8   9
HETATM    9  C   UNL     1      -9.079   8.284  69.766  1.00  0.00    -0.147 A  
HETATM   10  C   UNL     1     -11.584   7.523  70.760  1.00  0.00    -0.300 A  
HETATM   11  C   UNL     1     -10.807   6.606  70.056  1.00  0.00    -0.331 A  
HETATM   12  C   UNL     1      -9.558   6.984  69.560  1.00  0.00    -0.153 A  
HETATM   13  C   UNL     1     -11.110   8.815  70.981  1.00  0.00    -0.328 A  
HETATM   14  C   UNL     1      -9.861   9.195  70.488  1.00  0.00    -0.285 A  
ENDBRANCH   8   9
ENDBRANCH   7   8
ENDBRANCH   6   7
BRANCH   6  15
HETATM   15  N   UNL     1      -9.119  10.626  67.113  1.00  0.00    -0.143 NA 
HETATM   16  H   UNL     1     -10.035  10.295  66.809  1.00  0.00     0.000 HD 
BRANCH  15  17
HETATM   17  C   UNL     1      -8.980  11.920  67.839  1.00  0.00    -0.179 C  
HETATM   18  O   UNL     1     -10.736  12.534  66.304  1.00  0.00    -0.253 OA 
HETATM   19  C   UNL     1      -7.492  12.179  68.042  1.00  0.00    -0.116 C  
HETATM   20  O   UNL     1     -10.717  17.243  65.099  1.00  0.00    -0.687 OA 
HETATM   21  O   UNL     1      -8.695  16.335  65.521  1.00  0.00    -0.203 OA 
HETATM   22  C   UNL     1      -7.180  13.353  68.950  1.00  0.00    -0.062 C  
HETATM   23  C   UNL     1      -9.794  12.961  66.993  1.00  0.00    -0.233 C  
HETATM   24  C   UNL     1      -7.398  14.660  68.227  1.00  0.00    -0.117 C  
HETATM   25  N   UNL     1      -8.792  14.997  68.035  1.00  0.00    -0.162 NA 
HETATM   26  C   UNL     1     -10.045  16.372  65.636  1.00  0.00    -0.286 C  
HETATM   27  C   UNL     1      -9.554  15.412  69.209  1.00  0.00    -0.268 C  
HETATM   28  N   UNL     1      -9.565  14.340  67.059  1.00  0.00    -0.248 N  
HETATM   29  C   UNL     1     -10.676  16.357  68.758  1.00  0.00    -0.321 C  
HETATM   30  C   UNL     1     -10.625  15.228  66.480  1.00  0.00    -0.304 C  
HETATM   31  C   UNL     1     -11.512  15.756  67.622  1.00  0.00    -0.119 C  
ENDBRANCH  15  17
ENDBRANCH   6  15
ENDBRANCH   4   6
ENDBRANCH   3   4
ENDBRANCH   2   3
TORSDOF 8
ENDMDL
MODEL      161
REMARK 921   NORMALIZED FREE ENERGY PREDICTED BY IDOCK:   -4.49 KCAL/MOL
REMARK 922        TOTAL FREE ENERGY PREDICTED BY IDOCK:   -7.80 KCAL/MOL
REMARK 923 INTER-LIGAND FREE ENERGY PREDICTED BY IDOCK:   -8.23 KCAL/MOL
REMARK 924 INTRA-LIGAND FREE ENERGY PREDICTED BY IDOCK:    0.44 KCAL/MOL
REMARK 927      BINDING AFFINITY PREDICTED BY RF-SCORE:    0.00 PKD
ROOT
HETATM    1  C   UNL     1     -12.401  13.260  67.628  1.00  0.00     0.005 C  
HETATM    2  C   UNL     1     -12.471  12.626  66.252  1.00  0.00     0.282 C  
ENDROOT
BRANCH   2   3
HETATM    3  O   UNL     1     -13.105  13.523  65.330  1.00  0.00    -0.663 OA 
BRANCH   3   4
HETATM    4  C   UNL     1     -12.266  14.347  64.639  1.00  0.00    -0.464 C  
HETATM    5  O   UNL     1     -12.607  15.121  63.748  1.00  0.00    -0.752 OA 
BRANCH   4   6
HETATM    6  C   UNL     1     -10.825  14.193  65.155  1.00  0.00    -0.372 C  
BRANCH   6   7
HETATM    7  C   UNL     1     -10.245  15.573  65.484  1.00  0.00    -0.415 C  
BRANCH   7   8
HETATM    8  C   UNL     1     -10.632  16.058  66.888  1.00  0.00    -0.300 C  
BRANCH   8   9
HETATM    9  C   UNL     1     -10.350  17.535  67.013  1.00  0.00    -0.324 A  
HETATM   10  C   UNL     1     -10.026  20.301  67.298  1.00  0.00    -0.580 A  
HETATM   11  C   UNL     1      -9.889  19.466  68.405  1.00  0.00    -0.513 A  
HETATM   12  C   UNL     1     -10.050  18.088  68.265  1.00  0.00    -0.390 A  
HETATM   13  C   UNL     1     -10.311  19.759  66.046  1.00  0.00    -0.612 A  
HETATM   14  C   UNL     1     -10.472  18.380  65.902  1.00  0.00    -0.346 A  
ENDBRANCH   8   9
ENDBRANCH   7   8
ENDBRANCH   6   7
BRANCH   6  15
HETATM   15  N   UNL     1     -10.061  13.460  64.127  1.00  0.00    -0.779 NA 
HETATM   16  H   UNL     1      -9.638  13.954  63.340  1.00  0.00     0.000 HD 
BRANCH  15  17
HETATM   17  C   UNL     1      -9.921  11.982  64.261  1.00  0.00    -0.240 C  
HETATM   18  O   UNL     1      -9.070  12.642  66.419  1.00  0.00    -0.202 OA 
HETATM   19  C   UNL     1      -9.393  11.446  62.936  1.00  0.00    -0.351 C  
HETATM   20  O   UNL     1      -5.746   9.588  68.222  1.00  0.00    -0.037 OA 
HETATM   21  O   UNL     1      -5.780   9.778  65.974  1.00  0.00    -0.054 OA 
HETATM   22  C   UNL     1      -9.391   9.933  62.832  1.00  0.00    -0.232 C  
HETATM   23  C   UNL     1      -9.040  11.764  65.540  1.00  0.00     0.019 C  
HETATM   24  C   UNL     1      -8.250   9.345  63.624  1.00  0.00    -0.169 C  
HETATM   25  N   UNL     1      -8.448   9.386  65.057  1.00  0.00    -0.148 NA 
HETATM   26  C   UNL     1      -6.354   9.873  67.198  1.00  0.00    -0.068 C  
HETATM   27  C   UNL     1      -9.437   8.476  65.627  1.00  0.00     0.019 C  
HETATM   28  N   UNL     1      -8.308  10.592  65.769  1.00  0.00    -0.160 N  
HETATM   29  C   UNL     1      -9.026   8.146  67.068  1.00  0.00    -0.160 C  
HETATM   30  C   UNL     1      -7.804  10.373  67.164  1.00  0.00    -0.110 C  
HETATM   31  C   UNL     1      -8.756   9.409  67.894  1.00  0.00    -0.120 C  
ENDBRANCH  15  17
ENDBRANCH   6  15
ENDBRANCH   4   6
ENDBRANCH   3   4
ENDBRANCH   2   3
TORSDOF 8
ENDMDL
MODEL      162
REMARK 921   NORMALIZED FREE ENERGY PREDICTED BY IDOCK:   -4.48 KCAL/MOL
REMARK 922        TOTAL FREE ENERGY PREDICTED BY IDOCK:   -7.79 KCAL/MOL
REMARK 923 INTER-LIGAND FREE ENERGY PREDICTED BY IDOCK:   -6.19 KCAL/MOL
REMARK 924 INTRA-LIGAND FREE ENERGY PREDICTED BY IDOCK:   -1.60 KCAL/MOL
REMARK 927      BINDING AFFINITY PREDICTED BY RF-SCORE:    0.00 PKD
ROOT
HETATM    1  C   UNL     1     -11.821  11.028  69.361  1.00  0.00    -0.407 C  
HETATM    2  C   UNL     1     -11.079  10.114  70.317  1.00  0.00    -0.317 C  
ENDROOT
BRANCH   2   3
HETATM    3  O   UNL     1     -10.329   9.138  69.581  1.00  0.00    -0.203 OA 
BRANCH   3   4
HETATM    4  C   UNL     1      -9.013   9.435  69.381  1.00  0.00    -0.157 C  
HETATM    5  O   UNL     1      -8.256   9.906  70.225  1.00  0.00    -0.185 OA 
BRANCH   4   6
HETATM    6  C   UNL     1      -8.597   9.068  67.946  1.00  0.00    -0.125 C  
BRANCH   6   7
HETATM    7  C   UNL     1      -7.705   7.823  67.971  1.00  0.00    -0.126 C  
BRANCH   7   8
HETATM    8  C   UNL     1      -8.363   6.607  67.306  1.00  0.00    -0.120 C  
BRANCH   8   9
HETATM    9  C   UNL     1      -7.694   6.322  65.984  1.00  0.00    -0.092 A  
HETATM   10  C   UNL     1      -6.395   5.991  63.526  1.00  0.00    -0.029 A  
HETATM   11  C   UNL     1      -5.680   5.857  64.715  1.00  0.00    -0.024 A  
HETATM   12  C   UNL     1      -6.327   6.022  65.940  1.00  0.00    -0.042 A  
HETATM   13  C   UNL     1      -7.759   6.277  63.560  1.00  0.00    -0.105 A  
HETATM   14  C   UNL     1      -8.408   6.441  64.785  1.00  0.00    -0.035 A  
ENDBRANCH   8   9
ENDBRANCH   7   8
ENDBRANCH   6   7
BRANCH   6  15
HETATM   15  N   UNL     1      -7.945  10.252  67.356  1.00  0.00    -0.107 NA 
HETATM   16  H   UNL     1      -6.971  10.471  67.567  1.00  0.00     0.000 HD 
BRANCH  15  17
HETATM   17  C   UNL     1      -8.740  11.123  66.444  1.00  0.00    -0.177 C  
HETATM   18  O   UNL     1      -8.219  12.741  68.155  1.00  0.00    -0.152 OA 
HETATM   19  C   UNL     1      -9.936  10.313  65.958  1.00  0.00    -0.308 C  
HETATM   20  O   UNL     1     -11.604  16.190  68.675  1.00  0.00    -0.376 OA 
HETATM   21  O   UNL     1     -12.366  14.162  68.046  1.00  0.00    -0.233 OA 
HETATM   22  C   UNL     1     -10.736  10.981  64.856  1.00  0.00    -0.278 C  
HETATM   23  C   UNL     1      -9.027  12.429  67.264  1.00  0.00    -0.190 C  
HETATM   24  C   UNL     1     -11.600  12.084  65.418  1.00  0.00    -0.286 C  
HETATM   25  N   UNL     1     -10.864  13.271  65.795  1.00  0.00    -0.273 NA 
HETATM   26  C   UNL     1     -11.395  15.101  68.158  1.00  0.00    -0.335 C  
HETATM   27  C   UNL     1     -10.332  14.106  64.721  1.00  0.00    -0.359 C  
HETATM   28  N   UNL     1     -10.088  13.295  66.970  1.00  0.00    -0.239 N  
HETATM   29  C   UNL     1     -10.249  15.554  65.222  1.00  0.00    -0.380 C  
HETATM   30  C   UNL     1     -10.039  14.658  67.591  1.00  0.00    -0.228 C  
HETATM   31  C   UNL     1      -9.500  15.660  66.555  1.00  0.00    -0.300 C  
ENDBRANCH  15  17
ENDBRANCH   6  15
ENDBRANCH   4   6
ENDBRANCH   3   4
ENDBRANCH   2   3
TORSDOF 8
ENDMDL
MODEL      163
REMARK 921   NORMALIZED FREE ENERGY PREDICTED BY IDOCK:   -4.47 KCAL/MOL
REMARK 922        TOTAL FREE ENERGY PREDICTED BY IDOCK:   -7.77 KCAL/MOL
REMARK 923 INTER-LIGAND FREE ENERGY PREDICTED BY IDOCK:   -7.10 KCAL/MOL
REMARK 924 INTRA-LIGAND FREE ENERGY PREDICTED BY IDOCK:   -0.68 KCAL/MOL
REMARK 927      BINDING AFFINITY PREDICTED BY RF-SCORE:    0.00 PKD
ROOT
HETATM    1  C   UNL     1      -6.172  14.372  69.512  1.00  0.00    -0.121 C  
HETATM    2  C   UNL     1      -6.969  13.751  68.381  1.00  0.00    -0.103 C  
ENDROOT
BRANCH   2   3
HETATM    3  O   UNL     1      -6.984  12.324  68.518  1.00  0.00    -0.079 OA 
BRANCH   3   4
HETATM    4  C   UNL     1      -7.781  11.656  67.635  1.00  0.00    -0.133 C  
HETATM    5  O   UNL     1      -7.567  11.545  66.431  1.00  0.00    -0.091 OA 
BRANCH   4   6
HETATM    6  C   UNL     1      -8.979  11.029  68.369  1.00  0.00    -0.158 C  
BRANCH   6   7
HETATM    7  C   UNL     1     -10.188  11.967  68.275  1.00  0.00    -0.207 C  
BRANCH   7   8
HETATM    8  C   UNL     1     -11.358  11.350  67.497  1.00  0.00    -0.362 C  
BRANCH   8   9
HETATM    9  C   UNL     1     -11.408  11.929  66.105  1.00  0.00    -0.383 A  
HETATM   10  C   UNL     1     -11.684  12.912  63.499  1.00  0.00    -0.576 A  
HETATM   11  C   UNL     1     -12.212  13.627  64.572  1.00  0.00    -0.444 A  
HETATM   12  C   UNL     1     -12.074  13.138  65.871  1.00  0.00    -0.501 A  
HETATM   13  C   UNL     1     -11.008  11.715  63.722  1.00  0.00    -0.495 A  
HETATM   14  C   UNL     1     -10.868  11.224  65.022  1.00  0.00    -0.285 A  
ENDBRANCH   8   9
ENDBRANCH   7   8
ENDBRANCH   6   7
BRANCH   6  15
HETATM   15  N   UNL     1      -8.555  10.748  69.753  1.00  0.00    -0.308 NA 
HETATM   16  H   UNL     1      -7.879  11.350  70.224  1.00  0.00     0.000 HD 
BRANCH  15  17
HETATM   17  C   UNL     1      -9.134   9.564  70.450  1.00  0.00    -0.246 C  
HETATM   18  O   UNL     1      -7.747   8.418  68.844  1.00  0.00    -0.100 OA 
HETATM   19  C   UNL     1     -10.611   9.848  70.692  1.00  0.00    -0.341 C  
HETATM   20  O   UNL     1      -9.477   4.075  67.517  1.00  0.00    -0.169 OA 
HETATM   21  O   UNL     1     -11.030   5.630  68.026  1.00  0.00    -0.172 OA 
HETATM   22  C   UNL     1     -11.305   8.831  71.579  1.00  0.00    -0.375 C  
HETATM   23  C   UNL     1      -8.765   8.333  69.551  1.00  0.00    -0.138 C  
HETATM   24  C   UNL     1     -11.585   7.560  70.815  1.00  0.00    -0.277 C  
HETATM   25  N   UNL     1     -10.409   6.753  70.570  1.00  0.00    -0.199 NA 
HETATM   26  C   UNL     1      -9.781   5.109  68.097  1.00  0.00    -0.144 C  
HETATM   27  C   UNL     1      -9.823   6.051  71.708  1.00  0.00    -0.165 C  
HETATM   28  N   UNL     1      -9.472   7.125  69.587  1.00  0.00    -0.152 N  
HETATM   29  C   UNL     1      -9.124   4.785  71.196  1.00  0.00    -0.180 C  
HETATM   30  C   UNL     1      -8.813   5.938  68.952  1.00  0.00    -0.115 C  
HETATM   31  C   UNL     1      -8.151   5.087  70.051  1.00  0.00    -0.074 C  
ENDBRANCH  15  17
ENDBRANCH   6  15
ENDBRANCH   4   6
ENDBRANCH   3   4
ENDBRANCH   2   3
TORSDOF 8
ENDMDL
MODEL      164
REMARK 921   NORMALIZED FREE ENERGY PREDICTED BY IDOCK:   -4.47 KCAL/MOL
REMARK 922        TOTAL FREE ENERGY PREDICTED BY IDOCK:   -7.77 KCAL/MOL
REMARK 923 INTER-LIGAND FREE ENERGY PREDICTED BY IDOCK:   -6.59 KCAL/MOL
REMARK 924 INTRA-LIGAND FREE ENERGY PREDICTED BY IDOCK:   -1.19 KCAL/MOL
REMARK 927      BINDING AFFINITY PREDICTED BY RF-SCORE:    0.00 PKD
ROOT
HETATM    1  C   UNL     1     -13.370   9.946  71.841  1.00  0.00    -0.524 C  
HETATM    2  C   UNL     1     -12.359  10.834  71.142  1.00  0.00    -0.393 C  
ENDROOT
BRANCH   2   3
HETATM    3  O   UNL     1     -11.649  10.082  70.149  1.00  0.00    -0.258 OA 
BRANCH   3   4
HETATM    4  C   UNL     1     -10.373   9.730  70.477  1.00  0.00    -0.283 C  
HETATM    5  O   UNL     1     -10.039   9.156  71.510  1.00  0.00    -0.319 OA 
BRANCH   4   6
HETATM    6  C   UNL     1      -9.405  10.128  69.349  1.00  0.00    -0.219 C  
BRANCH   6   7
HETATM    7  C   UNL     1     -10.177  10.264  68.032  1.00  0.00    -0.200 C  
BRANCH   7   8
HETATM    8  C   UNL     1     -10.340  11.724  67.589  1.00  0.00    -0.219 C  
BRANCH   8   9
HETATM    9  C   UNL     1     -10.819  11.775  66.160  1.00  0.00    -0.336 A  
HETATM   10  C   UNL     1     -11.559  12.005  63.470  1.00  0.00    -0.553 A  
HETATM   11  C   UNL     1     -10.572  11.096  63.844  1.00  0.00    -0.431 A  
HETATM   12  C   UNL     1     -10.202  10.980  65.185  1.00  0.00    -0.352 A  
HETATM   13  C   UNL     1     -12.187  12.791  64.434  1.00  0.00    -0.499 A  
HETATM   14  C   UNL     1     -11.821  12.676  65.776  1.00  0.00    -0.497 A  
ENDBRANCH   8   9
ENDBRANCH   7   8
ENDBRANCH   6   7
BRANCH   6  15
HETATM   15  N   UNL     1      -8.334   9.113  69.305  1.00  0.00    -0.119 NA 
HETATM   16  H   UNL     1      -7.848   8.831  70.156  1.00  0.00     0.000 HD 
BRANCH  15  17
HETATM   17  C   UNL     1      -7.978   8.510  67.989  1.00  0.00    -0.111 C  
HETATM   18  O   UNL     1      -9.308   6.708  68.884  1.00  0.00    -0.130 OA 
HETATM   19  C   UNL     1      -6.513   8.828  67.717  1.00  0.00    -0.061 C  
HETATM   20  O   UNL     1      -7.967   2.316  67.292  1.00  0.00    -0.065 OA 
HETATM   21  O   UNL     1      -6.307   3.830  67.494  1.00  0.00    -0.035 OA 
HETATM   22  C   UNL     1      -6.045   8.466  66.320  1.00  0.00    -0.048 C  
HETATM   23  C   UNL     1      -8.390   7.001  68.099  1.00  0.00    -0.123 C  
HETATM   24  C   UNL     1      -5.835   6.977  66.197  1.00  0.00    -0.035 C  
HETATM   25  N   UNL     1      -7.064   6.215  66.134  1.00  0.00    -0.066 NA 
HETATM   26  C   UNL     1      -7.609   3.485  67.343  1.00  0.00    -0.074 C  
HETATM   27  C   UNL     1      -7.850   6.302  64.906  1.00  0.00    -0.113 C  
HETATM   28  N   UNL     1      -7.839   6.000  67.290  1.00  0.00    -0.101 N  
HETATM   29  C   UNL     1      -8.633   4.994  64.732  1.00  0.00    -0.150 C  
HETATM   30  C   UNL     1      -8.560   4.687  67.255  1.00  0.00    -0.104 C  
HETATM   31  C   UNL     1      -9.433   4.630  65.988  1.00  0.00    -0.171 C  
ENDBRANCH  15  17
ENDBRANCH   6  15
ENDBRANCH   4   6
ENDBRANCH   3   4
ENDBRANCH   2   3
TORSDOF 8
ENDMDL
MODEL      165
REMARK 921   NORMALIZED FREE ENERGY PREDICTED BY IDOCK:   -4.47 KCAL/MOL
REMARK 922        TOTAL FREE ENERGY PREDICTED BY IDOCK:   -7.77 KCAL/MOL
REMARK 923 INTER-LIGAND FREE ENERGY PREDICTED BY IDOCK:   -6.26 KCAL/MOL
REMARK 924 INTRA-LIGAND FREE ENERGY PREDICTED BY IDOCK:   -1.50 KCAL/MOL
REMARK 927      BINDING AFFINITY PREDICTED BY RF-SCORE:    0.00 PKD
ROOT
HETATM    1  C   UNL     1     -12.100  14.352  70.500  1.00  0.00    -0.404 C  
HETATM    2  C   UNL     1     -11.794  13.012  69.857  1.00  0.00    -0.307 C  
ENDROOT
BRANCH   2   3
HETATM    3  O   UNL     1     -12.033  13.080  68.445  1.00  0.00    -0.336 OA 
BRANCH   3   4
HETATM    4  C   UNL     1     -11.398  12.135  67.694  1.00  0.00    -0.314 C  
HETATM    5  O   UNL     1     -11.851  11.612  66.680  1.00  0.00    -0.533 OA 
BRANCH   4   6
HETATM    6  C   UNL     1     -10.008  11.835  68.283  1.00  0.00    -0.200 C  
BRANCH   6   7
HETATM    7  C   UNL     1      -8.932  12.538  67.449  1.00  0.00    -0.188 C  
BRANCH   7   8
HETATM    8  C   UNL     1      -8.235  13.671  68.213  1.00  0.00    -0.156 C  
BRANCH   8   9
HETATM    9  C   UNL     1      -8.920  14.983  67.921  1.00  0.00    -0.175 A  
HETATM   10  C   UNL     1     -10.357  17.342  67.469  1.00  0.00    -0.351 A  
HETATM   11  C   UNL     1      -9.665  17.167  68.666  1.00  0.00    -0.293 A  
HETATM   12  C   UNL     1      -8.948  15.992  68.891  1.00  0.00    -0.239 A  
HETATM   13  C   UNL     1     -10.324  16.350  66.492  1.00  0.00    -0.306 A  
HETATM   14  C   UNL     1      -9.606  15.174  66.714  1.00  0.00    -0.260 A  
ENDBRANCH   8   9
ENDBRANCH   7   8
ENDBRANCH   6   7
BRANCH   6  15
HETATM   15  N   UNL     1      -9.854  10.368  68.331  1.00  0.00    -0.157 NA 
HETATM   16  H   UNL     1      -9.996   9.801  67.495  1.00  0.00     0.000 HD 
BRANCH  15  17
HETATM   17  C   UNL     1      -9.487   9.733  69.629  1.00  0.00    -0.219 C  
HETATM   18  O   UNL     1      -7.822   8.704  68.220  1.00  0.00    -0.100 OA 
HETATM   19  C   UNL     1     -10.781   9.353  70.339  1.00  0.00    -0.317 C  
HETATM   20  O   UNL     1      -6.486   4.270  69.696  1.00  0.00    -0.031 OA 
HETATM   21  O   UNL     1      -8.626   4.839  70.126  1.00  0.00    -0.081 OA 
HETATM   22  C   UNL     1     -10.594   8.884  71.769  1.00  0.00    -0.432 C  
HETATM   23  C   UNL     1      -8.491   8.579  69.260  1.00  0.00    -0.128 C  
HETATM   24  C   UNL     1     -10.059   7.474  71.803  1.00  0.00    -0.176 C  
HETATM   25  N   UNL     1      -8.663   7.367  71.437  1.00  0.00    -0.125 NA 
HETATM   26  C   UNL     1      -7.331   5.140  69.864  1.00  0.00    -0.060 C  
HETATM   27  C   UNL     1      -7.675   7.865  72.391  1.00  0.00    -0.109 C  
HETATM   28  N   UNL     1      -8.260   7.477  70.092  1.00  0.00    -0.130 N  
HETATM   29  C   UNL     1      -6.374   7.074  72.205  1.00  0.00    -0.045 C  
HETATM   30  C   UNL     1      -7.049   6.646  69.792  1.00  0.00    -0.068 C  
HETATM   31  C   UNL     1      -5.912   7.059  70.743  1.00  0.00    -0.028 C  
ENDBRANCH  15  17
ENDBRANCH   6  15
ENDBRANCH   4   6
ENDBRANCH   3   4
ENDBRANCH   2   3
TORSDOF 8
ENDMDL
MODEL      166
REMARK 921   NORMALIZED FREE ENERGY PREDICTED BY IDOCK:   -4.44 KCAL/MOL
REMARK 922        TOTAL FREE ENERGY PREDICTED BY IDOCK:   -7.73 KCAL/MOL
REMARK 923 INTER-LIGAND FREE ENERGY PREDICTED BY IDOCK:   -6.73 KCAL/MOL
REMARK 924 INTRA-LIGAND FREE ENERGY PREDICTED BY IDOCK:   -0.99 KCAL/MOL
REMARK 927      BINDING AFFINITY PREDICTED BY RF-SCORE:    0.00 PKD
ROOT
HETATM    1  C   UNL     1     -11.000   6.121  67.749  1.00  0.00    -0.400 C  
HETATM    2  C   UNL     1     -10.267   7.234  67.025  1.00  0.00    -0.278 C  
ENDROOT
BRANCH   2   3
HETATM    3  O   UNL     1      -9.256   7.789  67.877  1.00  0.00    -0.137 OA 
BRANCH   3   4
HETATM    4  C   UNL     1      -8.368   8.628  67.268  1.00  0.00    -0.108 C  
HETATM    5  O   UNL     1      -8.332   8.869  66.065  1.00  0.00    -0.115 OA 
BRANCH   4   6
HETATM    6  C   UNL     1      -7.431   9.258  68.312  1.00  0.00    -0.079 C  
BRANCH   6   7
HETATM    7  C   UNL     1      -7.224   8.281  69.475  1.00  0.00    -0.061 C  
BRANCH   7   8
HETATM    8  C   UNL     1      -7.353   8.956  70.847  1.00  0.00    -0.100 C  
BRANCH   8   9
HETATM    9  C   UNL     1      -7.905   7.974  71.850  1.00  0.00    -0.127 A  
HETATM   10  C   UNL     1      -9.098   6.139  73.595  1.00  0.00    -0.129 A  
HETATM   11  C   UNL     1      -8.356   5.684  72.507  1.00  0.00    -0.114 A  
HETATM   12  C   UNL     1      -7.761   6.598  71.637  1.00  0.00    -0.098 A  
HETATM   13  C   UNL     1      -9.236   7.507  73.823  1.00  0.00    -0.327 A  
HETATM   14  C   UNL     1      -8.640   8.423  72.955  1.00  0.00    -0.232 A  
ENDBRANCH   8   9
ENDBRANCH   7   8
ENDBRANCH   6   7
BRANCH   6  15
HETATM   15  N   UNL     1      -8.023  10.546  68.720  1.00  0.00    -0.118 NA 
HETATM   16  H   UNL     1      -7.540  11.156  69.381  1.00  0.00     0.000 HD 
BRANCH  15  17
HETATM   17  C   UNL     1      -9.342  10.938  68.146  1.00  0.00    -0.165 C  
HETATM   18  O   UNL     1      -7.920  12.402  66.862  1.00  0.00    -0.138 OA 
HETATM   19  C   UNL     1     -10.338  11.026  69.296  1.00  0.00    -0.181 C  
HETATM   20  O   UNL     1     -10.075  16.556  65.548  1.00  0.00    -0.535 OA 
HETATM   21  O   UNL     1     -10.745  15.690  67.521  1.00  0.00    -0.292 OA 
HETATM   22  C   UNL     1     -11.779  11.209  68.861  1.00  0.00    -0.406 C  
HETATM   23  C   UNL     1      -9.064  12.241  67.319  1.00  0.00    -0.184 C  
HETATM   24  C   UNL     1     -12.027  12.632  68.422  1.00  0.00    -0.221 C  
HETATM   25  N   UNL     1     -11.450  12.957  67.135  1.00  0.00    -0.316 NA 
HETATM   26  C   UNL     1     -10.195  15.587  66.286  1.00  0.00    -0.294 C  
HETATM   27  C   UNL     1     -12.077  12.382  65.949  1.00  0.00    -0.281 C  
HETATM   28  N   UNL     1     -10.064  13.167  66.999  1.00  0.00    -0.238 N  
HETATM   29  C   UNL     1     -11.841  13.326  64.763  1.00  0.00    -0.411 C  
HETATM   30  C   UNL     1      -9.743  14.165  65.928  1.00  0.00    -0.241 C  
HETATM   31  C   UNL     1     -10.360  13.688  64.601  1.00  0.00    -0.407 C  
ENDBRANCH  15  17
ENDBRANCH   6  15
ENDBRANCH   4   6
ENDBRANCH   3   4
ENDBRANCH   2   3
TORSDOF 8
ENDMDL
MODEL      167
REMARK 921   NORMALIZED FREE ENERGY PREDICTED BY IDOCK:   -4.42 KCAL/MOL
REMARK 922        TOTAL FREE ENERGY PREDICTED BY IDOCK:   -7.70 KCAL/MOL
REMARK 923 INTER-LIGAND FREE ENERGY PREDICTED BY IDOCK:   -6.74 KCAL/MOL
REMARK 924 INTRA-LIGAND FREE ENERGY PREDICTED BY IDOCK:   -0.96 KCAL/MOL
REMARK 927      BINDING AFFINITY PREDICTED BY RF-SCORE:    0.00 PKD
ROOT
HETATM    1  C   UNL     1     -10.147   7.554  73.234  1.00  0.00    -0.386 C  
HETATM    2  C   UNL     1      -8.967   8.427  72.851  1.00  0.00    -0.196 C  
ENDROOT
BRANCH   2   3
HETATM    3  O   UNL     1      -9.279   9.185  71.674  1.00  0.00    -0.320 OA 
BRANCH   3   4
HETATM    4  C   UNL     1      -8.791   8.683  70.504  1.00  0.00    -0.163 C  
HETATM    5  O   UNL     1      -7.893   7.852  70.409  1.00  0.00    -0.086 OA 
BRANCH   4   6
HETATM    6  C   UNL     1      -9.551   9.285  69.309  1.00  0.00    -0.161 C  
BRANCH   6   7
HETATM    7  C   UNL     1      -9.052   8.648  68.008  1.00  0.00    -0.144 C  
BRANCH   7   8
HETATM    8  C   UNL     1     -10.164   7.919  67.241  1.00  0.00    -0.343 C  
BRANCH   8   9
HETATM    9  C   UNL     1      -9.575   6.780  66.447  1.00  0.00    -0.149 A  
HETATM   10  C   UNL     1      -8.614   4.712  64.823  1.00  0.00    -0.142 A  
HETATM   11  C   UNL     1      -8.081   5.994  64.706  1.00  0.00    -0.132 A  
HETATM   12  C   UNL     1      -8.559   7.025  65.515  1.00  0.00    -0.091 A  
HETATM   13  C   UNL     1      -9.616   4.455  65.757  1.00  0.00    -0.188 A  
HETATM   14  C   UNL     1     -10.095   5.484  66.569  1.00  0.00    -0.241 A  
ENDBRANCH   8   9
ENDBRANCH   7   8
ENDBRANCH   6   7
BRANCH   6  15
HETATM   15  N   UNL     1      -9.368  10.749  69.359  1.00  0.00    -0.415 NA 
HETATM   16  H   UNL     1      -8.557  11.157  69.825  1.00  0.00     0.000 HD 
BRANCH  15  17
HETATM   17  C   UNL     1     -10.394  11.617  68.715  1.00  0.00    -0.195 C  
HETATM   18  O   UNL     1      -8.492  12.203  67.353  1.00  0.00    -0.156 OA 
HETATM   19  C   UNL     1     -11.242  12.229  69.824  1.00  0.00    -0.044 C  
HETATM   20  O   UNL     1      -8.653  16.744  65.627  1.00  0.00    -0.415 OA 
HETATM   21  O   UNL     1      -9.611  16.432  67.645  1.00  0.00    -0.225 OA 
HETATM   22  C   UNL     1     -12.467  12.977  69.332  1.00  0.00     0.160 C  
HETATM   23  C   UNL     1      -9.589  12.593  67.789  1.00  0.00    -0.197 C  
HETATM   24  C   UNL     1     -12.080  14.321  68.766  1.00  0.00    -0.265 C  
HETATM   25  N   UNL     1     -11.432  14.249  67.474  1.00  0.00    -0.326 NA 
HETATM   26  C   UNL     1      -9.173  15.992  66.441  1.00  0.00    -0.305 C  
HETATM   27  C   UNL     1     -12.259  13.897  66.323  1.00  0.00    -0.461 C  
HETATM   28  N   UNL     1     -10.093  13.828  67.362  1.00  0.00    -0.242 N  
HETATM   29  C   UNL     1     -11.650  14.536  65.068  1.00  0.00    -0.382 C  
HETATM   30  C   UNL     1      -9.383  14.488  66.219  1.00  0.00    -0.247 C  
HETATM   31  C   UNL     1     -10.160  14.208  64.920  1.00  0.00    -0.280 C  
ENDBRANCH  15  17
ENDBRANCH   6  15
ENDBRANCH   4   6
ENDBRANCH   3   4
ENDBRANCH   2   3
TORSDOF 8
ENDMDL
MODEL      168
REMARK 921   NORMALIZED FREE ENERGY PREDICTED BY IDOCK:   -4.40 KCAL/MOL
REMARK 922        TOTAL FREE ENERGY PREDICTED BY IDOCK:   -7.67 KCAL/MOL
REMARK 923 INTER-LIGAND FREE ENERGY PREDICTED BY IDOCK:   -6.67 KCAL/MOL
REMARK 924 INTRA-LIGAND FREE ENERGY PREDICTED BY IDOCK:   -1.01 KCAL/MOL
REMARK 927      BINDING AFFINITY PREDICTED BY RF-SCORE:    0.00 PKD
ROOT
HETATM    1  C   UNL     1     -11.000   6.549  69.066  1.00  0.00    -0.378 C  
HETATM    2  C   UNL     1     -10.866   6.382  67.565  1.00  0.00    -0.354 C  
ENDROOT
BRANCH   2   3
HETATM    3  O   UNL     1     -10.888   7.665  66.924  1.00  0.00    -0.328 OA 
BRANCH   3   4
HETATM    4  C   UNL     1      -9.668   8.229  66.692  1.00  0.00    -0.251 C  
HETATM    5  O   UNL     1      -8.594   7.785  67.088  1.00  0.00    -0.125 OA 
BRANCH   4   6
HETATM    6  C   UNL     1      -9.823   9.494  65.830  1.00  0.00    -0.293 C  
BRANCH   6   7
HETATM    7  C   UNL     1      -8.507   9.785  65.101  1.00  0.00    -0.157 C  
BRANCH   7   8
HETATM    8  C   UNL     1      -8.424   9.100  63.730  1.00  0.00    -0.187 C  
BRANCH   8   9
HETATM    9  C   UNL     1      -7.359   8.032  63.756  1.00  0.00    -0.102 A  
HETATM   10  C   UNL     1      -5.473   5.975  63.970  1.00  0.00    -0.018 A  
HETATM   11  C   UNL     1      -6.662   5.760  63.276  1.00  0.00    -0.033 A  
HETATM   12  C   UNL     1      -7.603   6.785  63.168  1.00  0.00    -0.089 A  
HETATM   13  C   UNL     1      -5.216   7.217  64.547  1.00  0.00    -0.029 A  
HETATM   14  C   UNL     1      -6.155   8.245  64.439  1.00  0.00    -0.065 A  
ENDBRANCH   8   9
ENDBRANCH   7   8
ENDBRANCH   6   7
BRANCH   6  15
HETATM   15  N   UNL     1     -10.261  10.586  66.720  1.00  0.00    -0.226 NA 
HETATM   16  H   UNL     1     -10.712  10.383  67.612  1.00  0.00     0.000 HD 
BRANCH  15  17
HETATM   17  C   UNL     1     -10.031  11.994  66.287  1.00  0.00    -0.227 C  
HETATM   18  O   UNL     1      -9.720  12.273  68.662  1.00  0.00    -0.170 OA 
HETATM   19  C   UNL     1     -11.067  12.324  65.219  1.00  0.00    -0.359 C  
HETATM   20  O   UNL     1     -10.954  16.685  70.286  1.00  0.00    -0.300 OA 
HETATM   21  O   UNL     1     -12.147  15.922  68.530  1.00  0.00    -0.208 OA 
HETATM   22  C   UNL     1     -10.842  13.651  64.520  1.00  0.00    -0.416 C  
HETATM   23  C   UNL     1     -10.045  12.842  67.606  1.00  0.00    -0.221 C  
HETATM   24  C   UNL     1     -11.260  14.799  65.406  1.00  0.00    -0.347 C  
HETATM   25  N   UNL     1     -10.347  15.060  66.498  1.00  0.00    -0.276 NA 
HETATM   26  C   UNL     1     -11.044  15.943  69.317  1.00  0.00    -0.312 C  
HETATM   27  C   UNL     1      -9.057  15.660  66.170  1.00  0.00    -0.342 C  
HETATM   28  N   UNL     1     -10.312  14.216  67.625  1.00  0.00    -0.240 N  
HETATM   29  C   UNL     1      -8.576  16.477  67.376  1.00  0.00    -0.193 C  
HETATM   30  C   UNL     1      -9.953  14.957  68.878  1.00  0.00    -0.233 C  
HETATM   31  C   UNL     1      -8.599  15.659  68.673  1.00  0.00    -0.188 C  
ENDBRANCH  15  17
ENDBRANCH   6  15
ENDBRANCH   4   6
ENDBRANCH   3   4
ENDBRANCH   2   3
TORSDOF 8
ENDMDL
MODEL      169
REMARK 921   NORMALIZED FREE ENERGY PREDICTED BY IDOCK:   -4.39 KCAL/MOL
REMARK 922        TOTAL FREE ENERGY PREDICTED BY IDOCK:   -7.65 KCAL/MOL
REMARK 923 INTER-LIGAND FREE ENERGY PREDICTED BY IDOCK:   -6.66 KCAL/MOL
REMARK 924 INTRA-LIGAND FREE ENERGY PREDICTED BY IDOCK:   -1.00 KCAL/MOL
REMARK 927      BINDING AFFINITY PREDICTED BY RF-SCORE:    0.00 PKD
ROOT
HETATM    1  C   UNL     1      -9.587   7.799  73.458  1.00  0.00    -0.332 C  
HETATM    2  C   UNL     1     -10.949   7.370  72.947  1.00  0.00    -0.361 C  
ENDROOT
BRANCH   2   3
HETATM    3  O   UNL     1     -11.230   8.016  71.698  1.00  0.00    -0.242 OA 
BRANCH   3   4
HETATM    4  C   UNL     1     -11.108   7.231  70.589  1.00  0.00    -0.264 C  
HETATM    5  O   UNL     1     -11.221   6.009  70.569  1.00  0.00    -0.323 OA 
BRANCH   4   6
HETATM    6  C   UNL     1     -10.837   8.102  69.349  1.00  0.00    -0.086 C  
BRANCH   6   7
HETATM    7  C   UNL     1      -9.861   7.378  68.416  1.00  0.00    -0.165 C  
BRANCH   7   8
HETATM    8  C   UNL     1     -10.549   6.795  67.175  1.00  0.00    -0.401 C  
BRANCH   8   9
HETATM    9  C   UNL     1      -9.642   5.788  66.513  1.00  0.00    -0.175 A  
HETATM   10  C   UNL     1      -7.971   3.807  65.455  1.00  0.00    -0.093 A  
HETATM   11  C   UNL     1      -9.353   3.692  65.328  1.00  0.00    -0.158 A  
HETATM   12  C   UNL     1     -10.187   4.679  65.855  1.00  0.00    -0.303 A  
HETATM   13  C   UNL     1      -7.418   4.914  66.097  1.00  0.00    -0.086 A  
HETATM   14  C   UNL     1      -8.250   5.903  66.623  1.00  0.00    -0.106 A  
ENDBRANCH   8   9
ENDBRANCH   7   8
ENDBRANCH   6   7
BRANCH   6  15
HETATM   15  N   UNL     1     -10.345   9.409  69.824  1.00  0.00    -0.209 NA 
HETATM   16  H   UNL     1      -9.525   9.469  70.429  1.00  0.00     0.000 HD 
BRANCH  15  17
HETATM   17  C   UNL     1     -11.071  10.640  69.401  1.00  0.00    -0.260 C  
HETATM   18  O   UNL     1      -9.159  10.807  67.941  1.00  0.00    -0.145 OA 
HETATM   19  C   UNL     1     -11.616  11.309  70.657  1.00  0.00    -0.117 C  
HETATM   20  O   UNL     1      -7.946  15.380  66.828  1.00  0.00    -0.223 OA 
HETATM   21  O   UNL     1      -8.842  15.079  68.876  1.00  0.00    -0.185 OA 
HETATM   22  C   UNL     1     -12.560  12.465  70.388  1.00  0.00    -0.101 C  
HETATM   23  C   UNL     1     -10.046  11.447  68.529  1.00  0.00    -0.206 C  
HETATM   24  C   UNL     1     -11.794  13.693  69.961  1.00  0.00    -0.308 C  
HETATM   25  N   UNL     1     -11.275  13.620  68.613  1.00  0.00    -0.261 NA 
HETATM   26  C   UNL     1      -8.635  14.712  67.588  1.00  0.00    -0.176 C  
HETATM   27  C   UNL     1     -12.232  13.721  67.514  1.00  0.00    -0.227 C  
HETATM   28  N   UNL     1     -10.150  12.827  68.315  1.00  0.00    -0.234 N  
HETATM   29  C   UNL     1     -11.519  14.322  66.296  1.00  0.00    -0.360 C  
HETATM   30  C   UNL     1      -9.329  13.400  67.199  1.00  0.00    -0.240 C  
HETATM   31  C   UNL     1     -10.224  13.575  65.959  1.00  0.00    -0.308 C  
ENDBRANCH  15  17
ENDBRANCH   6  15
ENDBRANCH   4   6
ENDBRANCH   3   4
ENDBRANCH   2   3
TORSDOF 8
ENDMDL
MODEL      170
REMARK 921   NORMALIZED FREE ENERGY PREDICTED BY IDOCK:   -4.39 KCAL/MOL
REMARK 922        TOTAL FREE ENERGY PREDICTED BY IDOCK:   -7.65 KCAL/MOL
REMARK 923 INTER-LIGAND FREE ENERGY PREDICTED BY IDOCK:   -6.91 KCAL/MOL
REMARK 924 INTRA-LIGAND FREE ENERGY PREDICTED BY IDOCK:   -0.74 KCAL/MOL
REMARK 927      BINDING AFFINITY PREDICTED BY RF-SCORE:    0.00 PKD
ROOT
HETATM    1  C   UNL     1      -7.017  10.664  66.158  1.00  0.00    -0.135 C  
HETATM    2  C   UNL     1      -7.752   9.571  66.910  1.00  0.00    -0.098 C  
ENDROOT
BRANCH   2   3
HETATM    3  O   UNL     1      -8.875   9.117  66.143  1.00  0.00    -0.142 OA 
BRANCH   3   4
HETATM    4  C   UNL     1      -9.993   8.809  66.861  1.00  0.00    -0.257 C  
HETATM    5  O   UNL     1     -10.708   7.828  66.674  1.00  0.00    -0.231 OA 
BRANCH   4   6
HETATM    6  C   UNL     1     -10.218   9.853  67.969  1.00  0.00    -0.182 C  
BRANCH   6   7
HETATM    7  C   UNL     1     -10.462   9.143  69.305  1.00  0.00    -0.231 C  
BRANCH   7   8
HETATM    8  C   UNL     1      -9.386   9.463  70.351  1.00  0.00    -0.317 C  
BRANCH   8   9
HETATM    9  C   UNL     1      -9.508   8.514  71.517  1.00  0.00    -0.290 A  
HETATM   10  C   UNL     1      -9.709   6.913  73.805  1.00  0.00    -0.286 A  
HETATM   11  C   UNL     1     -10.845   7.532  73.287  1.00  0.00    -0.409 A  
HETATM   12  C   UNL     1     -10.745   8.330  72.146  1.00  0.00    -0.389 A  
HETATM   13  C   UNL     1      -8.476   7.079  73.178  1.00  0.00    -0.136 A  
HETATM   14  C   UNL     1      -8.374   7.875  72.036  1.00  0.00    -0.161 A  
ENDBRANCH   8   9
ENDBRANCH   7   8
ENDBRANCH   6   7
BRANCH   6  15
HETATM   15  N   UNL     1     -11.338  10.716  67.544  1.00  0.00    -0.447 NA 
HETATM   16  H   UNL     1     -12.292  10.517  67.846  1.00  0.00     0.000 HD 
BRANCH  15  17
HETATM   17  C   UNL     1     -11.044  11.883  66.665  1.00  0.00    -0.310 C  
HETATM   18  O   UNL     1     -10.032  12.680  68.703  1.00  0.00    -0.194 OA 
HETATM   19  C   UNL     1     -12.284  12.149  65.820  1.00  0.00     0.005 C  
HETATM   20  O   UNL     1     -10.113  17.518  69.160  1.00  0.00    -0.307 OA 
HETATM   21  O   UNL     1     -11.854  16.613  68.046  1.00  0.00     0.214 OA 
HETATM   22  C   UNL     1     -12.083  13.173  64.721  1.00  0.00    -0.459 C  
HETATM   23  C   UNL     1     -10.561  13.020  67.631  1.00  0.00    -0.224 C  
HETATM   24  C   UNL     1     -12.064  14.571  65.290  1.00  0.00    -0.337 C  
HETATM   25  N   UNL     1     -10.850  14.895  66.007  1.00  0.00    -0.320 NA 
HETATM   26  C   UNL     1     -10.580  16.593  68.508  1.00  0.00    -0.338 C  
HETATM   27  C   UNL     1      -9.636  15.097  65.222  1.00  0.00     0.022 C  
HETATM   28  N   UNL     1     -10.614  14.378  67.295  1.00  0.00    -0.276 N  
HETATM   29  C   UNL     1      -8.720  16.069  65.977  1.00  0.00    -0.267 C  
HETATM   30  C   UNL     1      -9.811  15.315  68.146  1.00  0.00    -0.217 C  
HETATM   31  C   UNL     1      -8.487  15.631  67.428  1.00  0.00    -0.191 C  
ENDBRANCH  15  17
ENDBRANCH   6  15
ENDBRANCH   4   6
ENDBRANCH   3   4
ENDBRANCH   2   3
TORSDOF 8
ENDMDL
MODEL      171
REMARK 921   NORMALIZED FREE ENERGY PREDICTED BY IDOCK:   -4.38 KCAL/MOL
REMARK 922        TOTAL FREE ENERGY PREDICTED BY IDOCK:   -7.64 KCAL/MOL
REMARK 923 INTER-LIGAND FREE ENERGY PREDICTED BY IDOCK:   -6.36 KCAL/MOL
REMARK 924 INTRA-LIGAND FREE ENERGY PREDICTED BY IDOCK:   -1.29 KCAL/MOL
REMARK 927      BINDING AFFINITY PREDICTED BY RF-SCORE:    0.00 PKD
ROOT
HETATM    1  C   UNL     1     -11.091   7.168  67.281  1.00  0.00    -0.229 C  
HETATM    2  C   UNL     1     -10.992   6.506  68.642  1.00  0.00    -0.293 C  
ENDROOT
BRANCH   2   3
HETATM    3  O   UNL     1     -10.277   7.356  69.549  1.00  0.00    -0.193 OA 
BRANCH   3   4
HETATM    4  C   UNL     1     -10.784   8.613  69.702  1.00  0.00    -0.200 C  
HETATM    5  O   UNL     1     -11.885   8.881  70.175  1.00  0.00     0.016 OA 
BRANCH   4   6
HETATM    6  C   UNL     1      -9.761   9.659  69.225  1.00  0.00    -0.185 C  
BRANCH   6   7
HETATM    7  C   UNL     1      -8.362   9.275  69.717  1.00  0.00    -0.143 C  
BRANCH   7   8
HETATM    8  C   UNL     1      -7.280   9.480  68.649  1.00  0.00    -0.074 C  
BRANCH   8   9
HETATM    9  C   UNL     1      -7.564   8.599  67.457  1.00  0.00    -0.094 A  
HETATM   10  C   UNL     1      -7.889   6.970  65.204  1.00  0.00    -0.124 A  
HETATM   11  C   UNL     1      -7.571   6.400  66.435  1.00  0.00    -0.090 A  
HETATM   12  C   UNL     1      -7.409   7.211  67.559  1.00  0.00    -0.092 A  
HETATM   13  C   UNL     1      -8.057   8.349  65.096  1.00  0.00    -0.147 A  
HETATM   14  C   UNL     1      -7.898   9.163  66.219  1.00  0.00    -0.103 A  
ENDBRANCH   8   9
ENDBRANCH   7   8
ENDBRANCH   6   7
BRANCH   6  15
HETATM   15  N   UNL     1     -10.217  10.977  69.707  1.00  0.00    -0.408 NA 
HETATM   16  H   UNL     1     -10.621  11.080  70.639  1.00  0.00     0.000 HD 
BRANCH  15  17
HETATM   17  C   UNL     1     -10.075  12.155  68.804  1.00  0.00    -0.084 C  
HETATM   18  O   UNL     1     -12.149  11.270  67.949  1.00  0.00    -0.634 OA 
HETATM   19  C   UNL     1      -8.611  12.246  68.392  1.00  0.00    -0.136 C  
HETATM   20  O   UNL     1     -12.851  12.165  63.224  1.00  0.00    -0.735 OA 
HETATM   21  O   UNL     1     -10.703  11.892  63.857  1.00  0.00    -0.318 OA 
HETATM   22  C   UNL     1      -8.252  13.513  67.639  1.00  0.00    -0.178 C  
HETATM   23  C   UNL     1     -11.140  11.941  67.673  1.00  0.00    -0.257 C  
HETATM   24  C   UNL     1      -8.740  13.443  66.213  1.00  0.00     0.386 C  
HETATM   25  N   UNL     1     -10.172  13.598  66.075  1.00  0.00    -0.300 NA 
HETATM   26  C   UNL     1     -12.002  12.191  64.105  1.00  0.00    -0.408 C  
HETATM   27  C   UNL     1     -10.731  14.929  66.300  1.00  0.00    -0.320 C  
HETATM   28  N   UNL     1     -11.047  12.549  66.416  1.00  0.00    -0.277 N  
HETATM   29  C   UNL     1     -12.011  15.070  65.465  1.00  0.00     0.000 C  
HETATM   30  C   UNL     1     -12.286  12.545  65.571  1.00  0.00    -0.377 C  
HETATM   31  C   UNL     1     -12.984  13.910  65.702  1.00  0.00    -0.361 C  
ENDBRANCH  15  17
ENDBRANCH   6  15
ENDBRANCH   4   6
ENDBRANCH   3   4
ENDBRANCH   2   3
TORSDOF 8
ENDMDL
MODEL      172
REMARK 921   NORMALIZED FREE ENERGY PREDICTED BY IDOCK:   -4.38 KCAL/MOL
REMARK 922        TOTAL FREE ENERGY PREDICTED BY IDOCK:   -7.64 KCAL/MOL
REMARK 923 INTER-LIGAND FREE ENERGY PREDICTED BY IDOCK:   -6.28 KCAL/MOL
REMARK 924 INTRA-LIGAND FREE ENERGY PREDICTED BY IDOCK:   -1.36 KCAL/MOL
REMARK 927      BINDING AFFINITY PREDICTED BY RF-SCORE:    0.00 PKD
ROOT
HETATM    1  C   UNL     1     -12.150  13.195  63.532  1.00  0.00    -0.585 C  
HETATM    2  C   UNL     1     -11.171  12.049  63.360  1.00  0.00    -0.398 C  
ENDROOT
BRANCH   2   3
HETATM    3  O   UNL     1     -10.467  11.817  64.588  1.00  0.00    -0.269 OA 
BRANCH   3   4
HETATM    4  C   UNL     1     -10.107  10.523  64.825  1.00  0.00    -0.336 C  
HETATM    5  O   UNL     1      -9.488   9.805  64.045  1.00  0.00    -0.242 OA 
BRANCH   4   6
HETATM    6  C   UNL     1     -10.561  10.094  66.231  1.00  0.00    -0.051 C  
BRANCH   6   7
HETATM    7  C   UNL     1     -11.263  11.266  66.925  1.00  0.00    -0.300 C  
BRANCH   7   8
HETATM    8  C   UNL     1     -10.421  11.878  68.052  1.00  0.00    -0.228 C  
BRANCH   8   9
HETATM    9  C   UNL     1     -10.649  13.368  68.110  1.00  0.00    -0.255 A  
HETATM   10  C   UNL     1     -11.239  16.104  68.100  1.00  0.00    -0.311 A  
HETATM   11  C   UNL     1     -11.816  15.272  69.057  1.00  0.00    -0.342 A  
HETATM   12  C   UNL     1     -11.522  13.908  69.063  1.00  0.00    -0.341 A  
HETATM   13  C   UNL     1     -10.359  15.579  67.156  1.00  0.00    -0.272 A  
HETATM   14  C   UNL     1     -10.062  14.215  67.161  1.00  0.00    -0.258 A  
ENDBRANCH   8   9
ENDBRANCH   7   8
ENDBRANCH   6   7
BRANCH   6  15
HETATM   15  N   UNL     1      -9.370   9.606  66.952  1.00  0.00    -0.142 NA 
HETATM   16  H   UNL     1      -8.601  10.238  67.177  1.00  0.00     0.000 HD 
BRANCH  15  17
HETATM   17  C   UNL     1      -9.314   8.170  67.347  1.00  0.00    -0.141 C  
HETATM   18  O   UNL     1      -7.275   8.290  66.064  1.00  0.00    -0.070 OA 
HETATM   19  C   UNL     1     -10.721   7.599  67.212  1.00  0.00    -0.344 C  
HETATM   20  O   UNL     1      -6.084   4.106  63.897  1.00  0.00    -0.017 OA 
HETATM   21  O   UNL     1      -8.295   4.493  64.125  1.00  0.00    -0.103 OA 
HETATM   22  C   UNL     1     -10.884   6.201  67.775  1.00  0.00    -0.413 C  
HETATM   23  C   UNL     1      -8.183   7.540  66.461  1.00  0.00    -0.123 C  
HETATM   24  C   UNL     1     -10.285   5.177  66.842  1.00  0.00    -0.239 C  
HETATM   25  N   UNL     1      -8.838   5.160  66.840  1.00  0.00    -0.110 NA 
HETATM   26  C   UNL     1      -6.999   4.678  64.475  1.00  0.00    -0.050 C  
HETATM   27  C   UNL     1      -8.169   4.615  68.018  1.00  0.00    -0.091 C  
HETATM   28  N   UNL     1      -8.106   6.169  66.187  1.00  0.00    -0.111 N  
HETATM   29  C   UNL     1      -6.815   4.035  67.588  1.00  0.00    -0.051 C  
HETATM   30  C   UNL     1      -6.807   5.663  65.636  1.00  0.00    -0.056 C  
HETATM   31  C   UNL     1      -5.987   5.042  66.781  1.00  0.00    -0.026 C  
ENDBRANCH  15  17
ENDBRANCH   6  15
ENDBRANCH   4   6
ENDBRANCH   3   4
ENDBRANCH   2   3
TORSDOF 8
ENDMDL
MODEL      173
REMARK 921   NORMALIZED FREE ENERGY PREDICTED BY IDOCK:   -4.37 KCAL/MOL
REMARK 922        TOTAL FREE ENERGY PREDICTED BY IDOCK:   -7.62 KCAL/MOL
REMARK 923 INTER-LIGAND FREE ENERGY PREDICTED BY IDOCK:   -6.29 KCAL/MOL
REMARK 924 INTRA-LIGAND FREE ENERGY PREDICTED BY IDOCK:   -1.33 KCAL/MOL
REMARK 927      BINDING AFFINITY PREDICTED BY RF-SCORE:    0.00 PKD
ROOT
HETATM    1  C   UNL     1      -6.313  10.125  70.805  1.00  0.00    -0.052 C  
HETATM    2  C   UNL     1      -5.228  10.024  69.750  1.00  0.00    -0.037 C  
ENDROOT
BRANCH   2   3
HETATM    3  O   UNL     1      -5.733  10.467  68.484  1.00  0.00    -0.041 OA 
BRANCH   3   4
HETATM    4  C   UNL     1      -6.378   9.521  67.743  1.00  0.00    -0.057 C  
HETATM    5  O   UNL     1      -5.935   8.408  67.472  1.00  0.00    -0.045 OA 
BRANCH   4   6
HETATM    6  C   UNL     1      -7.764  10.034  67.315  1.00  0.00    -0.095 C  
BRANCH   6   7
HETATM    7  C   UNL     1      -7.943   9.839  65.806  1.00  0.00    -0.116 C  
BRANCH   7   8
HETATM    8  C   UNL     1      -9.324   9.281  65.440  1.00  0.00    -0.292 C  
BRANCH   8   9
HETATM    9  C   UNL     1      -9.558   7.978  66.162  1.00  0.00    -0.159 A  
HETATM   10  C   UNL     1     -10.092   5.493  67.336  1.00  0.00    -0.215 A  
HETATM   11  C   UNL     1      -8.963   5.657  66.537  1.00  0.00    -0.126 A  
HETATM   12  C   UNL     1      -8.696   6.895  65.951  1.00  0.00    -0.146 A  
HETATM   13  C   UNL     1     -10.949   6.568  67.562  1.00  0.00    -0.444 A  
HETATM   14  C   UNL     1     -10.683   7.808  66.979  1.00  0.00    -0.316 A  
ENDBRANCH   8   9
ENDBRANCH   7   8
ENDBRANCH   6   7
BRANCH   6  15
HETATM   15  N   UNL     1      -7.868  11.442  67.747  1.00  0.00    -0.112 NA 
HETATM   16  H   UNL     1      -7.176  11.847  68.377  1.00  0.00     0.000 HD 
BRANCH  15  17
HETATM   17  C   UNL     1      -9.007  12.259  67.240  1.00  0.00    -0.187 C  
HETATM   18  O   UNL     1      -7.388  14.018  67.552  1.00  0.00    -0.169 OA 
HETATM   19  C   UNL     1     -10.278  11.741  67.903  1.00  0.00    -0.203 C  
HETATM   20  O   UNL     1      -9.366  18.322  68.641  1.00  0.00    -0.314 OA 
HETATM   21  O   UNL     1     -10.483  16.515  69.398  1.00  0.00    -0.292 OA 
HETATM   22  C   UNL     1     -11.559  12.326  67.340  1.00  0.00    -0.425 C  
HETATM   23  C   UNL     1      -8.600  13.750  67.509  1.00  0.00    -0.193 C  
HETATM   24  C   UNL     1     -11.768  13.734  67.841  1.00  0.00    -0.360 C  
HETATM   25  N   UNL     1     -10.889  14.709  67.232  1.00  0.00    -0.298 NA 
HETATM   26  C   UNL     1      -9.618  17.128  68.553  1.00  0.00    -0.288 C  
HETATM   27  C   UNL     1     -11.140  15.067  65.839  1.00  0.00    -0.334 C  
HETATM   28  N   UNL     1      -9.534  14.789  67.604  1.00  0.00    -0.202 N  
HETATM   29  C   UNL     1     -10.655  16.504  65.607  1.00  0.00    -0.317 C  
HETATM   30  C   UNL     1      -9.000  16.186  67.511  1.00  0.00    -0.191 C  
HETATM   31  C   UNL     1      -9.210  16.707  66.078  1.00  0.00    -0.263 C  
ENDBRANCH  15  17
ENDBRANCH   6  15
ENDBRANCH   4   6
ENDBRANCH   3   4
ENDBRANCH   2   3
TORSDOF 8
ENDMDL
MODEL      174
REMARK 921   NORMALIZED FREE ENERGY PREDICTED BY IDOCK:   -4.34 KCAL/MOL
REMARK 922        TOTAL FREE ENERGY PREDICTED BY IDOCK:   -7.59 KCAL/MOL
REMARK 923 INTER-LIGAND FREE ENERGY PREDICTED BY IDOCK:   -6.79 KCAL/MOL
REMARK 924 INTRA-LIGAND FREE ENERGY PREDICTED BY IDOCK:   -0.80 KCAL/MOL
REMARK 927      BINDING AFFINITY PREDICTED BY RF-SCORE:    0.00 PKD
ROOT
HETATM    1  C   UNL     1      -7.311   9.758  64.509  1.00  0.00    -0.135 C  
HETATM    2  C   UNL     1      -8.756  10.200  64.381  1.00  0.00    -0.202 C  
ENDROOT
BRANCH   2   3
HETATM    3  O   UNL     1      -9.497   9.797  65.541  1.00  0.00    -0.221 OA 
BRANCH   3   4
HETATM    4  C   UNL     1      -9.745  10.780  66.453  1.00  0.00    -0.199 C  
HETATM    5  O   UNL     1      -8.909  11.560  66.900  1.00  0.00    -0.169 OA 
BRANCH   4   6
HETATM    6  C   UNL     1     -11.238  10.795  66.825  1.00  0.00     0.025 C  
BRANCH   6   7
HETATM    7  C   UNL     1     -11.651  12.212  67.237  1.00  0.00    -0.404 C  
BRANCH   7   8
HETATM    8  C   UNL     1     -12.243  13.020  66.074  1.00  0.00    -0.463 C  
BRANCH   8   9
HETATM    9  C   UNL     1     -11.513  14.333  65.940  1.00  0.00    -0.335 A  
HETATM   10  C   UNL     1     -10.328  16.863  65.763  1.00  0.00    -0.298 A  
HETATM   11  C   UNL     1     -10.264  16.147  66.956  1.00  0.00    -0.285 A  
HETATM   12  C   UNL     1     -10.854  14.886  67.045  1.00  0.00    -0.315 A  
HETATM   13  C   UNL     1     -10.971  16.317  64.653  1.00  0.00    -0.212 A  
HETATM   14  C   UNL     1     -11.560  15.054  64.740  1.00  0.00    -0.395 A  
ENDBRANCH   8   9
ENDBRANCH   7   8
ENDBRANCH   6   7
BRANCH   6  15
HETATM   15  N   UNL     1     -11.443   9.788  67.883  1.00  0.00    -0.509 NA 
HETATM   16  H   UNL     1     -12.383   9.491  68.146  1.00  0.00     0.000 HD 
BRANCH  15  17
HETATM   17  C   UNL     1     -10.245   9.212  68.559  1.00  0.00    -0.198 C  
HETATM   18  O   UNL     1     -10.855   7.320  67.193  1.00  0.00    -0.337 OA 
HETATM   19  C   UNL     1     -10.295   9.632  70.023  1.00  0.00    -0.298 C  
HETATM   20  O   UNL     1      -9.660   3.034  69.149  1.00  0.00    -0.145 OA 
HETATM   21  O   UNL     1     -10.197   4.661  70.616  1.00  0.00    -0.217 OA 
HETATM   22  C   UNL     1      -9.040   9.305  70.809  1.00  0.00    -0.306 C  
HETATM   23  C   UNL     1     -10.286   7.677  68.238  1.00  0.00    -0.195 C  
HETATM   24  C   UNL     1      -8.987   7.834  71.143  1.00  0.00    -0.138 C  
HETATM   25  N   UNL     1      -8.669   6.988  70.013  1.00  0.00    -0.141 NA 
HETATM   26  C   UNL     1      -9.770   4.226  69.406  1.00  0.00    -0.187 C  
HETATM   27  C   UNL     1      -7.298   7.020  69.511  1.00  0.00    -0.094 C  
HETATM   28  N   UNL     1      -9.631   6.718  69.021  1.00  0.00    -0.136 N  
HETATM   29  C   UNL     1      -6.977   5.660  68.877  1.00  0.00    -0.067 C  
HETATM   30  C   UNL     1      -9.459   5.357  68.417  1.00  0.00    -0.123 C  
HETATM   31  C   UNL     1      -8.034   5.240  67.848  1.00  0.00    -0.095 C  
ENDBRANCH  15  17
ENDBRANCH   6  15
ENDBRANCH   4   6
ENDBRANCH   3   4
ENDBRANCH   2   3
TORSDOF 8
ENDMDL
MODEL      175
REMARK 921   NORMALIZED FREE ENERGY PREDICTED BY IDOCK:   -4.34 KCAL/MOL
REMARK 922        TOTAL FREE ENERGY PREDICTED BY IDOCK:   -7.59 KCAL/MOL
REMARK 923 INTER-LIGAND FREE ENERGY PREDICTED BY IDOCK:   -6.69 KCAL/MOL
REMARK 924 INTRA-LIGAND FREE ENERGY PREDICTED BY IDOCK:   -0.90 KCAL/MOL
REMARK 927      BINDING AFFINITY PREDICTED BY RF-SCORE:    0.00 PKD
ROOT
HETATM    1  C   UNL     1     -13.197  14.845  70.675  1.00  0.00    -0.319 C  
HETATM    2  C   UNL     1     -12.122  13.816  70.386  1.00  0.00    -0.350 C  
ENDROOT
BRANCH   2   3
HETATM    3  O   UNL     1     -12.301  13.275  69.070  1.00  0.00    -0.184 OA 
BRANCH   3   4
HETATM    4  C   UNL     1     -11.645  13.931  68.070  1.00  0.00    -0.333 C  
HETATM    5  O   UNL     1     -12.146  14.765  67.321  1.00  0.00    -0.307 OA 
BRANCH   4   6
HETATM    6  C   UNL     1     -10.169  13.498  68.029  1.00  0.00    -0.243 C  
BRANCH   6   7
HETATM    7  C   UNL     1     -10.082  11.968  68.005  1.00  0.00    -0.199 C  
BRANCH   7   8
HETATM    8  C   UNL     1      -9.393  11.433  66.743  1.00  0.00    -0.192 C  
BRANCH   8   9
HETATM    9  C   UNL     1      -8.261  10.514  67.128  1.00  0.00    -0.123 A  
HETATM   10  C   UNL     1      -6.031   8.942  67.757  1.00  0.00    -0.047 A  
HETATM   11  C   UNL     1      -6.440   9.950  68.628  1.00  0.00    -0.046 A  
HETATM   12  C   UNL     1      -7.551  10.734  68.315  1.00  0.00    -0.098 A  
HETATM   13  C   UNL     1      -6.739   8.707  66.579  1.00  0.00    -0.071 A  
HETATM   14  C   UNL     1      -7.852   9.489  66.266  1.00  0.00    -0.100 A  
ENDBRANCH   8   9
ENDBRANCH   7   8
ENDBRANCH   6   7
BRANCH   6  15
HETATM   15  N   UNL     1      -9.495  14.112  69.189  1.00  0.00    -0.401 NA 
HETATM   16  H   UNL     1      -9.761  13.860  70.141  1.00  0.00     0.000 HD 
BRANCH  15  17
HETATM   17  C   UNL     1      -8.414  15.108  68.939  1.00  0.00    -0.199 C  
HETATM   18  O   UNL     1     -10.232  16.626  69.394  1.00  0.00    -0.279 OA 
HETATM   19  C   UNL     1      -7.601  14.619  67.747  1.00  0.00    -0.173 C  
HETATM   20  O   UNL     1      -9.857  20.875  67.066  1.00  0.00    -0.370 OA 
HETATM   21  O   UNL     1      -9.004  19.090  65.983  1.00  0.00    -0.456 OA 
HETATM   22  C   UNL     1      -6.333  15.410  67.489  1.00  0.00    -0.148 C  
HETATM   23  C   UNL     1      -9.146  16.489  68.806  1.00  0.00    -0.256 C  
HETATM   24  C   UNL     1      -6.653  16.734  66.839  1.00  0.00    -0.213 C  
HETATM   25  N   UNL     1      -7.242  17.702  67.739  1.00  0.00    -0.187 NA 
HETATM   26  C   UNL     1      -9.398  19.741  67.104  1.00  0.00    -0.351 C  
HETATM   27  C   UNL     1      -6.373  18.301  68.748  1.00  0.00    -0.220 C  
HETATM   28  N   UNL     1      -8.586  17.587  68.142  1.00  0.00    -0.250 N  
HETATM   29  C   UNL     1      -6.904  19.701  69.083  1.00  0.00    -0.383 C  
HETATM   30  C   UNL     1      -9.222  18.922  68.389  1.00  0.00    -0.347 C  
HETATM   31  C   UNL     1      -8.394  19.682  69.440  1.00  0.00     0.157 C  
ENDBRANCH  15  17
ENDBRANCH   6  15
ENDBRANCH   4   6
ENDBRANCH   3   4
ENDBRANCH   2   3
TORSDOF 8
ENDMDL
MODEL      176
REMARK 921   NORMALIZED FREE ENERGY PREDICTED BY IDOCK:   -4.34 KCAL/MOL
REMARK 922        TOTAL FREE ENERGY PREDICTED BY IDOCK:   -7.57 KCAL/MOL
REMARK 923 INTER-LIGAND FREE ENERGY PREDICTED BY IDOCK:   -6.34 KCAL/MOL
REMARK 924 INTRA-LIGAND FREE ENERGY PREDICTED BY IDOCK:   -1.23 KCAL/MOL
REMARK 927      BINDING AFFINITY PREDICTED BY RF-SCORE:    0.00 PKD
ROOT
HETATM    1  C   UNL     1     -12.910  10.602  70.929  1.00  0.00    -0.473 C  
HETATM    2  C   UNL     1     -13.561   9.445  71.662  1.00  0.00    -0.365 C  
ENDROOT
BRANCH   2   3
HETATM    3  O   UNL     1     -12.569   8.479  72.033  1.00  0.00    -0.324 OA 
BRANCH   3   4
HETATM    4  C   UNL     1     -12.898   7.176  71.799  1.00  0.00    -0.330 C  
HETATM    5  O   UNL     1     -14.040   6.748  71.657  1.00  0.00    -0.225 OA 
BRANCH   4   6
HETATM    6  C   UNL     1     -11.626   6.315  71.707  1.00  0.00    -0.304 C  
BRANCH   6   7
HETATM    7  C   UNL     1     -11.511   5.432  72.954  1.00  0.00    -0.340 C  
BRANCH   7   8
HETATM    8  C   UNL     1     -10.100   5.439  73.557  1.00  0.00    -0.204 C  
BRANCH   8   9
HETATM    9  C   UNL     1      -9.461   4.084  73.380  1.00  0.00    -0.128 A  
HETATM   10  C   UNL     1      -8.230   1.625  72.859  1.00  0.00    -0.053 A  
HETATM   11  C   UNL     1      -7.468   2.704  73.302  1.00  0.00    -0.045 A  
HETATM   12  C   UNL     1      -8.081   3.930  73.562  1.00  0.00    -0.088 A  
HETATM   13  C   UNL     1      -9.606   1.764  72.687  1.00  0.00    -0.138 A  
HETATM   14  C   UNL     1     -10.221   2.990  72.948  1.00  0.00    -0.235 A  
ENDBRANCH   8   9
ENDBRANCH   7   8
ENDBRANCH   6   7
BRANCH   6  15
HETATM   15  N   UNL     1     -10.483   7.230  71.522  1.00  0.00    -0.203 NA 
HETATM   16  H   UNL     1     -10.097   7.748  72.311  1.00  0.00     0.000 HD 
BRANCH  15  17
HETATM   17  C   UNL     1      -9.906   7.380  70.156  1.00  0.00    -0.180 C  
HETATM   18  O   UNL     1      -9.596   9.637  70.949  1.00  0.00    -0.207 OA 
HETATM   19  C   UNL     1     -10.803   6.618  69.188  1.00  0.00    -0.329 C  
HETATM   20  O   UNL     1      -9.757  12.983  67.427  1.00  0.00    -0.205 OA 
HETATM   21  O   UNL     1     -11.056  11.166  67.108  1.00  0.00    -0.282 OA 
HETATM   22  C   UNL     1     -10.244   6.494  67.784  1.00  0.00    -0.201 C  
HETATM   23  C   UNL     1      -9.746   8.926  69.941  1.00  0.00    -0.177 C  
HETATM   24  C   UNL     1     -10.391   7.795  67.033  1.00  0.00    -0.334 C  
HETATM   25  N   UNL     1      -9.470   8.826  67.461  1.00  0.00    -0.139 NA 
HETATM   26  C   UNL     1     -10.000  11.807  67.666  1.00  0.00    -0.194 C  
HETATM   27  C   UNL     1      -8.065   8.667  67.098  1.00  0.00    -0.100 C  
HETATM   28  N   UNL     1      -9.670   9.514  68.672  1.00  0.00    -0.152 N  
HETATM   29  C   UNL     1      -7.429  10.059  66.979  1.00  0.00    -0.092 C  
HETATM   30  C   UNL     1      -9.173  10.927  68.613  1.00  0.00    -0.187 C  
HETATM   31  C   UNL     1      -7.684  10.917  68.224  1.00  0.00    -0.111 C  
ENDBRANCH  15  17
ENDBRANCH   6  15
ENDBRANCH   4   6
ENDBRANCH   3   4
ENDBRANCH   2   3
TORSDOF 8
ENDMDL
MODEL      177
REMARK 921   NORMALIZED FREE ENERGY PREDICTED BY IDOCK:   -4.33 KCAL/MOL
REMARK 922        TOTAL FREE ENERGY PREDICTED BY IDOCK:   -7.57 KCAL/MOL
REMARK 923 INTER-LIGAND FREE ENERGY PREDICTED BY IDOCK:   -6.43 KCAL/MOL
REMARK 924 INTRA-LIGAND FREE ENERGY PREDICTED BY IDOCK:   -1.14 KCAL/MOL
REMARK 927      BINDING AFFINITY PREDICTED BY RF-SCORE:    0.00 PKD
ROOT
HETATM    1  C   UNL     1      -6.103  17.365  69.698  1.00  0.00    -0.249 C  
HETATM    2  C   UNL     1      -7.485  17.082  69.142  1.00  0.00    -0.162 C  
ENDROOT
BRANCH   2   3
HETATM    3  O   UNL     1      -7.596  15.698  68.785  1.00  0.00    -0.141 OA 
BRANCH   3   4
HETATM    4  C   UNL     1      -7.675  15.439  67.448  1.00  0.00    -0.196 C  
HETATM    5  O   UNL     1      -6.835  15.762  66.613  1.00  0.00    -0.162 OA 
BRANCH   4   6
HETATM    6  C   UNL     1      -8.959  14.652  67.134  1.00  0.00    -0.225 C  
BRANCH   6   7
HETATM    7  C   UNL     1     -10.174  15.577  67.258  1.00  0.00    -0.260 C  
BRANCH   7   8
HETATM    8  C   UNL     1     -10.324  16.522  66.059  1.00  0.00    -0.358 C  
BRANCH   8   9
HETATM    9  C   UNL     1     -10.044  17.941  66.488  1.00  0.00    -0.370 A  
HETATM   10  C   UNL     1      -9.413  20.497  67.438  1.00  0.00    -0.551 A  
HETATM   11  C   UNL     1      -8.550  19.850  66.556  1.00  0.00    -0.390 A  
HETATM   12  C   UNL     1      -8.863  18.576  66.082  1.00  0.00    -0.128 A  
HETATM   13  C   UNL     1     -10.596  19.879  67.838  1.00  0.00    -0.424 A  
HETATM   14  C   UNL     1     -10.913  18.605  67.363  1.00  0.00    -0.239 A  
ENDBRANCH   8   9
ENDBRANCH   7   8
ENDBRANCH   6   7
BRANCH   6  15
HETATM   15  N   UNL     1      -9.002  13.492  68.045  1.00  0.00    -0.182 NA 
HETATM   16  H   UNL     1      -8.611  13.553  68.986  1.00  0.00     0.000 HD 
BRANCH  15  17
HETATM   17  C   UNL     1      -9.629  12.229  67.561  1.00  0.00    -0.184 C  
HETATM   18  O   UNL     1      -8.111  11.299  69.188  1.00  0.00    -0.093 OA 
HETATM   19  C   UNL     1      -9.765  12.331  66.047  1.00  0.00    -0.254 C  
HETATM   20  O   UNL     1      -6.573   6.822  68.086  1.00  0.00    -0.053 OA 
HETATM   21  O   UNL     1      -6.993   8.171  66.327  1.00  0.00    -0.061 OA 
HETATM   22  C   UNL     1     -10.576  11.216  65.416  1.00  0.00    -0.291 C  
HETATM   23  C   UNL     1      -8.738  11.075  68.138  1.00  0.00    -0.141 C  
HETATM   24  C   UNL     1      -9.769   9.943  65.345  1.00  0.00    -0.306 C  
HETATM   25  N   UNL     1      -9.598   9.286  66.623  1.00  0.00    -0.187 NA 
HETATM   26  C   UNL     1      -7.149   7.797  67.620  1.00  0.00    -0.083 C  
HETATM   27  C   UNL     1     -10.764   8.626  67.204  1.00  0.00    -0.129 C  
HETATM   28  N   UNL     1      -8.697   9.792  67.579  1.00  0.00    -0.125 N  
HETATM   29  C   UNL     1     -10.282   7.464  68.083  1.00  0.00    -0.223 C  
HETATM   30  C   UNL     1      -8.090   8.709  68.418  1.00  0.00    -0.118 C  
HETATM   31  C   UNL     1      -9.219   7.910  69.094  1.00  0.00    -0.144 C  
ENDBRANCH  15  17
ENDBRANCH   6  15
ENDBRANCH   4   6
ENDBRANCH   3   4
ENDBRANCH   2   3
TORSDOF 8
ENDMDL
MODEL      178
REMARK 921   NORMALIZED FREE ENERGY PREDICTED BY IDOCK:   -4.33 KCAL/MOL
REMARK 922        TOTAL FREE ENERGY PREDICTED BY IDOCK:   -7.56 KCAL/MOL
REMARK 923 INTER-LIGAND FREE ENERGY PREDICTED BY IDOCK:   -7.04 KCAL/MOL
REMARK 924 INTRA-LIGAND FREE ENERGY PREDICTED BY IDOCK:   -0.52 KCAL/MOL
REMARK 927      BINDING AFFINITY PREDICTED BY RF-SCORE:    0.00 PKD
ROOT
HETATM    1  C   UNL     1     -12.026   9.418  71.944  1.00  0.00    -0.416 C  
HETATM    2  C   UNL     1     -13.248  10.113  71.376  1.00  0.00    -0.380 C  
ENDROOT
BRANCH   2   3
HETATM    3  O   UNL     1     -13.093  10.304  69.964  1.00  0.00    -0.028 OA 
BRANCH   3   4
HETATM    4  C   UNL     1     -12.043  11.090  69.588  1.00  0.00    -0.340 C  
HETATM    5  O   UNL     1     -11.676  12.108  70.167  1.00  0.00    -0.303 OA 
BRANCH   4   6
HETATM    6  C   UNL     1     -11.358  10.500  68.343  1.00  0.00    -0.262 C  
BRANCH   6   7
HETATM    7  C   UNL     1     -10.132   9.684  68.767  1.00  0.00    -0.193 C  
BRANCH   7   8
HETATM    8  C   UNL     1     -10.442   8.190  68.931  1.00  0.00    -0.202 C  
BRANCH   8   9
HETATM    9  C   UNL     1      -9.835   7.414  67.789  1.00  0.00    -0.187 A  
HETATM   10  C   UNL     1      -8.820   6.089  65.542  1.00  0.00    -0.083 A  
HETATM   11  C   UNL     1      -8.204   7.251  66.002  1.00  0.00    -0.138 A  
HETATM   12  C   UNL     1      -8.709   7.912  67.122  1.00  0.00    -0.133 A  
HETATM   13  C   UNL     1      -9.933   5.578  66.207  1.00  0.00    -0.174 A  
HETATM   14  C   UNL     1     -10.439   6.236  67.329  1.00  0.00    -0.316 A  
ENDBRANCH   8   9
ENDBRANCH   7   8
ENDBRANCH   6   7
BRANCH   6  15
HETATM   15  N   UNL     1     -11.038  11.622  67.439  1.00  0.00    -0.263 NA 
HETATM   16  H   UNL     1     -11.466  11.686  66.516  1.00  0.00     0.000 HD 
BRANCH  15  17
HETATM   17  C   UNL     1     -10.075  12.660  67.906  1.00  0.00    -0.222 C  
HETATM   18  O   UNL     1     -11.932  14.092  67.344  1.00  0.00    -0.388 OA 
HETATM   19  C   UNL     1      -8.701  12.295  67.356  1.00  0.00    -0.180 C  
HETATM   20  O   UNL     1     -10.601  18.538  65.899  1.00  0.00    -0.488 OA 
HETATM   21  O   UNL     1      -9.168  16.874  65.383  1.00  0.00    -0.231 OA 
HETATM   22  C   UNL     1      -7.565  13.134  67.909  1.00  0.00    -0.147 C  
HETATM   23  C   UNL     1     -10.697  14.031  67.466  1.00  0.00    -0.268 C  
HETATM   24  C   UNL     1      -7.552  14.502  67.274  1.00  0.00    -0.121 C  
HETATM   25  N   UNL     1      -8.609  15.374  67.740  1.00  0.00    -0.154 NA 
HETATM   26  C   UNL     1     -10.168  17.415  66.121  1.00  0.00    -0.328 C  
HETATM   27  C   UNL     1      -8.501  15.900  69.097  1.00  0.00    -0.254 C  
HETATM   28  N   UNL     1      -9.936  15.195  67.304  1.00  0.00    -0.229 N  
HETATM   29  C   UNL     1      -9.221  17.254  69.157  1.00  0.00    -0.014 C  
HETATM   30  C   UNL     1     -10.689  16.489  67.228  1.00  0.00    -0.243 C  
HETATM   31  C   UNL     1     -10.650  17.171  68.607  1.00  0.00    -0.352 C  
ENDBRANCH  15  17
ENDBRANCH   6  15
ENDBRANCH   4   6
ENDBRANCH   3   4
ENDBRANCH   2   3
TORSDOF 8
ENDMDL
MODEL      179
REMARK 921   NORMALIZED FREE ENERGY PREDICTED BY IDOCK:   -4.30 KCAL/MOL
REMARK 922        TOTAL FREE ENERGY PREDICTED BY IDOCK:   -7.53 KCAL/MOL
REMARK 923 INTER-LIGAND FREE ENERGY PREDICTED BY IDOCK:   -6.29 KCAL/MOL
REMARK 924 INTRA-LIGAND FREE ENERGY PREDICTED BY IDOCK:   -1.24 KCAL/MOL
REMARK 927      BINDING AFFINITY PREDICTED BY RF-SCORE:    0.00 PKD
ROOT
HETATM    1  C   UNL     1      -5.948   8.657  67.146  1.00  0.00    -0.054 C  
HETATM    2  C   UNL     1      -5.672   8.751  68.634  1.00  0.00    -0.041 C  
ENDROOT
BRANCH   2   3
HETATM    3  O   UNL     1      -6.788   8.239  69.374  1.00  0.00    -0.042 OA 
BRANCH   3   4
HETATM    4  C   UNL     1      -7.338   9.097  70.281  1.00  0.00    -0.090 C  
HETATM    5  O   UNL     1      -6.747  10.022  70.830  1.00  0.00    -0.301 OA 
BRANCH   4   6
HETATM    6  C   UNL     1      -8.823   8.760  70.499  1.00  0.00    -0.176 C  
BRANCH   6   7
HETATM    7  C   UNL     1      -8.947   7.385  71.164  1.00  0.00    -0.143 C  
BRANCH   7   8
HETATM    8  C   UNL     1      -9.688   6.367  70.287  1.00  0.00    -0.186 C  
BRANCH   8   9
HETATM    9  C   UNL     1      -9.760   5.038  70.997  1.00  0.00    -0.249 A  
HETATM   10  C   UNL     1     -10.073   2.537  72.216  1.00  0.00    -0.227 A  
HETATM   11  C   UNL     1      -9.449   2.633  70.974  1.00  0.00    -0.224 A  
HETATM   12  C   UNL     1      -9.293   3.879  70.366  1.00  0.00    -0.231 A  
HETATM   13  C   UNL     1     -10.529   3.687  72.859  1.00  0.00    -0.239 A  
HETATM   14  C   UNL     1     -10.373   4.934  72.253  1.00  0.00    -0.267 A  
ENDBRANCH   8   9
ENDBRANCH   7   8
ENDBRANCH   6   7
BRANCH   6  15
HETATM   15  N   UNL     1      -9.495   8.846  69.188  1.00  0.00    -0.156 NA 
HETATM   16  H   UNL     1      -9.330   8.140  68.470  1.00  0.00     0.000 HD 
BRANCH  15  17
HETATM   17  C   UNL     1     -10.420   9.987  68.935  1.00  0.00    -0.210 C  
HETATM   18  O   UNL     1      -8.643  10.598  67.424  1.00  0.00    -0.122 OA 
HETATM   19  C   UNL     1     -10.985  10.431  70.280  1.00  0.00    -0.353 C  
HETATM   20  O   UNL     1      -8.195  15.394  66.776  1.00  0.00    -0.232 OA 
HETATM   21  O   UNL     1      -8.914  14.747  68.814  1.00  0.00    -0.177 OA 
HETATM   22  C   UNL     1     -12.105  11.448  70.181  1.00  0.00    -0.439 C  
HETATM   23  C   UNL     1      -9.581  11.029  68.117  1.00  0.00    -0.171 C  
HETATM   24  C   UNL     1     -11.557  12.817  69.861  1.00  0.00    -0.173 C  
HETATM   25  N   UNL     1     -11.113  12.965  68.492  1.00  0.00    -0.252 NA 
HETATM   26  C   UNL     1      -8.730  14.553  67.485  1.00  0.00    -0.188 C  
HETATM   27  C   UNL     1     -12.137  13.029  67.454  1.00  0.00    -0.233 C  
HETATM   28  N   UNL     1      -9.902  12.390  68.061  1.00  0.00    -0.200 N  
HETATM   29  C   UNL     1     -11.595  13.857  66.281  1.00  0.00    -0.378 C  
HETATM   30  C   UNL     1      -9.242  13.196  66.983  1.00  0.00    -0.233 C  
HETATM   31  C   UNL     1     -10.224  13.357  65.809  1.00  0.00    -0.300 C  
ENDBRANCH  15  17
ENDBRANCH   6  15
ENDBRANCH   4   6
ENDBRANCH   3   4
ENDBRANCH   2   3
TORSDOF 8
ENDMDL
MODEL      180
REMARK 921   NORMALIZED FREE ENERGY PREDICTED BY IDOCK:   -4.30 KCAL/MOL
REMARK 922        TOTAL FREE ENERGY PREDICTED BY IDOCK:   -7.53 KCAL/MOL
REMARK 923 INTER-LIGAND FREE ENERGY PREDICTED BY IDOCK:   -6.37 KCAL/MOL
REMARK 924 INTRA-LIGAND FREE ENERGY PREDICTED BY IDOCK:   -1.15 KCAL/MOL
REMARK 927      BINDING AFFINITY PREDICTED BY RF-SCORE:    0.00 PKD
ROOT
HETATM    1  C   UNL     1      -7.667   9.769  63.110  1.00  0.00    -0.132 C  
HETATM    2  C   UNL     1      -8.389   9.082  64.253  1.00  0.00    -0.173 C  
ENDROOT
BRANCH   2   3
HETATM    3  O   UNL     1      -9.244  10.016  64.924  1.00  0.00    -0.200 OA 
BRANCH   3   4
HETATM    4  C   UNL     1      -8.881  10.336  66.199  1.00  0.00    -0.151 C  
HETATM    5  O   UNL     1      -7.729  10.357  66.624  1.00  0.00    -0.109 OA 
BRANCH   4   6
HETATM    6  C   UNL     1     -10.124  10.701  67.030  1.00  0.00    -0.211 C  
BRANCH   6   7
HETATM    7  C   UNL     1     -11.007   9.462  67.207  1.00  0.00    -0.022 C  
BRANCH   7   8
HETATM    8  C   UNL     1     -10.532   8.554  68.349  1.00  0.00    -0.215 C  
BRANCH   8   9
HETATM    9  C   UNL     1     -10.050   7.238  67.791  1.00  0.00    -0.225 A  
HETATM   10  C   UNL     1      -9.151   4.885  66.568  1.00  0.00    -0.124 A  
HETATM   11  C   UNL     1      -8.233   5.839  67.003  1.00  0.00    -0.101 A  
HETATM   12  C   UNL     1      -8.680   7.011  67.612  1.00  0.00    -0.121 A  
HETATM   13  C   UNL     1     -10.516   5.096  66.753  1.00  0.00    -0.306 A  
HETATM   14  C   UNL     1     -10.966   6.268  67.364  1.00  0.00    -0.447 A  
ENDBRANCH   8   9
ENDBRANCH   7   8
ENDBRANCH   6   7
BRANCH   6  15
HETATM   15  N   UNL     1     -10.802  11.819  66.347  1.00  0.00    -0.271 NA 
HETATM   16  H   UNL     1     -11.024  11.764  65.353  1.00  0.00     0.000 HD 
BRANCH  15  17
HETATM   17  C   UNL     1     -11.156  13.030  67.141  1.00  0.00    -0.273 C  
HETATM   18  O   UNL     1      -9.233  13.893  65.970  1.00  0.00    -0.101 OA 
HETATM   19  C   UNL     1     -11.532  12.569  68.544  1.00  0.00    -0.346 C  
HETATM   20  O   UNL     1      -6.797  17.288  68.453  1.00  0.00    -0.177 OA 
HETATM   21  O   UNL     1      -7.795  15.694  69.700  1.00  0.00    -0.203 OA 
HETATM   22  C   UNL     1     -12.121  13.657  69.421  1.00  0.00    -0.364 C  
HETATM   23  C   UNL     1      -9.929  13.996  66.994  1.00  0.00    -0.257 C  
HETATM   24  C   UNL     1     -11.039  14.583  69.921  1.00  0.00    -0.163 C  
HETATM   25  N   UNL     1     -10.524  15.481  68.911  1.00  0.00    -0.215 NA 
HETATM   26  C   UNL     1      -7.661  16.428  68.568  1.00  0.00    -0.188 C  
HETATM   27  C   UNL     1     -11.389  16.574  68.476  1.00  0.00    -0.231 C  
HETATM   28  N   UNL     1      -9.649  15.016  67.911  1.00  0.00    -0.202 N  
HETATM   29  C   UNL     1     -10.508  17.743  68.016  1.00  0.00    -0.399 C  
HETATM   30  C   UNL     1      -8.674  16.068  67.474  1.00  0.00    -0.182 C  
HETATM   31  C   UNL     1      -9.455  17.303  66.991  1.00  0.00    -0.264 C  
ENDBRANCH  15  17
ENDBRANCH   6  15
ENDBRANCH   4   6
ENDBRANCH   3   4
ENDBRANCH   2   3
TORSDOF 8
ENDMDL
MODEL      181
REMARK 921   NORMALIZED FREE ENERGY PREDICTED BY IDOCK:   -4.30 KCAL/MOL
REMARK 922        TOTAL FREE ENERGY PREDICTED BY IDOCK:   -7.52 KCAL/MOL
REMARK 923 INTER-LIGAND FREE ENERGY PREDICTED BY IDOCK:   -7.78 KCAL/MOL
REMARK 924 INTRA-LIGAND FREE ENERGY PREDICTED BY IDOCK:    0.26 KCAL/MOL
REMARK 927      BINDING AFFINITY PREDICTED BY RF-SCORE:    0.00 PKD
ROOT
HETATM    1  C   UNL     1     -11.262  15.698  69.947  1.00  0.00    -0.335 C  
HETATM    2  C   UNL     1     -11.387  14.822  68.716  1.00  0.00    -0.282 C  
ENDROOT
BRANCH   2   3
HETATM    3  O   UNL     1     -11.366  13.439  69.094  1.00  0.00    -0.261 OA 
BRANCH   3   4
HETATM    4  C   UNL     1     -10.423  12.673  68.474  1.00  0.00    -0.234 C  
HETATM    5  O   UNL     1      -9.225  12.935  68.412  1.00  0.00    -0.198 OA 
BRANCH   4   6
HETATM    6  C   UNL     1     -11.070  11.408  67.884  1.00  0.00    -0.261 C  
BRANCH   6   7
HETATM    7  C   UNL     1     -11.538  11.689  66.452  1.00  0.00    -0.140 C  
BRANCH   7   8
HETATM    8  C   UNL     1     -10.424  12.264  65.567  1.00  0.00    -0.296 C  
BRANCH   8   9
HETATM    9  C   UNL     1     -10.775  13.671  65.152  1.00  0.00    -0.359 A  
HETATM   10  C   UNL     1     -11.526  16.302  64.561  1.00  0.00    -0.171 A  
HETATM   11  C   UNL     1     -10.353  16.056  65.272  1.00  0.00    -0.319 A  
HETATM   12  C   UNL     1      -9.979  14.745  65.567  1.00  0.00    -0.390 A  
HETATM   13  C   UNL     1     -12.319  15.239  64.132  1.00  0.00    -0.065 A  
HETATM   14  C   UNL     1     -11.945  13.927  64.424  1.00  0.00    -0.480 A  
ENDBRANCH   8   9
ENDBRANCH   7   8
ENDBRANCH   6   7
BRANCH   6  15
HETATM   15  N   UNL     1     -12.159  11.000  68.793  1.00  0.00    -0.712 NA 
HETATM   16  H   UNL     1     -13.135  11.151  68.537  1.00  0.00     0.000 HD 
BRANCH  15  17
HETATM   17  C   UNL     1     -11.801  10.365  70.093  1.00  0.00    -0.297 C  
HETATM   18  O   UNL     1     -10.202   9.250  68.673  1.00  0.00    -0.187 OA 
HETATM   19  C   UNL     1     -13.100  10.049  70.825  1.00  0.00    -0.316 C  
HETATM   20  O   UNL     1      -9.036   4.779  70.183  1.00  0.00    -0.094 OA 
HETATM   21  O   UNL     1     -11.144   5.444  70.636  1.00  0.00    -0.134 OA 
HETATM   22  C   UNL     1     -12.912   9.589  72.258  1.00  0.00    -0.466 C  
HETATM   23  C   UNL     1     -10.861   9.165  69.723  1.00  0.00    -0.211 C  
HETATM   24  C   UNL     1     -12.438   8.157  72.301  1.00  0.00    -0.301 C  
HETATM   25  N   UNL     1     -11.053   7.987  71.917  1.00  0.00    -0.260 NA 
HETATM   26  C   UNL     1      -9.840   5.686  70.352  1.00  0.00    -0.194 C  
HETATM   27  C   UNL     1     -10.032   8.452  72.851  1.00  0.00    -0.139 C  
HETATM   28  N   UNL     1     -10.665   8.064  70.566  1.00  0.00    -0.225 N  
HETATM   29  C   UNL     1      -8.768   7.604  72.657  1.00  0.00    -0.182 C  
HETATM   30  C   UNL     1      -9.495   7.178  70.258  1.00  0.00    -0.162 C  
HETATM   31  C   UNL     1      -8.328   7.552  71.189  1.00  0.00    -0.109 C  
ENDBRANCH  15  17
ENDBRANCH   6  15
ENDBRANCH   4   6
ENDBRANCH   3   4
ENDBRANCH   2   3
TORSDOF 8
ENDMDL
MODEL      182
REMARK 921   NORMALIZED FREE ENERGY PREDICTED BY IDOCK:   -4.30 KCAL/MOL
REMARK 922        TOTAL FREE ENERGY PREDICTED BY IDOCK:   -7.52 KCAL/MOL
REMARK 923 INTER-LIGAND FREE ENERGY PREDICTED BY IDOCK:   -6.14 KCAL/MOL
REMARK 924 INTRA-LIGAND FREE ENERGY PREDICTED BY IDOCK:   -1.38 KCAL/MOL
REMARK 927      BINDING AFFINITY PREDICTED BY RF-SCORE:    0.00 PKD
ROOT
HETATM    1  C   UNL     1     -10.427   8.583  70.940  1.00  0.00    -0.248 C  
HETATM    2  C   UNL     1      -9.533   9.715  70.472  1.00  0.00    -0.181 C  
ENDROOT
BRANCH   2   3
HETATM    3  O   UNL     1      -8.218   9.561  71.023  1.00  0.00    -0.301 OA 
BRANCH   3   4
HETATM    4  C   UNL     1      -7.200  10.063  70.267  1.00  0.00    -0.147 C  
HETATM    5  O   UNL     1      -6.265  10.736  70.692  1.00  0.00    -0.267 OA 
BRANCH   4   6
HETATM    6  C   UNL     1      -7.371   9.638  68.797  1.00  0.00    -0.074 C  
BRANCH   6   7
HETATM    7  C   UNL     1      -6.489   8.419  68.508  1.00  0.00    -0.055 C  
BRANCH   7   8
HETATM    8  C   UNL     1      -7.237   7.313  67.750  1.00  0.00    -0.091 C  
BRANCH   8   9
HETATM    9  C   UNL     1      -8.120   6.547  68.703  1.00  0.00    -0.118 A  
HETATM   10  C   UNL     1      -9.695   4.953  70.381  1.00  0.00    -0.284 A  
HETATM   11  C   UNL     1      -8.372   5.225  70.720  1.00  0.00    -0.115 A  
HETATM   12  C   UNL     1      -7.586   6.019  69.885  1.00  0.00    -0.081 A  
HETATM   13  C   UNL     1     -10.240   5.485  69.214  1.00  0.00    -0.315 A  
HETATM   14  C   UNL     1      -9.457   6.282  68.377  1.00  0.00    -0.118 A  
ENDBRANCH   8   9
ENDBRANCH   7   8
ENDBRANCH   6   7
BRANCH   6  15
HETATM   15  N   UNL     1      -7.055  10.810  67.958  1.00  0.00    -0.080 NA 
HETATM   16  H   UNL     1      -6.305  10.769  67.267  1.00  0.00     0.000 HD 
BRANCH  15  17
HETATM   17  C   UNL     1      -7.857  12.053  68.139  1.00  0.00    -0.145 C  
HETATM   18  O   UNL     1      -9.485  10.723  66.959  1.00  0.00    -0.162 OA 
HETATM   19  C   UNL     1      -6.936  13.239  67.875  1.00  0.00    -0.137 C  
HETATM   20  O   UNL     1     -12.549  13.344  64.245  1.00  0.00    -0.623 OA 
HETATM   21  O   UNL     1     -10.466  14.184  64.452  1.00  0.00    -0.329 OA 
HETATM   22  C   UNL     1      -7.538  14.586  68.222  1.00  0.00    -0.121 C  
HETATM   23  C   UNL     1      -9.109  11.880  67.211  1.00  0.00    -0.178 C  
HETATM   24  C   UNL     1      -8.533  15.013  67.170  1.00  0.00    -0.218 C  
HETATM   25  N   UNL     1      -9.782  14.285  67.216  1.00  0.00    -0.230 NA 
HETATM   26  C   UNL     1     -11.499  13.412  64.869  1.00  0.00    -0.325 C  
HETATM   27  C   UNL     1     -10.690  14.570  68.324  1.00  0.00    -0.240 C  
HETATM   28  N   UNL     1      -9.864  12.962  66.742  1.00  0.00    -0.235 N  
HETATM   29  C   UNL     1     -12.128  14.306  67.860  1.00  0.00    -0.296 C  
HETATM   30  C   UNL     1     -11.212  12.645  66.168  1.00  0.00    -0.309 C  
HETATM   31  C   UNL     1     -12.286  12.914  67.237  1.00  0.00    -0.119 C  
ENDBRANCH  15  17
ENDBRANCH   6  15
ENDBRANCH   4   6
ENDBRANCH   3   4
ENDBRANCH   2   3
TORSDOF 8
ENDMDL
MODEL      183
REMARK 921   NORMALIZED FREE ENERGY PREDICTED BY IDOCK:   -4.28 KCAL/MOL
REMARK 922        TOTAL FREE ENERGY PREDICTED BY IDOCK:   -7.49 KCAL/MOL
REMARK 923 INTER-LIGAND FREE ENERGY PREDICTED BY IDOCK:   -7.69 KCAL/MOL
REMARK 924 INTRA-LIGAND FREE ENERGY PREDICTED BY IDOCK:    0.20 KCAL/MOL
REMARK 927      BINDING AFFINITY PREDICTED BY RF-SCORE:    0.00 PKD
ROOT
HETATM    1  C   UNL     1     -11.966  15.298  72.629  1.00  0.00    -0.535 C  
HETATM    2  C   UNL     1     -11.317  15.958  71.428  1.00  0.00    -0.339 C  
ENDROOT
BRANCH   2   3
HETATM    3  O   UNL     1     -11.938  15.499  70.220  1.00  0.00    -0.322 OA 
BRANCH   3   4
HETATM    4  C   UNL     1     -11.820  14.164  69.967  1.00  0.00    -0.323 C  
HETATM    5  O   UNL     1     -12.153  13.264  70.734  1.00  0.00    -0.341 OA 
BRANCH   4   6
HETATM    6  C   UNL     1     -11.235  13.939  68.562  1.00  0.00    -0.270 C  
BRANCH   6   7
HETATM    7  C   UNL     1     -11.102  15.283  67.838  1.00  0.00    -0.321 C  
BRANCH   7   8
HETATM    8  C   UNL     1      -9.657  15.797  67.802  1.00  0.00    -0.214 C  
BRANCH   8   9
HETATM    9  C   UNL     1      -9.650  17.305  67.807  1.00  0.00    -0.262 A  
HETATM   10  C   UNL     1      -9.682  20.097  68.016  1.00  0.00    -0.464 A  
HETATM   11  C   UNL     1      -8.513  19.392  68.294  1.00  0.00    -0.376 A  
HETATM   12  C   UNL     1      -8.496  18.001  68.190  1.00  0.00    -0.273 A  
HETATM   13  C   UNL     1     -10.832  19.415  67.621  1.00  0.00    -0.470 A  
HETATM   14  C   UNL     1     -10.817  18.023  67.515  1.00  0.00    -0.252 A  
ENDBRANCH   8   9
ENDBRANCH   7   8
ENDBRANCH   6   7
BRANCH   6  15
HETATM   15  N   UNL     1     -12.109  12.976  67.866  1.00  0.00    -0.272 NA 
HETATM   16  H   UNL     1     -13.112  12.952  68.053  1.00  0.00     0.000 HD 
BRANCH  15  17
HETATM   17  C   UNL     1     -11.496  12.038  66.883  1.00  0.00    -0.337 C  
HETATM   18  O   UNL     1     -10.171  11.477  68.819  1.00  0.00    -0.212 OA 
HETATM   19  C   UNL     1     -11.340  12.787  65.565  1.00  0.00    -0.347 C  
HETATM   20  O   UNL     1      -5.674   9.982  67.740  1.00  0.00    -0.042 OA 
HETATM   21  O   UNL     1      -6.561  11.505  66.332  1.00  0.00    -0.083 OA 
HETATM   22  C   UNL     1     -10.923  11.915  64.397  1.00  0.00    -0.392 C  
HETATM   23  C   UNL     1     -10.195  11.502  67.577  1.00  0.00    -0.184 C  
HETATM   24  C   UNL     1      -9.454  11.578  64.479  1.00  0.00    -0.088 C  
HETATM   25  N   UNL     1      -9.133  10.605  65.502  1.00  0.00    -0.182 NA 
HETATM   26  C   UNL     1      -6.662  10.524  67.262  1.00  0.00    -0.077 C  
HETATM   27  C   UNL     1      -9.534   9.221  65.266  1.00  0.00    -0.164 C  
HETATM   28  N   UNL     1      -9.116  10.968  66.862  1.00  0.00    -0.154 N  
HETATM   29  C   UNL     1      -8.559   8.296  66.006  1.00  0.00    -0.167 C  
HETATM   30  C   UNL     1      -8.108  10.184  67.647  1.00  0.00    -0.109 C  
HETATM   31  C   UNL     1      -8.404   8.683  67.481  1.00  0.00    -0.120 C  
ENDBRANCH  15  17
ENDBRANCH   6  15
ENDBRANCH   4   6
ENDBRANCH   3   4
ENDBRANCH   2   3
TORSDOF 8
ENDMDL
MODEL      184
REMARK 921   NORMALIZED FREE ENERGY PREDICTED BY IDOCK:   -4.27 KCAL/MOL
REMARK 922        TOTAL FREE ENERGY PREDICTED BY IDOCK:   -7.48 KCAL/MOL
REMARK 923 INTER-LIGAND FREE ENERGY PREDICTED BY IDOCK:   -6.62 KCAL/MOL
REMARK 924 INTRA-LIGAND FREE ENERGY PREDICTED BY IDOCK:   -0.85 KCAL/MOL
REMARK 927      BINDING AFFINITY PREDICTED BY RF-SCORE:    0.00 PKD
ROOT
HETATM    1  C   UNL     1     -14.408   7.799  71.822  1.00  0.00    -0.594 C  
HETATM    2  C   UNL     1     -13.148   8.459  72.351  1.00  0.00    -0.234 C  
ENDROOT
BRANCH   2   3
HETATM    3  O   UNL     1     -12.234   8.702  71.274  1.00  0.00    -0.294 OA 
BRANCH   3   4
HETATM    4  C   UNL     1     -11.223   7.796  71.143  1.00  0.00    -0.264 C  
HETATM    5  O   UNL     1     -11.029   6.838  71.885  1.00  0.00    -0.229 OA 
BRANCH   4   6
HETATM    6  C   UNL     1     -10.371   8.126  69.905  1.00  0.00    -0.214 C  
BRANCH   6   7
HETATM    7  C   UNL     1      -9.005   8.662  70.348  1.00  0.00    -0.173 C  
BRANCH   7   8
HETATM    8  C   UNL     1      -7.897   8.379  69.325  1.00  0.00    -0.104 C  
BRANCH   8   9
HETATM    9  C   UNL     1      -8.093   7.010  68.723  1.00  0.00    -0.121 A  
HETATM   10  C   UNL     1      -8.643   4.465  67.694  1.00  0.00    -0.108 A  
HETATM   11  C   UNL     1      -9.049   5.601  66.996  1.00  0.00    -0.113 A  
HETATM   12  C   UNL     1      -8.775   6.870  67.508  1.00  0.00    -0.120 A  
HETATM   13  C   UNL     1      -7.952   4.595  68.898  1.00  0.00    -0.075 A  
HETATM   14  C   UNL     1      -7.676   5.863  69.411  1.00  0.00    -0.093 A  
ENDBRANCH   8   9
ENDBRANCH   7   8
ENDBRANCH   6   7
BRANCH   6  15
HETATM   15  N   UNL     1     -11.139   9.076  69.077  1.00  0.00    -0.436 NA 
HETATM   16  H   UNL     1     -12.159   9.089  69.109  1.00  0.00     0.000 HD 
BRANCH  15  17
HETATM   17  C   UNL     1     -10.392  10.016  68.193  1.00  0.00    -0.194 C  
HETATM   18  O   UNL     1     -11.114  11.578  69.883  1.00  0.00    -0.162 OA 
HETATM   19  C   UNL     1     -10.724   9.654  66.750  1.00  0.00    -0.149 C  
HETATM   20  O   UNL     1     -11.784  16.091  68.209  1.00  0.00    -0.303 OA 
HETATM   21  O   UNL     1     -12.219  14.432  66.744  1.00  0.00    -0.420 OA 
HETATM   22  C   UNL     1      -9.884  10.378  65.716  1.00  0.00    -0.300 C  
HETATM   23  C   UNL     1     -10.779  11.451  68.693  1.00  0.00    -0.206 C  
HETATM   24  C   UNL     1     -10.348  11.805  65.556  1.00  0.00    -0.262 C  
HETATM   25  N   UNL     1      -9.985  12.667  66.661  1.00  0.00    -0.237 NA 
HETATM   26  C   UNL     1     -11.616  14.934  67.849  1.00  0.00    -0.344 C  
HETATM   27  C   UNL     1      -8.579  13.040  66.792  1.00  0.00    -0.050 C  
HETATM   28  N   UNL     1     -10.669  12.592  67.889  1.00  0.00    -0.213 N  
HETATM   29  C   UNL     1      -8.497  14.409  67.480  1.00  0.00    -0.202 C  
HETATM   30  C   UNL     1     -10.733  13.918  68.586  1.00  0.00    -0.260 C  
HETATM   31  C   UNL     1      -9.301  14.446  68.785  1.00  0.00    -0.150 C  
ENDBRANCH  15  17
ENDBRANCH   6  15
ENDBRANCH   4   6
ENDBRANCH   3   4
ENDBRANCH   2   3
TORSDOF 8
ENDMDL
MODEL      185
REMARK 921   NORMALIZED FREE ENERGY PREDICTED BY IDOCK:   -4.26 KCAL/MOL
REMARK 922        TOTAL FREE ENERGY PREDICTED BY IDOCK:   -7.46 KCAL/MOL
REMARK 923 INTER-LIGAND FREE ENERGY PREDICTED BY IDOCK:   -6.26 KCAL/MOL
REMARK 924 INTRA-LIGAND FREE ENERGY PREDICTED BY IDOCK:   -1.20 KCAL/MOL
REMARK 927      BINDING AFFINITY PREDICTED BY RF-SCORE:    0.00 PKD
ROOT
HETATM    1  C   UNL     1      -8.775   6.242  64.671  1.00  0.00     0.255 C  
HETATM    2  C   UNL     1      -7.778   7.254  65.203  1.00  0.00    -0.113 C  
ENDROOT
BRANCH   2   3
HETATM    3  O   UNL     1      -8.320   7.919  66.352  1.00  0.00    -0.118 OA 
BRANCH   3   4
HETATM    4  C   UNL     1      -9.328   8.803  66.101  1.00  0.00    -0.234 C  
HETATM    5  O   UNL     1      -9.438   9.483  65.084  1.00  0.00    -0.266 OA 
BRANCH   4   6
HETATM    6  C   UNL     1     -10.333   8.808  67.266  1.00  0.00    -0.290 C  
BRANCH   6   7
HETATM    7  C   UNL     1     -10.132  10.069  68.113  1.00  0.00    -0.186 C  
BRANCH   7   8
HETATM    8  C   UNL     1     -11.296  11.060  67.986  1.00  0.00    -0.374 C  
BRANCH   8   9
HETATM    9  C   UNL     1     -10.946  12.135  66.987  1.00  0.00    -0.319 A  
HETATM   10  C   UNL     1     -10.465  14.230  65.193  1.00  0.00    -0.432 A  
HETATM   11  C   UNL     1      -9.996  14.313  66.502  1.00  0.00    -0.289 A  
HETATM   12  C   UNL     1     -10.236  13.270  67.397  1.00  0.00    -0.229 A  
HETATM   13  C   UNL     1     -11.162  13.099  64.772  1.00  0.00    -0.347 A  
HETATM   14  C   UNL     1     -11.401  12.053  65.664  1.00  0.00    -0.381 A  
ENDBRANCH   8   9
ENDBRANCH   7   8
ENDBRANCH   6   7
BRANCH   6  15
HETATM   15  N   UNL     1     -10.146   7.553  68.018  1.00  0.00    -0.175 NA 
HETATM   16  H   UNL     1      -9.834   6.704  67.547  1.00  0.00     0.000 HD 
BRANCH  15  17
HETATM   17  C   UNL     1     -10.424   7.553  69.483  1.00  0.00    -0.226 C  
HETATM   18  O   UNL     1      -8.055   7.110  69.547  1.00  0.00    -0.125 OA 
HETATM   19  C   UNL     1     -11.736   6.808  69.704  1.00  0.00    -0.164 C  
HETATM   20  O   UNL     1      -6.668   4.456  73.375  1.00  0.00    -0.053 OA 
HETATM   21  O   UNL     1      -8.734   4.019  72.581  1.00  0.00    -0.101 OA 
HETATM   22  C   UNL     1     -12.273   6.897  71.119  1.00  0.00    -0.428 C  
HETATM   23  C   UNL     1      -9.132   6.968  70.151  1.00  0.00    -0.149 C  
HETATM   24  C   UNL     1     -11.500   5.986  72.041  1.00  0.00    -0.287 C  
HETATM   25  N   UNL     1     -10.174   6.468  72.364  1.00  0.00    -0.183 NA 
HETATM   26  C   UNL     1      -7.654   4.821  72.748  1.00  0.00    -0.091 C  
HETATM   27  C   UNL     1     -10.073   7.616  73.261  1.00  0.00    -0.334 C  
HETATM   28  N   UNL     1      -9.129   6.386  71.425  1.00  0.00    -0.145 N  
HETATM   29  C   UNL     1      -8.741   7.531  74.018  1.00  0.00    -0.283 C  
HETATM   30  C   UNL     1      -7.793   6.193  72.076  1.00  0.00    -0.105 C  
HETATM   31  C   UNL     1      -7.551   7.342  73.070  1.00  0.00    -0.090 C  
ENDBRANCH  15  17
ENDBRANCH   6  15
ENDBRANCH   4   6
ENDBRANCH   3   4
ENDBRANCH   2   3
TORSDOF 8
ENDMDL
MODEL      186
REMARK 921   NORMALIZED FREE ENERGY PREDICTED BY IDOCK:   -4.25 KCAL/MOL
REMARK 922        TOTAL FREE ENERGY PREDICTED BY IDOCK:   -7.44 KCAL/MOL
REMARK 923 INTER-LIGAND FREE ENERGY PREDICTED BY IDOCK:   -6.09 KCAL/MOL
REMARK 924 INTRA-LIGAND FREE ENERGY PREDICTED BY IDOCK:   -1.35 KCAL/MOL
REMARK 927      BINDING AFFINITY PREDICTED BY RF-SCORE:    0.00 PKD
ROOT
HETATM    1  C   UNL     1     -12.526  13.155  65.402  1.00  0.00    -0.535 C  
HETATM    2  C   UNL     1     -11.087  12.676  65.397  1.00  0.00    -0.292 C  
ENDROOT
BRANCH   2   3
HETATM    3  O   UNL     1     -10.976  11.450  66.132  1.00  0.00    -0.286 OA 
BRANCH   3   4
HETATM    4  C   UNL     1      -9.938  11.384  67.015  1.00  0.00    -0.201 C  
HETATM    5  O   UNL     1      -9.830  12.060  68.034  1.00  0.00    -0.187 OA 
BRANCH   4   6
HETATM    6  C   UNL     1      -8.927  10.314  66.567  1.00  0.00    -0.144 C  
BRANCH   6   7
HETATM    7  C   UNL     1      -9.460   9.588  65.328  1.00  0.00    -0.326 C  
BRANCH   7   8
HETATM    8  C   UNL     1      -8.383   9.375  64.256  1.00  0.00    -0.176 C  
BRANCH   8   9
HETATM    9  C   UNL     1      -7.564   8.152  64.589  1.00  0.00    -0.111 A  
HETATM   10  C   UNL     1      -5.964   5.896  65.020  1.00  0.00    -0.025 A  
HETATM   11  C   UNL     1      -5.461   7.168  65.287  1.00  0.00    -0.028 A  
HETATM   12  C   UNL     1      -6.258   8.293  65.073  1.00  0.00    -0.049 A  
HETATM   13  C   UNL     1      -7.267   5.745  64.551  1.00  0.00    -0.062 A  
HETATM   14  C   UNL     1      -8.067   6.869  64.338  1.00  0.00    -0.052 A  
ENDBRANCH   8   9
ENDBRANCH   7   8
ENDBRANCH   6   7
BRANCH   6  15
HETATM   15  N   UNL     1      -8.686   9.423  67.718  1.00  0.00    -0.117 NA 
HETATM   16  H   UNL     1      -7.766   9.373  68.155  1.00  0.00     0.000 HD 
BRANCH  15  17
HETATM   17  C   UNL     1      -9.817   8.595  68.227  1.00  0.00    -0.165 C  
HETATM   18  O   UNL     1      -9.187   9.684  70.285  1.00  0.00    -0.242 OA 
HETATM   19  C   UNL     1      -9.711   7.220  67.579  1.00  0.00    -0.181 C  
HETATM   20  O   UNL     1     -10.069   7.018  74.252  1.00  0.00    -0.314 OA 
HETATM   21  O   UNL     1      -9.536   5.856  72.393  1.00  0.00    -0.147 OA 
HETATM   22  C   UNL     1     -10.906   6.320  67.827  1.00  0.00    -0.424 C  
HETATM   23  C   UNL     1      -9.719   8.675  69.790  1.00  0.00    -0.176 C  
HETATM   24  C   UNL     1     -10.870   5.759  69.228  1.00  0.00    -0.303 C  
HETATM   25  N   UNL     1     -11.205   6.723  70.254  1.00  0.00    -0.309 NA 
HETATM   26  C   UNL     1     -10.003   6.957  73.031  1.00  0.00    -0.187 C  
HETATM   27  C   UNL     1     -12.600   7.141  70.357  1.00  0.00     0.209 C  
HETATM   28  N   UNL     1     -10.284   7.716  70.639  1.00  0.00    -0.198 N  
HETATM   29  C   UNL     1     -12.887   7.536  71.812  1.00  0.00    -0.359 C  
HETATM   30  C   UNL     1     -10.421   8.089  72.084  1.00  0.00    -0.265 C  
HETATM   31  C   UNL     1     -11.866   8.548  72.346  1.00  0.00    -0.437 C  
ENDBRANCH  15  17
ENDBRANCH   6  15
ENDBRANCH   4   6
ENDBRANCH   3   4
ENDBRANCH   2   3
TORSDOF 8
ENDMDL
MODEL      187
REMARK 921   NORMALIZED FREE ENERGY PREDICTED BY IDOCK:   -4.24 KCAL/MOL
REMARK 922        TOTAL FREE ENERGY PREDICTED BY IDOCK:   -7.44 KCAL/MOL
REMARK 923 INTER-LIGAND FREE ENERGY PREDICTED BY IDOCK:   -6.34 KCAL/MOL
REMARK 924 INTRA-LIGAND FREE ENERGY PREDICTED BY IDOCK:   -1.09 KCAL/MOL
REMARK 927      BINDING AFFINITY PREDICTED BY RF-SCORE:    0.00 PKD
ROOT
HETATM    1  C   UNL     1      -6.922   6.539  67.289  1.00  0.00    -0.075 C  
HETATM    2  C   UNL     1      -8.317   7.019  66.937  1.00  0.00    -0.118 C  
ENDROOT
BRANCH   2   3
HETATM    3  O   UNL     1      -9.297   6.143  67.509  1.00  0.00    -0.115 OA 
BRANCH   3   4
HETATM    4  C   UNL     1     -10.328   6.755  68.158  1.00  0.00    -0.188 C  
HETATM    5  O   UNL     1     -11.434   6.261  68.356  1.00  0.00    -0.201 OA 
BRANCH   4   6
HETATM    6  C   UNL     1      -9.899   8.153  68.637  1.00  0.00    -0.183 C  
BRANCH   6   7
HETATM    7  C   UNL     1      -9.971   8.217  70.166  1.00  0.00    -0.187 C  
BRANCH   7   8
HETATM    8  C   UNL     1      -8.825   7.456  70.846  1.00  0.00    -0.148 C  
BRANCH   8   9
HETATM    9  C   UNL     1      -9.373   6.587  71.951  1.00  0.00    -0.148 A  
HETATM   10  C   UNL     1     -10.578   5.036  73.946  1.00  0.00    -0.340 A  
HETATM   11  C   UNL     1     -10.425   4.520  72.661  1.00  0.00    -0.258 A  
HETATM   12  C   UNL     1      -9.824   5.292  71.666  1.00  0.00    -0.223 A  
HETATM   13  C   UNL     1     -10.121   6.319  74.242  1.00  0.00    -0.349 A  
HETATM   14  C   UNL     1      -9.518   7.092  73.249  1.00  0.00    -0.218 A  
ENDBRANCH   8   9
ENDBRANCH   7   8
ENDBRANCH   6   7
BRANCH   6  15
HETATM   15  N   UNL     1     -10.765   9.139  67.962  1.00  0.00    -0.425 NA 
HETATM   16  H   UNL     1     -11.777   9.013  67.936  1.00  0.00     0.000 HD 
BRANCH  15  17
HETATM   17  C   UNL     1     -10.128  10.323  67.318  1.00  0.00    -0.203 C  
HETATM   18  O   UNL     1     -10.895  11.365  69.354  1.00  0.00    -0.226 OA 
HETATM   19  C   UNL     1     -10.490  10.295  65.838  1.00  0.00    -0.167 C  
HETATM   20  O   UNL     1     -11.971  16.077  68.849  1.00  0.00    -0.348 OA 
HETATM   21  O   UNL     1     -12.339  14.792  67.032  1.00  0.00    -0.132 OA 
HETATM   22  C   UNL     1      -9.750  11.316  64.995  1.00  0.00    -0.293 C  
HETATM   23  C   UNL     1     -10.601  11.558  68.162  1.00  0.00    -0.196 C  
HETATM   24  C   UNL     1     -10.326  12.695  65.199  1.00  0.00    -0.292 C  
HETATM   25  N   UNL     1      -9.984  13.291  66.473  1.00  0.00    -0.273 NA 
HETATM   26  C   UNL     1     -11.731  15.059  68.214  1.00  0.00    -0.314 C  
HETATM   27  C   UNL     1      -8.606  13.736  66.661  1.00  0.00     0.073 C  
HETATM   28  N   UNL     1     -10.610  12.865  67.659  1.00  0.00    -0.221 N  
HETATM   29  C   UNL     1      -8.599  14.900  67.661  1.00  0.00    -0.181 C  
HETATM   30  C   UNL     1     -10.745  13.972  68.661  1.00  0.00    -0.259 C  
HETATM   31  C   UNL     1      -9.350  14.554  68.952  1.00  0.00    -0.136 C  
ENDBRANCH  15  17
ENDBRANCH   6  15
ENDBRANCH   4   6
ENDBRANCH   3   4
ENDBRANCH   2   3
TORSDOF 8
ENDMDL
MODEL      188
REMARK 921   NORMALIZED FREE ENERGY PREDICTED BY IDOCK:   -4.24 KCAL/MOL
REMARK 922        TOTAL FREE ENERGY PREDICTED BY IDOCK:   -7.43 KCAL/MOL
REMARK 923 INTER-LIGAND FREE ENERGY PREDICTED BY IDOCK:   -6.53 KCAL/MOL
REMARK 924 INTRA-LIGAND FREE ENERGY PREDICTED BY IDOCK:   -0.91 KCAL/MOL
REMARK 927      BINDING AFFINITY PREDICTED BY RF-SCORE:    0.00 PKD
ROOT
HETATM    1  C   UNL     1      -7.004  18.645  65.853  1.00  0.00    -0.305 C  
HETATM    2  C   UNL     1      -7.646  17.621  66.768  1.00  0.00    -0.222 C  
ENDROOT
BRANCH   2   3
HETATM    3  O   UNL     1      -8.753  16.996  66.105  1.00  0.00    -0.406 OA 
BRANCH   3   4
HETATM    4  C   UNL     1      -9.889  16.867  66.848  1.00  0.00    -0.276 C  
HETATM    5  O   UNL     1     -10.484  17.788  67.400  1.00  0.00    -0.355 OA 
BRANCH   4   6
HETATM    6  C   UNL     1     -10.344  15.397  66.872  1.00  0.00    -0.277 C  
BRANCH   6   7
HETATM    7  C   UNL     1     -11.797  15.300  66.396  1.00  0.00     0.194 C  
BRANCH   7   8
HETATM    8  C   UNL     1     -11.920  15.278  64.867  1.00  0.00    -0.108 C  
BRANCH   8   9
HETATM    9  C   UNL     1     -11.661  13.884  64.353  1.00  0.00    -0.427 A  
HETATM   10  C   UNL     1     -11.224  11.227  63.586  1.00  0.00    -0.221 A  
HETATM   11  C   UNL     1     -12.507  11.767  63.525  1.00  0.00    -0.504 A  
HETATM   12  C   UNL     1     -12.726  13.091  63.907  1.00  0.00    -0.173 A  
HETATM   13  C   UNL     1     -10.156  12.012  64.016  1.00  0.00    -0.361 A  
HETATM   14  C   UNL     1     -10.372  13.337  64.397  1.00  0.00    -0.372 A  
ENDBRANCH   8   9
ENDBRANCH   7   8
ENDBRANCH   6   7
BRANCH   6  15
HETATM   15  N   UNL     1     -10.135  14.890  68.242  1.00  0.00    -0.218 NA 
HETATM   16  H   UNL     1     -10.079  15.532  69.033  1.00  0.00     0.000 HD 
BRANCH  15  17
HETATM   17  C   UNL     1     -10.006  13.419  68.445  1.00  0.00    -0.231 C  
HETATM   18  O   UNL     1      -7.734  13.912  67.805  1.00  0.00    -0.139 OA 
HETATM   19  C   UNL     1     -11.247  12.761  67.853  1.00  0.00    -0.315 C  
HETATM   20  O   UNL     1      -5.507  10.242  65.526  1.00  0.00    -0.061 OA 
HETATM   21  O   UNL     1      -7.731  10.400  65.182  1.00  0.00    -0.145 OA 
HETATM   22  C   UNL     1     -11.376  11.282  68.161  1.00  0.00    -0.372 C  
HETATM   23  C   UNL     1      -8.614  13.035  67.834  1.00  0.00    -0.189 C  
HETATM   24  C   UNL     1     -10.432  10.473  67.305  1.00  0.00    -0.250 C  
HETATM   25  N   UNL     1      -9.045  10.579  67.703  1.00  0.00    -0.141 NA 
HETATM   26  C   UNL     1      -6.605  10.636  65.898  1.00  0.00    -0.118 C  
HETATM   27  C   UNL     1      -8.644   9.912  68.939  1.00  0.00    -0.135 C  
HETATM   28  N   UNL     1      -8.298  11.737  67.415  1.00  0.00    -0.152 N  
HETATM   29  C   UNL     1      -7.164   9.524  68.829  1.00  0.00    -0.073 C  
HETATM   30  C   UNL     1      -6.848  11.436  67.185  1.00  0.00    -0.124 C  
HETATM   31  C   UNL     1      -6.286  10.712  68.421  1.00  0.00    -0.050 C  
ENDBRANCH  15  17
ENDBRANCH   6  15
ENDBRANCH   4   6
ENDBRANCH   3   4
ENDBRANCH   2   3
TORSDOF 8
ENDMDL
MODEL      189
REMARK 921   NORMALIZED FREE ENERGY PREDICTED BY IDOCK:   -4.21 KCAL/MOL
REMARK 922        TOTAL FREE ENERGY PREDICTED BY IDOCK:   -7.39 KCAL/MOL
REMARK 923 INTER-LIGAND FREE ENERGY PREDICTED BY IDOCK:   -7.63 KCAL/MOL
REMARK 924 INTRA-LIGAND FREE ENERGY PREDICTED BY IDOCK:    0.24 KCAL/MOL
REMARK 927      BINDING AFFINITY PREDICTED BY RF-SCORE:    0.00 PKD
ROOT
HETATM    1  C   UNL     1      -8.774  17.556  66.496  1.00  0.00    -0.290 C  
HETATM    2  C   UNL     1     -10.239  17.469  66.114  1.00  0.00    -0.335 C  
ENDROOT
BRANCH   2   3
HETATM    3  O   UNL     1     -10.615  16.098  65.920  1.00  0.00    -0.327 OA 
BRANCH   3   4
HETATM    4  C   UNL     1     -10.990  15.426  67.046  1.00  0.00    -0.306 C  
HETATM    5  O   UNL     1     -11.624  15.906  67.981  1.00  0.00    -0.296 OA 
BRANCH   4   6
HETATM    6  C   UNL     1     -10.531  13.959  66.967  1.00  0.00    -0.278 C  
BRANCH   6   7
HETATM    7  C   UNL     1     -11.754  13.040  66.890  1.00  0.00    -0.441 C  
BRANCH   7   8
HETATM    8  C   UNL     1     -12.160  12.713  65.447  1.00  0.00    -0.516 C  
BRANCH   8   9
HETATM    9  C   UNL     1     -11.078  11.899  64.782  1.00  0.00    -0.367 A  
HETATM   10  C   UNL     1      -9.218  10.283  63.454  1.00  0.00    -0.321 A  
HETATM   11  C   UNL     1      -9.700  11.438  62.841  1.00  0.00    -0.344 A  
HETATM   12  C   UNL     1     -10.626  12.244  63.503  1.00  0.00    -0.488 A  
HETATM   13  C   UNL     1      -9.652   9.938  64.733  1.00  0.00    -0.339 A  
HETATM   14  C   UNL     1     -10.578  10.744  65.397  1.00  0.00    -0.224 A  
ENDBRANCH   8   9
ENDBRANCH   7   8
ENDBRANCH   6   7
BRANCH   6  15
HETATM   15  N   UNL     1      -9.668  13.701  68.136  1.00  0.00    -0.224 NA 
HETATM   16  H   UNL     1      -8.848  14.280  68.318  1.00  0.00     0.000 HD 
BRANCH  15  17
HETATM   17  C   UNL     1     -10.022  12.575  69.047  1.00  0.00     0.231 C  
HETATM   18  O   UNL     1      -8.262  11.508  67.789  1.00  0.00    -0.125 OA 
HETATM   19  C   UNL     1     -11.541  12.530  69.157  1.00  0.00    -0.375 C  
HETATM   20  O   UNL     1      -8.810   6.697  67.362  1.00  0.00    -0.117 OA 
HETATM   21  O   UNL     1     -10.720   7.893  67.454  1.00  0.00    -0.272 OA 
HETATM   22  C   UNL     1     -12.062  11.572  70.212  1.00  0.00    -0.444 C  
HETATM   23  C   UNL     1      -9.295  11.318  68.453  1.00  0.00    -0.181 C  
HETATM   24  C   UNL     1     -11.967  10.145  69.731  1.00  0.00    -0.037 C  
HETATM   25  N   UNL     1     -10.619   9.619  69.718  1.00  0.00    -0.227 NA 
HETATM   26  C   UNL     1      -9.397   7.720  67.691  1.00  0.00    -0.142 C  
HETATM   27  C   UNL     1      -9.997   9.326  71.006  1.00  0.00    -0.293 C  
HETATM   28  N   UNL     1      -9.704  10.006  68.720  1.00  0.00    -0.164 N  
HETATM   29  C   UNL     1      -8.979   8.193  70.812  1.00  0.00    -0.156 C  
HETATM   30  C   UNL     1      -8.732   8.915  68.387  1.00  0.00    -0.134 C  
HETATM   31  C   UNL     1      -7.999   8.490  69.671  1.00  0.00    -0.101 C  
ENDBRANCH  15  17
ENDBRANCH   6  15
ENDBRANCH   4   6
ENDBRANCH   3   4
ENDBRANCH   2   3
TORSDOF 8
ENDMDL
MODEL      190
REMARK 921   NORMALIZED FREE ENERGY PREDICTED BY IDOCK:   -4.19 KCAL/MOL
REMARK 922        TOTAL FREE ENERGY PREDICTED BY IDOCK:   -7.36 KCAL/MOL
REMARK 923 INTER-LIGAND FREE ENERGY PREDICTED BY IDOCK:   -6.34 KCAL/MOL
REMARK 924 INTRA-LIGAND FREE ENERGY PREDICTED BY IDOCK:   -1.02 KCAL/MOL
REMARK 927      BINDING AFFINITY PREDICTED BY RF-SCORE:    0.00 PKD
ROOT
HETATM    1  C   UNL     1     -10.865   7.106  71.115  1.00  0.00    -0.261 C  
HETATM    2  C   UNL     1     -10.061   8.133  71.888  1.00  0.00    -0.220 C  
ENDROOT
BRANCH   2   3
HETATM    3  O   UNL     1     -10.116   9.401  71.222  1.00  0.00    -0.302 OA 
BRANCH   3   4
HETATM    4  C   UNL     1     -11.328   9.738  70.695  1.00  0.00    -0.330 C  
HETATM    5  O   UNL     1     -12.411   9.580  71.250  1.00  0.00    -0.315 OA 
BRANCH   4   6
HETATM    6  C   UNL     1     -11.145  10.378  69.307  1.00  0.00    -0.253 C  
BRANCH   6   7
HETATM    7  C   UNL     1     -12.165  11.506  69.122  1.00  0.00    -0.221 C  
BRANCH   7   8
HETATM    8  C   UNL     1     -11.727  12.816  69.790  1.00  0.00    -0.352 C  
BRANCH   8   9
HETATM    9  C   UNL     1     -11.278  13.801  68.740  1.00  0.00    -0.303 A  
HETATM   10  C   UNL     1     -10.635  15.701  66.787  1.00  0.00    -0.307 A  
HETATM   11  C   UNL     1     -10.574  16.042  68.137  1.00  0.00    -0.286 A  
HETATM   12  C   UNL     1     -10.894  15.096  69.111  1.00  0.00    -0.251 A  
HETATM   13  C   UNL     1     -11.004  14.412  66.409  1.00  0.00    -0.319 A  
HETATM   14  C   UNL     1     -11.322  13.463  67.381  1.00  0.00    -0.338 A  
ENDBRANCH   8   9
ENDBRANCH   7   8
ENDBRANCH   6   7
BRANCH   6  15
HETATM   15  N   UNL     1     -11.263   9.302  68.304  1.00  0.00    -0.456 NA 
HETATM   16  H   UNL     1     -12.049   8.652  68.327  1.00  0.00     0.000 HD 
BRANCH  15  17
HETATM   17  C   UNL     1     -10.209   9.187  67.256  1.00  0.00    -0.254 C  
HETATM   18  O   UNL     1     -10.814   6.860  67.444  1.00  0.00    -0.287 OA 
HETATM   19  C   UNL     1      -9.062  10.109  67.651  1.00  0.00    -0.144 C  
HETATM   20  O   UNL     1      -7.156   3.809  66.476  1.00  0.00    -0.061 OA 
HETATM   21  O   UNL     1      -6.566   5.774  67.413  1.00  0.00    -0.052 OA 
HETATM   22  C   UNL     1      -7.996  10.270  66.585  1.00  0.00    -0.116 C  
HETATM   23  C   UNL     1      -9.906   7.652  67.140  1.00  0.00    -0.202 C  
HETATM   24  C   UNL     1      -7.110   9.050  66.526  1.00  0.00    -0.081 C  
HETATM   25  N   UNL     1      -7.741   7.897  65.920  1.00  0.00    -0.089 NA 
HETATM   26  C   UNL     1      -7.410   4.984  66.706  1.00  0.00    -0.086 C  
HETATM   27  C   UNL     1      -7.956   7.927  64.476  1.00  0.00    -0.140 C  
HETATM   28  N   UNL     1      -8.706   7.151  66.623  1.00  0.00    -0.123 N  
HETATM   29  C   UNL     1      -7.938   6.486  63.948  1.00  0.00    -0.080 C  
HETATM   30  C   UNL     1      -8.687   5.700  66.246  1.00  0.00    -0.131 C  
HETATM   31  C   UNL     1      -8.894   5.575  64.726  1.00  0.00     0.017 C  
ENDBRANCH  15  17
ENDBRANCH   6  15
ENDBRANCH   4   6
ENDBRANCH   3   4
ENDBRANCH   2   3
TORSDOF 8
ENDMDL
MODEL      191
REMARK 921   NORMALIZED FREE ENERGY PREDICTED BY IDOCK:   -4.18 KCAL/MOL
REMARK 922        TOTAL FREE ENERGY PREDICTED BY IDOCK:   -7.34 KCAL/MOL
REMARK 923 INTER-LIGAND FREE ENERGY PREDICTED BY IDOCK:   -5.45 KCAL/MOL
REMARK 924 INTRA-LIGAND FREE ENERGY PREDICTED BY IDOCK:   -1.89 KCAL/MOL
REMARK 927      BINDING AFFINITY PREDICTED BY RF-SCORE:    0.00 PKD
ROOT
HETATM    1  C   UNL     1      -8.375  15.762  68.661  1.00  0.00    -0.183 C  
HETATM    2  C   UNL     1      -8.691  14.664  67.664  1.00  0.00    -0.177 C  
ENDROOT
BRANCH   2   3
HETATM    3  O   UNL     1      -8.315  13.390  68.204  1.00  0.00    -0.149 OA 
BRANCH   3   4
HETATM    4  C   UNL     1      -7.160  12.859  67.711  1.00  0.00    -0.137 C  
HETATM    5  O   UNL     1      -6.193  13.505  67.319  1.00  0.00    -0.313 OA 
BRANCH   4   6
HETATM    6  C   UNL     1      -7.225  11.322  67.743  1.00  0.00    -0.088 C  
BRANCH   6   7
HETATM    7  C   UNL     1      -7.511  10.789  66.335  1.00  0.00    -0.142 C  
BRANCH   7   8
HETATM    8  C   UNL     1      -6.657   9.565  65.979  1.00  0.00    -0.077 C  
BRANCH   8   9
HETATM    9  C   UNL     1      -7.448   8.303  66.215  1.00  0.00    -0.079 A  
HETATM   10  C   UNL     1      -8.957   6.029  66.842  1.00  0.00    -0.117 A  
HETATM   11  C   UNL     1      -9.586   7.164  66.335  1.00  0.00    -0.161 A  
HETATM   12  C   UNL     1      -8.836   8.298  66.022  1.00  0.00    -0.203 A  
HETATM   13  C   UNL     1      -7.575   6.020  67.025  1.00  0.00    -0.096 A  
HETATM   14  C   UNL     1      -6.822   7.152  66.711  1.00  0.00    -0.068 A  
ENDBRANCH   8   9
ENDBRANCH   7   8
ENDBRANCH   6   7
BRANCH   6  15
HETATM   15  N   UNL     1      -8.245  10.941  68.738  1.00  0.00    -0.144 NA 
HETATM   16  H   UNL     1      -9.002  11.582  68.980  1.00  0.00     0.000 HD 
BRANCH  15  17
HETATM   17  C   UNL     1      -8.146   9.601  69.383  1.00  0.00    -0.118 C  
HETATM   18  O   UNL     1     -10.495   9.586  68.837  1.00  0.00    -0.206 OA 
HETATM   19  C   UNL     1      -7.256   9.744  70.612  1.00  0.00    -0.084 C  
HETATM   20  O   UNL     1     -13.199   6.973  71.917  1.00  0.00    -0.308 OA 
HETATM   21  O   UNL     1     -11.390   7.978  72.816  1.00  0.00    -0.394 OA 
HETATM   22  C   UNL     1      -6.880   8.429  71.267  1.00  0.00    -0.065 C  
HETATM   23  C   UNL     1      -9.628   9.137  69.605  1.00  0.00    -0.176 C  
HETATM   24  C   UNL     1      -8.039   7.879  72.063  1.00  0.00    -0.114 C  
HETATM   25  N   UNL     1      -9.101   7.331  71.248  1.00  0.00    -0.146 NA 
HETATM   26  C   UNL     1     -12.088   7.467  71.773  1.00  0.00    -0.312 C  
HETATM   27  C   UNL     1      -8.846   6.065  70.568  1.00  0.00    -0.145 C  
HETATM   28  N   UNL     1      -9.990   8.177  70.558  1.00  0.00    -0.186 N  
HETATM   29  C   UNL     1     -10.179   5.328  70.386  1.00  0.00    -0.338 C  
HETATM   30  C   UNL     1     -11.359   7.579  70.427  1.00  0.00    -0.233 C  
HETATM   31  C   UNL     1     -11.242   6.214  69.727  1.00  0.00    -0.494 C  
ENDBRANCH  15  17
ENDBRANCH   6  15
ENDBRANCH   4   6
ENDBRANCH   3   4
ENDBRANCH   2   3
TORSDOF 8
ENDMDL
MODEL      192
REMARK 921   NORMALIZED FREE ENERGY PREDICTED BY IDOCK:   -4.17 KCAL/MOL
REMARK 922        TOTAL FREE ENERGY PREDICTED BY IDOCK:   -7.33 KCAL/MOL
REMARK 923 INTER-LIGAND FREE ENERGY PREDICTED BY IDOCK:   -5.88 KCAL/MOL
REMARK 924 INTRA-LIGAND FREE ENERGY PREDICTED BY IDOCK:   -1.45 KCAL/MOL
REMARK 927      BINDING AFFINITY PREDICTED BY RF-SCORE:    0.00 PKD
ROOT
HETATM    1  C   UNL     1     -12.046  12.160  70.272  1.00  0.00    -0.385 C  
HETATM    2  C   UNL     1     -12.634  11.165  71.254  1.00  0.00    -0.398 C  
ENDROOT
BRANCH   2   3
HETATM    3  O   UNL     1     -12.607   9.847  70.691  1.00  0.00    -0.260 OA 
BRANCH   3   4
HETATM    4  C   UNL     1     -12.831   8.827  71.569  1.00  0.00    -0.325 C  
HETATM    5  O   UNL     1     -13.858   8.664  72.221  1.00  0.00    -0.403 OA 
BRANCH   4   6
HETATM    6  C   UNL     1     -11.617   7.881  71.604  1.00  0.00    -0.272 C  
BRANCH   6   7
HETATM    7  C   UNL     1     -10.647   8.330  72.703  1.00  0.00    -0.378 C  
BRANCH   7   8
HETATM    8  C   UNL     1     -10.299   7.202  73.683  1.00  0.00    -0.411 C  
BRANCH   8   9
HETATM    9  C   UNL     1      -8.813   7.190  73.941  1.00  0.00    -0.222 A  
HETATM   10  C   UNL     1      -6.027   7.211  74.222  1.00  0.00    -0.073 A  
HETATM   11  C   UNL     1      -6.748   8.397  74.344  1.00  0.00    -0.175 A  
HETATM   12  C   UNL     1      -8.136   8.387  74.205  1.00  0.00    -0.205 A  
HETATM   13  C   UNL     1      -6.693   6.012  73.973  1.00  0.00    -0.080 A  
HETATM   14  C   UNL     1      -8.082   5.999  73.835  1.00  0.00    -0.107 A  
ENDBRANCH   8   9
ENDBRANCH   7   8
ENDBRANCH   6   7
BRANCH   6  15
HETATM   15  N   UNL     1     -11.020   7.874  70.255  1.00  0.00    -0.253 NA 
HETATM   16  H   UNL     1     -11.434   7.319  69.505  1.00  0.00     0.000 HD 
BRANCH  15  17
HETATM   17  C   UNL     1      -9.800   8.694  70.011  1.00  0.00    -0.179 C  
HETATM   18  O   UNL     1     -11.113   9.397  68.115  1.00  0.00    -0.106 OA 
HETATM   19  C   UNL     1      -8.588   7.818  70.305  1.00  0.00    -0.138 C  
HETATM   20  O   UNL     1      -8.447  10.645  64.248  1.00  0.00    -0.156 OA 
HETATM   21  O   UNL     1      -7.577   9.022  65.551  1.00  0.00    -0.088 OA 
HETATM   22  C   UNL     1      -7.266   8.562  70.308  1.00  0.00    -0.048 C  
HETATM   23  C   UNL     1      -9.960   9.254  68.555  1.00  0.00    -0.175 C  
HETATM   24  C   UNL     1      -6.818   8.860  68.899  1.00  0.00    -0.061 C  
HETATM   25  N   UNL     1      -7.570   9.915  68.256  1.00  0.00    -0.080 NA 
HETATM   26  C   UNL     1      -8.384  10.089  65.337  1.00  0.00    -0.151 C  
HETATM   27  C   UNL     1      -7.345  11.283  68.717  1.00  0.00    -0.109 C  
HETATM   28  N   UNL     1      -8.876   9.684  67.781  1.00  0.00    -0.125 N  
HETATM   29  C   UNL     1      -7.619  12.244  67.553  1.00  0.00    -0.155 C  
HETATM   30  C   UNL     1      -9.195  10.508  66.570  1.00  0.00    -0.161 C  
HETATM   31  C   UNL     1      -8.988  11.995  66.910  1.00  0.00    -0.199 C  
ENDBRANCH  15  17
ENDBRANCH   6  15
ENDBRANCH   4   6
ENDBRANCH   3   4
ENDBRANCH   2   3
TORSDOF 8
ENDMDL
MODEL      193
REMARK 921   NORMALIZED FREE ENERGY PREDICTED BY IDOCK:   -4.15 KCAL/MOL
REMARK 922        TOTAL FREE ENERGY PREDICTED BY IDOCK:   -7.30 KCAL/MOL
REMARK 923 INTER-LIGAND FREE ENERGY PREDICTED BY IDOCK:   -7.26 KCAL/MOL
REMARK 924 INTRA-LIGAND FREE ENERGY PREDICTED BY IDOCK:   -0.03 KCAL/MOL
REMARK 927      BINDING AFFINITY PREDICTED BY RF-SCORE:    0.00 PKD
ROOT
HETATM    1  C   UNL     1     -11.756  15.251  68.903  1.00  0.00    -0.362 C  
HETATM    2  C   UNL     1     -11.277  14.104  68.035  1.00  0.00    -0.281 C  
ENDROOT
BRANCH   2   3
HETATM    3  O   UNL     1     -12.392  13.493  67.371  1.00  0.00    -0.278 OA 
BRANCH   3   4
HETATM    4  C   UNL     1     -12.393  13.591  66.010  1.00  0.00    -0.433 C  
HETATM    5  O   UNL     1     -13.302  14.063  65.334  1.00  0.00    -0.721 OA 
BRANCH   4   6
HETATM    6  C   UNL     1     -11.070  13.051  65.438  1.00  0.00    -0.275 C  
BRANCH   6   7
HETATM    7  C   UNL     1     -10.300  14.190  64.760  1.00  0.00    -0.387 C  
BRANCH   7   8
HETATM    8  C   UNL     1     -11.080  15.511  64.752  1.00  0.00    -0.421 C  
BRANCH   8   9
HETATM    9  C   UNL     1     -10.331  16.552  65.545  1.00  0.00    -0.307 A  
HETATM   10  C   UNL     1      -8.850  18.543  66.842  1.00  0.00    -0.283 A  
HETATM   11  C   UNL     1     -10.081  18.854  66.268  1.00  0.00    -0.460 A  
HETATM   12  C   UNL     1     -10.820  17.862  65.622  1.00  0.00     0.058 A  
HETATM   13  C   UNL     1      -8.361  17.239  66.782  1.00  0.00    -0.276 A  
HETATM   14  C   UNL     1      -9.099  16.245  66.137  1.00  0.00    -0.377 A  
ENDBRANCH   8   9
ENDBRANCH   7   8
ENDBRANCH   6   7
BRANCH   6  15
HETATM   15  N   UNL     1     -11.402  11.938  64.528  1.00  0.00    -0.329 NA 
HETATM   16  H   UNL     1     -12.245  11.967  63.953  1.00  0.00     0.000 HD 
BRANCH  15  17
HETATM   17  C   UNL     1     -10.480  10.768  64.468  1.00  0.00    -0.281 C  
HETATM   18  O   UNL     1     -11.198  10.567  66.762  1.00  0.00    -0.144 OA 
HETATM   19  C   UNL     1      -9.243  11.195  63.687  1.00  0.00    -0.167 C  
HETATM   20  O   UNL     1      -7.859   8.585  69.685  1.00  0.00    -0.091 OA 
HETATM   21  O   UNL     1      -7.052   9.812  67.972  1.00  0.00    -0.077 OA 
HETATM   22  C   UNL     1      -8.294  10.061  63.353  1.00  0.00    -0.170 C  
HETATM   23  C   UNL     1     -10.284  10.317  65.957  1.00  0.00    -0.228 C  
HETATM   24  C   UNL     1      -7.495   9.657  64.568  1.00  0.00    -0.128 C  
HETATM   25  N   UNL     1      -8.256   8.917  65.550  1.00  0.00    -0.121 NA 
HETATM   26  C   UNL     1      -8.015   9.070  68.572  1.00  0.00    -0.103 C  
HETATM   27  C   UNL     1      -8.628   7.543  65.222  1.00  0.00    -0.002 C  
HETATM   28  N   UNL     1      -9.181   9.571  66.388  1.00  0.00    -0.157 N  
HETATM   29  C   UNL     1      -8.755   6.745  66.526  1.00  0.00    -0.139 C  
HETATM   30  C   UNL     1      -9.290   8.917  67.732  1.00  0.00    -0.141 C  
HETATM   31  C   UNL     1      -9.672   7.439  67.540  1.00  0.00    -0.186 C  
ENDBRANCH  15  17
ENDBRANCH   6  15
ENDBRANCH   4   6
ENDBRANCH   3   4
ENDBRANCH   2   3
TORSDOF 8
ENDMDL
MODEL      194
REMARK 921   NORMALIZED FREE ENERGY PREDICTED BY IDOCK:   -4.15 KCAL/MOL
REMARK 922        TOTAL FREE ENERGY PREDICTED BY IDOCK:   -7.30 KCAL/MOL
REMARK 923 INTER-LIGAND FREE ENERGY PREDICTED BY IDOCK:   -6.02 KCAL/MOL
REMARK 924 INTRA-LIGAND FREE ENERGY PREDICTED BY IDOCK:   -1.28 KCAL/MOL
REMARK 927      BINDING AFFINITY PREDICTED BY RF-SCORE:    0.00 PKD
ROOT
HETATM    1  C   UNL     1     -14.245   8.022  71.650  1.00  0.00    -0.549 C  
HETATM    2  C   UNL     1     -13.118   8.650  72.446  1.00  0.00    -0.349 C  
ENDROOT
BRANCH   2   3
HETATM    3  O   UNL     1     -12.390   9.571  71.623  1.00  0.00    -0.348 OA 
BRANCH   3   4
HETATM    4  C   UNL     1     -11.042   9.374  71.569  1.00  0.00    -0.376 C  
HETATM    5  O   UNL     1     -10.392   8.695  72.359  1.00  0.00    -0.319 OA 
BRANCH   4   6
HETATM    6  C   UNL     1     -10.447  10.103  70.351  1.00  0.00    -0.173 C  
BRANCH   6   7
HETATM    7  C   UNL     1     -11.485  10.157  69.226  1.00  0.00    -0.168 C  
BRANCH   7   8
HETATM    8  C   UNL     1     -12.312  11.449  69.243  1.00  0.00    -0.148 C  
BRANCH   8   9
HETATM    9  C   UNL     1     -11.750  12.430  68.244  1.00  0.00    -0.398 A  
HETATM   10  C   UNL     1     -10.527  14.231  66.484  1.00  0.00    -0.287 A  
HETATM   11  C   UNL     1     -10.484  12.863  66.221  1.00  0.00    -0.282 A  
HETATM   12  C   UNL     1     -11.094  11.965  67.097  1.00  0.00    -0.347 A  
HETATM   13  C   UNL     1     -11.189  14.704  67.616  1.00  0.00    -0.332 A  
HETATM   14  C   UNL     1     -11.801  13.807  68.493  1.00  0.00    -0.406 A  
ENDBRANCH   8   9
ENDBRANCH   7   8
ENDBRANCH   6   7
BRANCH   6  15
HETATM   15  N   UNL     1      -9.204   9.400  69.977  1.00  0.00    -0.202 NA 
HETATM   16  H   UNL     1      -8.703   8.829  70.658  1.00  0.00     0.000 HD 
BRANCH  15  17
HETATM   17  C   UNL     1      -8.697   9.544  68.583  1.00  0.00    -0.127 C  
HETATM   18  O   UNL     1      -9.017   7.155  68.624  1.00  0.00    -0.132 OA 
HETATM   19  C   UNL     1      -7.550  10.548  68.610  1.00  0.00    -0.099 C  
HETATM   20  O   UNL     1      -5.946   4.724  65.746  1.00  0.00    -0.022 OA 
HETATM   21  O   UNL     1      -5.134   6.620  66.659  1.00  0.00    -0.012 OA 
HETATM   22  C   UNL     1      -7.056  10.969  67.240  1.00  0.00    -0.097 C  
HETATM   23  C   UNL     1      -8.378   8.085  68.104  1.00  0.00    -0.127 C  
HETATM   24  C   UNL     1      -6.208   9.885  66.622  1.00  0.00    -0.068 C  
HETATM   25  N   UNL     1      -6.965   8.744  66.154  1.00  0.00    -0.079 NA 
HETATM   26  C   UNL     1      -6.149   5.822  66.248  1.00  0.00    -0.029 C  
HETATM   27  C   UNL     1      -7.779   8.920  64.954  1.00  0.00    -0.112 C  
HETATM   28  N   UNL     1      -7.487   7.803  67.062  1.00  0.00    -0.093 N  
HETATM   29  C   UNL     1      -7.900   7.567  64.241  1.00  0.00    -0.133 C  
HETATM   30  C   UNL     1      -7.542   6.422  66.482  1.00  0.00    -0.094 C  
HETATM   31  C   UNL     1      -8.372   6.457  65.187  1.00  0.00    -0.109 C  
ENDBRANCH  15  17
ENDBRANCH   6  15
ENDBRANCH   4   6
ENDBRANCH   3   4
ENDBRANCH   2   3
TORSDOF 8
ENDMDL
MODEL      195
REMARK 921   NORMALIZED FREE ENERGY PREDICTED BY IDOCK:   -4.14 KCAL/MOL
REMARK 922        TOTAL FREE ENERGY PREDICTED BY IDOCK:   -7.29 KCAL/MOL
REMARK 923 INTER-LIGAND FREE ENERGY PREDICTED BY IDOCK:   -6.29 KCAL/MOL
REMARK 924 INTRA-LIGAND FREE ENERGY PREDICTED BY IDOCK:   -1.00 KCAL/MOL
REMARK 927      BINDING AFFINITY PREDICTED BY RF-SCORE:    0.00 PKD
ROOT
HETATM    1  C   UNL     1      -6.240  14.838  70.217  1.00  0.00    -0.167 C  
HETATM    2  C   UNL     1      -7.537  14.739  69.436  1.00  0.00    -0.127 C  
ENDROOT
BRANCH   2   3
HETATM    3  O   UNL     1      -7.775  13.378  69.052  1.00  0.00    -0.007 OA 
BRANCH   3   4
HETATM    4  C   UNL     1      -8.582  13.206  67.966  1.00  0.00    -0.182 C  
HETATM    5  O   UNL     1      -8.334  13.597  66.829  1.00  0.00    -0.072 OA 
BRANCH   4   6
HETATM    6  C   UNL     1      -9.844  12.420  68.361  1.00  0.00    -0.198 C  
BRANCH   6   7
HETATM    7  C   UNL     1     -10.883  13.377  68.955  1.00  0.00    -0.253 C  
BRANCH   7   8
HETATM    8  C   UNL     1     -11.960  13.785  67.942  1.00  0.00    -0.391 C  
BRANCH   8   9
HETATM    9  C   UNL     1     -11.440  14.893  67.059  1.00  0.00    -0.333 A  
HETATM   10  C   UNL     1     -10.655  17.044  65.449  1.00  0.00    -0.147 A  
HETATM   11  C   UNL     1     -10.463  17.100  66.828  1.00  0.00    -0.263 A  
HETATM   12  C   UNL     1     -10.854  16.028  67.631  1.00  0.00    -0.311 A  
HETATM   13  C   UNL     1     -11.226  15.912  64.869  1.00  0.00    -0.345 A  
HETATM   14  C   UNL     1     -11.616  14.838  65.671  1.00  0.00    -0.290 A  
ENDBRANCH   8   9
ENDBRANCH   7   8
ENDBRANCH   6   7
BRANCH   6  15
HETATM   15  N   UNL     1      -9.428  11.349  69.288  1.00  0.00    -0.387 NA 
HETATM   16  H   UNL     1      -8.782  11.544  70.053  1.00  0.00     0.000 HD 
BRANCH  15  17
HETATM   17  C   UNL     1      -9.972   9.977  69.082  1.00  0.00    -0.204 C  
HETATM   18  O   UNL     1      -8.780   9.606  71.144  1.00  0.00    -0.180 OA 
HETATM   19  C   UNL     1      -9.834   9.643  67.601  1.00  0.00    -0.202 C  
HETATM   20  O   UNL     1      -7.117   5.066  71.647  1.00  0.00    -0.054 OA 
HETATM   21  O   UNL     1      -7.202   5.846  69.532  1.00  0.00    -0.066 OA 
HETATM   22  C   UNL     1     -10.531   8.363  67.182  1.00  0.00    -0.380 C  
HETATM   23  C   UNL     1      -9.210   9.070  70.109  1.00  0.00    -0.192 C  
HETATM   24  C   UNL     1      -9.738   7.156  67.618  1.00  0.00    -0.143 C  
HETATM   25  N   UNL     1      -9.805   6.893  69.040  1.00  0.00    -0.150 NA 
HETATM   26  C   UNL     1      -7.590   5.846  70.831  1.00  0.00    -0.096 C  
HETATM   27  C   UNL     1     -11.063   6.376  69.572  1.00  0.00    -0.396 C  
HETATM   28  N   UNL     1      -9.084   7.684  69.954  1.00  0.00    -0.147 N  
HETATM   29  C   UNL     1     -10.758   5.530  70.815  1.00  0.00    -0.294 C  
HETATM   30  C   UNL     1      -8.649   6.907  71.160  1.00  0.00    -0.131 C  
HETATM   31  C   UNL     1      -9.889   6.285  71.827  1.00  0.00    -0.182 C  
ENDBRANCH  15  17
ENDBRANCH   6  15
ENDBRANCH   4   6
ENDBRANCH   3   4
ENDBRANCH   2   3
TORSDOF 8
ENDMDL
MODEL      196
REMARK 921   NORMALIZED FREE ENERGY PREDICTED BY IDOCK:   -4.11 KCAL/MOL
REMARK 922        TOTAL FREE ENERGY PREDICTED BY IDOCK:   -7.25 KCAL/MOL
REMARK 923 INTER-LIGAND FREE ENERGY PREDICTED BY IDOCK:   -7.35 KCAL/MOL
REMARK 924 INTRA-LIGAND FREE ENERGY PREDICTED BY IDOCK:    0.10 KCAL/MOL
REMARK 927      BINDING AFFINITY PREDICTED BY RF-SCORE:    0.00 PKD
ROOT
HETATM    1  C   UNL     1      -8.759   9.487  63.972  1.00  0.00    -0.239 C  
HETATM    2  C   UNL     1      -8.354   8.454  65.006  1.00  0.00    -0.158 C  
ENDROOT
BRANCH   2   3
HETATM    3  O   UNL     1      -8.496   8.998  66.324  1.00  0.00    -0.119 OA 
BRANCH   3   4
HETATM    4  C   UNL     1      -7.357   9.500  66.881  1.00  0.00    -0.087 C  
HETATM    5  O   UNL     1      -6.221   9.082  66.670  1.00  0.00    -0.059 OA 
BRANCH   4   6
HETATM    6  C   UNL     1      -7.691  10.693  67.793  1.00  0.00    -0.100 C  
BRANCH   6   7
HETATM    7  C   UNL     1      -9.099  10.519  68.372  1.00  0.00    -0.148 C  
BRANCH   7   8
HETATM    8  C   UNL     1      -9.096   9.834  69.745  1.00  0.00    -0.246 C  
BRANCH   8   9
HETATM    9  C   UNL     1     -10.479   9.882  70.344  1.00  0.00    -0.347 A  
HETATM   10  C   UNL     1     -12.981  10.122  71.577  1.00  0.00    -0.547 A  
HETATM   11  C   UNL     1     -12.669  10.916  70.476  1.00  0.00    -0.363 A  
HETATM   12  C   UNL     1     -11.422  10.798  69.861  1.00  0.00    -0.398 A  
HETATM   13  C   UNL     1     -12.055   9.198  72.057  1.00  0.00    -0.431 A  
HETATM   14  C   UNL     1     -10.807   9.076  71.442  1.00  0.00    -0.400 A  
ENDBRANCH   8   9
ENDBRANCH   7   8
ENDBRANCH   6   7
BRANCH   6  15
HETATM   15  N   UNL     1      -7.527  11.922  66.994  1.00  0.00    -0.232 NA 
HETATM   16  H   UNL     1      -6.617  12.176  66.609  1.00  0.00     0.000 HD 
BRANCH  15  17
HETATM   17  C   UNL     1      -8.719  12.786  66.763  1.00  0.00    -0.121 C  
HETATM   18  O   UNL     1      -7.818  13.896  68.705  1.00  0.00    -0.136 OA 
HETATM   19  C   UNL     1      -9.887  11.875  66.402  1.00  0.00    -0.234 C  
HETATM   20  O   UNL     1     -11.194  16.022  71.481  1.00  0.00    -0.295 OA 
HETATM   21  O   UNL     1     -11.850  14.150  70.407  1.00  0.00    -0.297 OA 
HETATM   22  C   UNL     1     -11.128  12.608  65.931  1.00  0.00    -0.323 C  
HETATM   23  C   UNL     1      -8.852  13.665  68.055  1.00  0.00    -0.187 C  
HETATM   24  C   UNL     1     -11.858  13.227  67.097  1.00  0.00    -0.374 C  
HETATM   25  N   UNL     1     -11.204  14.396  67.644  1.00  0.00    -0.300 NA 
HETATM   26  C   UNL     1     -11.048  15.232  70.558  1.00  0.00    -0.306 C  
HETATM   27  C   UNL     1     -11.239  15.622  66.851  1.00  0.00    -0.106 C  
HETATM   28  N   UNL     1     -10.053  14.270  68.445  1.00  0.00    -0.237 N  
HETATM   29  C   UNL     1     -11.172  16.824  67.803  1.00  0.00    -0.026 C  
HETATM   30  C   UNL     1      -9.960  15.349  69.482  1.00  0.00    -0.264 C  
HETATM   31  C   UNL     1      -9.997  16.719  68.782  1.00  0.00    -0.269 C  
ENDBRANCH  15  17
ENDBRANCH   6  15
ENDBRANCH   4   6
ENDBRANCH   3   4
ENDBRANCH   2   3
TORSDOF 8
ENDMDL
MODEL      197
REMARK 921   NORMALIZED FREE ENERGY PREDICTED BY IDOCK:   -4.10 KCAL/MOL
REMARK 922        TOTAL FREE ENERGY PREDICTED BY IDOCK:   -7.23 KCAL/MOL
REMARK 923 INTER-LIGAND FREE ENERGY PREDICTED BY IDOCK:   -6.21 KCAL/MOL
REMARK 924 INTRA-LIGAND FREE ENERGY PREDICTED BY IDOCK:   -1.02 KCAL/MOL
REMARK 927      BINDING AFFINITY PREDICTED BY RF-SCORE:    0.00 PKD
ROOT
HETATM    1  C   UNL     1      -7.015   8.617  65.159  1.00  0.00    -0.072 C  
HETATM    2  C   UNL     1      -7.809   9.372  66.208  1.00  0.00    -0.100 C  
ENDROOT
BRANCH   2   3
HETATM    3  O   UNL     1      -9.090   8.755  66.391  1.00  0.00    -0.154 OA 
BRANCH   3   4
HETATM    4  C   UNL     1      -9.424   8.461  67.681  1.00  0.00    -0.149 C  
HETATM    5  O   UNL     1     -10.480   7.950  68.041  1.00  0.00    -0.213 OA 
BRANCH   4   6
HETATM    6  C   UNL     1      -8.269   8.834  68.627  1.00  0.00    -0.117 C  
BRANCH   6   7
HETATM    7  C   UNL     1      -7.922   7.633  69.514  1.00  0.00    -0.125 C  
BRANCH   7   8
HETATM    8  C   UNL     1      -8.126   7.921  71.007  1.00  0.00    -0.098 C  
BRANCH   8   9
HETATM    9  C   UNL     1      -9.240   7.059  71.547  1.00  0.00    -0.153 A  
HETATM   10  C   UNL     1     -11.171   5.376  72.677  1.00  0.00    -0.333 A  
HETATM   11  C   UNL     1     -10.906   6.618  73.252  1.00  0.00    -0.290 A  
HETATM   12  C   UNL     1      -9.944   7.457  72.690  1.00  0.00    -0.241 A  
HETATM   13  C   UNL     1     -10.484   4.977  71.532  1.00  0.00    -0.225 A  
HETATM   14  C   UNL     1      -9.522   5.816  70.966  1.00  0.00    -0.195 A  
ENDBRANCH   8   9
ENDBRANCH   7   8
ENDBRANCH   6   7
BRANCH   6  15
HETATM   15  N   UNL     1      -8.684  10.029  69.384  1.00  0.00    -0.174 NA 
HETATM   16  H   UNL     1      -8.239  10.265  70.272  1.00  0.00     0.000 HD 
BRANCH  15  17
HETATM   17  C   UNL     1      -9.769  10.886  68.826  1.00  0.00    -0.189 C  
HETATM   18  O   UNL     1      -7.864  12.195  68.141  1.00  0.00    -0.129 OA 
HETATM   19  C   UNL     1     -10.889  10.944  69.858  1.00  0.00    -0.205 C  
HETATM   20  O   UNL     1      -8.771  16.962  67.860  1.00  0.00    -0.206 OA 
HETATM   21  O   UNL     1      -9.927  15.839  69.439  1.00  0.00    -0.239 OA 
HETATM   22  C   UNL     1     -12.161  11.603  69.362  1.00  0.00    -0.246 C  
HETATM   23  C   UNL     1      -9.072  12.233  68.428  1.00  0.00    -0.146 C  
HETATM   24  C   UNL     1     -12.003  13.104  69.321  1.00  0.00    -0.292 C  
HETATM   25  N   UNL     1     -11.169  13.575  68.237  1.00  0.00    -0.260 NA 
HETATM   26  C   UNL     1      -9.226  15.906  68.281  1.00  0.00    -0.189 C  
HETATM   27  C   UNL     1     -11.715  13.501  66.884  1.00  0.00    -0.384 C  
HETATM   28  N   UNL     1      -9.769  13.440  68.293  1.00  0.00    -0.226 N  
HETATM   29  C   UNL     1     -11.082  14.615  66.039  1.00  0.00    -0.332 C  
HETATM   30  C   UNL     1      -9.061  14.551  67.579  1.00  0.00    -0.193 C  
HETATM   31  C   UNL     1      -9.551  14.601  66.121  1.00  0.00    -0.336 C  
ENDBRANCH  15  17
ENDBRANCH   6  15
ENDBRANCH   4   6
ENDBRANCH   3   4
ENDBRANCH   2   3
TORSDOF 8
ENDMDL
MODEL      198
REMARK 921   NORMALIZED FREE ENERGY PREDICTED BY IDOCK:   -4.09 KCAL/MOL
REMARK 922        TOTAL FREE ENERGY PREDICTED BY IDOCK:   -7.22 KCAL/MOL
REMARK 923 INTER-LIGAND FREE ENERGY PREDICTED BY IDOCK:   -5.69 KCAL/MOL
REMARK 924 INTRA-LIGAND FREE ENERGY PREDICTED BY IDOCK:   -1.53 KCAL/MOL
REMARK 927      BINDING AFFINITY PREDICTED BY RF-SCORE:    0.00 PKD
ROOT
HETATM    1  C   UNL     1      -8.197   6.246  66.739  1.00  0.00    -0.110 C  
HETATM    2  C   UNL     1      -8.403   7.542  67.499  1.00  0.00    -0.117 C  
ENDROOT
BRANCH   2   3
HETATM    3  O   UNL     1      -7.544   7.581  68.646  1.00  0.00    -0.104 OA 
BRANCH   3   4
HETATM    4  C   UNL     1      -6.995   8.797  68.930  1.00  0.00    -0.062 C  
HETATM    5  O   UNL     1      -6.412   9.086  69.971  1.00  0.00    -0.040 OA 
BRANCH   4   6
HETATM    6  C   UNL     1      -7.184   9.756  67.741  1.00  0.00    -0.088 C  
BRANCH   6   7
HETATM    7  C   UNL     1      -5.841   9.968  67.033  1.00  0.00    -0.051 C  
BRANCH   7   8
HETATM    8  C   UNL     1      -5.983  10.729  65.709  1.00  0.00    -0.126 C  
BRANCH   8   9
HETATM    9  C   UNL     1      -6.395   9.778  64.613  1.00  0.00    -0.106 A  
HETATM   10  C   UNL     1      -7.264   7.907  62.721  1.00  0.00    -0.090 A  
HETATM   11  C   UNL     1      -8.048   9.022  63.008  1.00  0.00    -0.167 A  
HETATM   12  C   UNL     1      -7.616   9.955  63.951  1.00  0.00    -0.141 A  
HETATM   13  C   UNL     1      -6.041   7.728  63.365  1.00  0.00    -0.059 A  
HETATM   14  C   UNL     1      -5.605   8.661  64.307  1.00  0.00    -0.064 A  
ENDBRANCH   8   9
ENDBRANCH   7   8
ENDBRANCH   6   7
BRANCH   6  15
HETATM   15  N   UNL     1      -7.780  11.000  68.265  1.00  0.00    -0.107 NA 
HETATM   16  H   UNL     1      -7.260  11.596  68.910  1.00  0.00     0.000 HD 
BRANCH  15  17
HETATM   17  C   UNL     1      -9.158  11.367  67.832  1.00  0.00    -0.164 C  
HETATM   18  O   UNL     1      -7.986  13.332  67.071  1.00  0.00    -0.106 OA 
HETATM   19  C   UNL     1     -10.115  10.963  68.947  1.00  0.00    -0.211 C  
HETATM   20  O   UNL     1     -10.709  17.358  67.089  1.00  0.00    -0.295 OA 
HETATM   21  O   UNL     1     -11.189  15.847  68.694  1.00  0.00    -0.318 OA 
HETATM   22  C   UNL     1     -11.583  11.075  68.580  1.00  0.00    -0.385 C  
HETATM   23  C   UNL     1      -9.082  12.886  67.449  1.00  0.00    -0.197 C  
HETATM   24  C   UNL     1     -12.029  12.516  68.600  1.00  0.00    -0.224 C  
HETATM   25  N   UNL     1     -11.546  13.295  67.480  1.00  0.00    -0.325 NA 
HETATM   26  C   UNL     1     -10.675  16.202  67.491  1.00  0.00    -0.304 C  
HETATM   27  C   UNL     1     -12.135  13.032  66.171  1.00  0.00    -0.409 C  
HETATM   28  N   UNL     1     -10.205  13.721  67.424  1.00  0.00    -0.250 N  
HETATM   29  C   UNL     1     -12.067  14.317  65.335  1.00  0.00    -0.396 C  
HETATM   30  C   UNL     1     -10.055  15.033  66.715  1.00  0.00    -0.254 C  
HETATM   31  C   UNL     1     -10.652  14.907  65.302  1.00  0.00    -0.421 C  
ENDBRANCH  15  17
ENDBRANCH   6  15
ENDBRANCH   4   6
ENDBRANCH   3   4
ENDBRANCH   2   3
TORSDOF 8
ENDMDL
MODEL      199
REMARK 921   NORMALIZED FREE ENERGY PREDICTED BY IDOCK:   -4.05 KCAL/MOL
REMARK 922        TOTAL FREE ENERGY PREDICTED BY IDOCK:   -7.15 KCAL/MOL
REMARK 923 INTER-LIGAND FREE ENERGY PREDICTED BY IDOCK:   -6.92 KCAL/MOL
REMARK 924 INTRA-LIGAND FREE ENERGY PREDICTED BY IDOCK:   -0.23 KCAL/MOL
REMARK 927      BINDING AFFINITY PREDICTED BY RF-SCORE:    0.00 PKD
ROOT
HETATM    1  C   UNL     1      -5.227  18.104  70.924  1.00  0.00    -0.275 C  
HETATM    2  C   UNL     1      -6.163  17.988  69.737  1.00  0.00    -0.164 C  
ENDROOT
BRANCH   2   3
HETATM    3  O   UNL     1      -6.616  16.635  69.600  1.00  0.00    -0.221 OA 
BRANCH   3   4
HETATM    4  C   UNL     1      -6.274  16.013  68.436  1.00  0.00    -0.106 C  
HETATM    5  O   UNL     1      -5.125  15.813  68.050  1.00  0.00    -0.107 OA 
BRANCH   4   6
HETATM    6  C   UNL     1      -7.537  15.567  67.679  1.00  0.00    -0.161 C  
BRANCH   6   7
HETATM    7  C   UNL     1      -7.687  16.391  66.396  1.00  0.00    -0.249 C  
BRANCH   7   8
HETATM    8  C   UNL     1      -7.347  17.873  66.600  1.00  0.00    -0.260 C  
BRANCH   8   9
HETATM    9  C   UNL     1      -8.607  18.652  66.886  1.00  0.00    -0.284 A  
HETATM   10  C   UNL     1     -11.030  19.922  67.479  1.00  0.00    -0.206 A  
HETATM   11  C   UNL     1     -10.070  19.757  68.474  1.00  0.00    -0.555 A  
HETATM   12  C   UNL     1      -8.861  19.124  68.180  1.00  0.00    -0.360 A  
HETATM   13  C   UNL     1     -10.781  19.468  66.185  1.00  0.00    -0.528 A  
HETATM   14  C   UNL     1      -9.572  18.836  65.888  1.00  0.00     0.066 A  
ENDBRANCH   8   9
ENDBRANCH   7   8
ENDBRANCH   6   7
BRANCH   6  15
HETATM   15  N   UNL     1      -8.678  15.700  68.605  1.00  0.00    -0.181 NA 
HETATM   16  H   UNL     1      -8.713  16.460  69.284  1.00  0.00     0.000 HD 
BRANCH  15  17
HETATM   17  C   UNL     1      -9.780  14.699  68.526  1.00  0.00    -0.225 C  
HETATM   18  O   UNL     1      -7.914  13.190  68.764  1.00  0.00    -0.074 OA 
HETATM   19  C   UNL     1     -10.749  15.162  67.444  1.00  0.00    -0.286 C  
HETATM   20  O   UNL     1      -8.591   8.891  66.601  1.00  0.00    -0.119 OA 
HETATM   21  O   UNL     1      -9.587  10.653  65.605  1.00  0.00    -0.194 OA 
HETATM   22  C   UNL     1     -12.038  14.366  67.378  1.00  0.00    -0.348 C  
HETATM   23  C   UNL     1      -9.070  13.315  68.326  1.00  0.00    -0.184 C  
HETATM   24  C   UNL     1     -11.806  13.028  66.720  1.00  0.00    -0.388 C  
HETATM   25  N   UNL     1     -11.098  12.080  67.553  1.00  0.00    -0.258 NA 
HETATM   26  C   UNL     1      -9.043  10.026  66.676  1.00  0.00    -0.147 C  
HETATM   27  C   UNL     1     -11.821  11.504  68.683  1.00  0.00    -0.318 C  
HETATM   28  N   UNL     1      -9.712  12.203  67.768  1.00  0.00    -0.192 N  
HETATM   29  C   UNL     1     -11.246  10.111  68.973  1.00  0.00    -0.223 C  
HETATM   30  C   UNL     1      -9.046  10.874  67.955  1.00  0.00    -0.152 C  
HETATM   31  C   UNL     1      -9.721  10.137  69.125  1.00  0.00    -0.225 C  
ENDBRANCH  15  17
ENDBRANCH   6  15
ENDBRANCH   4   6
ENDBRANCH   3   4
ENDBRANCH   2   3
TORSDOF 8
ENDMDL
MODEL      200
REMARK 921   NORMALIZED FREE ENERGY PREDICTED BY IDOCK:   -4.05 KCAL/MOL
REMARK 922        TOTAL FREE ENERGY PREDICTED BY IDOCK:   -7.15 KCAL/MOL
REMARK 923 INTER-LIGAND FREE ENERGY PREDICTED BY IDOCK:   -6.36 KCAL/MOL
REMARK 924 INTRA-LIGAND FREE ENERGY PREDICTED BY IDOCK:   -0.79 KCAL/MOL
REMARK 927      BINDING AFFINITY PREDICTED BY RF-SCORE:    0.00 PKD
ROOT
HETATM    1  C   UNL     1     -11.676  10.163  71.100  1.00  0.00    -0.453 C  
HETATM    2  C   UNL     1     -12.779  10.882  70.348  1.00  0.00    -0.248 C  
ENDROOT
BRANCH   2   3
HETATM    3  O   UNL     1     -12.371  11.128  68.995  1.00  0.00    -0.479 OA 
BRANCH   3   4
HETATM    4  C   UNL     1     -11.738  12.316  68.777  1.00  0.00    -0.340 C  
HETATM    5  O   UNL     1     -12.035  13.385  69.303  1.00  0.00    -0.314 OA 
BRANCH   4   6
HETATM    6  C   UNL     1     -10.571  12.124  67.793  1.00  0.00    -0.204 C  
BRANCH   6   7
HETATM    7  C   UNL     1      -9.331  11.642  68.554  1.00  0.00    -0.169 C  
BRANCH   7   8
HETATM    8  C   UNL     1      -9.253  10.113  68.655  1.00  0.00    -0.157 C  
BRANCH   8   9
HETATM    9  C   UNL     1      -8.454   9.564  67.500  1.00  0.00    -0.126 A  
HETATM   10  C   UNL     1      -7.131   8.585  65.235  1.00  0.00    -0.082 A  
HETATM   11  C   UNL     1      -7.069   9.942  65.545  1.00  0.00    -0.118 A  
HETATM   12  C   UNL     1      -7.728  10.431  66.674  1.00  0.00    -0.117 A  
HETATM   13  C   UNL     1      -7.840   7.712  66.058  1.00  0.00    -0.101 A  
HETATM   14  C   UNL     1      -8.499   8.198  67.189  1.00  0.00    -0.124 A  
ENDBRANCH   8   9
ENDBRANCH   7   8
ENDBRANCH   6   7
BRANCH   6  15
HETATM   15  N   UNL     1     -10.372  13.403  67.085  1.00  0.00    -0.245 NA 
HETATM   16  H   UNL     1     -10.882  13.609  66.226  1.00  0.00     0.000 HD 
BRANCH  15  17
HETATM   17  C   UNL     1      -9.407  14.388  67.653  1.00  0.00    -0.200 C  
HETATM   18  O   UNL     1     -11.249  15.878  67.200  1.00  0.00    -0.213 OA 
HETATM   19  C   UNL     1      -8.030  14.064  67.087  1.00  0.00    -0.083 C  
HETATM   20  O   UNL     1      -9.875  20.425  66.171  1.00  0.00    -0.359 OA 
HETATM   21  O   UNL     1      -8.446  18.803  65.524  1.00  0.00    -0.145 OA 
HETATM   22  C   UNL     1      -6.895  14.842  67.725  1.00  0.00    -0.195 C  
HETATM   23  C   UNL     1     -10.016  15.797  67.330  1.00  0.00    -0.237 C  
HETATM   24  C   UNL     1      -6.867  16.261  67.214  1.00  0.00    -0.195 C  
HETATM   25  N   UNL     1      -7.923  17.096  67.744  1.00  0.00    -0.182 NA 
HETATM   26  C   UNL     1      -9.451  19.283  66.297  1.00  0.00    -0.345 C  
HETATM   27  C   UNL     1      -7.827  17.499  69.144  1.00  0.00    -0.013 C  
HETATM   28  N   UNL     1      -9.246  16.966  67.280  1.00  0.00    -0.224 N  
HETATM   29  C   UNL     1      -8.540  18.846  69.317  1.00  0.00     0.082 C  
HETATM   30  C   UNL     1      -9.990  18.266  67.311  1.00  0.00    -0.335 C  
HETATM   31  C   UNL     1      -9.962  18.823  68.746  1.00  0.00    -0.442 C  
ENDBRANCH  15  17
ENDBRANCH   6  15
ENDBRANCH   4   6
ENDBRANCH   3   4
ENDBRANCH   2   3
TORSDOF 8
ENDMDL
MODEL      201
REMARK 921   NORMALIZED FREE ENERGY PREDICTED BY IDOCK:   -3.99 KCAL/MOL
REMARK 922        TOTAL FREE ENERGY PREDICTED BY IDOCK:   -7.07 KCAL/MOL
REMARK 923 INTER-LIGAND FREE ENERGY PREDICTED BY IDOCK:   -6.38 KCAL/MOL
REMARK 924 INTRA-LIGAND FREE ENERGY PREDICTED BY IDOCK:   -0.69 KCAL/MOL
REMARK 927      BINDING AFFINITY PREDICTED BY RF-SCORE:    0.00 PKD
ROOT
HETATM    1  C   UNL     1     -10.564   5.512  73.736  1.00  0.00    -0.316 C  
HETATM    2  C   UNL     1     -11.177   6.718  73.049  1.00  0.00    -0.157 C  
ENDROOT
BRANCH   2   3
HETATM    3  O   UNL     1     -10.358   7.121  71.943  1.00  0.00    -0.192 OA 
BRANCH   3   4
HETATM    4  C   UNL     1     -11.022   7.365  70.777  1.00  0.00    -0.255 C  
HETATM    5  O   UNL     1     -12.220   7.174  70.590  1.00  0.00    -0.291 OA 
BRANCH   4   6
HETATM    6  C   UNL     1     -10.058   7.948  69.729  1.00  0.00    -0.199 C  
BRANCH   6   7
HETATM    7  C   UNL     1      -9.119   6.848  69.224  1.00  0.00    -0.140 C  
BRANCH   7   8
HETATM    8  C   UNL     1      -9.872   5.675  68.581  1.00  0.00    -0.190 C  
BRANCH   8   9
HETATM    9  C   UNL     1      -9.385   5.468  67.168  1.00  0.00    -0.115 A  
HETATM   10  C   UNL     1      -8.350   4.944  64.620  1.00  0.00    -0.134 A  
HETATM   11  C   UNL     1      -9.400   4.174  65.118  1.00  0.00    -0.164 A  
HETATM   12  C   UNL     1      -9.916   4.434  66.387  1.00  0.00    -0.252 A  
HETATM   13  C   UNL     1      -7.823   5.983  65.385  1.00  0.00    -0.104 A  
HETATM   14  C   UNL     1      -8.339   6.247  66.655  1.00  0.00    -0.112 A  
ENDBRANCH   8   9
ENDBRANCH   7   8
ENDBRANCH   6   7
BRANCH   6  15
HETATM   15  N   UNL     1      -9.356   9.085  70.355  1.00  0.00    -0.191 NA 
HETATM   16  H   UNL     1      -9.206   9.113  71.364  1.00  0.00     0.000 HD 
BRANCH  15  17
HETATM   17  C   UNL     1      -8.870  10.191  69.482  1.00  0.00    -0.182 C  
HETATM   18  O   UNL     1     -11.238  10.631  69.368  1.00  0.00    -0.231 OA 
HETATM   19  C   UNL     1      -7.765   9.628  68.596  1.00  0.00    -0.080 C  
HETATM   20  O   UNL     1     -12.646  12.669  65.186  1.00  0.00    -0.594 OA 
HETATM   21  O   UNL     1     -10.895  11.254  65.042  1.00  0.00    -0.282 OA 
HETATM   22  C   UNL     1      -7.016  10.673  67.792  1.00  0.00    -0.078 C  
HETATM   23  C   UNL     1     -10.152  10.758  68.778  1.00  0.00    -0.191 C  
HETATM   24  C   UNL     1      -7.843  11.136  66.617  1.00  0.00    -0.155 C  
HETATM   25  N   UNL     1      -8.945  12.000  66.979  1.00  0.00    -0.191 NA 
HETATM   26  C   UNL     1     -11.706  12.098  65.724  1.00  0.00    -0.327 C  
HETATM   27  C   UNL     1      -8.624  13.359  67.408  1.00  0.00    -0.204 C  
HETATM   28  N   UNL     1     -10.106  11.476  67.577  1.00  0.00    -0.182 N  
HETATM   29  C   UNL     1      -9.806  14.274  67.063  1.00  0.00    -0.254 C  
HETATM   30  C   UNL     1     -11.336  12.249  67.206  1.00  0.00    -0.328 C  
HETATM   31  C   UNL     1     -11.134  13.724  67.595  1.00  0.00    -0.292 C  
ENDBRANCH  15  17
ENDBRANCH   6  15
ENDBRANCH   4   6
ENDBRANCH   3   4
ENDBRANCH   2   3
TORSDOF 8
ENDMDL
MODEL      202
REMARK 921   NORMALIZED FREE ENERGY PREDICTED BY IDOCK:   -3.98 KCAL/MOL
REMARK 922        TOTAL FREE ENERGY PREDICTED BY IDOCK:   -7.06 KCAL/MOL
REMARK 923 INTER-LIGAND FREE ENERGY PREDICTED BY IDOCK:   -6.05 KCAL/MOL
REMARK 924 INTRA-LIGAND FREE ENERGY PREDICTED BY IDOCK:   -1.01 KCAL/MOL
REMARK 927      BINDING AFFINITY PREDICTED BY RF-SCORE:    0.00 PKD
ROOT
HETATM    1  C   UNL     1      -9.399   2.384  68.576  1.00  0.00    -0.252 C  
HETATM    2  C   UNL     1      -9.360   3.697  69.335  1.00  0.00    -0.176 C  
ENDROOT
BRANCH   2   3
HETATM    3  O   UNL     1     -10.051   4.712  68.595  1.00  0.00    -0.112 OA 
BRANCH   3   4
HETATM    4  C   UNL     1     -10.537   5.750  69.334  1.00  0.00    -0.313 C  
HETATM    5  O   UNL     1     -11.530   6.416  69.053  1.00  0.00    -0.337 OA 
BRANCH   4   6
HETATM    6  C   UNL     1      -9.679   5.955  70.594  1.00  0.00    -0.176 C  
BRANCH   6   7
HETATM    7  C   UNL     1     -10.586   6.043  71.826  1.00  0.00    -0.277 C  
BRANCH   7   8
HETATM    8  C   UNL     1     -10.593   7.441  72.458  1.00  0.00    -0.304 C  
BRANCH   8   9
HETATM    9  C   UNL     1     -11.921   8.111  72.206  1.00  0.00    -0.434 A  
HETATM   10  C   UNL     1     -14.359   9.314  71.538  1.00  0.00    -0.039 A  
HETATM   11  C   UNL     1     -14.302   7.942  71.776  1.00  0.00    -0.589 A  
HETATM   12  C   UNL     1     -13.087   7.341  72.109  1.00  0.00    -0.065 A  
HETATM   13  C   UNL     1     -13.206  10.090  71.645  1.00  0.00    -0.518 A  
HETATM   14  C   UNL     1     -11.990   9.491  71.980  1.00  0.00    -0.283 A  
ENDBRANCH   8   9
ENDBRANCH   7   8
ENDBRANCH   6   7
BRANCH   6  15
HETATM   15  N   UNL     1      -8.854   7.159  70.379  1.00  0.00    -0.150 NA 
HETATM   16  H   UNL     1      -8.047   7.351  70.973  1.00  0.00     0.000 HD 
BRANCH  15  17
HETATM   17  C   UNL     1      -9.225   8.088  69.274  1.00  0.00    -0.152 C  
HETATM   18  O   UNL     1      -7.541   6.794  68.131  1.00  0.00    -0.102 OA 
HETATM   19  C   UNL     1      -9.389   9.479  69.876  1.00  0.00    -0.247 C  
HETATM   20  O   UNL     1      -5.163   9.282  64.700  1.00  0.00    -0.048 OA 
HETATM   21  O   UNL     1      -5.853  10.487  66.478  1.00  0.00    -0.060 OA 
HETATM   22  C   UNL     1      -9.971  10.506  68.925  1.00  0.00    -0.213 C  
HETATM   23  C   UNL     1      -8.119   7.893  68.179  1.00  0.00    -0.123 C  
HETATM   24  C   UNL     1      -8.930  10.964  67.932  1.00  0.00    -0.141 C  
HETATM   25  N   UNL     1      -8.624   9.985  66.912  1.00  0.00    -0.125 NA 
HETATM   26  C   UNL     1      -5.922   9.416  65.651  1.00  0.00    -0.059 C  
HETATM   27  C   UNL     1      -9.633   9.743  65.884  1.00  0.00    -0.250 C  
HETATM   28  N   UNL     1      -7.832   8.859  67.207  1.00  0.00    -0.096 N  
HETATM   29  C   UNL     1      -8.925   9.292  64.599  1.00  0.00    -0.202 C  
HETATM   30  C   UNL     1      -7.018   8.411  66.030  1.00  0.00    -0.065 C  
HETATM   31  C   UNL     1      -7.963   8.125  64.850  1.00  0.00    -0.145 C  
ENDBRANCH  15  17
ENDBRANCH   6  15
ENDBRANCH   4   6
ENDBRANCH   3   4
ENDBRANCH   2   3
TORSDOF 8
ENDMDL
MODEL      203
REMARK 921   NORMALIZED FREE ENERGY PREDICTED BY IDOCK:   -3.98 KCAL/MOL
REMARK 922        TOTAL FREE ENERGY PREDICTED BY IDOCK:   -7.06 KCAL/MOL
REMARK 923 INTER-LIGAND FREE ENERGY PREDICTED BY IDOCK:   -5.48 KCAL/MOL
REMARK 924 INTRA-LIGAND FREE ENERGY PREDICTED BY IDOCK:   -1.58 KCAL/MOL
REMARK 927      BINDING AFFINITY PREDICTED BY RF-SCORE:    0.00 PKD
ROOT
HETATM    1  C   UNL     1     -12.335  10.891  70.567  1.00  0.00    -0.463 C  
HETATM    2  C   UNL     1     -12.959   9.594  71.044  1.00  0.00    -0.251 C  
ENDROOT
BRANCH   2   3
HETATM    3  O   UNL     1     -11.943   8.717  71.549  1.00  0.00    -0.290 OA 
BRANCH   3   4
HETATM    4  C   UNL     1     -12.127   7.391  71.290  1.00  0.00    -0.328 C  
HETATM    5  O   UNL     1     -12.951   6.668  71.844  1.00  0.00    -0.306 OA 
BRANCH   4   6
HETATM    6  C   UNL     1     -11.171   6.928  70.177  1.00  0.00    -0.313 C  
BRANCH   6   7
HETATM    7  C   UNL     1     -10.771   5.468  70.416  1.00  0.00    -0.321 C  
BRANCH   7   8
HETATM    8  C   UNL     1      -9.585   5.329  71.381  1.00  0.00    -0.209 C  
BRANCH   8   9
HETATM    9  C   UNL     1      -8.321   5.064  70.602  1.00  0.00    -0.106 A  
HETATM   10  C   UNL     1      -5.997   4.756  69.072  1.00  0.00    -0.025 A  
HETATM   11  C   UNL     1      -5.933   5.379  70.316  1.00  0.00    -0.021 A  
HETATM   12  C   UNL     1      -7.091   5.533  71.080  1.00  0.00    -0.069 A  
HETATM   13  C   UNL     1      -7.214   4.275  68.593  1.00  0.00    -0.056 A  
HETATM   14  C   UNL     1      -8.373   4.425  69.356  1.00  0.00    -0.083 A  
ENDBRANCH   8   9
ENDBRANCH   7   8
ENDBRANCH   6   7
BRANCH   6  15
HETATM   15  N   UNL     1     -10.028   7.860  70.158  1.00  0.00    -0.189 NA 
HETATM   16  H   UNL     1      -9.643   8.232  71.027  1.00  0.00     0.000 HD 
BRANCH  15  17
HETATM   17  C   UNL     1      -9.446   8.247  68.841  1.00  0.00    -0.151 C  
HETATM   18  O   UNL     1      -8.732  10.147  70.144  1.00  0.00    -0.100 OA 
HETATM   19  C   UNL     1     -10.475   7.915  67.767  1.00  0.00    -0.278 C  
HETATM   20  O   UNL     1      -8.329  14.244  67.561  1.00  0.00    -0.162 OA 
HETATM   21  O   UNL     1      -9.934  12.813  66.878  1.00  0.00    -0.224 OA 
HETATM   22  C   UNL     1      -9.960   8.053  66.347  1.00  0.00    -0.215 C  
HETATM   23  C   UNL     1      -9.016   9.747  69.002  1.00  0.00    -0.154 C  
HETATM   24  C   UNL     1      -9.881   9.505  65.946  1.00  0.00    -0.290 C  
HETATM   25  N   UNL     1      -8.787  10.224  66.562  1.00  0.00    -0.136 NA 
HETATM   26  C   UNL     1      -8.776  13.105  67.518  1.00  0.00    -0.201 C  
HETATM   27  C   UNL     1      -7.436   9.925  66.096  1.00  0.00    -0.104 C  
HETATM   28  N   UNL     1      -8.849  10.611  67.914  1.00  0.00    -0.130 N  
HETATM   29  C   UNL     1      -6.564  11.173  66.286  1.00  0.00    -0.069 C  
HETATM   30  C   UNL     1      -8.109  11.889  68.174  1.00  0.00    -0.155 C  
HETATM   31  C   UNL     1      -6.649  11.723  67.715  1.00  0.00    -0.075 C  
ENDBRANCH  15  17
ENDBRANCH   6  15
ENDBRANCH   4   6
ENDBRANCH   3   4
ENDBRANCH   2   3
TORSDOF 8
ENDMDL
MODEL      204
REMARK 921   NORMALIZED FREE ENERGY PREDICTED BY IDOCK:   -3.97 KCAL/MOL
REMARK 922        TOTAL FREE ENERGY PREDICTED BY IDOCK:   -7.04 KCAL/MOL
REMARK 923 INTER-LIGAND FREE ENERGY PREDICTED BY IDOCK:   -5.86 KCAL/MOL
REMARK 924 INTRA-LIGAND FREE ENERGY PREDICTED BY IDOCK:   -1.18 KCAL/MOL
REMARK 927      BINDING AFFINITY PREDICTED BY RF-SCORE:    0.00 PKD
ROOT
HETATM    1  C   UNL     1     -10.993   6.736  67.436  1.00  0.00    -0.407 C  
HETATM    2  C   UNL     1     -10.566   8.109  66.953  1.00  0.00    -0.241 C  
ENDROOT
BRANCH   2   3
HETATM    3  O   UNL     1     -10.578   9.039  68.044  1.00  0.00    -0.229 OA 
BRANCH   3   4
HETATM    4  C   UNL     1      -9.367   9.567  68.382  1.00  0.00    -0.133 C  
HETATM    5  O   UNL     1      -9.086  10.057  69.472  1.00  0.00    -0.199 OA 
BRANCH   4   6
HETATM    6  C   UNL     1      -8.382   9.434  67.207  1.00  0.00    -0.125 C  
BRANCH   6   7
HETATM    7  C   UNL     1      -7.044   8.889  67.716  1.00  0.00    -0.079 C  
BRANCH   7   8
HETATM    8  C   UNL     1      -6.239   8.176  66.621  1.00  0.00    -0.054 C  
BRANCH   8   9
HETATM    9  C   UNL     1      -7.031   7.013  66.079  1.00  0.00    -0.065 A  
HETATM   10  C   UNL     1      -8.323   4.759  65.037  1.00  0.00    -0.132 A  
HETATM   11  C   UNL     1      -7.987   4.806  66.388  1.00  0.00    -0.103 A  
HETATM   12  C   UNL     1      -7.343   5.929  66.908  1.00  0.00    -0.079 A  
HETATM   13  C   UNL     1      -8.029   5.838  64.206  1.00  0.00    -0.125 A  
HETATM   14  C   UNL     1      -7.386   6.964  64.724  1.00  0.00    -0.088 A  
ENDBRANCH   8   9
ENDBRANCH   7   8
ENDBRANCH   6   7
BRANCH   6  15
HETATM   15  N   UNL     1      -8.277  10.758  66.565  1.00  0.00    -0.142 NA 
HETATM   16  H   UNL     1      -8.131  10.839  65.558  1.00  0.00     0.000 HD 
BRANCH  15  17
HETATM   17  C   UNL     1      -8.388  11.975  67.418  1.00  0.00    -0.171 C  
HETATM   18  O   UNL     1     -10.197  12.419  65.887  1.00  0.00    -0.241 OA 
HETATM   19  C   UNL     1      -6.975  12.473  67.699  1.00  0.00    -0.139 C  
HETATM   20  O   UNL     1     -11.010  17.154  65.149  1.00  0.00    -0.543 OA 
HETATM   21  O   UNL     1      -8.865  16.583  65.554  1.00  0.00    -0.325 OA 
HETATM   22  C   UNL     1      -6.898  13.584  68.728  1.00  0.00    -0.108 C  
HETATM   23  C   UNL     1      -9.361  12.934  66.649  1.00  0.00    -0.240 C  
HETATM   24  C   UNL     1      -7.336  14.898  68.129  1.00  0.00    -0.117 C  
HETATM   25  N   UNL     1      -8.764  14.999  67.920  1.00  0.00    -0.152 NA 
HETATM   26  C   UNL     1     -10.201  16.366  65.622  1.00  0.00    -0.324 C  
HETATM   27  C   UNL     1      -9.610  15.149  69.100  1.00  0.00    -0.232 C  
HETATM   28  N   UNL     1      -9.387  14.319  66.856  1.00  0.00    -0.246 N  
HETATM   29  C   UNL     1     -10.875  15.920  68.702  1.00  0.00    -0.291 C  
HETATM   30  C   UNL     1     -10.580  15.058  66.329  1.00  0.00    -0.307 C  
HETATM   31  C   UNL     1     -11.568  15.299  67.483  1.00  0.00    -0.223 C  
ENDBRANCH  15  17
ENDBRANCH   6  15
ENDBRANCH   4   6
ENDBRANCH   3   4
ENDBRANCH   2   3
TORSDOF 8
ENDMDL
MODEL      205
REMARK 921   NORMALIZED FREE ENERGY PREDICTED BY IDOCK:   -3.97 KCAL/MOL
REMARK 922        TOTAL FREE ENERGY PREDICTED BY IDOCK:   -7.04 KCAL/MOL
REMARK 923 INTER-LIGAND FREE ENERGY PREDICTED BY IDOCK:   -6.99 KCAL/MOL
REMARK 924 INTRA-LIGAND FREE ENERGY PREDICTED BY IDOCK:   -0.05 KCAL/MOL
REMARK 927      BINDING AFFINITY PREDICTED BY RF-SCORE:    0.00 PKD
ROOT
HETATM    1  C   UNL     1     -12.100  11.921  63.777  1.00  0.00    -0.547 C  
HETATM    2  C   UNL     1     -11.830  13.365  64.153  1.00  0.00    -0.442 C  
ENDROOT
BRANCH   2   3
HETATM    3  O   UNL     1     -10.523  13.485  64.729  1.00  0.00    -0.379 OA 
BRANCH   3   4
HETATM    4  C   UNL     1     -10.016  12.347  65.282  1.00  0.00    -0.215 C  
HETATM    5  O   UNL     1      -9.500  11.424  64.658  1.00  0.00    -0.218 OA 
BRANCH   4   6
HETATM    6  C   UNL     1     -10.154  12.393  66.814  1.00  0.00    -0.214 C  
BRANCH   6   7
HETATM    7  C   UNL     1     -11.266  11.437  67.260  1.00  0.00    -0.370 C  
BRANCH   7   8
HETATM    8  C   UNL     1     -10.739  10.266  68.100  1.00  0.00    -0.287 C  
BRANCH   8   9
HETATM    9  C   UNL     1      -9.233  10.311  68.154  1.00  0.00    -0.137 A  
HETATM   10  C   UNL     1      -6.447  10.590  68.190  1.00  0.00    -0.062 A  
HETATM   11  C   UNL     1      -7.198  10.957  69.305  1.00  0.00    -0.128 A  
HETATM   12  C   UNL     1      -8.586  10.818  69.288  1.00  0.00    -0.047 A  
HETATM   13  C   UNL     1      -7.080  10.073  67.062  1.00  0.00    -0.089 A  
HETATM   14  C   UNL     1      -8.469   9.931  67.043  1.00  0.00    -0.121 A  
ENDBRANCH   8   9
ENDBRANCH   7   8
ENDBRANCH   6   7
BRANCH   6  15
HETATM   15  N   UNL     1     -10.392  13.798  67.196  1.00  0.00    -0.260 NA 
HETATM   16  H   UNL     1     -11.312  14.223  67.074  1.00  0.00     0.000 HD 
BRANCH  15  17
HETATM   17  C   UNL     1      -9.260  14.583  67.765  1.00  0.00    -0.194 C  
HETATM   18  O   UNL     1     -10.646  16.407  67.011  1.00  0.00    -0.305 OA 
HETATM   19  C   UNL     1      -7.966  13.885  67.364  1.00  0.00    -0.184 C  
HETATM   20  O   UNL     1      -8.134  20.365  65.726  1.00  0.00    -0.101 OA 
HETATM   21  O   UNL     1      -7.101  18.392  65.362  1.00  0.00    -0.531 OA 
HETATM   22  C   UNL     1      -6.725  14.437  68.038  1.00  0.00    -0.154 C  
HETATM   23  C   UNL     1      -9.482  16.053  67.265  1.00  0.00    -0.215 C  
HETATM   24  C   UNL     1      -6.315  15.747  67.410  1.00  0.00    -0.139 C  
HETATM   25  N   UNL     1      -7.171  16.859  67.762  1.00  0.00    -0.142 NA 
HETATM   26  C   UNL     1      -8.011  19.176  65.991  1.00  0.00    -0.217 C  
HETATM   27  C   UNL     1      -7.080  17.376  69.125  1.00  0.00    -0.196 C  
HETATM   28  N   UNL     1      -8.449  16.995  67.187  1.00  0.00    -0.196 N  
HETATM   29  C   UNL     1      -7.453  18.864  69.111  1.00  0.00    -0.243 C  
HETATM   30  C   UNL     1      -8.854  18.430  67.034  1.00  0.00    -0.271 C  
HETATM   31  C   UNL     1      -8.794  19.115  68.411  1.00  0.00    -0.386 C  
ENDBRANCH  15  17
ENDBRANCH   6  15
ENDBRANCH   4   6
ENDBRANCH   3   4
ENDBRANCH   2   3
TORSDOF 8
ENDMDL
MODEL      206
REMARK 921   NORMALIZED FREE ENERGY PREDICTED BY IDOCK:   -3.96 KCAL/MOL
REMARK 922        TOTAL FREE ENERGY PREDICTED BY IDOCK:   -7.03 KCAL/MOL
REMARK 923 INTER-LIGAND FREE ENERGY PREDICTED BY IDOCK:   -5.56 KCAL/MOL
REMARK 924 INTRA-LIGAND FREE ENERGY PREDICTED BY IDOCK:   -1.47 KCAL/MOL
REMARK 927      BINDING AFFINITY PREDICTED BY RF-SCORE:    0.00 PKD
ROOT
HETATM    1  C   UNL     1      -8.366   6.209  64.862  1.00  0.00    -0.092 C  
HETATM    2  C   UNL     1      -8.315   6.345  66.372  1.00  0.00    -0.119 C  
ENDROOT
BRANCH   2   3
HETATM    3  O   UNL     1      -9.640   6.508  66.895  1.00  0.00    -0.146 OA 
BRANCH   3   4
HETATM    4  C   UNL     1      -9.786   6.244  68.225  1.00  0.00    -0.120 C  
HETATM    5  O   UNL     1     -10.329   5.249  68.695  1.00  0.00    -0.174 OA 
BRANCH   4   6
HETATM    6  C   UNL     1      -9.141   7.363  69.062  1.00  0.00    -0.133 C  
BRANCH   6   7
HETATM    7  C   UNL     1      -8.869   6.852  70.481  1.00  0.00    -0.155 C  
BRANCH   7   8
HETATM    8  C   UNL     1      -9.183   7.899  71.558  1.00  0.00    -0.171 C  
BRANCH   8   9
HETATM    9  C   UNL     1      -7.933   8.219  72.340  1.00  0.00    -0.194 A  
HETATM   10  C   UNL     1      -5.688   9.003  73.817  1.00  0.00    -0.090 A  
HETATM   11  C   UNL     1      -6.818   8.520  74.473  1.00  0.00    -0.205 A  
HETATM   12  C   UNL     1      -7.937   8.129  73.738  1.00  0.00    -0.266 A  
HETATM   13  C   UNL     1      -5.669   9.085  72.425  1.00  0.00    -0.071 A  
HETATM   14  C   UNL     1      -6.787   8.692  71.688  1.00  0.00    -0.088 A  
ENDBRANCH   8   9
ENDBRANCH   7   8
ENDBRANCH   6   7
BRANCH   6  15
HETATM   15  N   UNL     1     -10.045   8.528  69.016  1.00  0.00    -0.195 NA 
HETATM   16  H   UNL     1     -11.034   8.431  69.249  1.00  0.00     0.000 HD 
BRANCH  15  17
HETATM   17  C   UNL     1      -9.482   9.851  68.622  1.00  0.00    -0.153 C  
HETATM   18  O   UNL     1     -11.620  10.005  67.516  1.00  0.00    -0.048 OA 
HETATM   19  C   UNL     1      -8.017   9.640  68.260  1.00  0.00    -0.096 C  
HETATM   20  O   UNL     1     -11.541  12.718  63.484  1.00  0.00    -0.473 OA 
HETATM   21  O   UNL     1      -9.637  11.601  63.947  1.00  0.00    -0.224 OA 
HETATM   22  C   UNL     1      -7.238  10.922  68.037  1.00  0.00    -0.086 C  
HETATM   23  C   UNL     1     -10.440  10.394  67.504  1.00  0.00    -0.245 C  
HETATM   24  C   UNL     1      -7.574  11.524  66.694  1.00  0.00    -0.088 C  
HETATM   25  N   UNL     1      -8.881  12.142  66.639  1.00  0.00    -0.201 NA 
HETATM   26  C   UNL     1     -10.816  12.166  64.302  1.00  0.00    -0.341 C  
HETATM   27  C   UNL     1      -9.061  13.403  67.354  1.00  0.00    -0.216 C  
HETATM   28  N   UNL     1     -10.047  11.358  66.568  1.00  0.00    -0.209 N  
HETATM   29  C   UNL     1     -10.154  14.216  66.647  1.00  0.00    -0.275 C  
HETATM   30  C   UNL     1     -11.140  12.033  65.796  1.00  0.00    -0.324 C  
HETATM   31  C   UNL     1     -11.435  13.400  66.439  1.00  0.00    -0.359 C  
ENDBRANCH  15  17
ENDBRANCH   6  15
ENDBRANCH   4   6
ENDBRANCH   3   4
ENDBRANCH   2   3
TORSDOF 8
ENDMDL
MODEL      207
REMARK 921   NORMALIZED FREE ENERGY PREDICTED BY IDOCK:   -3.96 KCAL/MOL
REMARK 922        TOTAL FREE ENERGY PREDICTED BY IDOCK:   -7.03 KCAL/MOL
REMARK 923 INTER-LIGAND FREE ENERGY PREDICTED BY IDOCK:   -8.16 KCAL/MOL
REMARK 924 INTRA-LIGAND FREE ENERGY PREDICTED BY IDOCK:    1.13 KCAL/MOL
REMARK 927      BINDING AFFINITY PREDICTED BY RF-SCORE:    0.00 PKD
ROOT
HETATM    1  C   UNL     1      -6.653  12.434  67.345  1.00  0.00    -0.157 C  
HETATM    2  C   UNL     1      -7.886  12.357  68.224  1.00  0.00    -0.150 C  
ENDROOT
BRANCH   2   3
HETATM    3  O   UNL     1      -9.068  12.505  67.426  1.00  0.00    -0.171 OA 
BRANCH   3   4
HETATM    4  C   UNL     1     -10.160  11.812  67.857  1.00  0.00    -0.186 C  
HETATM    5  O   UNL     1     -10.482  10.688  67.481  1.00  0.00    -0.201 OA 
BRANCH   4   6
HETATM    6  C   UNL     1     -10.926  12.630  68.913  1.00  0.00    -0.229 C  
BRANCH   6   7
HETATM    7  C   UNL     1     -11.840  11.702  69.719  1.00  0.00    -0.428 C  
BRANCH   7   8
HETATM    8  C   UNL     1     -11.645  10.222  69.364  1.00  0.00    -0.213 C  
BRANCH   8   9
HETATM    9  C   UNL     1     -11.252   9.447  70.597  1.00  0.00    -0.345 A  
HETATM   10  C   UNL     1     -10.500   7.845  72.767  1.00  0.00    -0.412 A  
HETATM   11  C   UNL     1      -9.526   8.486  72.004  1.00  0.00    -0.364 A  
HETATM   12  C   UNL     1      -9.900   9.285  70.923  1.00  0.00    -0.363 A  
HETATM   13  C   UNL     1     -11.849   8.011  72.459  1.00  0.00    -0.419 A  
HETATM   14  C   UNL     1     -12.226   8.811  71.379  1.00  0.00    -0.359 A  
ENDBRANCH   8   9
ENDBRANCH   7   8
ENDBRANCH   6   7
BRANCH   6  15
HETATM   15  N   UNL     1     -11.648  13.704  68.204  1.00  0.00    -0.311 NA 
HETATM   16  H   UNL     1     -12.644  13.858  68.366  1.00  0.00     0.000 HD 
BRANCH  15  17
HETATM   17  C   UNL     1     -10.892  14.559  67.246  1.00  0.00    -0.297 C  
HETATM   18  O   UNL     1     -10.455  15.787  69.275  1.00  0.00    -0.214 OA 
HETATM   19  C   UNL     1     -11.734  14.694  65.983  1.00  0.00    -0.306 C  
HETATM   20  O   UNL     1      -9.831  20.555  68.575  1.00  0.00    -0.084 OA 
HETATM   21  O   UNL     1     -11.258  19.539  67.154  1.00  0.00    -0.353 OA 
HETATM   22  C   UNL     1     -11.019  15.361  64.824  1.00  0.00    -0.411 C  
HETATM   23  C   UNL     1     -10.549  15.868  68.038  1.00  0.00    -0.287 C  
HETATM   24  C   UNL     1     -10.938  16.853  65.034  1.00  0.00    -0.046 C  
HETATM   25  N   UNL     1      -9.977  17.252  66.040  1.00  0.00    -0.487 NA 
HETATM   26  C   UNL     1     -10.221  19.533  68.027  1.00  0.00    -0.437 C  
HETATM   27  C   UNL     1      -8.561  17.127  65.706  1.00  0.00     0.237 C  
HETATM   28  N   UNL     1     -10.255  17.084  67.410  1.00  0.00    -0.306 N  
HETATM   29  C   UNL     1      -7.776  18.183  66.497  1.00  0.00    -0.280 C  
HETATM   30  C   UNL     1      -9.613  18.143  68.254  1.00  0.00    -0.317 C  
HETATM   31  C   UNL     1      -8.096  18.135  67.995  1.00  0.00    -0.264 C  
ENDBRANCH  15  17
ENDBRANCH   6  15
ENDBRANCH   4   6
ENDBRANCH   3   4
ENDBRANCH   2   3
TORSDOF 8
ENDMDL
MODEL      208
REMARK 921   NORMALIZED FREE ENERGY PREDICTED BY IDOCK:   -3.96 KCAL/MOL
REMARK 922        TOTAL FREE ENERGY PREDICTED BY IDOCK:   -7.02 KCAL/MOL
REMARK 923 INTER-LIGAND FREE ENERGY PREDICTED BY IDOCK:   -6.77 KCAL/MOL
REMARK 924 INTRA-LIGAND FREE ENERGY PREDICTED BY IDOCK:   -0.25 KCAL/MOL
REMARK 927      BINDING AFFINITY PREDICTED BY RF-SCORE:    0.00 PKD
ROOT
HETATM    1  C   UNL     1     -12.471  13.877  64.245  1.00  0.00    -0.305 C  
HETATM    2  C   UNL     1     -12.248  12.847  65.336  1.00  0.00    -0.478 C  
ENDROOT
BRANCH   2   3
HETATM    3  O   UNL     1     -11.705  13.479  66.503  1.00  0.00    -0.335 OA 
BRANCH   3   4
HETATM    4  C   UNL     1     -10.349  13.626  66.517  1.00  0.00    -0.282 C  
HETATM    5  O   UNL     1      -9.621  13.587  65.529  1.00  0.00    -0.105 OA 
BRANCH   4   6
HETATM    6  C   UNL     1      -9.857  13.879  67.952  1.00  0.00    -0.228 C  
BRANCH   6   7
HETATM    7  C   UNL     1      -9.780  15.387  68.212  1.00  0.00    -0.209 C  
BRANCH   7   8
HETATM    8  C   UNL     1     -10.190  16.221  66.991  1.00  0.00    -0.280 C  
BRANCH   8   9
HETATM    9  C   UNL     1      -9.951  17.684  67.266  1.00  0.00    -0.322 A  
HETATM   10  C   UNL     1      -9.710  20.429  67.761  1.00  0.00    -0.487 A  
HETATM   11  C   UNL     1      -9.963  19.552  68.813  1.00  0.00    -0.547 A  
HETATM   12  C   UNL     1     -10.083  18.184  68.568  1.00  0.00    -0.413 A  
HETATM   13  C   UNL     1      -9.564  19.940  66.464  1.00  0.00    -0.534 A  
HETATM   14  C   UNL     1      -9.682  18.572  66.216  1.00  0.00    -0.315 A  
ENDBRANCH   8   9
ENDBRANCH   7   8
ENDBRANCH   6   7
BRANCH   6  15
HETATM   15  N   UNL     1      -8.564  13.186  68.107  1.00  0.00    -0.176 NA 
HETATM   16  H   UNL     1      -7.684  13.689  67.985  1.00  0.00     0.000 HD 
BRANCH  15  17
HETATM   17  C   UNL     1      -8.570  11.734  68.444  1.00  0.00    -0.156 C  
HETATM   18  O   UNL     1      -6.878  11.716  66.726  1.00  0.00    -0.137 OA 
HETATM   19  C   UNL     1     -10.021  11.308  68.628  1.00  0.00    -0.210 C  
HETATM   20  O   UNL     1      -6.659   7.543  64.245  1.00  0.00    -0.047 OA 
HETATM   21  O   UNL     1      -8.706   8.129  64.990  1.00  0.00    -0.099 OA 
HETATM   22  C   UNL     1     -10.196   9.907  69.181  1.00  0.00    -0.218 C  
HETATM   23  C   UNL     1      -7.744  11.039  67.306  1.00  0.00    -0.118 C  
HETATM   24  C   UNL     1      -9.938   8.875  68.110  1.00  0.00    -0.176 C  
HETATM   25  N   UNL     1      -8.540   8.719  67.772  1.00  0.00    -0.129 NA 
HETATM   26  C   UNL     1      -7.352   8.172  65.033  1.00  0.00    -0.082 C  
HETATM   27  C   UNL     1      -7.679   8.058  68.749  1.00  0.00    -0.108 C  
HETATM   28  N   UNL     1      -7.875   9.682  66.989  1.00  0.00    -0.098 N  
HETATM   29  C   UNL     1      -6.528   7.371  68.003  1.00  0.00    -0.049 C  
HETATM   30  C   UNL     1      -6.797   9.079  66.140  1.00  0.00    -0.081 C  
HETATM   31  C   UNL     1      -5.807   8.330  67.048  1.00  0.00    -0.046 C  
ENDBRANCH  15  17
ENDBRANCH   6  15
ENDBRANCH   4   6
ENDBRANCH   3   4
ENDBRANCH   2   3
TORSDOF 8
ENDMDL
MODEL      209
REMARK 921   NORMALIZED FREE ENERGY PREDICTED BY IDOCK:   -3.93 KCAL/MOL
REMARK 922        TOTAL FREE ENERGY PREDICTED BY IDOCK:   -6.98 KCAL/MOL
REMARK 923 INTER-LIGAND FREE ENERGY PREDICTED BY IDOCK:   -6.11 KCAL/MOL
REMARK 924 INTRA-LIGAND FREE ENERGY PREDICTED BY IDOCK:   -0.87 KCAL/MOL
REMARK 927      BINDING AFFINITY PREDICTED BY RF-SCORE:    0.00 PKD
ROOT
HETATM    1  C   UNL     1      -6.038  11.444  70.295  1.00  0.00    -0.145 C  
HETATM    2  C   UNL     1      -7.073  11.797  69.244  1.00  0.00    -0.032 C  
ENDROOT
BRANCH   2   3
HETATM    3  O   UNL     1      -7.581  10.602  68.635  1.00  0.00    -0.089 OA 
BRANCH   3   4
HETATM    4  C   UNL     1      -8.920  10.389  68.782  1.00  0.00    -0.157 C  
HETATM    5  O   UNL     1      -9.482  10.108  69.836  1.00  0.00    -0.204 OA 
BRANCH   4   6
HETATM    6  C   UNL     1      -9.640  10.582  67.435  1.00  0.00    -0.158 C  
BRANCH   6   7
HETATM    7  C   UNL     1     -11.143  10.760  67.676  1.00  0.00    -0.384 C  
BRANCH   7   8
HETATM    8  C   UNL     1     -11.567  12.235  67.708  1.00  0.00    -0.416 C  
BRANCH   8   9
HETATM    9  C   UNL     1     -11.734  12.750  66.300  1.00  0.00    -0.460 A  
HETATM   10  C   UNL     1     -12.248  13.697  63.716  1.00  0.00    -0.413 A  
HETATM   11  C   UNL     1     -12.174  14.590  64.783  1.00  0.00    -0.441 A  
HETATM   12  C   UNL     1     -11.918  14.119  66.071  1.00  0.00    -0.427 A  
HETATM   13  C   UNL     1     -12.054  12.334  63.932  1.00  0.00    -0.598 A  
HETATM   14  C   UNL     1     -11.796  11.860  65.219  1.00  0.00    -0.160 A  
ENDBRANCH   8   9
ENDBRANCH   7   8
ENDBRANCH   6   7
BRANCH   6  15
HETATM   15  N   UNL     1      -9.310   9.422  66.586  1.00  0.00    -0.154 NA 
HETATM   16  H   UNL     1      -9.088   9.545  65.597  1.00  0.00     0.000 HD 
BRANCH  15  17
HETATM   17  C   UNL     1      -9.309   8.064  67.202  1.00  0.00    -0.149 C  
HETATM   18  O   UNL     1      -7.108   8.035  66.218  1.00  0.00    -0.065 OA 
HETATM   19  C   UNL     1     -10.681   7.447  66.961  1.00  0.00    -0.389 C  
HETATM   20  O   UNL     1      -5.611   3.598  64.917  1.00  0.00    -0.009 OA 
HETATM   21  O   UNL     1      -7.832   3.962  64.768  1.00  0.00    -0.084 OA 
HETATM   22  C   UNL     1     -10.921   6.147  67.705  1.00  0.00    -0.400 C  
HETATM   23  C   UNL     1      -8.062   7.333  66.595  1.00  0.00    -0.113 C  
HETATM   24  C   UNL     1     -10.193   5.007  67.036  1.00  0.00    -0.208 C  
HETATM   25  N   UNL     1      -8.761   5.025  67.242  1.00  0.00    -0.104 NA 
HETATM   26  C   UNL     1      -6.600   4.230  65.265  1.00  0.00    -0.047 C  
HETATM   27  C   UNL     1      -8.266   4.684  68.573  1.00  0.00    -0.083 C  
HETATM   28  N   UNL     1      -7.944   5.939  66.550  1.00  0.00    -0.101 N  
HETATM   29  C   UNL     1      -6.863   4.077  68.434  1.00  0.00    -0.047 C  
HETATM   30  C   UNL     1      -6.578   5.386  66.274  1.00  0.00    -0.052 C  
HETATM   31  C   UNL     1      -5.930   4.968  67.605  1.00  0.00    -0.023 C  
ENDBRANCH  15  17
ENDBRANCH   6  15
ENDBRANCH   4   6
ENDBRANCH   3   4
ENDBRANCH   2   3
TORSDOF 8
ENDMDL
MODEL      210
REMARK 921   NORMALIZED FREE ENERGY PREDICTED BY IDOCK:   -3.93 KCAL/MOL
REMARK 922        TOTAL FREE ENERGY PREDICTED BY IDOCK:   -6.98 KCAL/MOL
REMARK 923 INTER-LIGAND FREE ENERGY PREDICTED BY IDOCK:   -5.69 KCAL/MOL
REMARK 924 INTRA-LIGAND FREE ENERGY PREDICTED BY IDOCK:   -1.29 KCAL/MOL
REMARK 927      BINDING AFFINITY PREDICTED BY RF-SCORE:    0.00 PKD
ROOT
HETATM    1  C   UNL     1     -10.892   9.165  69.117  1.00  0.00    -0.131 C  
HETATM    2  C   UNL     1      -9.616   9.372  69.909  1.00  0.00    -0.212 C  
ENDROOT
BRANCH   2   3
HETATM    3  O   UNL     1      -9.067  10.666  69.624  1.00  0.00    -0.050 OA 
BRANCH   3   4
HETATM    4  C   UNL     1      -7.722  10.699  69.398  1.00  0.00    -0.129 C  
HETATM    5  O   UNL     1      -6.855  10.633  70.265  1.00  0.00    -0.218 OA 
BRANCH   4   6
HETATM    6  C   UNL     1      -7.439  10.801  67.889  1.00  0.00    -0.090 C  
BRANCH   6   7
HETATM    7  C   UNL     1      -6.315   9.831  67.509  1.00  0.00    -0.064 C  
BRANCH   7   8
HETATM    8  C   UNL     1      -6.429   8.480  68.228  1.00  0.00    -0.060 C  
BRANCH   8   9
HETATM    9  C   UNL     1      -7.318   7.553  67.438  1.00  0.00    -0.099 A  
HETATM   10  C   UNL     1      -9.111   5.981  65.973  1.00  0.00    -0.143 A  
HETATM   11  C   UNL     1      -8.257   6.861  65.312  1.00  0.00    -0.129 A  
HETATM   12  C   UNL     1      -7.363   7.645  66.042  1.00  0.00    -0.077 A  
HETATM   13  C   UNL     1      -9.065   5.873  67.362  1.00  0.00    -0.110 A  
HETATM   14  C   UNL     1      -8.170   6.655  68.093  1.00  0.00    -0.114 A  
ENDBRANCH   8   9
ENDBRANCH   7   8
ENDBRANCH   6   7
BRANCH   6  15
HETATM   15  N   UNL     1      -7.130  12.212  67.590  1.00  0.00    -0.111 NA 
HETATM   16  H   UNL     1      -6.184  12.575  67.709  1.00  0.00     0.000 HD 
BRANCH  15  17
HETATM   17  C   UNL     1      -8.230  13.096  67.110  1.00  0.00    -0.120 C  
HETATM   18  O   UNL     1      -7.743  14.198  69.199  1.00  0.00    -0.088 OA 
HETATM   19  C   UNL     1      -9.310  12.204  66.509  1.00  0.00    -0.229 C  
HETATM   20  O   UNL     1     -11.594  16.395  71.191  1.00  0.00    -0.400 OA 
HETATM   21  O   UNL     1     -12.040  14.529  70.004  1.00  0.00    -0.301 OA 
HETATM   22  C   UNL     1     -10.409  12.957  65.784  1.00  0.00    -0.297 C  
HETATM   23  C   UNL     1      -8.619  13.983  68.344  1.00  0.00    -0.174 C  
HETATM   24  C   UNL     1     -11.359  13.594  66.768  1.00  0.00    -0.328 C  
HETATM   25  N   UNL     1     -10.816  14.753  67.441  1.00  0.00    -0.292 NA 
HETATM   26  C   UNL     1     -11.269  15.598  70.321  1.00  0.00    -0.344 C  
HETATM   27  C   UNL     1     -10.659  15.976  66.658  1.00  0.00    -0.297 C  
HETATM   28  N   UNL     1      -9.864  14.610  68.468  1.00  0.00    -0.223 N  
HETATM   29  C   UNL     1     -10.775  17.180  67.602  1.00  0.00    -0.302 C  
HETATM   30  C   UNL     1      -9.975  15.691  69.501  1.00  0.00    -0.285 C  
HETATM   31  C   UNL     1      -9.837  17.059  68.809  1.00  0.00    -0.278 C  
ENDBRANCH  15  17
ENDBRANCH   6  15
ENDBRANCH   4   6
ENDBRANCH   3   4
ENDBRANCH   2   3
TORSDOF 8
ENDMDL
MODEL      211
REMARK 921   NORMALIZED FREE ENERGY PREDICTED BY IDOCK:   -3.92 KCAL/MOL
REMARK 922        TOTAL FREE ENERGY PREDICTED BY IDOCK:   -6.96 KCAL/MOL
REMARK 923 INTER-LIGAND FREE ENERGY PREDICTED BY IDOCK:   -5.94 KCAL/MOL
REMARK 924 INTRA-LIGAND FREE ENERGY PREDICTED BY IDOCK:   -1.02 KCAL/MOL
REMARK 927      BINDING AFFINITY PREDICTED BY RF-SCORE:    0.00 PKD
ROOT
HETATM    1  C   UNL     1     -11.817  11.883  63.636  1.00  0.00    -0.573 C  
HETATM    2  C   UNL     1     -10.395  11.365  63.540  1.00  0.00    -0.423 C  
ENDROOT
BRANCH   2   3
HETATM    3  O   UNL     1      -9.650  11.761  64.699  1.00  0.00    -0.189 OA 
BRANCH   3   4
HETATM    4  C   UNL     1      -9.074  10.746  65.405  1.00  0.00    -0.194 C  
HETATM    5  O   UNL     1      -8.074  10.121  65.060  1.00  0.00    -0.140 OA 
BRANCH   4   6
HETATM    6  C   UNL     1      -9.838  10.511  66.719  1.00  0.00    -0.193 C  
BRANCH   6   7
HETATM    7  C   UNL     1     -10.138  11.856  67.388  1.00  0.00    -0.211 C  
BRANCH   7   8
HETATM    8  C   UNL     1      -8.885  12.518  67.976  1.00  0.00    -0.187 C  
BRANCH   8   9
HETATM    9  C   UNL     1      -9.001  14.018  67.868  1.00  0.00    -0.188 A  
HETATM   10  C   UNL     1      -9.042  16.816  67.778  1.00  0.00    -0.221 A  
HETATM   11  C   UNL     1      -8.332  16.099  66.817  1.00  0.00    -0.299 A  
HETATM   12  C   UNL     1      -8.311  14.705  66.861  1.00  0.00    -0.159 A  
HETATM   13  C   UNL     1      -9.743  16.142  68.776  1.00  0.00    -0.233 A  
HETATM   14  C   UNL     1      -9.725  14.747  68.821  1.00  0.00    -0.222 A  
ENDBRANCH   8   9
ENDBRANCH   7   8
ENDBRANCH   6   7
BRANCH   6  15
HETATM   15  N   UNL     1      -9.023   9.605  67.551  1.00  0.00    -0.128 NA 
HETATM   16  H   UNL     1      -8.063   9.846  67.797  1.00  0.00     0.000 HD 
BRANCH  15  17
HETATM   17  C   UNL     1      -9.633   8.329  68.022  1.00  0.00    -0.153 C  
HETATM   18  O   UNL     1      -7.875   8.537  69.660  1.00  0.00    -0.091 OA 
HETATM   19  C   UNL     1      -9.960   7.491  66.792  1.00  0.00    -0.307 C  
HETATM   20  O   UNL     1      -6.234   4.271  71.314  1.00  0.00    -0.017 OA 
HETATM   21  O   UNL     1      -6.945   4.280  69.173  1.00  0.00    -0.048 OA 
HETATM   22  C   UNL     1     -10.779   6.248  67.083  1.00  0.00    -0.432 C  
HETATM   23  C   UNL     1      -8.613   7.739  69.057  1.00  0.00    -0.135 C  
HETATM   24  C   UNL     1      -9.916   5.172  67.695  1.00  0.00    -0.161 C  
HETATM   25  N   UNL     1      -9.552   5.425  69.072  1.00  0.00    -0.132 NA 
HETATM   26  C   UNL     1      -6.917   4.777  70.433  1.00  0.00    -0.045 C  
HETATM   27  C   UNL     1     -10.597   5.292  70.082  1.00  0.00    -0.227 C  
HETATM   28  N   UNL     1      -8.569   6.380  69.393  1.00  0.00    -0.129 N  
HETATM   29  C   UNL     1      -9.945   4.893  71.413  1.00  0.00    -0.266 C  
HETATM   30  C   UNL     1      -7.803   6.015  70.629  1.00  0.00    -0.106 C  
HETATM   31  C   UNL     1      -8.792   5.830  71.793  1.00  0.00    -0.136 C  
ENDBRANCH  15  17
ENDBRANCH   6  15
ENDBRANCH   4   6
ENDBRANCH   3   4
ENDBRANCH   2   3
TORSDOF 8
ENDMDL
MODEL      212
REMARK 921   NORMALIZED FREE ENERGY PREDICTED BY IDOCK:   -3.90 KCAL/MOL
REMARK 922        TOTAL FREE ENERGY PREDICTED BY IDOCK:   -6.94 KCAL/MOL
REMARK 923 INTER-LIGAND FREE ENERGY PREDICTED BY IDOCK:   -5.66 KCAL/MOL
REMARK 924 INTRA-LIGAND FREE ENERGY PREDICTED BY IDOCK:   -1.28 KCAL/MOL
REMARK 927      BINDING AFFINITY PREDICTED BY RF-SCORE:    0.00 PKD
ROOT
HETATM    1  C   UNL     1     -13.588   9.546  71.954  1.00  0.00    -0.468 C  
HETATM    2  C   UNL     1     -12.464  10.485  71.560  1.00  0.00    -0.387 C  
ENDROOT
BRANCH   2   3
HETATM    3  O   UNL     1     -11.767   9.965  70.420  1.00  0.00    -0.262 OA 
BRANCH   3   4
HETATM    4  C   UNL     1     -10.449   9.674  70.618  1.00  0.00    -0.312 C  
HETATM    5  O   UNL     1      -9.961   9.274  71.671  1.00  0.00    -0.294 OA 
BRANCH   4   6
HETATM    6  C   UNL     1      -9.656   9.890  69.317  1.00  0.00    -0.205 C  
BRANCH   6   7
HETATM    7  C   UNL     1     -10.624   9.996  68.135  1.00  0.00    -0.268 C  
BRANCH   7   8
HETATM    8  C   UNL     1     -10.315  11.187  67.219  1.00  0.00    -0.243 C  
BRANCH   8   9
HETATM    9  C   UNL     1     -10.566  12.479  67.957  1.00  0.00    -0.237 A  
HETATM   10  C   UNL     1     -11.106  14.952  69.152  1.00  0.00    -0.279 A  
HETATM   11  C   UNL     1     -12.098  13.975  69.095  1.00  0.00    -0.375 A  
HETATM   12  C   UNL     1     -11.830  12.742  68.500  1.00  0.00    -0.345 A  
HETATM   13  C   UNL     1      -9.842  14.694  68.626  1.00  0.00    -0.224 A  
HETATM   14  C   UNL     1      -9.570  13.461  68.032  1.00  0.00    -0.219 A  
ENDBRANCH   8   9
ENDBRANCH   7   8
ENDBRANCH   6   7
BRANCH   6  15
HETATM   15  N   UNL     1      -8.691   8.780  69.196  1.00  0.00    -0.134 NA 
HETATM   16  H   UNL     1      -8.190   8.433  70.013  1.00  0.00     0.000 HD 
BRANCH  15  17
HETATM   17  C   UNL     1      -8.465   8.177  67.851  1.00  0.00    -0.132 C  
HETATM   18  O   UNL     1      -9.608   6.334  68.906  1.00  0.00    -0.126 OA 
HETATM   19  C   UNL     1      -7.055   8.550  67.409  1.00  0.00    -0.080 C  
HETATM   20  O   UNL     1      -8.282   1.981  67.197  1.00  0.00    -0.070 OA 
HETATM   21  O   UNL     1      -6.673   3.562  67.196  1.00  0.00    -0.044 OA 
HETATM   22  C   UNL     1      -6.737   8.192  65.970  1.00  0.00    -0.053 C  
HETATM   23  C   UNL     1      -8.799   6.654  68.018  1.00  0.00    -0.115 C  
HETATM   24  C   UNL     1      -6.483   6.711  65.832  1.00  0.00    -0.046 C  
HETATM   25  N   UNL     1      -7.679   5.901  65.917  1.00  0.00    -0.093 NA 
HETATM   26  C   UNL     1      -7.968   3.164  67.198  1.00  0.00    -0.078 C  
HETATM   27  C   UNL     1      -8.604   5.942  64.788  1.00  0.00     0.003 C  
HETATM   28  N   UNL     1      -8.305   5.668  67.156  1.00  0.00    -0.105 N  
HETATM   29  C   UNL     1      -9.348   4.602  64.714  1.00  0.00    -0.109 C  
HETATM   30  C   UNL     1      -8.971   4.326  67.213  1.00  0.00    -0.124 C  
HETATM   31  C   UNL     1      -9.982   4.221  66.057  1.00  0.00    -0.234 C  
ENDBRANCH  15  17
ENDBRANCH   6  15
ENDBRANCH   4   6
ENDBRANCH   3   4
ENDBRANCH   2   3
TORSDOF 8
ENDMDL
MODEL      213
REMARK 921   NORMALIZED FREE ENERGY PREDICTED BY IDOCK:   -3.89 KCAL/MOL
REMARK 922        TOTAL FREE ENERGY PREDICTED BY IDOCK:   -6.93 KCAL/MOL
REMARK 923 INTER-LIGAND FREE ENERGY PREDICTED BY IDOCK:   -5.17 KCAL/MOL
REMARK 924 INTRA-LIGAND FREE ENERGY PREDICTED BY IDOCK:   -1.76 KCAL/MOL
REMARK 927      BINDING AFFINITY PREDICTED BY RF-SCORE:    0.00 PKD
ROOT
HETATM    1  C   UNL     1      -9.966   6.722  73.902  1.00  0.00    -0.340 C  
HETATM    2  C   UNL     1     -11.004   5.685  73.517  1.00  0.00    -0.206 C  
ENDROOT
BRANCH   2   3
HETATM    3  O   UNL     1     -10.971   5.461  72.102  1.00  0.00    -0.238 OA 
BRANCH   3   4
HETATM    4  C   UNL     1     -10.064   4.537  71.672  1.00  0.00    -0.179 C  
HETATM    5  O   UNL     1      -9.681   3.565  72.317  1.00  0.00    -0.136 OA 
BRANCH   4   6
HETATM    6  C   UNL     1      -9.605   4.869  70.241  1.00  0.00    -0.195 C  
BRANCH   6   7
HETATM    7  C   UNL     1      -8.740   3.726  69.700  1.00  0.00    -0.127 C  
BRANCH   7   8
HETATM    8  C   UNL     1      -9.431   2.939  68.578  1.00  0.00    -0.200 C  
BRANCH   8   9
HETATM    9  C   UNL     1      -9.036   3.505  67.237  1.00  0.00    -0.194 A  
HETATM   10  C   UNL     1      -8.242   4.726  64.847  1.00  0.00    -0.120 A  
HETATM   11  C   UNL     1      -7.318   4.005  65.600  1.00  0.00    -0.076 A  
HETATM   12  C   UNL     1      -7.713   3.396  66.792  1.00  0.00    -0.080 A  
HETATM   13  C   UNL     1      -9.564   4.829  65.275  1.00  0.00    -0.126 A  
HETATM   14  C   UNL     1      -9.962   4.220  66.466  1.00  0.00    -0.214 A  
ENDBRANCH   8   9
ENDBRANCH   7   8
ENDBRANCH   6   7
BRANCH   6  15
HETATM   15  N   UNL     1      -8.907   6.168  70.289  1.00  0.00    -0.147 NA 
HETATM   16  H   UNL     1      -8.025   6.268  70.793  1.00  0.00     0.000 HD 
BRANCH  15  17
HETATM   17  C   UNL     1      -9.518   7.332  69.586  1.00  0.00    -0.155 C  
HETATM   18  O   UNL     1      -7.828   6.755  67.965  1.00  0.00    -0.109 OA 
HETATM   19  C   UNL     1      -9.786   8.411  70.627  1.00  0.00    -0.208 C  
HETATM   20  O   UNL     1      -6.197  10.553  65.409  1.00  0.00    -0.124 OA 
HETATM   21  O   UNL     1      -6.824  11.000  67.530  1.00  0.00    -0.078 OA 
HETATM   22  C   UNL     1     -10.600   9.584  70.115  1.00  0.00    -0.298 C  
HETATM   23  C   UNL     1      -8.531   7.675  68.416  1.00  0.00    -0.125 C  
HETATM   24  C   UNL     1      -9.747  10.494  69.264  1.00  0.00    -0.196 C  
HETATM   25  N   UNL     1      -9.440   9.955  67.957  1.00  0.00    -0.134 NA 
HETATM   26  C   UNL     1      -6.852  10.254  66.399  1.00  0.00    -0.106 C  
HETATM   27  C   UNL     1     -10.522   9.899  66.979  1.00  0.00    -0.230 C  
HETATM   28  N   UNL     1      -8.483   8.933  67.805  1.00  0.00    -0.124 N  
HETATM   29  C   UNL     1      -9.917  10.001  65.572  1.00  0.00    -0.367 C  
HETATM   30  C   UNL     1      -7.761   9.021  66.495  1.00  0.00    -0.096 C  
HETATM   31  C   UNL     1      -8.792   8.983  65.353  1.00  0.00    -0.237 C  
ENDBRANCH  15  17
ENDBRANCH   6  15
ENDBRANCH   4   6
ENDBRANCH   3   4
ENDBRANCH   2   3
TORSDOF 8
ENDMDL
MODEL      214
REMARK 921   NORMALIZED FREE ENERGY PREDICTED BY IDOCK:   -3.88 KCAL/MOL
REMARK 922        TOTAL FREE ENERGY PREDICTED BY IDOCK:   -6.91 KCAL/MOL
REMARK 923 INTER-LIGAND FREE ENERGY PREDICTED BY IDOCK:   -5.92 KCAL/MOL
REMARK 924 INTRA-LIGAND FREE ENERGY PREDICTED BY IDOCK:   -0.99 KCAL/MOL
REMARK 927      BINDING AFFINITY PREDICTED BY RF-SCORE:    0.00 PKD
ROOT
HETATM    1  C   UNL     1      -7.121   6.010  67.333  1.00  0.00    -0.074 C  
HETATM    2  C   UNL     1      -6.581   7.302  67.914  1.00  0.00    -0.050 C  
ENDROOT
BRANCH   2   3
HETATM    3  O   UNL     1      -7.097   8.422  67.184  1.00  0.00    -0.077 OA 
BRANCH   3   4
HETATM    4  C   UNL     1      -7.289   9.561  67.909  1.00  0.00    -0.083 C  
HETATM    5  O   UNL     1      -6.399  10.316  68.293  1.00  0.00    -0.048 OA 
BRANCH   4   6
HETATM    6  C   UNL     1      -8.790   9.788  68.156  1.00  0.00    -0.119 C  
BRANCH   6   7
HETATM    7  C   UNL     1      -9.354  10.724  67.082  1.00  0.00    -0.171 C  
BRANCH   7   8
HETATM    8  C   UNL     1     -10.866  10.946  67.223  1.00  0.00    -0.342 C  
BRANCH   8   9
HETATM    9  C   UNL     1     -11.169  12.424  67.208  1.00  0.00    -0.357 A  
HETATM   10  C   UNL     1     -11.583  15.187  67.041  1.00  0.00    -0.179 A  
HETATM   11  C   UNL     1     -12.236  14.331  66.157  1.00  0.00    -0.430 A  
HETATM   12  C   UNL     1     -12.030  12.954  66.239  1.00  0.00    -0.472 A  
HETATM   13  C   UNL     1     -10.734  14.668  68.017  1.00  0.00    -0.246 A  
HETATM   14  C   UNL     1     -10.528  13.291  68.103  1.00  0.00    -0.251 A  
ENDBRANCH   8   9
ENDBRANCH   7   8
ENDBRANCH   6   7
BRANCH   6  15
HETATM   15  N   UNL     1      -8.941  10.305  69.530  1.00  0.00    -0.320 NA 
HETATM   16  H   UNL     1      -8.520  11.194  69.801  1.00  0.00     0.000 HD 
BRANCH  15  17
HETATM   17  C   UNL     1      -9.721   9.500  70.513  1.00  0.00    -0.263 C  
HETATM   18  O   UNL     1      -7.502   8.746  71.082  1.00  0.00    -0.082 OA 
HETATM   19  C   UNL     1     -10.962   8.977  69.800  1.00  0.00    -0.177 C  
HETATM   20  O   UNL     1      -7.362   4.193  72.777  1.00  0.00    -0.068 OA 
HETATM   21  O   UNL     1      -8.970   4.619  71.252  1.00  0.00    -0.122 OA 
HETATM   22  C   UNL     1     -11.972   8.311  70.714  1.00  0.00    -0.118 C  
HETATM   23  C   UNL     1      -8.708   8.448  71.084  1.00  0.00    -0.159 C  
HETATM   24  C   UNL     1     -11.509   6.930  71.107  1.00  0.00    -0.304 C  
HETATM   25  N   UNL     1     -10.427   6.926  72.068  1.00  0.00    -0.204 NA 
HETATM   26  C   UNL     1      -8.086   4.999  72.207  1.00  0.00    -0.112 C  
HETATM   27  C   UNL     1     -10.742   7.313  73.440  1.00  0.00    -0.369 C  
HETATM   28  N   UNL     1      -9.113   7.245  71.676  1.00  0.00    -0.136 N  
HETATM   29  C   UNL     1      -9.765   6.603  74.386  1.00  0.00    -0.329 C  
HETATM   30  C   UNL     1      -8.085   6.509  72.481  1.00  0.00    -0.104 C  
HETATM   31  C   UNL     1      -8.304   6.818  73.972  1.00  0.00    -0.149 C  
ENDBRANCH  15  17
ENDBRANCH   6  15
ENDBRANCH   4   6
ENDBRANCH   3   4
ENDBRANCH   2   3
TORSDOF 8
ENDMDL
MODEL      215
REMARK 921   NORMALIZED FREE ENERGY PREDICTED BY IDOCK:   -3.85 KCAL/MOL
REMARK 922        TOTAL FREE ENERGY PREDICTED BY IDOCK:   -6.86 KCAL/MOL
REMARK 923 INTER-LIGAND FREE ENERGY PREDICTED BY IDOCK:   -4.73 KCAL/MOL
REMARK 924 INTRA-LIGAND FREE ENERGY PREDICTED BY IDOCK:   -2.13 KCAL/MOL
REMARK 927      BINDING AFFINITY PREDICTED BY RF-SCORE:    0.00 PKD
ROOT
HETATM    1  C   UNL     1     -10.006   3.631  72.299  1.00  0.00    -0.239 C  
HETATM    2  C   UNL     1      -9.403   2.427  71.602  1.00  0.00    -0.118 C  
ENDROOT
BRANCH   2   3
HETATM    3  O   UNL     1      -9.269   2.688  70.199  1.00  0.00    -0.109 OA 
BRANCH   3   4
HETATM    4  C   UNL     1      -8.050   2.398  69.660  1.00  0.00    -0.041 C  
HETATM    5  O   UNL     1      -7.237   1.606  70.129  1.00  0.00    -0.033 OA 
BRANCH   4   6
HETATM    6  C   UNL     1      -7.846   3.185  68.353  1.00  0.00    -0.058 C  
BRANCH   6   7
HETATM    7  C   UNL     1      -6.875   2.426  67.442  1.00  0.00    -0.040 C  
BRANCH   7   8
HETATM    8  C   UNL     1      -7.579   1.749  66.258  1.00  0.00    -0.062 C  
BRANCH   8   9
HETATM    9  C   UNL     1      -7.938   2.780  65.218  1.00  0.00    -0.082 A  
HETATM   10  C   UNL     1      -8.656   4.820  63.440  1.00  0.00    -0.131 A  
HETATM   11  C   UNL     1      -7.365   4.774  63.962  1.00  0.00    -0.058 A  
HETATM   12  C   UNL     1      -7.006   3.758  64.848  1.00  0.00    -0.053 A  
HETATM   13  C   UNL     1      -9.587   3.844  63.792  1.00  0.00    -0.157 A  
HETATM   14  C   UNL     1      -9.230   2.826  64.677  1.00  0.00    -0.135 A  
ENDBRANCH   8   9
ENDBRANCH   7   8
ENDBRANCH   6   7
BRANCH   6  15
HETATM   15  N   UNL     1      -7.382   4.537  68.717  1.00  0.00    -0.056 NA 
HETATM   16  H   UNL     1      -6.491   4.672  69.196  1.00  0.00     0.000 HD 
BRANCH  15  17
HETATM   17  C   UNL     1      -8.244   5.703  68.371  1.00  0.00    -0.103 C  
HETATM   18  O   UNL     1      -8.078   6.049  70.751  1.00  0.00    -0.115 OA 
HETATM   19  C   UNL     1      -9.273   5.230  67.350  1.00  0.00    -0.116 C  
HETATM   20  O   UNL     1     -11.971   8.225  72.684  1.00  0.00    -0.399 OA 
HETATM   21  O   UNL     1     -12.377   6.893  70.909  1.00  0.00    -0.386 OA 
HETATM   22  C   UNL     1     -10.097   6.343  66.733  1.00  0.00    -0.239 C  
HETATM   23  C   UNL     1      -8.774   6.249  69.742  1.00  0.00    -0.137 C  
HETATM   24  C   UNL     1     -11.150   6.827  67.700  1.00  0.00    -0.230 C  
HETATM   25  N   UNL     1     -10.626   7.626  68.786  1.00  0.00    -0.183 NA 
HETATM   26  C   UNL     1     -11.568   7.669  71.671  1.00  0.00    -0.267 C  
HETATM   27  C   UNL     1     -10.164   8.975  68.469  1.00  0.00    -0.200 C  
HETATM   28  N   UNL     1      -9.934   7.025  69.855  1.00  0.00    -0.176 N  
HETATM   29  C   UNL     1     -10.330   9.855  69.714  1.00  0.00    -0.278 C  
HETATM   30  C   UNL     1     -10.129   7.763  71.145  1.00  0.00    -0.187 C  
HETATM   31  C   UNL     1      -9.687   9.225  70.955  1.00  0.00    -0.341 C  
ENDBRANCH  15  17
ENDBRANCH   6  15
ENDBRANCH   4   6
ENDBRANCH   3   4
ENDBRANCH   2   3
TORSDOF 8
ENDMDL
MODEL      216
REMARK 921   NORMALIZED FREE ENERGY PREDICTED BY IDOCK:   -3.81 KCAL/MOL
REMARK 922        TOTAL FREE ENERGY PREDICTED BY IDOCK:   -6.81 KCAL/MOL
REMARK 923 INTER-LIGAND FREE ENERGY PREDICTED BY IDOCK:   -6.65 KCAL/MOL
REMARK 924 INTRA-LIGAND FREE ENERGY PREDICTED BY IDOCK:   -0.15 KCAL/MOL
REMARK 927      BINDING AFFINITY PREDICTED BY RF-SCORE:    0.00 PKD
ROOT
HETATM    1  C   UNL     1      -9.105  16.191  67.124  1.00  0.00    -0.218 C  
HETATM    2  C   UNL     1      -9.924  16.096  65.851  1.00  0.00    -0.356 C  
ENDROOT
BRANCH   2   3
HETATM    3  O   UNL     1     -10.087  14.722  65.474  1.00  0.00    -0.337 OA 
BRANCH   3   4
HETATM    4  C   UNL     1     -11.127  14.069  66.066  1.00  0.00    -0.303 C  
HETATM    5  O   UNL     1     -12.299  14.437  66.049  1.00  0.00    -0.394 OA 
BRANCH   4   6
HETATM    6  C   UNL     1     -10.630  12.777  66.739  1.00  0.00    -0.252 C  
BRANCH   6   7
HETATM    7  C   UNL     1     -10.377  13.037  68.228  1.00  0.00    -0.256 C  
BRANCH   7   8
HETATM    8  C   UNL     1     -11.419  13.974  68.852  1.00  0.00    -0.331 C  
BRANCH   8   9
HETATM    9  C   UNL     1     -12.132  13.268  69.978  1.00  0.00    -0.385 A  
HETATM   10  C   UNL     1     -13.285  11.981  72.181  1.00  0.00    -0.400 A  
HETATM   11  C   UNL     1     -13.354  13.368  72.071  1.00  0.00    -0.569 A  
HETATM   12  C   UNL     1     -12.780  14.011  70.973  1.00  0.00    -0.431 A  
HETATM   13  C   UNL     1     -12.654  11.232  71.189  1.00  0.00    -0.501 A  
HETATM   14  C   UNL     1     -12.081  11.872  70.089  1.00  0.00    -0.382 A  
ENDBRANCH   8   9
ENDBRANCH   7   8
ENDBRANCH   6   7
BRANCH   6  15
HETATM   15  N   UNL     1      -9.432  12.327  66.004  1.00  0.00    -0.340 NA 
HETATM   16  H   UNL     1      -9.170  12.760  65.118  1.00  0.00     0.000 HD 
BRANCH  15  17
HETATM   17  C   UNL     1      -8.612  11.226  66.585  1.00  0.00    -0.167 C  
HETATM   18  O   UNL     1      -8.044  10.936  64.260  1.00  0.00     0.080 OA 
HETATM   19  C   UNL     1      -9.453  10.538  67.654  1.00  0.00    -0.164 C  
HETATM   20  O   UNL     1      -7.000   6.342  63.064  1.00  0.00    -0.043 OA 
HETATM   21  O   UNL     1      -8.529   6.601  64.702  1.00  0.00    -0.030 OA 
HETATM   22  C   UNL     1      -8.694   9.527  68.491  1.00  0.00    -0.124 C  
HETATM   23  C   UNL     1      -8.144  10.366  65.359  1.00  0.00    -0.152 C  
HETATM   24  C   UNL     1      -8.476   8.250  67.717  1.00  0.00    -0.131 C  
HETATM   25  N   UNL     1      -7.472   8.357  66.681  1.00  0.00    -0.082 NA 
HETATM   26  C   UNL     1      -7.487   7.031  63.950  1.00  0.00    -0.096 C  
HETATM   27  C   UNL     1      -6.077   8.451  67.101  1.00  0.00    -0.055 C  
HETATM   28  N   UNL     1      -7.749   9.028  65.475  1.00  0.00    -0.089 N  
HETATM   29  C   UNL     1      -5.192   7.857  65.997  1.00  0.00    -0.025 C  
HETATM   30  C   UNL     1      -7.004   8.442  64.313  1.00  0.00    -0.081 C  
HETATM   31  C   UNL     1      -5.497   8.466  64.623  1.00  0.00    -0.040 C  
ENDBRANCH  15  17
ENDBRANCH   6  15
ENDBRANCH   4   6
ENDBRANCH   3   4
ENDBRANCH   2   3
TORSDOF 8
ENDMDL
MODEL      217
REMARK 921   NORMALIZED FREE ENERGY PREDICTED BY IDOCK:   -3.81 KCAL/MOL
REMARK 922        TOTAL FREE ENERGY PREDICTED BY IDOCK:   -6.80 KCAL/MOL
REMARK 923 INTER-LIGAND FREE ENERGY PREDICTED BY IDOCK:   -5.69 KCAL/MOL
REMARK 924 INTRA-LIGAND FREE ENERGY PREDICTED BY IDOCK:   -1.10 KCAL/MOL
REMARK 927      BINDING AFFINITY PREDICTED BY RF-SCORE:    0.00 PKD
ROOT
HETATM    1  C   UNL     1     -11.606   9.199  71.723  1.00  0.00    -0.457 C  
HETATM    2  C   UNL     1     -12.587  10.278  71.305  1.00  0.00    -0.418 C  
ENDROOT
BRANCH   2   3
HETATM    3  O   UNL     1     -12.386  10.616  69.927  1.00  0.00    -0.309 OA 
BRANCH   3   4
HETATM    4  C   UNL     1     -11.869  11.856  69.693  1.00  0.00    -0.337 C  
HETATM    5  O   UNL     1     -12.200  12.884  70.278  1.00  0.00    -0.339 OA 
BRANCH   4   6
HETATM    6  C   UNL     1     -10.782  11.783  68.607  1.00  0.00    -0.220 C  
BRANCH   6   7
HETATM    7  C   UNL     1      -9.409  11.602  69.263  1.00  0.00     0.454 C  
BRANCH   7   8
HETATM    8  C   UNL     1      -8.498  10.648  68.479  1.00  0.00    -0.136 C  
BRANCH   8   9
HETATM    9  C   UNL     1      -7.729   9.772  69.436  1.00  0.00    -0.109 A  
HETATM   10  C   UNL     1      -6.252   8.316  71.316  1.00  0.00    -0.037 A  
HETATM   11  C   UNL     1      -7.590   8.615  71.563  1.00  0.00    -0.134 A  
HETATM   12  C   UNL     1      -8.327   9.341  70.627  1.00  0.00    -0.245 A  
HETATM   13  C   UNL     1      -5.652   8.730  70.129  1.00  0.00    -0.027 A  
HETATM   14  C   UNL     1      -6.387   9.454  69.189  1.00  0.00    -0.042 A  
ENDBRANCH   8   9
ENDBRANCH   7   8
ENDBRANCH   6   7
BRANCH   6  15
HETATM   15  N   UNL     1     -10.890  13.005  67.788  1.00  0.00    -0.235 NA 
HETATM   16  H   UNL     1     -11.690  13.151  67.172  1.00  0.00     0.000 HD 
BRANCH  15  17
HETATM   17  C   UNL     1      -9.804  14.022  67.879  1.00  0.00    -0.233 C  
HETATM   18  O   UNL     1     -11.705  15.466  68.219  1.00  0.00    -0.360 OA 
HETATM   19  C   UNL     1      -8.783  13.708  66.792  1.00  0.00    -0.101 C  
HETATM   20  O   UNL     1     -11.016  20.007  66.630  1.00  0.00    -0.291 OA 
HETATM   21  O   UNL     1      -9.949  18.394  65.469  1.00  0.00    -0.394 OA 
HETATM   22  C   UNL     1      -7.507  14.522  66.879  1.00  0.00     0.429 C  
HETATM   23  C   UNL     1     -10.530  15.411  67.819  1.00  0.00    -0.266 C  
HETATM   24  C   UNL     1      -7.736  15.928  66.380  1.00  0.00     0.090 C  
HETATM   25  N   UNL     1      -8.494  16.757  67.291  1.00  0.00    -0.180 NA 
HETATM   26  C   UNL     1     -10.547  18.878  66.585  1.00  0.00    -0.395 C  
HETATM   27  C   UNL     1      -7.829  17.199  68.514  1.00  0.00    -0.257 C  
HETATM   28  N   UNL     1      -9.885  16.591  67.430  1.00  0.00    -0.248 N  
HETATM   29  C   UNL     1      -8.439  18.538  68.947  1.00  0.00    -0.186 C  
HETATM   30  C   UNL     1     -10.582  17.879  67.750  1.00  0.00    -0.389 C  
HETATM   31  C   UNL     1      -9.969  18.474  69.029  1.00  0.00    -0.323 C  
ENDBRANCH  15  17
ENDBRANCH   6  15
ENDBRANCH   4   6
ENDBRANCH   3   4
ENDBRANCH   2   3
TORSDOF 8
ENDMDL
MODEL      218
REMARK 921   NORMALIZED FREE ENERGY PREDICTED BY IDOCK:   -3.77 KCAL/MOL
REMARK 922        TOTAL FREE ENERGY PREDICTED BY IDOCK:   -6.75 KCAL/MOL
REMARK 923 INTER-LIGAND FREE ENERGY PREDICTED BY IDOCK:   -6.18 KCAL/MOL
REMARK 924 INTRA-LIGAND FREE ENERGY PREDICTED BY IDOCK:   -0.58 KCAL/MOL
REMARK 927      BINDING AFFINITY PREDICTED BY RF-SCORE:    0.00 PKD
ROOT
HETATM    1  C   UNL     1     -12.123  14.477  70.500  1.00  0.00    -0.395 C  
HETATM    2  C   UNL     1     -11.537  13.135  70.104  1.00  0.00    -0.074 C  
ENDROOT
BRANCH   2   3
HETATM    3  O   UNL     1     -12.018  12.753  68.808  1.00  0.00    -0.305 OA 
BRANCH   3   4
HETATM    4  C   UNL     1     -11.214  11.903  68.108  1.00  0.00    -0.258 C  
HETATM    5  O   UNL     1     -11.599  10.933  67.461  1.00  0.00    -0.526 OA 
BRANCH   4   6
HETATM    6  C   UNL     1      -9.745  12.349  68.219  1.00  0.00    -0.218 C  
BRANCH   6   7
HETATM    7  C   UNL     1      -9.183  12.621  66.820  1.00  0.00    -0.225 C  
BRANCH   7   8
HETATM    8  C   UNL     1      -8.876  14.106  66.582  1.00  0.00    -0.141 C  
BRANCH   8   9
HETATM    9  C   UNL     1      -9.981  14.733  65.769  1.00  0.00    -0.375 A  
HETATM   10  C   UNL     1     -12.157  15.860  64.416  1.00  0.00     0.084 A  
HETATM   11  C   UNL     1     -11.387  16.645  65.271  1.00  0.00     0.258 A  
HETATM   12  C   UNL     1     -10.302  16.084  65.946  1.00  0.00    -0.386 A  
HETATM   13  C   UNL     1     -11.838  14.517  64.223  1.00  0.00    -0.368 A  
HETATM   14  C   UNL     1     -10.752  13.954  64.896  1.00  0.00    -0.422 A  
ENDBRANCH   8   9
ENDBRANCH   7   8
ENDBRANCH   6   7
BRANCH   6  15
HETATM   15  N   UNL     1      -9.016  11.298  68.955  1.00  0.00    -0.381 NA 
HETATM   16  H   UNL     1      -8.463  11.528  69.781  1.00  0.00     0.000 HD 
BRANCH  15  17
HETATM   17  C   UNL     1      -9.105   9.893  68.466  1.00  0.00    -0.125 C  
HETATM   18  O   UNL     1      -9.946   9.569  70.703  1.00  0.00    -0.263 OA 
HETATM   19  C   UNL     1      -7.843   9.603  67.662  1.00  0.00    -0.095 C  
HETATM   20  O   UNL     1      -9.007   5.161  72.521  1.00  0.00    -0.129 OA 
HETATM   21  O   UNL     1      -7.462   5.978  71.095  1.00  0.00    -0.081 OA 
HETATM   22  C   UNL     1      -7.868   8.283  66.916  1.00  0.00    -0.096 C  
HETATM   23  C   UNL     1      -9.373   9.024  69.744  1.00  0.00    -0.171 C  
HETATM   24  C   UNL     1      -7.636   7.130  67.862  1.00  0.00    -0.111 C  
HETATM   25  N   UNL     1      -8.768   6.832  68.712  1.00  0.00    -0.125 NA 
HETATM   26  C   UNL     1      -8.716   5.919  71.606  1.00  0.00    -0.136 C  
HETATM   27  C   UNL     1      -9.933   6.209  68.090  1.00  0.00    -0.142 C  
HETATM   28  N   UNL     1      -9.083   7.656  69.809  1.00  0.00    -0.147 N  
HETATM   29  C   UNL     1     -10.658   5.362  69.144  1.00  0.00    -0.241 C  
HETATM   30  C   UNL     1      -9.701   6.888  70.938  1.00  0.00    -0.178 C  
HETATM   31  C   UNL     1     -10.954   6.160  70.420  1.00  0.00    -0.404 C  
ENDBRANCH  15  17
ENDBRANCH   6  15
ENDBRANCH   4   6
ENDBRANCH   3   4
ENDBRANCH   2   3
TORSDOF 8
ENDMDL
MODEL      219
REMARK 921   NORMALIZED FREE ENERGY PREDICTED BY IDOCK:   -3.72 KCAL/MOL
REMARK 922        TOTAL FREE ENERGY PREDICTED BY IDOCK:   -6.67 KCAL/MOL
REMARK 923 INTER-LIGAND FREE ENERGY PREDICTED BY IDOCK:   -6.11 KCAL/MOL
REMARK 924 INTRA-LIGAND FREE ENERGY PREDICTED BY IDOCK:   -0.55 KCAL/MOL
REMARK 927      BINDING AFFINITY PREDICTED BY RF-SCORE:    0.00 PKD
ROOT
HETATM    1  C   UNL     1      -9.705  16.054  65.699  1.00  0.00    -0.273 C  
HETATM    2  C   UNL     1     -10.714  15.107  66.318  1.00  0.00    -0.320 C  
ENDROOT
BRANCH   2   3
HETATM    3  O   UNL     1     -10.089  13.854  66.621  1.00  0.00    -0.261 OA 
BRANCH   3   4
HETATM    4  C   UNL     1      -9.951  13.570  67.948  1.00  0.00    -0.245 C  
HETATM    5  O   UNL     1     -10.876  13.408  68.739  1.00  0.00    -0.245 OA 
BRANCH   4   6
HETATM    6  C   UNL     1      -8.461  13.449  68.314  1.00  0.00    -0.166 C  
BRANCH   6   7
HETATM    7  C   UNL     1      -8.138  11.998  68.685  1.00  0.00    -0.069 C  
BRANCH   7   8
HETATM    8  C   UNL     1      -9.390  11.116  68.774  1.00  0.00    -0.156 C  
BRANCH   8   9
HETATM    9  C   UNL     1      -9.061   9.714  68.325  1.00  0.00    -0.123 A  
HETATM   10  C   UNL     1      -8.413   7.189  67.305  1.00  0.00    -0.122 A  
HETATM   11  C   UNL     1      -7.409   8.018  67.800  1.00  0.00    -0.093 A  
HETATM   12  C   UNL     1      -7.730   9.277  68.308  1.00  0.00    -0.087 A  
HETATM   13  C   UNL     1      -9.741   7.610  67.329  1.00  0.00    -0.221 A  
HETATM   14  C   UNL     1     -10.066   8.868  67.840  1.00  0.00    -0.255 A  
ENDBRANCH   8   9
ENDBRANCH   7   8
ENDBRANCH   6   7
BRANCH   6  15
HETATM   15  N   UNL     1      -8.192  14.412  69.400  1.00  0.00    -0.362 NA 
HETATM   16  H   UNL     1      -8.617  14.293  70.320  1.00  0.00     0.000 HD 
BRANCH  15  17
HETATM   17  C   UNL     1      -7.286  15.563  69.123  1.00  0.00    -0.174 C  
HETATM   18  O   UNL     1      -9.389  16.741  69.172  1.00  0.00    -0.245 OA 
HETATM   19  C   UNL     1      -6.253  15.102  68.101  1.00  0.00    -0.140 C  
HETATM   20  O   UNL     1      -9.491  20.672  66.316  1.00  0.00    -0.131 OA 
HETATM   21  O   UNL     1      -8.201  18.970  65.589  1.00  0.00    -0.392 OA 
HETATM   22  C   UNL     1      -5.126  16.088  67.864  1.00  0.00    -0.136 C  
HETATM   23  C   UNL     1      -8.231  16.748  68.723  1.00  0.00    -0.250 C  
HETATM   24  C   UNL     1      -5.593  17.237  67.004  1.00  0.00    -0.162 C  
HETATM   25  N   UNL     1      -6.455  18.172  67.693  1.00  0.00    -0.187 NA 
HETATM   26  C   UNL     1      -8.845  19.662  66.561  1.00  0.00    -0.364 C  
HETATM   27  C   UNL     1      -5.843  19.045  68.691  1.00  0.00    -0.211 C  
HETATM   28  N   UNL     1      -7.797  17.847  67.970  1.00  0.00    -0.243 N  
HETATM   29  C   UNL     1      -6.654  20.345  68.769  1.00  0.00    -0.267 C  
HETATM   30  C   UNL     1      -8.688  19.052  67.960  1.00  0.00    -0.306 C  
HETATM   31  C   UNL     1      -8.151  20.079  68.972  1.00  0.00     0.091 C  
ENDBRANCH  15  17
ENDBRANCH   6  15
ENDBRANCH   4   6
ENDBRANCH   3   4
ENDBRANCH   2   3
TORSDOF 8
ENDMDL
MODEL      220
REMARK 921   NORMALIZED FREE ENERGY PREDICTED BY IDOCK:   -3.70 KCAL/MOL
REMARK 922        TOTAL FREE ENERGY PREDICTED BY IDOCK:   -6.64 KCAL/MOL
REMARK 923 INTER-LIGAND FREE ENERGY PREDICTED BY IDOCK:   -4.92 KCAL/MOL
REMARK 924 INTRA-LIGAND FREE ENERGY PREDICTED BY IDOCK:   -1.72 KCAL/MOL
REMARK 927      BINDING AFFINITY PREDICTED BY RF-SCORE:    0.00 PKD
ROOT
HETATM    1  C   UNL     1      -5.145   9.213  66.959  1.00  0.00    -0.035 C  
HETATM    2  C   UNL     1      -5.593   9.267  68.407  1.00  0.00    -0.037 C  
ENDROOT
BRANCH   2   3
HETATM    3  O   UNL     1      -7.007   9.043  68.491  1.00  0.00    -0.063 OA 
BRANCH   3   4
HETATM    4  C   UNL     1      -7.781  10.166  68.527  1.00  0.00    -0.090 C  
HETATM    5  O   UNL     1      -7.649  11.092  69.321  1.00  0.00    -0.121 OA 
BRANCH   4   6
HETATM    6  C   UNL     1      -8.832  10.123  67.403  1.00  0.00    -0.131 C  
BRANCH   6   7
HETATM    7  C   UNL     1      -8.924   8.702  66.838  1.00  0.00    -0.161 C  
BRANCH   7   8
HETATM    8  C   UNL     1      -9.234   8.681  65.335  1.00  0.00    -0.103 C  
BRANCH   8   9
HETATM    9  C   UNL     1      -8.036   8.171  64.573  1.00  0.00    -0.142 A  
HETATM   10  C   UNL     1      -5.697   7.353  63.270  1.00  0.00    -0.045 A  
HETATM   11  C   UNL     1      -6.088   6.732  64.454  1.00  0.00    -0.035 A  
HETATM   12  C   UNL     1      -7.253   7.138  65.104  1.00  0.00    -0.073 A  
HETATM   13  C   UNL     1      -6.476   8.373  62.727  1.00  0.00    -0.087 A  
HETATM   14  C   UNL     1      -7.644   8.781  63.374  1.00  0.00    -0.114 A  
ENDBRANCH   8   9
ENDBRANCH   7   8
ENDBRANCH   6   7
BRANCH   6  15
HETATM   15  N   UNL     1      -8.450  11.136  66.400  1.00  0.00    -0.164 NA 
HETATM   16  H   UNL     1      -7.554  11.078  65.916  1.00  0.00     0.000 HD 
BRANCH  15  17
HETATM   17  C   UNL     1      -9.403  12.245  66.110  1.00  0.00    -0.176 C  
HETATM   18  O   UNL     1      -7.553  13.544  66.951  1.00  0.00     0.110 OA 
HETATM   19  C   UNL     1     -10.787  11.795  66.561  1.00  0.00    -0.323 C  
HETATM   20  O   UNL     1      -8.902  17.667  69.142  1.00  0.00    -0.071 OA 
HETATM   21  O   UNL     1     -10.347  15.945  69.328  1.00  0.00    -0.215 OA 
HETATM   22  C   UNL     1     -11.911  12.724  66.146  1.00  0.00    -0.476 C  
HETATM   23  C   UNL     1      -8.786  13.512  66.798  1.00  0.00    -0.131 C  
HETATM   24  C   UNL     1     -11.933  13.958  67.016  1.00  0.00    -0.424 C  
HETATM   25  N   UNL     1     -10.866  14.893  66.732  1.00  0.00    -0.314 NA 
HETATM   26  C   UNL     1      -9.334  16.604  68.716  1.00  0.00    -0.256 C  
HETATM   27  C   UNL     1     -10.949  15.654  65.488  1.00  0.00    -0.300 C  
HETATM   28  N   UNL     1      -9.548  14.632  67.152  1.00  0.00    -0.227 N  
HETATM   29  C   UNL     1     -10.225  16.993  65.683  1.00  0.00    -0.196 C  
HETATM   30  C   UNL     1      -8.794  15.888  67.470  1.00  0.00    -0.189 C  
HETATM   31  C   UNL     1      -8.807  16.806  66.235  1.00  0.00    -0.334 C  
ENDBRANCH  15  17
ENDBRANCH   6  15
ENDBRANCH   4   6
ENDBRANCH   3   4
ENDBRANCH   2   3
TORSDOF 8
ENDMDL
MODEL      221
REMARK 921   NORMALIZED FREE ENERGY PREDICTED BY IDOCK:   -3.68 KCAL/MOL
REMARK 922        TOTAL FREE ENERGY PREDICTED BY IDOCK:   -6.61 KCAL/MOL
REMARK 923 INTER-LIGAND FREE ENERGY PREDICTED BY IDOCK:   -5.48 KCAL/MOL
REMARK 924 INTRA-LIGAND FREE ENERGY PREDICTED BY IDOCK:   -1.12 KCAL/MOL
REMARK 927      BINDING AFFINITY PREDICTED BY RF-SCORE:    0.00 PKD
ROOT
HETATM    1  C   UNL     1     -13.155  11.148  71.847  1.00  0.00    -0.513 C  
HETATM    2  C   UNL     1     -12.362  10.015  71.223  1.00  0.00    -0.398 C  
ENDROOT
BRANCH   2   3
HETATM    3  O   UNL     1     -11.251  10.543  70.486  1.00  0.00    -0.314 OA 
BRANCH   3   4
HETATM    4  C   UNL     1     -11.431  10.643  69.138  1.00  0.00    -0.280 C  
HETATM    5  O   UNL     1     -12.466  11.006  68.586  1.00  0.00    -0.462 OA 
BRANCH   4   6
HETATM    6  C   UNL     1     -10.137  10.263  68.399  1.00  0.00    -0.159 C  
BRANCH   6   7
HETATM    7  C   UNL     1      -9.764  11.372  67.410  1.00  0.00    -0.196 C  
BRANCH   7   8
HETATM    8  C   UNL     1      -9.391  12.687  68.106  1.00  0.00    -0.210 C  
BRANCH   8   9
HETATM    9  C   UNL     1      -7.915  12.954  67.939  1.00  0.00    -0.156 A  
HETATM   10  C   UNL     1      -5.149  13.360  67.812  1.00  0.00    -0.052 A  
HETATM   11  C   UNL     1      -5.698  12.162  67.360  1.00  0.00    -0.135 A  
HETATM   12  C   UNL     1      -7.076  11.958  67.423  1.00  0.00    -0.129 A  
HETATM   13  C   UNL     1      -5.977  14.362  68.316  1.00  0.00    -0.120 A  
HETATM   14  C   UNL     1      -7.356  14.161  68.378  1.00  0.00    -0.115 A  
ENDBRANCH   8   9
ENDBRANCH   7   8
ENDBRANCH   6   7
BRANCH   6  15
HETATM   15  N   UNL     1     -10.359   8.951  67.761  1.00  0.00    -0.231 NA 
HETATM   16  H   UNL     1     -11.242   8.740  67.295  1.00  0.00     0.000 HD 
BRANCH  15  17
HETATM   17  C   UNL     1      -9.264   7.940  67.812  1.00  0.00    -0.137 C  
HETATM   18  O   UNL     1     -11.111   6.532  68.463  1.00  0.00    -0.296 OA 
HETATM   19  C   UNL     1      -8.050   8.605  68.449  1.00  0.00    -0.118 C  
HETATM   20  O   UNL     1      -9.842   2.890  71.420  1.00  0.00    -0.163 OA 
HETATM   21  O   UNL     1      -8.638   4.786  71.633  1.00  0.00    -0.117 OA 
HETATM   22  C   UNL     1      -6.781   7.778  68.386  1.00  0.00    -0.062 C  
HETATM   23  C   UNL     1      -9.882   6.696  68.541  1.00  0.00    -0.139 C  
HETATM   24  C   UNL     1      -6.817   6.667  69.407  1.00  0.00    -0.065 C  
HETATM   25  N   UNL     1      -7.708   5.581  69.060  1.00  0.00    -0.086 NA 
HETATM   26  C   UNL     1      -9.438   3.941  70.939  1.00  0.00    -0.166 C  
HETATM   27  C   UNL     1      -7.303   4.696  67.972  1.00  0.00    -0.066 C  
HETATM   28  N   UNL     1      -9.103   5.727  69.185  1.00  0.00    -0.117 N  
HETATM   29  C   UNL     1      -7.918   3.311  68.212  1.00  0.00    -0.065 C  
HETATM   30  C   UNL     1      -9.781   4.435  69.527  1.00  0.00    -0.210 C  
HETATM   31  C   UNL     1      -9.430   3.387  68.456  1.00  0.00    -0.209 C  
ENDBRANCH  15  17
ENDBRANCH   6  15
ENDBRANCH   4   6
ENDBRANCH   3   4
ENDBRANCH   2   3
TORSDOF 8
ENDMDL
MODEL      222
REMARK 921   NORMALIZED FREE ENERGY PREDICTED BY IDOCK:   -3.63 KCAL/MOL
REMARK 922        TOTAL FREE ENERGY PREDICTED BY IDOCK:   -6.53 KCAL/MOL
REMARK 923 INTER-LIGAND FREE ENERGY PREDICTED BY IDOCK:   -6.30 KCAL/MOL
REMARK 924 INTRA-LIGAND FREE ENERGY PREDICTED BY IDOCK:   -0.23 KCAL/MOL
REMARK 927      BINDING AFFINITY PREDICTED BY RF-SCORE:    0.00 PKD
ROOT
HETATM    1  C   UNL     1     -11.449  13.259  65.173  1.00  0.00    -0.319 C  
HETATM    2  C   UNL     1     -11.632  13.751  66.596  1.00  0.00    -0.369 C  
ENDROOT
BRANCH   2   3
HETATM    3  O   UNL     1     -11.365  12.688  67.520  1.00  0.00    -0.271 OA 
BRANCH   3   4
HETATM    4  C   UNL     1     -10.117  12.686  68.072  1.00  0.00    -0.229 C  
HETATM    5  O   UNL     1      -9.561  13.660  68.571  1.00  0.00    -0.217 OA 
BRANCH   4   6
HETATM    6  C   UNL     1      -9.511  11.273  68.009  1.00  0.00    -0.173 C  
BRANCH   6   7
HETATM    7  C   UNL     1     -10.596  10.263  67.621  1.00  0.00    -0.312 C  
BRANCH   7   8
HETATM    8  C   UNL     1     -10.338   9.611  66.256  1.00  0.00    -0.230 C  
BRANCH   8   9
HETATM    9  C   UNL     1      -9.334   8.495  66.404  1.00  0.00    -0.273 A  
HETATM   10  C   UNL     1      -7.445   6.483  66.873  1.00  0.00    -0.084 A  
HETATM   11  C   UNL     1      -8.789   6.257  67.164  1.00  0.00    -0.109 A  
HETATM   12  C   UNL     1      -9.731   7.259  66.930  1.00  0.00    -0.252 A  
HETATM   13  C   UNL     1      -7.042   7.704  66.337  1.00  0.00    -0.071 A  
HETATM   14  C   UNL     1      -7.983   8.708  66.101  1.00  0.00    -0.106 A  
ENDBRANCH   8   9
ENDBRANCH   7   8
ENDBRANCH   6   7
BRANCH   6  15
HETATM   15  N   UNL     1      -8.888  10.999  69.319  1.00  0.00    -0.383 NA 
HETATM   16  H   UNL     1      -7.926  11.281  69.508  1.00  0.00     0.000 HD 
BRANCH  15  17
HETATM   17  C   UNL     1      -9.696  10.300  70.359  1.00  0.00     0.382 C  
HETATM   18  O   UNL     1      -8.123   8.543  69.858  1.00  0.00    -0.111 OA 
HETATM   19  C   UNL     1     -11.161  10.633  70.107  1.00  0.00    -0.378 C  
HETATM   20  O   UNL     1      -9.928   4.073  70.475  1.00  0.00    -0.187 OA 
HETATM   21  O   UNL     1     -11.408   5.641  69.813  1.00  0.00    -0.160 OA 
HETATM   22  C   UNL     1     -12.104  10.172  71.202  1.00  0.00    -0.485 C  
HETATM   23  C   UNL     1      -9.265   8.795  70.278  1.00  0.00    -0.174 C  
HETATM   24  C   UNL     1     -12.336   8.684  71.114  1.00  0.00    -0.213 C  
HETATM   25  N   UNL     1     -11.211   7.888  71.553  1.00  0.00    -0.244 NA 
HETATM   26  C   UNL     1     -10.249   5.251  70.397  1.00  0.00    -0.268 C  
HETATM   27  C   UNL     1     -10.926   7.854  72.985  1.00  0.00    -0.333 C  
HETATM   28  N   UNL     1     -10.068   7.747  70.744  1.00  0.00    -0.192 N  
HETATM   29  C   UNL     1     -10.253   6.516  73.320  1.00  0.00    -0.242 C  
HETATM   30  C   UNL     1      -9.402   6.416  70.926  1.00  0.00    -0.161 C  
HETATM   31  C   UNL     1      -9.049   6.234  72.413  1.00  0.00    -0.138 C  
ENDBRANCH  15  17
ENDBRANCH   6  15
ENDBRANCH   4   6
ENDBRANCH   3   4
ENDBRANCH   2   3
TORSDOF 8
ENDMDL
MODEL      223
REMARK 921   NORMALIZED FREE ENERGY PREDICTED BY IDOCK:   -3.62 KCAL/MOL
REMARK 922        TOTAL FREE ENERGY PREDICTED BY IDOCK:   -6.53 KCAL/MOL
REMARK 923 INTER-LIGAND FREE ENERGY PREDICTED BY IDOCK:   -6.05 KCAL/MOL
REMARK 924 INTRA-LIGAND FREE ENERGY PREDICTED BY IDOCK:   -0.47 KCAL/MOL
REMARK 927      BINDING AFFINITY PREDICTED BY RF-SCORE:    0.00 PKD
ROOT
HETATM    1  C   UNL     1      -9.224   6.967  74.044  1.00  0.00    -0.243 C  
HETATM    2  C   UNL     1      -9.770   8.209  73.366  1.00  0.00    -0.055 C  
ENDROOT
BRANCH   2   3
HETATM    3  O   UNL     1      -9.819   8.011  71.947  1.00  0.00    -0.168 OA 
BRANCH   3   4
HETATM    4  C   UNL     1     -10.971   8.412  71.336  1.00  0.00    -0.253 C  
HETATM    5  O   UNL     1     -11.817   9.150  71.833  1.00  0.00    -0.354 OA 
BRANCH   4   6
HETATM    6  C   UNL     1     -11.048   7.832  69.913  1.00  0.00    -0.136 C  
BRANCH   6   7
HETATM    7  C   UNL     1     -11.517   6.375  69.976  1.00  0.00    -0.496 C  
BRANCH   7   8
HETATM    8  C   UNL     1     -11.376   5.766  71.377  1.00  0.00    -0.175 C  
BRANCH   8   9
HETATM    9  C   UNL     1     -10.505   4.536  71.316  1.00  0.00    -0.009 A  
HETATM   10  C   UNL     1      -9.051   2.151  71.126  1.00  0.00    -0.162 A  
HETATM   11  C   UNL     1      -9.130   3.007  70.030  1.00  0.00    -0.194 A  
HETATM   12  C   UNL     1      -9.854   4.196  70.123  1.00  0.00    -0.242 A  
HETATM   13  C   UNL     1      -9.685   2.487  72.321  1.00  0.00    -0.205 A  
HETATM   14  C   UNL     1     -10.408   3.677  72.418  1.00  0.00    -0.170 A  
ENDBRANCH   8   9
ENDBRANCH   7   8
ENDBRANCH   6   7
BRANCH   6  15
HETATM   15  N   UNL     1      -9.719   8.000  69.293  1.00  0.00    -0.165 NA 
HETATM   16  H   UNL     1      -9.075   7.212  69.218  1.00  0.00     0.000 HD 
BRANCH  15  17
HETATM   17  C   UNL     1      -9.338   9.346  68.778  1.00  0.00    -0.146 C  
HETATM   18  O   UNL     1     -10.814   8.664  66.998  1.00  0.00    -0.197 OA 
HETATM   19  C   UNL     1      -7.845   9.528  69.023  1.00  0.00    -0.077 C  
HETATM   20  O   UNL     1      -9.666  10.566  62.675  1.00  0.00    -0.293 OA 
HETATM   21  O   UNL     1      -7.929  10.165  64.058  1.00  0.00    -0.153 OA 
HETATM   22  C   UNL     1      -7.333  10.929  68.749  1.00  0.00    -0.104 C  
HETATM   23  C   UNL     1      -9.844   9.382  67.294  1.00  0.00    -0.179 C  
HETATM   24  C   UNL     1      -7.208  11.170  67.264  1.00  0.00    -0.113 C  
HETATM   25  N   UNL     1      -8.476  11.349  66.591  1.00  0.00    -0.168 NA 
HETATM   26  C   UNL     1      -9.241  10.401  63.811  1.00  0.00    -0.269 C  
HETATM   27  C   UNL     1      -9.196  12.597  66.828  1.00  0.00    -0.225 C  
HETATM   28  N   UNL     1      -9.316  10.249  66.331  1.00  0.00    -0.161 N  
HETATM   29  C   UNL     1     -10.047  12.915  65.591  1.00  0.00    -0.282 C  
HETATM   30  C   UNL     1     -10.113  10.427  65.073  1.00  0.00    -0.309 C  
HETATM   31  C   UNL     1     -10.926  11.729  65.177  1.00  0.00    -0.351 C  
ENDBRANCH  15  17
ENDBRANCH   6  15
ENDBRANCH   4   6
ENDBRANCH   3   4
ENDBRANCH   2   3
TORSDOF 8
ENDMDL
MODEL      224
REMARK 921   NORMALIZED FREE ENERGY PREDICTED BY IDOCK:   -3.58 KCAL/MOL
REMARK 922        TOTAL FREE ENERGY PREDICTED BY IDOCK:   -6.46 KCAL/MOL
REMARK 923 INTER-LIGAND FREE ENERGY PREDICTED BY IDOCK:   -6.16 KCAL/MOL
REMARK 924 INTRA-LIGAND FREE ENERGY PREDICTED BY IDOCK:   -0.30 KCAL/MOL
REMARK 927      BINDING AFFINITY PREDICTED BY RF-SCORE:    0.00 PKD
ROOT
HETATM    1  C   UNL     1      -7.484   7.689  67.639  1.00  0.00    -0.104 C  
HETATM    2  C   UNL     1      -7.157   9.136  67.953  1.00  0.00    -0.079 C  
ENDROOT
BRANCH   2   3
HETATM    3  O   UNL     1      -7.871  10.005  67.063  1.00  0.00    -0.101 OA 
BRANCH   3   4
HETATM    4  C   UNL     1      -7.627  11.338  67.219  1.00  0.00    -0.130 C  
HETATM    5  O   UNL     1      -6.828  11.995  66.558  1.00  0.00     0.063 OA 
BRANCH   4   6
HETATM    6  C   UNL     1      -8.521  11.915  68.330  1.00  0.00    -0.155 C  
BRANCH   6   7
HETATM    7  C   UNL     1      -9.622  10.909  68.681  1.00  0.00    -0.192 C  
BRANCH   7   8
HETATM    8  C   UNL     1      -9.384  10.215  70.029  1.00  0.00    -0.062 C  
BRANCH   8   9
HETATM    9  C   UNL     1     -10.541   9.300  70.344  1.00  0.00    -0.298 A  
HETATM   10  C   UNL     1     -12.589   7.548  71.102  1.00  0.00    -0.293 A  
HETATM   11  C   UNL     1     -12.596   8.865  71.556  1.00  0.00    -0.385 A  
HETATM   12  C   UNL     1     -11.575   9.739  71.179  1.00  0.00    -0.469 A  
HETATM   13  C   UNL     1     -11.570   7.105  70.261  1.00  0.00    -0.260 A  
HETATM   14  C   UNL     1     -10.549   7.978  69.880  1.00  0.00    -0.242 A  
ENDBRANCH   8   9
ENDBRANCH   7   8
ENDBRANCH   6   7
BRANCH   6  15
HETATM   15  N   UNL     1      -9.036  13.214  67.855  1.00  0.00    -0.190 NA 
HETATM   16  H   UNL     1      -9.782  13.257  67.161  1.00  0.00     0.000 HD 
BRANCH  15  17
HETATM   17  C   UNL     1      -8.442  14.463  68.412  1.00  0.00    -0.165 C  
HETATM   18  O   UNL     1      -9.096  15.289  66.243  1.00  0.00    -0.288 OA 
HETATM   19  C   UNL     1      -7.168  14.076  69.156  1.00  0.00    -0.059 C  
HETATM   20  O   UNL     1      -6.252  18.861  64.577  1.00  0.00    -0.475 OA 
HETATM   21  O   UNL     1      -5.230  17.325  65.876  1.00  0.00    -0.324 OA 
HETATM   22  C   UNL     1      -6.550  15.203  69.962  1.00  0.00    -0.146 C  
HETATM   23  C   UNL     1      -8.307  15.438  67.192  1.00  0.00    -0.219 C  
HETATM   24  C   UNL     1      -5.832  16.174  69.057  1.00  0.00    -0.121 C  
HETATM   25  N   UNL     1      -6.716  17.021  68.287  1.00  0.00    -0.153 NA 
HETATM   26  C   UNL     1      -6.325  17.995  65.439  1.00  0.00    -0.088 C  
HETATM   27  C   UNL     1      -7.435  18.073  69.002  1.00  0.00    -0.169 C  
HETATM   28  N   UNL     1      -7.412  16.514  67.173  1.00  0.00    -0.162 N  
HETATM   29  C   UNL     1      -7.707  19.228  68.029  1.00  0.00    -0.323 C  
HETATM   30  C   UNL     1      -7.629  17.555  66.117  1.00  0.00    -0.285 C  
HETATM   31  C   UNL     1      -8.379  18.747  66.737  1.00  0.00    -0.288 C  
ENDBRANCH  15  17
ENDBRANCH   6  15
ENDBRANCH   4   6
ENDBRANCH   3   4
ENDBRANCH   2   3
TORSDOF 8
ENDMDL
MODEL      225
REMARK 921   NORMALIZED FREE ENERGY PREDICTED BY IDOCK:   -3.54 KCAL/MOL
REMARK 922        TOTAL FREE ENERGY PREDICTED BY IDOCK:   -6.41 KCAL/MOL
REMARK 923 INTER-LIGAND FREE ENERGY PREDICTED BY IDOCK:   -6.06 KCAL/MOL
REMARK 924 INTRA-LIGAND FREE ENERGY PREDICTED BY IDOCK:   -0.35 KCAL/MOL
REMARK 927      BINDING AFFINITY PREDICTED BY RF-SCORE:    0.00 PKD
ROOT
HETATM    1  C   UNL     1     -12.898  12.588  64.653  1.00  0.00    -0.325 C  
HETATM    2  C   UNL     1     -11.851  12.196  63.629  1.00  0.00    -0.516 C  
ENDROOT
BRANCH   2   3
HETATM    3  O   UNL     1     -10.650  12.950  63.842  1.00  0.00    -0.410 OA 
BRANCH   3   4
HETATM    4  C   UNL     1      -9.842  12.500  64.844  1.00  0.00    -0.072 C  
HETATM    5  O   UNL     1      -9.131  11.501  64.788  1.00  0.00    -0.047 OA 
BRANCH   4   6
HETATM    6  C   UNL     1      -9.922  13.445  66.057  1.00  0.00    -0.293 C  
BRANCH   6   7
HETATM    7  C   UNL     1      -9.500  14.857  65.638  1.00  0.00    -0.152 C  
BRANCH   7   8
HETATM    8  C   UNL     1     -10.662  15.858  65.675  1.00  0.00    -0.350 C  
BRANCH   8   9
HETATM    9  C   UNL     1     -10.188  17.172  66.245  1.00  0.00    -0.340 A  
HETATM   10  C   UNL     1      -9.175  19.622  67.145  1.00  0.00    -0.419 A  
HETATM   11  C   UNL     1     -10.218  19.597  66.221  1.00  0.00    -0.598 A  
HETATM   12  C   UNL     1     -10.724  18.376  65.772  1.00  0.00    -0.161 A  
HETATM   13  C   UNL     1      -8.644  18.428  67.631  1.00  0.00    -0.268 A  
HETATM   14  C   UNL     1      -9.149  17.206  67.185  1.00  0.00    -0.237 A  
ENDBRANCH   8   9
ENDBRANCH   7   8
ENDBRANCH   6   7
BRANCH   6  15
HETATM   15  N   UNL     1      -9.082  12.868  67.124  1.00  0.00    -0.213 NA 
HETATM   16  H   UNL     1      -8.095  13.116  67.203  1.00  0.00     0.000 HD 
BRANCH  15  17
HETATM   17  C   UNL     1      -9.707  11.917  68.087  1.00  0.00    -0.194 C  
HETATM   18  O   UNL     1      -7.387  11.458  68.554  1.00  0.00    -0.091 OA 
HETATM   19  C   UNL     1     -10.888  11.257  67.384  1.00  0.00    -0.311 C  
HETATM   20  O   UNL     1      -6.554   6.897  70.011  1.00  0.00    -0.042 OA 
HETATM   21  O   UNL     1      -8.257   7.161  68.556  1.00  0.00    -0.123 OA 
HETATM   22  C   UNL     1     -11.763  10.414  68.291  1.00  0.00     0.047 C  
HETATM   23  C   UNL     1      -8.538  10.992  68.575  1.00  0.00    -0.158 C  
HETATM   24  C   UNL     1     -11.097   9.096  68.600  1.00  0.00     0.160 C  
HETATM   25  N   UNL     1      -9.993   9.200  69.528  1.00  0.00    -0.182 NA 
HETATM   26  C   UNL     1      -7.403   7.618  69.503  1.00  0.00    -0.086 C  
HETATM   27  C   UNL     1     -10.311   9.474  70.927  1.00  0.00    -0.302 C  
HETATM   28  N   UNL     1      -8.751   9.719  69.116  1.00  0.00    -0.144 N  
HETATM   29  C   UNL     1      -9.211   8.866  71.808  1.00  0.00    -0.279 C  
HETATM   30  C   UNL     1      -7.602   9.099  69.853  1.00  0.00    -0.080 C  
HETATM   31  C   UNL     1      -7.810   9.304  71.364  1.00  0.00     0.124 C  
ENDBRANCH  15  17
ENDBRANCH   6  15
ENDBRANCH   4   6
ENDBRANCH   3   4
ENDBRANCH   2   3
TORSDOF 8
ENDMDL
MODEL      226
REMARK 921   NORMALIZED FREE ENERGY PREDICTED BY IDOCK:   -3.46 KCAL/MOL
REMARK 922        TOTAL FREE ENERGY PREDICTED BY IDOCK:   -6.30 KCAL/MOL
REMARK 923 INTER-LIGAND FREE ENERGY PREDICTED BY IDOCK:   -5.70 KCAL/MOL
REMARK 924 INTRA-LIGAND FREE ENERGY PREDICTED BY IDOCK:   -0.60 KCAL/MOL
REMARK 927      BINDING AFFINITY PREDICTED BY RF-SCORE:    0.00 PKD
ROOT
HETATM    1  C   UNL     1      -9.522   5.212  73.577  1.00  0.00    -0.136 C  
HETATM    2  C   UNL     1     -10.593   5.768  72.659  1.00  0.00    -0.223 C  
ENDROOT
BRANCH   2   3
HETATM    3  O   UNL     1      -9.991   6.328  71.485  1.00  0.00    -0.183 OA 
BRANCH   3   4
HETATM    4  C   UNL     1     -10.508   7.520  71.068  1.00  0.00    -0.215 C  
HETATM    5  O   UNL     1     -10.873   8.431  71.806  1.00  0.00    -0.245 OA 
BRANCH   4   6
HETATM    6  C   UNL     1     -10.543   7.576  69.531  1.00  0.00    -0.236 C  
BRANCH   6   7
HETATM    7  C   UNL     1     -10.895   6.193  68.973  1.00  0.00    -0.416 C  
BRANCH   7   8
HETATM    8  C   UNL     1      -9.657   5.322  68.723  1.00  0.00    -0.187 C  
BRANCH   8   9
HETATM    9  C   UNL     1      -9.538   5.011  67.252  1.00  0.00    -0.164 A  
HETATM   10  C   UNL     1      -9.316   4.234  64.572  1.00  0.00    -0.160 A  
HETATM   11  C   UNL     1     -10.572   4.330  65.167  1.00  0.00    -0.169 A  
HETATM   12  C   UNL     1     -10.684   4.717  66.503  1.00  0.00     0.001 A  
HETATM   13  C   UNL     1      -8.171   4.537  65.306  1.00  0.00    -0.112 A  
HETATM   14  C   UNL     1      -8.280   4.926  66.642  1.00  0.00    -0.107 A  
ENDBRANCH   8   9
ENDBRANCH   7   8
ENDBRANCH   6   7
BRANCH   6  15
HETATM   15  N   UNL     1      -9.234   8.083  69.075  1.00  0.00    -0.148 NA 
HETATM   16  H   UNL     1      -8.398   7.503  69.145  1.00  0.00     0.000 HD 
BRANCH  15  17
HETATM   17  C   UNL     1      -9.161   9.460  68.511  1.00  0.00    -0.131 C  
HETATM   18  O   UNL     1     -10.193   8.339  66.642  1.00  0.00    -0.290 OA 
HETATM   19  C   UNL     1      -7.806  10.044  68.892  1.00  0.00    -0.095 C  
HETATM   20  O   UNL     1      -9.091  10.306  62.336  1.00  0.00    -0.236 OA 
HETATM   21  O   UNL     1      -7.481  10.439  63.911  1.00  0.00    -0.110 OA 
HETATM   22  C   UNL     1      -7.650  11.519  68.574  1.00  0.00    -0.130 C  
HETATM   23  C   UNL     1      -9.485   9.301  66.984  1.00  0.00    -0.159 C  
HETATM   24  C   UNL     1      -7.422  11.726  67.097  1.00  0.00    -0.149 C  
HETATM   25  N   UNL     1      -8.606  11.533  66.288  1.00  0.00    -0.166 NA 
HETATM   26  C   UNL     1      -8.771  10.305  63.517  1.00  0.00    -0.206 C  
HETATM   27  C   UNL     1      -9.649  12.552  66.365  1.00  0.00    -0.247 C  
HETATM   28  N   UNL     1      -9.094  10.239  66.021  1.00  0.00    -0.156 N  
HETATM   29  C   UNL     1     -10.406  12.581  65.031  1.00  0.00    -0.323 C  
HETATM   30  C   UNL     1      -9.759  10.147  64.681  1.00  0.00    -0.309 C  
HETATM   31  C   UNL     1     -10.891  11.188  64.613  1.00  0.00    -0.295 C  
ENDBRANCH  15  17
ENDBRANCH   6  15
ENDBRANCH   4   6
ENDBRANCH   3   4
ENDBRANCH   2   3
TORSDOF 8
ENDMDL
MODEL      227
REMARK 921   NORMALIZED FREE ENERGY PREDICTED BY IDOCK:   -3.46 KCAL/MOL
REMARK 922        TOTAL FREE ENERGY PREDICTED BY IDOCK:   -6.29 KCAL/MOL
REMARK 923 INTER-LIGAND FREE ENERGY PREDICTED BY IDOCK:   -4.87 KCAL/MOL
REMARK 924 INTRA-LIGAND FREE ENERGY PREDICTED BY IDOCK:   -1.42 KCAL/MOL
REMARK 927      BINDING AFFINITY PREDICTED BY RF-SCORE:    0.00 PKD
ROOT
HETATM    1  C   UNL     1      -9.309   6.781  67.535  1.00  0.00    -0.129 C  
HETATM    2  C   UNL     1      -9.676   8.194  67.946  1.00  0.00    -0.161 C  
ENDROOT
BRANCH   2   3
HETATM    3  O   UNL     1      -9.667   8.307  69.375  1.00  0.00    -0.173 OA 
BRANCH   3   4
HETATM    4  C   UNL     1      -9.143   9.464  69.872  1.00  0.00    -0.204 C  
HETATM    5  O   UNL     1      -8.958   9.706  71.061  1.00  0.00    -0.197 OA 
BRANCH   4   6
HETATM    6  C   UNL     1      -8.785  10.422  68.721  1.00  0.00    -0.146 C  
BRANCH   6   7
HETATM    7  C   UNL     1      -7.262  10.489  68.562  1.00  0.00    -0.085 C  
BRANCH   7   8
HETATM    8  C   UNL     1      -6.825  10.627  67.098  1.00  0.00    -0.083 C  
BRANCH   8   9
HETATM    9  C   UNL     1      -6.576   9.262  66.507  1.00  0.00    -0.067 A  
HETATM   10  C   UNL     1      -5.947   6.805  65.322  1.00  0.00    -0.035 A  
HETATM   11  C   UNL     1      -5.402   7.141  66.559  1.00  0.00    -0.023 A  
HETATM   12  C   UNL     1      -5.715   8.365  67.151  1.00  0.00    -0.039 A  
HETATM   13  C   UNL     1      -6.816   7.686  64.679  1.00  0.00    -0.051 A  
HETATM   14  C   UNL     1      -7.132   8.910  65.270  1.00  0.00    -0.080 A  
ENDBRANCH   8   9
ENDBRANCH   7   8
ENDBRANCH   6   7
BRANCH   6  15
HETATM   15  N   UNL     1      -9.407  11.726  69.020  1.00  0.00    -0.401 NA 
HETATM   16  H   UNL     1      -9.574  12.016  69.984  1.00  0.00     0.000 HD 
BRANCH  15  17
HETATM   17  C   UNL     1      -9.786  12.612  67.882  1.00  0.00    -0.218 C  
HETATM   18  O   UNL     1      -8.448  14.170  69.145  1.00  0.00     0.025 OA 
HETATM   19  C   UNL     1     -11.255  12.355  67.567  1.00  0.00    -0.348 C  
HETATM   20  O   UNL     1      -9.827  18.801  68.620  1.00  0.00    -0.358 OA 
HETATM   21  O   UNL     1     -11.479  17.270  68.495  1.00  0.00     0.133 OA 
HETATM   22  C   UNL     1     -11.747  13.023  66.297  1.00  0.00    -0.440 C  
HETATM   23  C   UNL     1      -9.377  14.059  68.328  1.00  0.00    -0.208 C  
HETATM   24  C   UNL     1     -11.963  14.500  66.520  1.00  0.00    -0.340 C  
HETATM   25  N   UNL     1     -10.737  15.263  66.615  1.00  0.00    -0.306 NA 
HETATM   26  C   UNL     1     -10.181  17.649  68.407  1.00  0.00    -0.381 C  
HETATM   27  C   UNL     1      -9.971  15.465  65.388  1.00  0.00    -0.321 C  
HETATM   28  N   UNL     1      -9.945  15.214  67.777  1.00  0.00    -0.224 N  
HETATM   29  C   UNL     1      -9.195  16.783  65.505  1.00  0.00     0.471 C  
HETATM   30  C   UNL     1      -9.228  16.505  68.032  1.00  0.00    -0.214 C  
HETATM   31  C   UNL     1      -8.376  16.855  66.799  1.00  0.00    -0.269 C  
ENDBRANCH  15  17
ENDBRANCH   6  15
ENDBRANCH   4   6
ENDBRANCH   3   4
ENDBRANCH   2   3
TORSDOF 8
ENDMDL
MODEL      228
REMARK 921   NORMALIZED FREE ENERGY PREDICTED BY IDOCK:   -3.43 KCAL/MOL
REMARK 922        TOTAL FREE ENERGY PREDICTED BY IDOCK:   -6.25 KCAL/MOL
REMARK 923 INTER-LIGAND FREE ENERGY PREDICTED BY IDOCK:   -5.56 KCAL/MOL
REMARK 924 INTRA-LIGAND FREE ENERGY PREDICTED BY IDOCK:   -0.69 KCAL/MOL
REMARK 927      BINDING AFFINITY PREDICTED BY RF-SCORE:    0.00 PKD
ROOT
HETATM    1  C   UNL     1      -5.168   9.638  74.133  1.00  0.00    -0.098 C  
HETATM    2  C   UNL     1      -5.426   9.140  72.724  1.00  0.00    -0.073 C  
ENDROOT
BRANCH   2   3
HETATM    3  O   UNL     1      -6.420   8.107  72.743  1.00  0.00    -0.071 OA 
BRANCH   3   4
HETATM    4  C   UNL     1      -7.706   8.523  72.564  1.00  0.00    -0.030 C  
HETATM    5  O   UNL     1      -8.528   8.693  73.459  1.00  0.00    -0.370 OA 
BRANCH   4   6
HETATM    6  C   UNL     1      -7.977   8.783  71.071  1.00  0.00    -0.144 C  
BRANCH   6   7
HETATM    7  C   UNL     1      -9.485   8.937  70.841  1.00  0.00    -0.295 C  
BRANCH   7   8
HETATM    8  C   UNL     1     -10.269   7.661  71.174  1.00  0.00    -0.207 C  
BRANCH   8   9
HETATM    9  C   UNL     1     -11.700   8.010  71.499  1.00  0.00    -0.321 A  
HETATM   10  C   UNL     1     -14.383   8.701  71.904  1.00  0.00    -0.492 A  
HETATM   11  C   UNL     1     -14.046   7.399  71.540  1.00  0.00    -0.541 A  
HETATM   12  C   UNL     1     -12.710   7.053  71.338  1.00  0.00    -0.421 A  
HETATM   13  C   UNL     1     -13.384   9.657  72.079  1.00  0.00    -0.547 A  
HETATM   14  C   UNL     1     -12.046   9.313  71.880  1.00  0.00    -0.440 A  
ENDBRANCH   8   9
ENDBRANCH   7   8
ENDBRANCH   6   7
BRANCH   6  15
HETATM   15  N   UNL     1      -7.373   7.672  70.311  1.00  0.00    -0.070 NA 
HETATM   16  H   UNL     1      -6.624   7.110  70.715  1.00  0.00     0.000 HD 
BRANCH  15  17
HETATM   17  C   UNL     1      -7.882   7.389  68.938  1.00  0.00    -0.117 C  
HETATM   18  O   UNL     1      -7.835   5.136  69.797  1.00  0.00    -0.070 OA 
HETATM   19  C   UNL     1      -7.097   8.261  67.966  1.00  0.00    -0.086 C  
HETATM   20  O   UNL     1      -7.031   1.764  66.391  1.00  0.00    -0.041 OA 
HETATM   21  O   UNL     1      -6.042   3.762  66.040  1.00  0.00    -0.026 OA 
HETATM   22  C   UNL     1      -7.632   8.251  66.547  1.00  0.00    -0.092 C  
HETATM   23  C   UNL     1      -7.778   5.833  68.770  1.00  0.00    -0.090 C  
HETATM   24  C   UNL     1      -7.252   6.972  65.842  1.00  0.00    -0.074 C  
HETATM   25  N   UNL     1      -8.001   5.815  66.283  1.00  0.00    -0.101 NA 
HETATM   26  C   UNL     1      -6.991   2.970  66.597  1.00  0.00    -0.053 C  
HETATM   27  C   UNL     1      -9.403   5.728  65.885  1.00  0.00    -0.077 C  
HETATM   28  N   UNL     1      -7.723   5.204  67.520  1.00  0.00    -0.091 N  
HETATM   29  C   UNL     1      -9.797   4.247  65.798  1.00  0.00    -0.228 C  
HETATM   30  C   UNL     1      -7.978   3.727  67.496  1.00  0.00    -0.089 C  
HETATM   31  C   UNL     1      -9.437   3.480  67.075  1.00  0.00    -0.207 C  
ENDBRANCH  15  17
ENDBRANCH   6  15
ENDBRANCH   4   6
ENDBRANCH   3   4
ENDBRANCH   2   3
TORSDOF 8
ENDMDL
MODEL      229
REMARK 921   NORMALIZED FREE ENERGY PREDICTED BY IDOCK:   -3.38 KCAL/MOL
REMARK 922        TOTAL FREE ENERGY PREDICTED BY IDOCK:   -6.17 KCAL/MOL
REMARK 923 INTER-LIGAND FREE ENERGY PREDICTED BY IDOCK:   -5.01 KCAL/MOL
REMARK 924 INTRA-LIGAND FREE ENERGY PREDICTED BY IDOCK:   -1.16 KCAL/MOL
REMARK 927      BINDING AFFINITY PREDICTED BY RF-SCORE:    0.00 PKD
ROOT
HETATM    1  C   UNL     1      -6.923   2.448  65.867  1.00  0.00    -0.048 C  
HETATM    2  C   UNL     1      -7.490   3.854  65.919  1.00  0.00    -0.081 C  
ENDROOT
BRANCH   2   3
HETATM    3  O   UNL     1      -8.015   4.123  67.226  1.00  0.00    -0.094 OA 
BRANCH   3   4
HETATM    4  C   UNL     1      -9.216   4.769  67.258  1.00  0.00    -0.128 C  
HETATM    5  O   UNL     1     -10.267   4.335  66.796  1.00  0.00    -0.167 OA 
BRANCH   4   6
HETATM    6  C   UNL     1      -9.075   6.117  67.987  1.00  0.00    -0.114 C  
BRANCH   6   7
HETATM    7  C   UNL     1     -10.131   6.218  69.092  1.00  0.00    -0.204 C  
BRANCH   7   8
HETATM    8  C   UNL     1      -9.720   5.484  70.374  1.00  0.00    -0.242 C  
BRANCH   8   9
HETATM    9  C   UNL     1      -9.195   6.473  71.385  1.00  0.00    -0.148 A  
HETATM   10  C   UNL     1      -8.193   8.152  73.388  1.00  0.00    -0.267 A  
HETATM   11  C   UNL     1      -7.319   7.532  72.498  1.00  0.00    -0.081 A  
HETATM   12  C   UNL     1      -7.817   6.695  71.499  1.00  0.00    -0.099 A  
HETATM   13  C   UNL     1      -9.567   7.948  73.274  1.00  0.00    -0.351 A  
HETATM   14  C   UNL     1     -10.068   7.112  72.275  1.00  0.00    -0.202 A  
ENDBRANCH   8   9
ENDBRANCH   7   8
ENDBRANCH   6   7
BRANCH   6  15
HETATM   15  N   UNL     1      -9.176   7.183  66.972  1.00  0.00    -0.139 NA 
HETATM   16  H   UNL     1      -9.583   6.994  66.055  1.00  0.00     0.000 HD 
BRANCH  15  17
HETATM   17  C   UNL     1      -8.671   8.543  67.314  1.00  0.00    -0.130 C  
HETATM   18  O   UNL     1     -11.028   9.036  67.183  1.00  0.00    -0.119 OA 
HETATM   19  C   UNL     1      -7.403   8.783  66.503  1.00  0.00    -0.081 C  
HETATM   20  O   UNL     1     -11.995  13.588  65.779  1.00  0.00    -0.360 OA 
HETATM   21  O   UNL     1     -10.120  12.677  64.916  1.00  0.00    -0.277 OA 
HETATM   22  C   UNL     1      -6.644  10.038  66.888  1.00  0.00    -0.071 C  
HETATM   23  C   UNL     1      -9.884   9.509  67.075  1.00  0.00    -0.190 C  
HETATM   24  C   UNL     1      -7.330  11.266  66.341  1.00  0.00    -0.058 C  
HETATM   25  N   UNL     1      -8.546  11.618  67.041  1.00  0.00    -0.163 NA 
HETATM   26  C   UNL     1     -11.095  12.762  65.854  1.00  0.00    -0.287 C  
HETATM   27  C   UNL     1      -8.415  12.175  68.384  1.00  0.00    -0.145 C  
HETATM   28  N   UNL     1      -9.730  10.881  66.844  1.00  0.00    -0.178 N  
HETATM   29  C   UNL     1      -9.613  13.095  68.652  1.00  0.00    -0.034 C  
HETATM   30  C   UNL     1     -10.958  11.730  66.982  1.00  0.00    -0.285 C  
HETATM   31  C   UNL     1     -10.949  12.400  68.367  1.00  0.00    -0.272 C  
ENDBRANCH  15  17
ENDBRANCH   6  15
ENDBRANCH   4   6
ENDBRANCH   3   4
ENDBRANCH   2   3
TORSDOF 8
ENDMDL
MODEL      230
REMARK 921   NORMALIZED FREE ENERGY PREDICTED BY IDOCK:   -3.35 KCAL/MOL
REMARK 922        TOTAL FREE ENERGY PREDICTED BY IDOCK:   -6.13 KCAL/MOL
REMARK 923 INTER-LIGAND FREE ENERGY PREDICTED BY IDOCK:   -5.65 KCAL/MOL
REMARK 924 INTRA-LIGAND FREE ENERGY PREDICTED BY IDOCK:   -0.48 KCAL/MOL
REMARK 927      BINDING AFFINITY PREDICTED BY RF-SCORE:    0.00 PKD
ROOT
HETATM    1  C   UNL     1     -11.289   6.446  69.011  1.00  0.00    -0.332 C  
HETATM    2  C   UNL     1     -11.152   6.192  67.522  1.00  0.00    -0.215 C  
ENDROOT
BRANCH   2   3
HETATM    3  O   UNL     1     -10.593   7.343  66.877  1.00  0.00    -0.326 OA 
BRANCH   3   4
HETATM    4  C   UNL     1      -9.231   7.373  66.801  1.00  0.00    -0.156 C  
HETATM    5  O   UNL     1      -8.499   6.388  66.795  1.00  0.00    -0.109 OA 
BRANCH   4   6
HETATM    6  C   UNL     1      -8.737   8.826  66.692  1.00  0.00    -0.125 C  
BRANCH   6   7
HETATM    7  C   UNL     1      -7.398   8.860  65.947  1.00  0.00    -0.093 C  
BRANCH   7   8
HETATM    8  C   UNL     1      -7.568   8.821  64.422  1.00  0.00    -0.116 C  
BRANCH   8   9
HETATM    9  C   UNL     1      -7.089   7.494  63.888  1.00  0.00    -0.062 A  
HETATM   10  C   UNL     1      -6.330   4.941  63.028  1.00  0.00    -0.026 A  
HETATM   11  C   UNL     1      -7.426   5.574  62.446  1.00  0.00    -0.052 A  
HETATM   12  C   UNL     1      -7.805   6.846  62.874  1.00  0.00    -0.111 A  
HETATM   13  C   UNL     1      -5.603   5.583  64.029  1.00  0.00    -0.014 A  
HETATM   14  C   UNL     1      -5.979   6.857  64.458  1.00  0.00    -0.036 A  
ENDBRANCH   8   9
ENDBRANCH   7   8
ENDBRANCH   6   7
BRANCH   6  15
HETATM   15  N   UNL     1      -8.667   9.375  68.060  1.00  0.00    -0.124 NA 
HETATM   16  H   UNL     1      -8.569   8.757  68.866  1.00  0.00     0.000 HD 
BRANCH  15  17
HETATM   17  C   UNL     1      -8.742  10.853  68.239  1.00  0.00    -0.140 C  
HETATM   18  O   UNL     1     -10.986  10.452  67.450  1.00  0.00    -0.294 OA 
HETATM   19  C   UNL     1      -7.436  11.448  67.727  1.00  0.00    -0.100 C  
HETATM   20  O   UNL     1     -12.885  14.187  64.987  1.00  0.00    -0.687 OA 
HETATM   21  O   UNL     1     -10.652  13.927  64.797  1.00  0.00    -0.391 OA 
HETATM   22  C   UNL     1      -7.262  12.924  68.029  1.00  0.00    -0.115 C  
HETATM   23  C   UNL     1     -10.071  11.290  67.530  1.00  0.00    -0.183 C  
HETATM   24  C   UNL     1      -8.108  13.762  67.102  1.00  0.00    -0.075 C  
HETATM   25  N   UNL     1      -9.522  13.723  67.404  1.00  0.00    -0.216 NA 
HETATM   26  C   UNL     1     -11.834  13.750  65.437  1.00  0.00    -0.358 C  
HETATM   27  C   UNL     1      -9.975  14.423  68.603  1.00  0.00    -0.241 C  
HETATM   28  N   UNL     1     -10.299  12.595  67.078  1.00  0.00    -0.232 N  
HETATM   29  C   UNL     1     -11.426  14.875  68.389  1.00  0.00    -0.338 C  
HETATM   30  C   UNL     1     -11.715  12.957  66.746  1.00  0.00    -0.383 C  
HETATM   31  C   UNL     1     -12.327  13.721  67.933  1.00  0.00    -0.006 C  
ENDBRANCH  15  17
ENDBRANCH   6  15
ENDBRANCH   4   6
ENDBRANCH   3   4
ENDBRANCH   2   3
TORSDOF 8
ENDMDL
MODEL      231
REMARK 921   NORMALIZED FREE ENERGY PREDICTED BY IDOCK:   -3.35 KCAL/MOL
REMARK 922        TOTAL FREE ENERGY PREDICTED BY IDOCK:   -6.13 KCAL/MOL
REMARK 923 INTER-LIGAND FREE ENERGY PREDICTED BY IDOCK:   -4.93 KCAL/MOL
REMARK 924 INTRA-LIGAND FREE ENERGY PREDICTED BY IDOCK:   -1.20 KCAL/MOL
REMARK 927      BINDING AFFINITY PREDICTED BY RF-SCORE:    0.00 PKD
ROOT
HETATM    1  C   UNL     1      -6.225  14.878  70.228  1.00  0.00    -0.152 C  
HETATM    2  C   UNL     1      -7.486  14.722  69.401  1.00  0.00    -0.147 C  
ENDROOT
BRANCH   2   3
HETATM    3  O   UNL     1      -7.608  13.369  68.942  1.00  0.00    -0.084 OA 
BRANCH   3   4
HETATM    4  C   UNL     1      -8.381  13.189  67.833  1.00  0.00    -0.170 C  
HETATM    5  O   UNL     1      -8.190  13.719  66.742  1.00  0.00    -0.023 OA 
BRANCH   4   6
HETATM    6  C   UNL     1      -9.519  12.198  68.133  1.00  0.00    -0.205 C  
BRANCH   6   7
HETATM    7  C   UNL     1     -10.713  12.950  68.729  1.00  0.00    -0.249 C  
BRANCH   7   8
HETATM    8  C   UNL     1     -11.803  13.250  67.692  1.00  0.00    -0.400 C  
BRANCH   8   9
HETATM    9  C   UNL     1     -11.465  14.516  66.945  1.00  0.00    -0.375 A  
HETATM   10  C   UNL     1     -10.644  16.796  65.544  1.00  0.00    -0.243 A  
HETATM   11  C   UNL     1     -11.077  15.670  64.848  1.00  0.00    -0.414 A  
HETATM   12  C   UNL     1     -11.486  14.533  65.545  1.00  0.00    -0.343 A  
HETATM   13  C   UNL     1     -10.631  16.794  66.937  1.00  0.00    -0.219 A  
HETATM   14  C   UNL     1     -11.042  15.659  67.638  1.00  0.00    -0.305 A  
ENDBRANCH   8   9
ENDBRANCH   7   8
ENDBRANCH   6   7
BRANCH   6  15
HETATM   15  N   UNL     1      -8.974  11.153  69.021  1.00  0.00    -0.370 NA 
HETATM   16  H   UNL     1      -8.439  11.402  69.853  1.00  0.00     0.000 HD 
BRANCH  15  17
HETATM   17  C   UNL     1      -9.223   9.724  68.676  1.00  0.00    -0.137 C  
HETATM   18  O   UNL     1      -6.841   9.792  68.310  1.00  0.00    -0.067 OA 
HETATM   19  C   UNL     1     -10.508   9.664  67.857  1.00  0.00    -0.296 C  
HETATM   20  O   UNL     1      -5.301   6.693  64.897  1.00  0.00    -0.024 OA 
HETATM   21  O   UNL     1      -7.369   7.540  64.585  1.00  0.00    -0.068 OA 
HETATM   22  C   UNL     1     -11.019   8.259  67.601  1.00  0.00     0.088 C  
HETATM   23  C   UNL     1      -7.901   9.224  67.997  1.00  0.00    -0.092 C  
HETATM   24  C   UNL     1     -10.202   7.580  66.530  1.00  0.00    -0.095 C  
HETATM   25  N   UNL     1      -8.885   7.172  66.969  1.00  0.00    -0.121 NA 
HETATM   26  C   UNL     1      -6.310   7.207  65.363  1.00  0.00    -0.037 C  
HETATM   27  C   UNL     1      -8.800   6.037  67.884  1.00  0.00    -0.110 C  
HETATM   28  N   UNL     1      -7.856   8.118  67.140  1.00  0.00    -0.100 N  
HETATM   29  C   UNL     1      -7.452   5.336  67.673  1.00  0.00    -0.083 C  
HETATM   30  C   UNL     1      -6.502   7.545  66.847  1.00  0.00    -0.056 C  
HETATM   31  C   UNL     1      -6.275   6.316  67.745  1.00  0.00    -0.032 C  
ENDBRANCH  15  17
ENDBRANCH   6  15
ENDBRANCH   4   6
ENDBRANCH   3   4
ENDBRANCH   2   3
TORSDOF 8
ENDMDL
MODEL      232
REMARK 921   NORMALIZED FREE ENERGY PREDICTED BY IDOCK:   -3.33 KCAL/MOL
REMARK 922        TOTAL FREE ENERGY PREDICTED BY IDOCK:   -6.10 KCAL/MOL
REMARK 923 INTER-LIGAND FREE ENERGY PREDICTED BY IDOCK:   -5.76 KCAL/MOL
REMARK 924 INTRA-LIGAND FREE ENERGY PREDICTED BY IDOCK:   -0.34 KCAL/MOL
REMARK 927      BINDING AFFINITY PREDICTED BY RF-SCORE:    0.00 PKD
ROOT
HETATM    1  C   UNL     1      -8.221  18.997  67.295  1.00  0.00    -0.294 C  
HETATM    2  C   UNL     1      -8.752  18.109  66.187  1.00  0.00    -0.090 C  
ENDROOT
BRANCH   2   3
HETATM    3  O   UNL     1      -9.900  17.383  66.648  1.00  0.00    -0.271 OA 
BRANCH   3   4
HETATM    4  C   UNL     1     -10.271  17.625  67.938  1.00  0.00    -0.357 C  
HETATM    5  O   UNL     1     -10.417  18.738  68.437  1.00  0.00    -0.333 OA 
BRANCH   4   6
HETATM    6  C   UNL     1     -10.513  16.299  68.679  1.00  0.00    -0.282 C  
BRANCH   6   7
HETATM    7  C   UNL     1      -9.298  15.967  69.552  1.00  0.00    -0.146 C  
BRANCH   7   8
HETATM    8  C   UNL     1      -7.997  15.872  68.744  1.00  0.00    -0.188 C  
BRANCH   8   9
HETATM    9  C   UNL     1      -7.106  14.807  69.334  1.00  0.00    -0.170 A  
HETATM   10  C   UNL     1      -5.615  12.763  70.533  1.00  0.00    -0.173 A  
HETATM   11  C   UNL     1      -6.311  12.516  69.351  1.00  0.00    -0.114 A  
HETATM   12  C   UNL     1      -7.054  13.534  68.753  1.00  0.00    -0.103 A  
HETATM   13  C   UNL     1      -5.650  14.030  71.112  1.00  0.00    -0.212 A  
HETATM   14  C   UNL     1      -6.391  15.051  70.514  1.00  0.00    -0.012 A  
ENDBRANCH   8   9
ENDBRANCH   7   8
ENDBRANCH   6   7
BRANCH   6  15
HETATM   15  N   UNL     1     -10.811  15.271  67.664  1.00  0.00    -0.287 NA 
HETATM   16  H   UNL     1     -11.183  15.533  66.750  1.00  0.00     0.000 HD 
BRANCH  15  17
HETATM   17  C   UNL     1     -10.558  13.841  68.001  1.00  0.00    -0.252 C  
HETATM   18  O   UNL     1      -9.076  14.053  66.110  1.00  0.00    -0.106 OA 
HETATM   19  C   UNL     1     -11.899  13.202  68.341  1.00  0.00    -0.386 C  
HETATM   20  O   UNL     1      -8.483   9.918  63.625  1.00  0.00    -0.151 OA 
HETATM   21  O   UNL     1     -10.504  10.198  64.586  1.00  0.00    -0.078 OA 
HETATM   22  C   UNL     1     -11.795  11.801  68.911  1.00  0.00    -0.381 C  
HETATM   23  C   UNL     1      -9.761  13.262  66.781  1.00  0.00    -0.258 C  
HETATM   24  C   UNL     1     -11.497  10.801  67.821  1.00  0.00    -0.202 C  
HETATM   25  N   UNL     1     -10.135  10.855  67.334  1.00  0.00    -0.186 NA 
HETATM   26  C   UNL     1      -9.176  10.448  64.483  1.00  0.00    -0.246 C  
HETATM   27  C   UNL     1      -9.083  10.352  68.212  1.00  0.00    -0.145 C  
HETATM   28  N   UNL     1      -9.715  11.895  66.482  1.00  0.00    -0.205 N  
HETATM   29  C   UNL     1      -7.926   9.836  67.347  1.00  0.00    -0.102 C  
HETATM   30  C   UNL     1      -8.653  11.449  65.522  1.00  0.00     0.100 C  
HETATM   31  C   UNL     1      -7.468  10.876  66.318  1.00  0.00    -0.129 C  
ENDBRANCH  15  17
ENDBRANCH   6  15
ENDBRANCH   4   6
ENDBRANCH   3   4
ENDBRANCH   2   3
TORSDOF 8
ENDMDL
MODEL      233
REMARK 921   NORMALIZED FREE ENERGY PREDICTED BY IDOCK:   -3.29 KCAL/MOL
REMARK 922        TOTAL FREE ENERGY PREDICTED BY IDOCK:   -6.03 KCAL/MOL
REMARK 923 INTER-LIGAND FREE ENERGY PREDICTED BY IDOCK:   -5.48 KCAL/MOL
REMARK 924 INTRA-LIGAND FREE ENERGY PREDICTED BY IDOCK:   -0.56 KCAL/MOL
REMARK 927      BINDING AFFINITY PREDICTED BY RF-SCORE:    0.00 PKD
ROOT
HETATM    1  C   UNL     1      -9.031   4.354  64.998  1.00  0.00    -0.145 C  
HETATM    2  C   UNL     1     -10.301   4.495  65.815  1.00  0.00    -0.258 C  
ENDROOT
BRANCH   2   3
HETATM    3  O   UNL     1     -10.243   5.686  66.610  1.00  0.00    -0.188 OA 
BRANCH   3   4
HETATM    4  C   UNL     1      -9.071   6.381  66.546  1.00  0.00    -0.151 C  
HETATM    5  O   UNL     1      -8.609   6.899  65.533  1.00  0.00    -0.142 OA 
BRANCH   4   6
HETATM    6  C   UNL     1      -8.419   6.454  67.937  1.00  0.00    -0.118 C  
BRANCH   6   7
HETATM    7  C   UNL     1      -9.286   5.702  68.953  1.00  0.00    -0.136 C  
BRANCH   7   8
HETATM    8  C   UNL     1      -8.471   5.132  70.121  1.00  0.00    -0.102 C  
BRANCH   8   9
HETATM    9  C   UNL     1      -9.166   5.436  71.425  1.00  0.00    -0.171 A  
HETATM   10  C   UNL     1     -10.446   6.200  73.795  1.00  0.00    -0.295 A  
HETATM   11  C   UNL     1     -11.194   5.975  72.641  1.00  0.00    -0.326 A  
HETATM   12  C   UNL     1     -10.557   5.594  71.460  1.00  0.00    -0.306 A  
HETATM   13  C   UNL     1      -9.063   6.034  73.774  1.00  0.00    -0.127 A  
HETATM   14  C   UNL     1      -8.423   5.651  72.594  1.00  0.00    -0.120 A  
ENDBRANCH   8   9
ENDBRANCH   7   8
ENDBRANCH   6   7
BRANCH   6  15
HETATM   15  N   UNL     1      -8.226   7.879  68.264  1.00  0.00    -0.123 NA 
HETATM   16  H   UNL     1      -7.303   8.238  68.511  1.00  0.00     0.000 HD 
BRANCH  15  17
HETATM   17  C   UNL     1      -9.410   8.785  68.225  1.00  0.00    -0.137 C  
HETATM   18  O   UNL     1      -7.976   9.968  66.688  1.00  0.00    -0.112 OA 
HETATM   19  C   UNL     1      -9.928   8.929  69.651  1.00  0.00    -0.193 C  
HETATM   20  O   UNL     1      -8.710  14.773  66.640  1.00  0.00    -0.249 OA 
HETATM   21  O   UNL     1      -9.060  13.751  68.621  1.00  0.00    -0.163 OA 
HETATM   22  C   UNL     1     -11.257   9.651  69.762  1.00  0.00    -0.208 C  
HETATM   23  C   UNL     1      -8.916  10.082  67.493  1.00  0.00    -0.134 C  
HETATM   24  C   UNL     1     -11.073  11.138  69.586  1.00  0.00    -0.232 C  
HETATM   25  N   UNL     1     -10.809  11.539  68.221  1.00  0.00    -0.202 NA 
HETATM   26  C   UNL     1      -8.966  13.754  67.269  1.00  0.00    -0.224 C  
HETATM   27  C   UNL     1     -11.916  11.469  67.271  1.00  0.00     0.236 C  
HETATM   28  N   UNL     1      -9.546  11.324  67.637  1.00  0.00    -0.169 N  
HETATM   29  C   UNL     1     -11.695  12.527  66.181  1.00  0.00    -0.466 C  
HETATM   30  C   UNL     1      -9.198  12.378  66.630  1.00  0.00    -0.218 C  
HETATM   31  C   UNL     1     -10.299  12.427  65.557  1.00  0.00    -0.298 C  
ENDBRANCH  15  17
ENDBRANCH   6  15
ENDBRANCH   4   6
ENDBRANCH   3   4
ENDBRANCH   2   3
TORSDOF 8
ENDMDL
MODEL      234
REMARK 921   NORMALIZED FREE ENERGY PREDICTED BY IDOCK:   -3.26 KCAL/MOL
REMARK 922        TOTAL FREE ENERGY PREDICTED BY IDOCK:   -5.99 KCAL/MOL
REMARK 923 INTER-LIGAND FREE ENERGY PREDICTED BY IDOCK:   -5.49 KCAL/MOL
REMARK 924 INTRA-LIGAND FREE ENERGY PREDICTED BY IDOCK:   -0.50 KCAL/MOL
REMARK 927      BINDING AFFINITY PREDICTED BY RF-SCORE:    0.00 PKD
ROOT
HETATM    1  C   UNL     1      -5.161   6.982  72.703  1.00  0.00    -0.037 C  
HETATM    2  C   UNL     1      -5.847   8.060  71.885  1.00  0.00    -0.036 C  
ENDROOT
BRANCH   2   3
HETATM    3  O   UNL     1      -7.199   7.675  71.603  1.00  0.00    -0.061 OA 
BRANCH   3   4
HETATM    4  C   UNL     1      -8.156   8.291  72.354  1.00  0.00    -0.147 C  
HETATM    5  O   UNL     1      -8.091   8.486  73.565  1.00  0.00    -0.378 OA 
BRANCH   4   6
HETATM    6  C   UNL     1      -9.327   8.738  71.461  1.00  0.00    -0.267 C  
BRANCH   6   7
HETATM    7  C   UNL     1     -10.540   7.837  71.714  1.00  0.00    -0.260 C  
BRANCH   7   8
HETATM    8  C   UNL     1     -10.156   6.364  71.904  1.00  0.00    -0.204 C  
BRANCH   8   9
HETATM    9  C   UNL     1      -9.963   5.707  70.559  1.00  0.00    -0.265 A  
HETATM   10  C   UNL     1      -9.465   4.633  68.023  1.00  0.00    -0.191 A  
HETATM   11  C   UNL     1      -8.688   4.239  69.110  1.00  0.00    -0.120 A  
HETATM   12  C   UNL     1      -8.936   4.774  70.375  1.00  0.00    -0.147 A  
HETATM   13  C   UNL     1     -10.498   5.551  68.199  1.00  0.00    -0.231 A  
HETATM   14  C   UNL     1     -10.749   6.086  69.463  1.00  0.00    -0.405 A  
ENDBRANCH   8   9
ENDBRANCH   7   8
ENDBRANCH   6   7
BRANCH   6  15
HETATM   15  N   UNL     1      -8.853   8.716  70.064  1.00  0.00    -0.138 NA 
HETATM   16  H   UNL     1      -8.997   7.893  69.478  1.00  0.00     0.000 HD 
BRANCH  15  17
HETATM   17  C   UNL     1      -8.160   9.921  69.528  1.00  0.00    -0.152 C  
HETATM   18  O   UNL     1     -10.437  10.708  69.406  1.00  0.00    -0.219 OA 
HETATM   19  C   UNL     1      -7.061   9.442  68.587  1.00  0.00    -0.070 C  
HETATM   20  O   UNL     1     -11.214  13.886  65.812  1.00  0.00    -0.299 OA 
HETATM   21  O   UNL     1      -9.647  12.316  65.405  1.00  0.00    -0.186 OA 
HETATM   22  C   UNL     1      -6.122  10.535  68.115  1.00  0.00    -0.043 C  
HETATM   23  C   UNL     1      -9.296  10.820  68.926  1.00  0.00    -0.175 C  
HETATM   24  C   UNL     1      -6.780  11.384  67.055  1.00  0.00    -0.131 C  
HETATM   25  N   UNL     1      -7.793  12.280  67.568  1.00  0.00    -0.155 NA 
HETATM   26  C   UNL     1     -10.403  13.074  66.236  1.00  0.00    -0.285 C  
HETATM   27  C   UNL     1      -7.344  13.433  68.344  1.00  0.00    -0.112 C  
HETATM   28  N   UNL     1      -9.058  11.796  67.951  1.00  0.00    -0.174 N  
HETATM   29  C   UNL     1      -8.369  14.563  68.182  1.00  0.00    -0.147 C  
HETATM   30  C   UNL     1     -10.145  12.803  67.724  1.00  0.00    -0.224 C  
HETATM   31  C   UNL     1      -9.797  14.094  68.486  1.00  0.00    -0.230 C  
ENDBRANCH  15  17
ENDBRANCH   6  15
ENDBRANCH   4   6
ENDBRANCH   3   4
ENDBRANCH   2   3
TORSDOF 8
ENDMDL
MODEL      235
REMARK 921   NORMALIZED FREE ENERGY PREDICTED BY IDOCK:   -3.24 KCAL/MOL
REMARK 922        TOTAL FREE ENERGY PREDICTED BY IDOCK:   -5.96 KCAL/MOL
REMARK 923 INTER-LIGAND FREE ENERGY PREDICTED BY IDOCK:   -6.34 KCAL/MOL
REMARK 924 INTRA-LIGAND FREE ENERGY PREDICTED BY IDOCK:    0.38 KCAL/MOL
REMARK 927      BINDING AFFINITY PREDICTED BY RF-SCORE:    0.00 PKD
ROOT
HETATM    1  C   UNL     1     -12.137  14.132  68.022  1.00  0.00    -0.303 C  
HETATM    2  C   UNL     1     -11.799  13.182  66.889  1.00  0.00    -0.386 C  
ENDROOT
BRANCH   2   3
HETATM    3  O   UNL     1     -12.002  11.826  67.310  1.00  0.00    -0.618 OA 
BRANCH   3   4
HETATM    4  C   UNL     1     -11.042  11.313  68.131  1.00  0.00    -0.259 C  
HETATM    5  O   UNL     1     -11.132  11.213  69.351  1.00  0.00    -0.229 OA 
BRANCH   4   6
HETATM    6  C   UNL     1      -9.830  10.846  67.306  1.00  0.00    -0.175 C  
BRANCH   6   7
HETATM    7  C   UNL     1     -10.299  10.378  65.924  1.00  0.00    -0.261 C  
BRANCH   7   8
HETATM    8  C   UNL     1      -9.610   9.083  65.471  1.00  0.00    -0.166 C  
BRANCH   8   9
HETATM    9  C   UNL     1      -8.517   9.403  64.483  1.00  0.00    -0.189 A  
HETATM   10  C   UNL     1      -6.424  10.145  62.778  1.00  0.00    -0.131 A  
HETATM   11  C   UNL     1      -6.198   9.221  63.796  1.00  0.00    -0.090 A  
HETATM   12  C   UNL     1      -7.240   8.850  64.646  1.00  0.00    -0.096 A  
HETATM   13  C   UNL     1      -7.694  10.691  62.600  1.00  0.00    -0.120 A  
HETATM   14  C   UNL     1      -8.739  10.320  63.448  1.00  0.00    -0.209 A  
ENDBRANCH   8   9
ENDBRANCH   7   8
ENDBRANCH   6   7
BRANCH   6  15
HETATM   15  N   UNL     1      -9.141   9.798  68.083  1.00  0.00    -0.125 NA 
HETATM   16  H   UNL     1      -8.123   9.726  68.074  1.00  0.00     0.000 HD 
BRANCH  15  17
HETATM   17  C   UNL     1      -9.964   8.847  68.883  1.00  0.00    -0.190 C  
HETATM   18  O   UNL     1      -8.391   9.510  70.586  1.00  0.00    -0.192 OA 
HETATM   19  C   UNL     1     -10.259   7.638  68.003  1.00  0.00    -0.248 C  
HETATM   20  O   UNL     1      -7.528   6.059  73.897  1.00  0.00    -0.091 OA 
HETATM   21  O   UNL     1      -7.985   5.322  71.815  1.00  0.00    -0.108 OA 
HETATM   22  C   UNL     1     -11.263   6.667  68.592  1.00  0.00    -0.239 C  
HETATM   23  C   UNL     1      -9.155   8.607  70.205  1.00  0.00    -0.158 C  
HETATM   24  C   UNL     1     -10.626   5.832  69.676  1.00  0.00    -0.326 C  
HETATM   25  N   UNL     1     -10.389   6.553  70.908  1.00  0.00    -0.204 NA 
HETATM   26  C   UNL     1      -8.034   6.251  72.800  1.00  0.00    -0.105 C  
HETATM   27  C   UNL     1     -11.550   6.895  71.724  1.00  0.00    -0.286 C  
HETATM   28  N   UNL     1      -9.330   7.476  71.010  1.00  0.00    -0.156 N  
HETATM   29  C   UNL     1     -11.111   6.973  73.192  1.00  0.00    -0.260 C  
HETATM   30  C   UNL     1      -8.764   7.540  72.397  1.00  0.00    -0.123 C  
HETATM   31  C   UNL     1      -9.894   7.886  73.382  1.00  0.00    -0.298 C  
ENDBRANCH  15  17
ENDBRANCH   6  15
ENDBRANCH   4   6
ENDBRANCH   3   4
ENDBRANCH   2   3
TORSDOF 8
ENDMDL
MODEL      236
REMARK 921   NORMALIZED FREE ENERGY PREDICTED BY IDOCK:   -3.16 KCAL/MOL
REMARK 922        TOTAL FREE ENERGY PREDICTED BY IDOCK:   -5.85 KCAL/MOL
REMARK 923 INTER-LIGAND FREE ENERGY PREDICTED BY IDOCK:   -5.13 KCAL/MOL
REMARK 924 INTRA-LIGAND FREE ENERGY PREDICTED BY IDOCK:   -0.72 KCAL/MOL
REMARK 927      BINDING AFFINITY PREDICTED BY RF-SCORE:    0.00 PKD
ROOT
HETATM    1  C   UNL     1      -6.534  14.694  70.490  1.00  0.00    -0.053 C  
HETATM    2  C   UNL     1      -6.930  13.810  69.323  1.00  0.00    -0.042 C  
ENDROOT
BRANCH   2   3
HETATM    3  O   UNL     1      -5.959  12.770  69.145  1.00  0.00    -0.075 OA 
BRANCH   3   4
HETATM    4  C   UNL     1      -6.029  12.095  67.962  1.00  0.00    -0.062 C  
HETATM    5  O   UNL     1      -5.907  12.599  66.849  1.00  0.00    -0.288 OA 
BRANCH   4   6
HETATM    6  C   UNL     1      -6.255  10.595  68.219  1.00  0.00    -0.050 C  
BRANCH   6   7
HETATM    7  C   UNL     1      -6.538   9.882  66.893  1.00  0.00    -0.067 C  
BRANCH   7   8
HETATM    8  C   UNL     1      -7.906  10.249  66.302  1.00  0.00    -0.118 C  
BRANCH   8   9
HETATM    9  C   UNL     1      -8.021   9.704  64.901  1.00  0.00    -0.124 A  
HETATM   10  C   UNL     1      -8.404   8.593  62.360  1.00  0.00    -0.200 A  
HETATM   11  C   UNL     1      -9.034   9.788  62.699  1.00  0.00    -0.284 A  
HETATM   12  C   UNL     1      -8.844  10.343  63.965  1.00  0.00    -0.225 A  
HETATM   13  C   UNL     1      -7.572   7.957  63.279  1.00  0.00    -0.130 A  
HETATM   14  C   UNL     1      -7.379   8.511  64.546  1.00  0.00    -0.093 A  
ENDBRANCH   8   9
ENDBRANCH   7   8
ENDBRANCH   6   7
BRANCH   6  15
HETATM   15  N   UNL     1      -7.348  10.472  69.202  1.00  0.00    -0.097 NA 
HETATM   16  H   UNL     1      -7.930  11.276  69.438  1.00  0.00     0.000 HD 
BRANCH  15  17
HETATM   17  C   UNL     1      -7.584   9.147  69.844  1.00  0.00    -0.080 C  
HETATM   18  O   UNL     1      -9.778   9.514  68.912  1.00  0.00    -0.157 OA 
HETATM   19  C   UNL     1      -6.900   9.165  71.205  1.00  0.00    -0.070 C  
HETATM   20  O   UNL     1     -13.356   7.451  71.474  1.00  0.00    -0.370 OA 
HETATM   21  O   UNL     1     -11.580   8.157  72.672  1.00  0.00    -0.397 OA 
HETATM   22  C   UNL     1      -6.864   7.819  71.903  1.00  0.00    -0.060 C  
HETATM   23  C   UNL     1      -9.139   8.941  69.811  1.00  0.00    -0.150 C  
HETATM   24  C   UNL     1      -8.214   7.486  72.489  1.00  0.00    -0.108 C  
HETATM   25  N   UNL     1      -9.204   7.107  71.504  1.00  0.00    -0.146 NA 
HETATM   26  C   UNL     1     -12.170   7.749  71.522  1.00  0.00    -0.318 C  
HETATM   27  C   UNL     1      -9.054   5.802  70.865  1.00  0.00    -0.145 C  
HETATM   28  N   UNL     1      -9.811   8.075  70.682  1.00  0.00    -0.184 N  
HETATM   29  C   UNL     1     -10.444   5.294  70.457  1.00  0.00    -0.312 C  
HETATM   30  C   UNL     1     -11.219   7.711  70.319  1.00  0.00    -0.216 C  
HETATM   31  C   UNL     1     -11.218   6.332  69.636  1.00  0.00    -0.506 C  
ENDBRANCH  15  17
ENDBRANCH   6  15
ENDBRANCH   4   6
ENDBRANCH   3   4
ENDBRANCH   2   3
TORSDOF 8
ENDMDL
MODEL      237
REMARK 921   NORMALIZED FREE ENERGY PREDICTED BY IDOCK:   -3.09 KCAL/MOL
REMARK 922        TOTAL FREE ENERGY PREDICTED BY IDOCK:   -5.74 KCAL/MOL
REMARK 923 INTER-LIGAND FREE ENERGY PREDICTED BY IDOCK:   -5.17 KCAL/MOL
REMARK 924 INTRA-LIGAND FREE ENERGY PREDICTED BY IDOCK:   -0.57 KCAL/MOL
REMARK 927      BINDING AFFINITY PREDICTED BY RF-SCORE:    0.00 PKD
ROOT
HETATM    1  C   UNL     1     -11.528  12.378  66.482  1.00  0.00    -0.427 C  
HETATM    2  C   UNL     1     -10.763  11.214  65.883  1.00  0.00    -0.198 C  
ENDROOT
BRANCH   2   3
HETATM    3  O   UNL     1     -10.611  10.173  66.857  1.00  0.00    -0.238 OA 
BRANCH   3   4
HETATM    4  C   UNL     1      -9.514  10.275  67.661  1.00  0.00    -0.151 C  
HETATM    5  O   UNL     1      -9.448  10.943  68.690  1.00  0.00    -0.177 OA 
BRANCH   4   6
HETATM    6  C   UNL     1      -8.370   9.404  67.113  1.00  0.00    -0.124 C  
BRANCH   6   7
HETATM    7  C   UNL     1      -8.824   8.708  65.826  1.00  0.00    -0.231 C  
BRANCH   7   8
HETATM    8  C   UNL     1      -7.649   8.263  64.946  1.00  0.00    -0.097 C  
BRANCH   8   9
HETATM    9  C   UNL     1      -7.895   6.867  64.431  1.00  0.00    -0.112 A  
HETATM   10  C   UNL     1      -8.550   4.325  63.458  1.00  0.00    -0.110 A  
HETATM   11  C   UNL     1      -8.256   5.356  62.569  1.00  0.00    -0.108 A  
HETATM   12  C   UNL     1      -7.929   6.623  63.052  1.00  0.00    -0.082 A  
HETATM   13  C   UNL     1      -8.506   4.554  64.832  1.00  0.00    -0.130 A  
HETATM   14  C   UNL     1      -8.178   5.820  65.319  1.00  0.00    -0.139 A  
ENDBRANCH   8   9
ENDBRANCH   7   8
ENDBRANCH   6   7
BRANCH   6  15
HETATM   15  N   UNL     1      -7.971   8.470  68.183  1.00  0.00    -0.110 NA 
HETATM   16  H   UNL     1      -6.989   8.238  68.334  1.00  0.00     0.000 HD 
BRANCH  15  17
HETATM   17  C   UNL     1      -9.035   7.871  69.038  1.00  0.00    -0.145 C  
HETATM   18  O   UNL     1      -7.423   8.398  70.752  1.00  0.00    -0.056 OA 
HETATM   19  C   UNL     1      -9.577   6.645  68.312  1.00  0.00    -0.125 C  
HETATM   20  O   UNL     1      -7.571   5.385  74.563  1.00  0.00    -0.088 OA 
HETATM   21  O   UNL     1      -8.103   4.468  72.572  1.00  0.00    -0.098 OA 
HETATM   22  C   UNL     1     -10.812   6.038  68.948  1.00  0.00    -0.400 C  
HETATM   23  C   UNL     1      -8.367   7.652  70.440  1.00  0.00    -0.124 C  
HETATM   24  C   UNL     1     -10.444   5.251  70.182  1.00  0.00    -0.268 C  
HETATM   25  N   UNL     1     -10.092   6.075  71.319  1.00  0.00    -0.188 NA 
HETATM   26  C   UNL     1      -7.967   5.522  73.414  1.00  0.00    -0.114 C  
HETATM   27  C   UNL     1     -11.170   6.800  71.986  1.00  0.00    -0.262 C  
HETATM   28  N   UNL     1      -8.847   6.729  71.377  1.00  0.00    -0.131 N  
HETATM   29  C   UNL     1     -10.790   6.995  73.460  1.00  0.00    -0.289 C  
HETATM   30  C   UNL     1      -8.343   6.869  72.782  1.00  0.00    -0.108 C  
HETATM   31  C   UNL     1      -9.397   7.616  73.618  1.00  0.00    -0.344 C  
ENDBRANCH  15  17
ENDBRANCH   6  15
ENDBRANCH   4   6
ENDBRANCH   3   4
ENDBRANCH   2   3
TORSDOF 8
ENDMDL
MODEL      238
REMARK 921   NORMALIZED FREE ENERGY PREDICTED BY IDOCK:   -3.08 KCAL/MOL
REMARK 922        TOTAL FREE ENERGY PREDICTED BY IDOCK:   -5.74 KCAL/MOL
REMARK 923 INTER-LIGAND FREE ENERGY PREDICTED BY IDOCK:   -5.66 KCAL/MOL
REMARK 924 INTRA-LIGAND FREE ENERGY PREDICTED BY IDOCK:   -0.07 KCAL/MOL
REMARK 927      BINDING AFFINITY PREDICTED BY RF-SCORE:    0.00 PKD
ROOT
HETATM    1  C   UNL     1     -11.447  12.022  69.888  1.00  0.00    -0.239 C  
HETATM    2  C   UNL     1     -12.249  11.293  70.948  1.00  0.00    -0.356 C  
ENDROOT
BRANCH   2   3
HETATM    3  O   UNL     1     -12.634   9.998  70.468  1.00  0.00    -0.244 OA 
BRANCH   3   4
HETATM    4  C   UNL     1     -12.890   9.065  71.429  1.00  0.00    -0.300 C  
HETATM    5  O   UNL     1     -13.719   9.181  72.328  1.00  0.00    -0.443 OA 
BRANCH   4   6
HETATM    6  C   UNL     1     -12.009   7.822  71.211  1.00  0.00    -0.302 C  
BRANCH   6   7
HETATM    7  C   UNL     1     -11.201   7.535  72.481  1.00  0.00    -0.381 C  
BRANCH   7   8
HETATM    8  C   UNL     1      -9.807   6.967  72.182  1.00  0.00    -0.168 C  
BRANCH   8   9
HETATM    9  C   UNL     1      -9.673   5.593  72.787  1.00  0.00    -0.171 A  
HETATM   10  C   UNL     1      -9.540   3.106  74.067  1.00  0.00    -0.124 A  
HETATM   11  C   UNL     1     -10.603   3.393  73.213  1.00  0.00    -0.278 A  
HETATM   12  C   UNL     1     -10.670   4.632  72.575  1.00  0.00    -0.217 A  
HETATM   13  C   UNL     1      -8.537   4.051  74.275  1.00  0.00    -0.096 A  
HETATM   14  C   UNL     1      -8.600   5.290  73.636  1.00  0.00    -0.111 A  
ENDBRANCH   8   9
ENDBRANCH   7   8
ENDBRANCH   6   7
BRANCH   6  15
HETATM   15  N   UNL     1     -11.172   8.074  70.022  1.00  0.00    -0.432 NA 
HETATM   16  H   UNL     1     -11.282   8.931  69.480  1.00  0.00     0.000 HD 
BRANCH  15  17
HETATM   17  C   UNL     1     -10.164   7.049  69.630  1.00  0.00    -0.202 C  
HETATM   18  O   UNL     1      -9.195   8.969  68.540  1.00  0.00    -0.136 OA 
HETATM   19  C   UNL     1     -10.918   5.778  69.257  1.00  0.00    -0.330 C  
HETATM   20  O   UNL     1      -6.692   7.874  64.520  1.00  0.00    -0.055 OA 
HETATM   21  O   UNL     1      -8.458   6.542  64.964  1.00  0.00    -0.111 OA 
HETATM   22  C   UNL     1     -10.031   4.568  69.035  1.00  0.00    -0.151 C  
HETATM   23  C   UNL     1      -9.288   7.730  68.522  1.00  0.00    -0.147 C  
HETATM   24  C   UNL     1      -9.338   4.653  67.697  1.00  0.00    -0.144 C  
HETATM   25  N   UNL     1      -8.265   5.623  67.654  1.00  0.00    -0.101 NA 
HETATM   26  C   UNL     1      -7.486   7.413  65.330  1.00  0.00    -0.085 C  
HETATM   27  C   UNL     1      -7.037   5.304  68.376  1.00  0.00    -0.062 C  
HETATM   28  N   UNL     1      -8.542   7.002  67.587  1.00  0.00    -0.122 N  
HETATM   29  C   UNL     1      -5.863   6.004  67.679  1.00  0.00    -0.016 C  
HETATM   30  C   UNL     1      -7.494   7.756  66.825  1.00  0.00    -0.090 C  
HETATM   31  C   UNL     1      -6.123   7.501  67.476  1.00  0.00    -0.048 C  
ENDBRANCH  15  17
ENDBRANCH   6  15
ENDBRANCH   4   6
ENDBRANCH   3   4
ENDBRANCH   2   3
TORSDOF 8
ENDMDL
MODEL      239
REMARK 921   NORMALIZED FREE ENERGY PREDICTED BY IDOCK:   -3.06 KCAL/MOL
REMARK 922        TOTAL FREE ENERGY PREDICTED BY IDOCK:   -5.71 KCAL/MOL
REMARK 923 INTER-LIGAND FREE ENERGY PREDICTED BY IDOCK:   -3.68 KCAL/MOL
REMARK 924 INTRA-LIGAND FREE ENERGY PREDICTED BY IDOCK:   -2.03 KCAL/MOL
REMARK 927      BINDING AFFINITY PREDICTED BY RF-SCORE:    0.00 PKD
ROOT
HETATM    1  C   UNL     1      -9.426   4.879  72.816  1.00  0.00    -0.155 C  
HETATM    2  C   UNL     1      -9.551   3.401  72.497  1.00  0.00    -0.132 C  
ENDROOT
BRANCH   2   3
HETATM    3  O   UNL     1      -9.474   3.196  71.080  1.00  0.00    -0.130 OA 
BRANCH   3   4
HETATM    4  C   UNL     1      -8.239   2.875  70.598  1.00  0.00    -0.049 C  
HETATM    5  O   UNL     1      -7.386   2.233  71.204  1.00  0.00    -0.032 OA 
BRANCH   4   6
HETATM    6  C   UNL     1      -8.073   3.409  69.165  1.00  0.00    -0.056 C  
BRANCH   6   7
HETATM    7  C   UNL     1      -6.938   2.656  68.463  1.00  0.00    -0.047 C  
BRANCH   7   8
HETATM    8  C   UNL     1      -7.427   1.825  67.269  1.00  0.00    -0.059 C  
BRANCH   8   9
HETATM    9  C   UNL     1      -7.852   2.740  66.149  1.00  0.00    -0.081 A  
HETATM   10  C   UNL     1      -8.595   4.288  63.937  1.00  0.00    -0.117 A  
HETATM   11  C   UNL     1      -9.519   3.430  64.528  1.00  0.00    -0.149 A  
HETATM   12  C   UNL     1      -9.151   2.658  65.630  1.00  0.00    -0.121 A  
HETATM   13  C   UNL     1      -7.304   4.387  64.454  1.00  0.00    -0.070 A  
HETATM   14  C   UNL     1      -6.933   3.617  65.558  1.00  0.00    -0.061 A  
ENDBRANCH   8   9
ENDBRANCH   7   8
ENDBRANCH   6   7
BRANCH   6  15
HETATM   15  N   UNL     1      -7.849   4.865  69.256  1.00  0.00    -0.074 NA 
HETATM   16  H   UNL     1      -7.337   5.265  70.042  1.00  0.00     0.000 HD 
BRANCH  15  17
HETATM   17  C   UNL     1      -8.389   5.738  68.175  1.00  0.00    -0.107 C  
HETATM   18  O   UNL     1      -6.955   7.336  69.272  1.00  0.00    -0.065 OA 
HETATM   19  C   UNL     1      -9.877   5.437  68.038  1.00  0.00    -0.183 C  
HETATM   20  O   UNL     1      -8.525  11.923  68.930  1.00  0.00    -0.022 OA 
HETATM   21  O   UNL     1     -10.133  10.344  69.001  1.00  0.00    -0.192 OA 
HETATM   22  C   UNL     1     -10.538   6.089  66.839  1.00  0.00    -0.384 C  
HETATM   23  C   UNL     1      -7.973   7.196  68.573  1.00  0.00    -0.124 C  
HETATM   24  C   UNL     1     -10.769   7.559  67.091  1.00  0.00    -0.309 C  
HETATM   25  N   UNL     1      -9.564   8.359  67.039  1.00  0.00    -0.174 NA 
HETATM   26  C   UNL     1      -8.867  10.761  68.758  1.00  0.00    -0.163 C  
HETATM   27  C   UNL     1      -8.958   8.582  65.729  1.00  0.00    -0.182 C  
HETATM   28  N   UNL     1      -8.636   8.334  68.097  1.00  0.00    -0.132 N  
HETATM   29  C   UNL     1      -8.213   9.923  65.756  1.00  0.00    -0.125 C  
HETATM   30  C   UNL     1      -7.933   9.646  68.268  1.00  0.00    -0.096 C  
HETATM   31  C   UNL     1      -7.246  10.021  66.942  1.00  0.00    -0.091 C  
ENDBRANCH  15  17
ENDBRANCH   6  15
ENDBRANCH   4   6
ENDBRANCH   3   4
ENDBRANCH   2   3
TORSDOF 8
ENDMDL
MODEL      240
REMARK 921   NORMALIZED FREE ENERGY PREDICTED BY IDOCK:   -3.05 KCAL/MOL
REMARK 922        TOTAL FREE ENERGY PREDICTED BY IDOCK:   -5.69 KCAL/MOL
REMARK 923 INTER-LIGAND FREE ENERGY PREDICTED BY IDOCK:   -5.30 KCAL/MOL
REMARK 924 INTRA-LIGAND FREE ENERGY PREDICTED BY IDOCK:   -0.39 KCAL/MOL
REMARK 927      BINDING AFFINITY PREDICTED BY RF-SCORE:    0.00 PKD
ROOT
HETATM    1  C   UNL     1     -10.849   6.247  69.089  1.00  0.00    -0.403 C  
HETATM    2  C   UNL     1     -11.122   6.322  67.599  1.00  0.00    -0.266 C  
ENDROOT
BRANCH   2   3
HETATM    3  O   UNL     1     -10.544   7.515  67.054  1.00  0.00    -0.319 OA 
BRANCH   3   4
HETATM    4  C   UNL     1      -9.500   7.327  66.198  1.00  0.00    -0.001 C  
HETATM    5  O   UNL     1      -8.896   6.270  66.037  1.00  0.00    -0.151 OA 
BRANCH   4   6
HETATM    6  C   UNL     1      -9.198   8.628  65.433  1.00  0.00    -0.035 C  
BRANCH   6   7
HETATM    7  C   UNL     1      -7.791   9.119  65.786  1.00  0.00    -0.098 C  
BRANCH   7   8
HETATM    8  C   UNL     1      -7.467   8.967  67.278  1.00  0.00    -0.084 C  
BRANCH   8   9
HETATM    9  C   UNL     1      -6.719   7.678  67.511  1.00  0.00    -0.068 A  
HETATM   10  C   UNL     1      -5.468   5.193  67.823  1.00  0.00    -0.012 A  
HETATM   11  C   UNL     1      -5.143   6.004  66.738  1.00  0.00    -0.005 A  
HETATM   12  C   UNL     1      -5.766   7.243  66.581  1.00  0.00    -0.024 A  
HETATM   13  C   UNL     1      -6.406   5.623  68.760  1.00  0.00    -0.038 A  
HETATM   14  C   UNL     1      -7.029   6.863  68.607  1.00  0.00    -0.076 A  
ENDBRANCH   8   9
ENDBRANCH   7   8
ENDBRANCH   6   7
BRANCH   6  15
HETATM   15  N   UNL     1     -10.263   9.594  65.764  1.00  0.00    -0.229 NA 
HETATM   16  H   UNL     1     -11.177   9.273  66.085  1.00  0.00     0.000 HD 
BRANCH  15  17
HETATM   17  C   UNL     1      -9.975  11.049  65.618  1.00  0.00    -0.248 C  
HETATM   18  O   UNL     1      -9.980  10.903  68.025  1.00  0.00    -0.165 OA 
HETATM   19  C   UNL     1     -10.861  11.586  64.501  1.00  0.00    -0.390 C  
HETATM   20  O   UNL     1     -11.408  14.994  70.227  1.00  0.00    -0.243 OA 
HETATM   21  O   UNL     1     -12.361  14.579  68.224  1.00  0.00    -0.163 OA 
HETATM   22  C   UNL     1     -10.542  13.008  64.081  1.00  0.00    -0.421 C  
HETATM   23  C   UNL     1     -10.161  11.655  67.053  1.00  0.00    -0.212 C  
HETATM   24  C   UNL     1     -11.072  13.995  65.093  1.00  0.00    -0.341 C  
HETATM   25  N   UNL     1     -10.310  14.038  66.322  1.00  0.00    -0.286 NA 
HETATM   26  C   UNL     1     -11.370  14.435  69.138  1.00  0.00    -0.277 C  
HETATM   27  C   UNL     1      -8.987  14.653  66.275  1.00  0.00    -0.077 C  
HETATM   28  N   UNL     1     -10.425  13.011  67.278  1.00  0.00    -0.238 N  
HETATM   29  C   UNL     1      -8.667  15.236  67.658  1.00  0.00    -0.179 C  
HETATM   30  C   UNL     1     -10.234  13.513  68.678  1.00  0.00    -0.189 C  
HETATM   31  C   UNL     1      -8.863  14.205  68.776  1.00  0.00    -0.061 C  
ENDBRANCH  15  17
ENDBRANCH   6  15
ENDBRANCH   4   6
ENDBRANCH   3   4
ENDBRANCH   2   3
TORSDOF 8
ENDMDL
MODEL      241
REMARK 921   NORMALIZED FREE ENERGY PREDICTED BY IDOCK:   -3.00 KCAL/MOL
REMARK 922        TOTAL FREE ENERGY PREDICTED BY IDOCK:   -5.61 KCAL/MOL
REMARK 923 INTER-LIGAND FREE ENERGY PREDICTED BY IDOCK:   -6.87 KCAL/MOL
REMARK 924 INTRA-LIGAND FREE ENERGY PREDICTED BY IDOCK:    1.26 KCAL/MOL
REMARK 927      BINDING AFFINITY PREDICTED BY RF-SCORE:    0.00 PKD
ROOT
HETATM    1  C   UNL     1     -12.138  15.545  69.743  1.00  0.00    -0.372 C  
HETATM    2  C   UNL     1     -10.695  15.364  70.176  1.00  0.00    -0.308 C  
ENDROOT
BRANCH   2   3
HETATM    3  O   UNL     1     -10.020  14.476  69.275  1.00  0.00    -0.159 OA 
BRANCH   3   4
HETATM    4  C   UNL     1     -10.809  13.878  68.337  1.00  0.00    -0.254 C  
HETATM    5  O   UNL     1     -12.036  13.851  68.354  1.00  0.00    -0.354 OA 
BRANCH   4   6
HETATM    6  C   UNL     1      -9.939  13.263  67.226  1.00  0.00    -0.231 C  
BRANCH   6   7
HETATM    7  C   UNL     1     -10.010  14.139  65.971  1.00  0.00    -0.340 C  
BRANCH   7   8
HETATM    8  C   UNL     1     -10.615  15.521  66.247  1.00  0.00    -0.310 C  
BRANCH   8   9
HETATM    9  C   UNL     1      -9.543  16.460  66.742  1.00  0.00    -0.263 A  
HETATM   10  C   UNL     1      -7.583  18.312  67.492  1.00  0.00    -0.216 A  
HETATM   11  C   UNL     1      -8.917  18.541  67.818  1.00  0.00    -0.289 A  
HETATM   12  C   UNL     1      -9.895  17.619  67.446  1.00  0.00    -0.305 A  
HETATM   13  C   UNL     1      -7.221  17.155  66.804  1.00  0.00    -0.260 A  
HETATM   14  C   UNL     1      -8.197  16.230  66.431  1.00  0.00    -0.354 A  
ENDBRANCH   8   9
ENDBRANCH   7   8
ENDBRANCH   6   7
BRANCH   6  15
HETATM   15  N   UNL     1     -10.407  11.880  67.011  1.00  0.00    -0.210 NA 
HETATM   16  H   UNL     1     -11.171  11.683  66.364  1.00  0.00     0.000 HD 
BRANCH  15  17
HETATM   17  C   UNL     1      -9.740  10.777  67.759  1.00  0.00    -0.162 C  
HETATM   18  O   UNL     1      -9.957   9.701  65.611  1.00  0.00    -0.305 OA 
HETATM   19  C   UNL     1     -10.372  10.710  69.144  1.00  0.00    -0.242 C  
HETATM   20  O   UNL     1     -10.425   4.871  65.886  1.00  0.00    -0.264 OA 
HETATM   21  O   UNL     1     -11.305   6.037  67.605  1.00  0.00    -0.104 OA 
HETATM   22  C   UNL     1      -9.665   9.777  70.108  1.00  0.00    -0.299 C  
HETATM   23  C   UNL     1      -9.865   9.515  66.837  1.00  0.00    -0.204 C  
HETATM   24  C   UNL     1      -9.990   8.337  69.794  1.00  0.00    -0.191 C  
HETATM   25  N   UNL     1      -9.335   7.834  68.606  1.00  0.00    -0.148 NA 
HETATM   26  C   UNL     1     -10.455   5.893  66.559  1.00  0.00    -0.190 C  
HETATM   27  C   UNL     1      -7.897   7.591  68.681  1.00  0.00    -0.121 C  
HETATM   28  N   UNL     1      -9.782   8.205  67.324  1.00  0.00    -0.163 N  
HETATM   29  C   UNL     1      -7.537   6.471  67.696  1.00  0.00    -0.105 C  
HETATM   30  C   UNL     1      -9.568   7.120  66.311  1.00  0.00    -0.034 C  
HETATM   31  C   UNL     1      -8.075   6.748  66.287  1.00  0.00    -0.112 C  
ENDBRANCH  15  17
ENDBRANCH   6  15
ENDBRANCH   4   6
ENDBRANCH   3   4
ENDBRANCH   2   3
TORSDOF 8
ENDMDL
MODEL      242
REMARK 921   NORMALIZED FREE ENERGY PREDICTED BY IDOCK:   -2.95 KCAL/MOL
REMARK 922        TOTAL FREE ENERGY PREDICTED BY IDOCK:   -5.55 KCAL/MOL
REMARK 923 INTER-LIGAND FREE ENERGY PREDICTED BY IDOCK:   -5.54 KCAL/MOL
REMARK 924 INTRA-LIGAND FREE ENERGY PREDICTED BY IDOCK:   -0.01 KCAL/MOL
REMARK 927      BINDING AFFINITY PREDICTED BY RF-SCORE:    0.00 PKD
ROOT
HETATM    1  C   UNL     1      -5.282   8.841  73.706  1.00  0.00    -0.088 C  
HETATM    2  C   UNL     1      -5.984   8.144  72.556  1.00  0.00    -0.051 C  
ENDROOT
BRANCH   2   3
HETATM    3  O   UNL     1      -7.046   7.321  73.056  1.00  0.00    -0.071 OA 
BRANCH   3   4
HETATM    4  C   UNL     1      -8.236   7.955  73.260  1.00  0.00    -0.182 C  
HETATM    5  O   UNL     1      -8.484   8.715  74.192  1.00  0.00    -0.236 OA 
BRANCH   4   6
HETATM    6  C   UNL     1      -9.225   7.607  72.134  1.00  0.00    -0.141 C  
BRANCH   6   7
HETATM    7  C   UNL     1     -10.470   6.942  72.729  1.00  0.00    -0.252 C  
BRANCH   7   8
HETATM    8  C   UNL     1     -10.188   6.245  74.066  1.00  0.00    -0.327 C  
BRANCH   8   9
HETATM    9  C   UNL     1     -10.021   4.762  73.845  1.00  0.00    -0.191 A  
HETATM   10  C   UNL     1      -9.702   2.049  73.234  1.00  0.00    -0.124 A  
HETATM   11  C   UNL     1      -8.582   2.862  73.396  1.00  0.00    -0.076 A  
HETATM   12  C   UNL     1      -8.740   4.215  73.701  1.00  0.00    -0.094 A  
HETATM   13  C   UNL     1     -10.980   2.582  73.388  1.00  0.00    -0.297 A  
HETATM   14  C   UNL     1     -11.141   3.934  73.695  1.00  0.00    -0.328 A  
ENDBRANCH   8   9
ENDBRANCH   7   8
ENDBRANCH   6   7
BRANCH   6  15
HETATM   15  N   UNL     1      -8.508   6.760  71.161  1.00  0.00    -0.124 NA 
HETATM   16  H   UNL     1      -7.782   6.113  71.469  1.00  0.00     0.000 HD 
BRANCH  15  17
HETATM   17  C   UNL     1      -8.870   6.869  69.719  1.00  0.00    -0.141 C  
HETATM   18  O   UNL     1      -8.222   9.156  70.121  1.00  0.00    -0.120 OA 
HETATM   19  C   UNL     1     -10.142   6.059  69.499  1.00  0.00    -0.246 C  
HETATM   20  O   UNL     1     -10.571  12.369  67.332  1.00  0.00    -0.213 OA 
HETATM   21  O   UNL     1     -11.741  10.524  67.893  1.00  0.00    -0.453 OA 
HETATM   22  C   UNL     1     -10.532   5.892  68.043  1.00  0.00    -0.294 C  
HETATM   23  C   UNL     1      -8.922   8.407  69.420  1.00  0.00    -0.153 C  
HETATM   24  C   UNL     1     -11.143   7.163  67.505  1.00  0.00    -0.100 C  
HETATM   25  N   UNL     1     -10.184   8.221  67.273  1.00  0.00    -0.247 NA 
HETATM   26  C   UNL     1     -10.584  11.200  67.694  1.00  0.00    -0.211 C  
HETATM   27  C   UNL     1      -9.272   8.069  66.142  1.00  0.00    -0.163 C  
HETATM   28  N   UNL     1      -9.640   8.950  68.347  1.00  0.00    -0.144 N  
HETATM   29  C   UNL     1      -8.881   9.465  65.638  1.00  0.00    -0.208 C  
HETATM   30  C   UNL     1      -9.326  10.367  67.972  1.00  0.00    -0.140 C  
HETATM   31  C   UNL     1      -8.367  10.363  66.768  1.00  0.00    -0.126 C  
ENDBRANCH  15  17
ENDBRANCH   6  15
ENDBRANCH   4   6
ENDBRANCH   3   4
ENDBRANCH   2   3
TORSDOF 8
ENDMDL
MODEL      243
REMARK 921   NORMALIZED FREE ENERGY PREDICTED BY IDOCK:   -2.77 KCAL/MOL
REMARK 922        TOTAL FREE ENERGY PREDICTED BY IDOCK:   -5.28 KCAL/MOL
REMARK 923 INTER-LIGAND FREE ENERGY PREDICTED BY IDOCK:   -6.55 KCAL/MOL
REMARK 924 INTRA-LIGAND FREE ENERGY PREDICTED BY IDOCK:    1.27 KCAL/MOL
REMARK 927      BINDING AFFINITY PREDICTED BY RF-SCORE:    0.00 PKD
ROOT
HETATM    1  C   UNL     1      -6.142  20.123  67.625  1.00  0.00    -0.244 C  
HETATM    2  C   UNL     1      -6.662  18.910  68.371  1.00  0.00    -0.248 C  
ENDROOT
BRANCH   2   3
HETATM    3  O   UNL     1      -6.411  17.721  67.609  1.00  0.00    -0.172 OA 
BRANCH   3   4
HETATM    4  C   UNL     1      -7.415  17.337  66.770  1.00  0.00    -0.222 C  
HETATM    5  O   UNL     1      -7.839  17.994  65.824  1.00  0.00    -0.534 OA 
BRANCH   4   6
HETATM    6  C   UNL     1      -7.927  15.938  67.158  1.00  0.00    -0.209 C  
BRANCH   6   7
HETATM    7  C   UNL     1      -9.123  15.564  66.276  1.00  0.00    -0.369 C  
BRANCH   7   8
HETATM    8  C   UNL     1      -9.040  14.128  65.743  1.00  0.00     0.416 C  
BRANCH   8   9
HETATM    9  C   UNL     1     -10.260  13.819  64.912  1.00  0.00    -0.374 A  
HETATM   10  C   UNL     1     -12.449  13.370  63.225  1.00  0.00    -0.137 A  
HETATM   11  C   UNL     1     -11.305  12.584  63.106  1.00  0.00    -0.165 A  
HETATM   12  C   UNL     1     -10.214  12.807  63.946  1.00  0.00    -0.265 A  
HETATM   13  C   UNL     1     -12.510  14.372  64.192  1.00  0.00    -0.236 A  
HETATM   14  C   UNL     1     -11.420  14.595  65.036  1.00  0.00    -0.386 A  
ENDBRANCH   8   9
ENDBRANCH   7   8
ENDBRANCH   6   7
BRANCH   6  15
HETATM   15  N   UNL     1      -8.240  15.965  68.600  1.00  0.00    -0.170 NA 
HETATM   16  H   UNL     1      -7.624  16.442  69.259  1.00  0.00     0.000 HD 
BRANCH  15  17
HETATM   17  C   UNL     1      -9.476  15.279  69.073  1.00  0.00    -0.232 C  
HETATM   18  O   UNL     1      -8.132  13.339  68.581  1.00  0.00    -0.121 OA 
HETATM   19  C   UNL     1     -10.670  16.025  68.489  1.00  0.00    -0.287 C  
HETATM   20  O   UNL     1     -10.727   9.462  67.219  1.00  0.00    -0.267 OA 
HETATM   21  O   UNL     1     -11.586  11.465  66.636  1.00  0.00    -0.432 OA 
HETATM   22  C   UNL     1     -12.012  15.585  69.041  1.00  0.00    -0.323 C  
HETATM   23  C   UNL     1      -9.293  13.773  68.679  1.00  0.00    -0.081 C  
HETATM   24  C   UNL     1     -12.430  14.266  68.439  1.00  0.00     0.235 C  
HETATM   25  N   UNL     1     -11.691  13.130  68.945  1.00  0.00    -0.306 NA 
HETATM   26  C   UNL     1     -10.804  10.669  67.406  1.00  0.00    -0.296 C  
HETATM   27  C   UNL     1     -11.967  12.700  70.313  1.00  0.00    -0.284 C  
HETATM   28  N   UNL     1     -10.367  12.888  68.530  1.00  0.00    -0.244 N  
HETATM   29  C   UNL     1     -11.690  11.195  70.419  1.00  0.00    -0.415 C  
HETATM   30  C   UNL     1     -10.039  11.426  68.500  1.00  0.00    -0.206 C  
HETATM   31  C   UNL     1     -10.297  10.827  69.894  1.00  0.00     0.025 C  
ENDBRANCH  15  17
ENDBRANCH   6  15
ENDBRANCH   4   6
ENDBRANCH   3   4
ENDBRANCH   2   3
TORSDOF 8
ENDMDL
MODEL      244
REMARK 921   NORMALIZED FREE ENERGY PREDICTED BY IDOCK:   -2.64 KCAL/MOL
REMARK 922        TOTAL FREE ENERGY PREDICTED BY IDOCK:   -5.08 KCAL/MOL
REMARK 923 INTER-LIGAND FREE ENERGY PREDICTED BY IDOCK:   -6.27 KCAL/MOL
REMARK 924 INTRA-LIGAND FREE ENERGY PREDICTED BY IDOCK:    1.18 KCAL/MOL
REMARK 927      BINDING AFFINITY PREDICTED BY RF-SCORE:    0.00 PKD
ROOT
HETATM    1  C   UNL     1      -7.939   9.320  65.450  1.00  0.00    -0.108 C  
HETATM    2  C   UNL     1      -8.475  10.424  64.559  1.00  0.00    -0.169 C  
ENDROOT
BRANCH   2   3
HETATM    3  O   UNL     1      -9.822  10.744  64.932  1.00  0.00    -0.243 OA 
BRANCH   3   4
HETATM    4  C   UNL     1      -9.954  11.596  65.989  1.00  0.00    -0.228 C  
HETATM    5  O   UNL     1      -9.047  12.263  66.480  1.00  0.00    -0.210 OA 
BRANCH   4   6
HETATM    6  C   UNL     1     -11.416  11.627  66.467  1.00  0.00    -0.187 C  
BRANCH   6   7
HETATM    7  C   UNL     1     -11.689  12.943  67.203  1.00  0.00    -0.437 C  
BRANCH   7   8
HETATM    8  C   UNL     1     -12.264  12.727  68.610  1.00  0.00     0.011 C  
BRANCH   8   9
HETATM    9  C   UNL     1     -12.025  13.954  69.454  1.00  0.00    -0.402 A  
HETATM   10  C   UNL     1     -11.729  16.323  70.915  1.00  0.00    -0.270 A  
HETATM   11  C   UNL     1     -12.662  15.369  71.317  1.00  0.00    -0.501 A  
HETATM   12  C   UNL     1     -12.810  14.188  70.590  1.00  0.00    -0.356 A  
HETATM   13  C   UNL     1     -10.934  16.094  69.794  1.00  0.00    -0.349 A  
HETATM   14  C   UNL     1     -11.079  14.912  69.065  1.00  0.00    -0.260 A  
ENDBRANCH   8   9
ENDBRANCH   7   8
ENDBRANCH   6   7
BRANCH   6  15
HETATM   15  N   UNL     1     -11.638  10.427  67.297  1.00  0.00    -0.311 NA 
HETATM   16  H   UNL     1     -12.327   9.726  67.026  1.00  0.00     0.000 HD 
BRANCH  15  17
HETATM   17  C   UNL     1     -10.832  10.263  68.540  1.00  0.00    -0.240 C  
HETATM   18  O   UNL     1      -9.811   8.540  67.197  1.00  0.00    -0.170 OA 
HETATM   19  C   UNL     1     -11.783  10.379  69.726  1.00  0.00    -0.310 C  
HETATM   20  O   UNL     1      -8.093   4.805  69.789  1.00  0.00    -0.068 OA 
HETATM   21  O   UNL     1      -9.921   5.821  70.634  1.00  0.00    -0.179 OA 
HETATM   22  C   UNL     1     -11.094  10.444  71.075  1.00  0.00     0.045 C  
HETATM   23  C   UNL     1     -10.056   8.912  68.357  1.00  0.00    -0.189 C  
HETATM   24  C   UNL     1     -10.605   9.078  71.490  1.00  0.00    -0.345 C  
HETATM   25  N   UNL     1      -9.440   8.626  70.760  1.00  0.00    -0.177 NA 
HETATM   26  C   UNL     1      -8.806   5.796  69.864  1.00  0.00    -0.127 C  
HETATM   27  C   UNL     1      -8.166   9.276  71.053  1.00  0.00    -0.068 C  
HETATM   28  N   UNL     1      -9.554   8.170  69.433  1.00  0.00    -0.166 N  
HETATM   29  C   UNL     1      -7.033   8.277  70.781  1.00  0.00    -0.043 C  
HETATM   30  C   UNL     1      -8.548   7.107  69.108  1.00  0.00    -0.133 C  
HETATM   31  C   UNL     1      -7.136   7.655  69.384  1.00  0.00    -0.075 C  
ENDBRANCH  15  17
ENDBRANCH   6  15
ENDBRANCH   4   6
ENDBRANCH   3   4
ENDBRANCH   2   3
TORSDOF 8
ENDMDL
MODEL      245
REMARK 921   NORMALIZED FREE ENERGY PREDICTED BY IDOCK:   -2.44 KCAL/MOL
REMARK 922        TOTAL FREE ENERGY PREDICTED BY IDOCK:   -4.79 KCAL/MOL
REMARK 923 INTER-LIGAND FREE ENERGY PREDICTED BY IDOCK:   -5.16 KCAL/MOL
REMARK 924 INTRA-LIGAND FREE ENERGY PREDICTED BY IDOCK:    0.37 KCAL/MOL
REMARK 927      BINDING AFFINITY PREDICTED BY RF-SCORE:    0.00 PKD
ROOT
HETATM    1  C   UNL     1      -6.189   2.205  66.234  1.00  0.00    -0.024 C  
HETATM    2  C   UNL     1      -6.537   3.432  67.053  1.00  0.00    -0.038 C  
ENDROOT
BRANCH   2   3
HETATM    3  O   UNL     1      -7.960   3.596  67.110  1.00  0.00    -0.086 OA 
BRANCH   3   4
HETATM    4  C   UNL     1      -8.487   4.487  66.222  1.00  0.00    -0.113 C  
HETATM    5  O   UNL     1      -8.598   4.302  65.013  1.00  0.00    -0.117 OA 
BRANCH   4   6
HETATM    6  C   UNL     1      -8.954   5.757  66.956  1.00  0.00    -0.114 C  
BRANCH   6   7
HETATM    7  C   UNL     1     -10.113   5.411  67.896  1.00  0.00    -0.215 C  
BRANCH   7   8
HETATM    8  C   UNL     1      -9.639   4.998  69.296  1.00  0.00    -0.230 C  
BRANCH   8   9
HETATM    9  C   UNL     1     -10.299   5.866  70.337  1.00  0.00    -0.294 A  
HETATM   10  C   UNL     1     -11.604   7.307  72.352  1.00  0.00    -0.307 A  
HETATM   11  C   UNL     1     -10.332   6.786  72.581  1.00  0.00    -0.225 A  
HETATM   12  C   UNL     1      -9.681   6.068  71.577  1.00  0.00    -0.186 A  
HETATM   13  C   UNL     1     -12.222   7.122  71.116  1.00  0.00    -0.405 A  
HETATM   14  C   UNL     1     -11.572   6.406  70.110  1.00  0.00    -0.449 A  
ENDBRANCH   8   9
ENDBRANCH   7   8
ENDBRANCH   6   7
BRANCH   6  15
HETATM   15  N   UNL     1      -9.302   6.759  65.931  1.00  0.00    -0.389 NA 
HETATM   16  H   UNL     1      -9.765   6.481  65.065  1.00  0.00     0.000 HD 
BRANCH  15  17
HETATM   17  C   UNL     1      -8.962   8.188  66.187  1.00  0.00    -0.178 C  
HETATM   18  O   UNL     1      -7.180   7.145  67.433  1.00  0.00    -0.085 OA 
HETATM   19  C   UNL     1     -10.266   8.932  66.454  1.00  0.00    -0.273 C  
HETATM   20  O   UNL     1      -5.676   9.759  71.245  1.00  0.00    -0.072 OA 
HETATM   21  O   UNL     1      -7.862   9.960  70.724  1.00  0.00    -0.275 OA 
HETATM   22  C   UNL     1     -10.120  10.439  66.528  1.00  0.00    -0.285 C  
HETATM   23  C   UNL     1      -7.889   8.161  67.331  1.00  0.00    -0.106 C  
HETATM   24  C   UNL     1      -9.512  10.853  67.845  1.00  0.00    -0.159 C  
HETATM   25  N   UNL     1      -8.097  10.571  67.952  1.00  0.00    -0.106 NA 
HETATM   26  C   UNL     1      -6.574   9.670  70.418  1.00  0.00    -0.096 C  
HETATM   27  C   UNL     1      -7.183  11.393  67.164  1.00  0.00    -0.134 C  
HETATM   28  N   UNL     1      -7.638   9.257  68.165  1.00  0.00    -0.083 N  
HETATM   29  C   UNL     1      -5.833  11.459  67.890  1.00  0.00    -0.044 C  
HETATM   30  C   UNL     1      -6.371   9.219  68.965  1.00  0.00    -0.043 C  
HETATM   31  C   UNL     1      -5.304  10.066  68.250  1.00  0.00    -0.035 C  
ENDBRANCH  15  17
ENDBRANCH   6  15
ENDBRANCH   4   6
ENDBRANCH   3   4
ENDBRANCH   2   3
TORSDOF 8
ENDMDL
MODEL      246
REMARK 921   NORMALIZED FREE ENERGY PREDICTED BY IDOCK:   -2.30 KCAL/MOL
REMARK 922        TOTAL FREE ENERGY PREDICTED BY IDOCK:   -4.59 KCAL/MOL
REMARK 923 INTER-LIGAND FREE ENERGY PREDICTED BY IDOCK:   -5.44 KCAL/MOL
REMARK 924 INTRA-LIGAND FREE ENERGY PREDICTED BY IDOCK:    0.86 KCAL/MOL
REMARK 927      BINDING AFFINITY PREDICTED BY RF-SCORE:    0.00 PKD
ROOT
HETATM    1  C   UNL     1      -5.369  15.772  71.751  1.00  0.00     0.196 C  
HETATM    2  C   UNL     1      -6.022  15.954  70.394  1.00  0.00    -0.023 C  
ENDROOT
BRANCH   2   3
HETATM    3  O   UNL     1      -5.299  15.217  69.399  1.00  0.00    -0.092 OA 
BRANCH   3   4
HETATM    4  C   UNL     1      -5.967  14.991  68.232  1.00  0.00    -0.122 C  
HETATM    5  O   UNL     1      -5.465  15.014  67.112  1.00  0.00    -0.222 OA 
BRANCH   4   6
HETATM    6  C   UNL     1      -7.444  14.671  68.518  1.00  0.00    -0.120 C  
BRANCH   6   7
HETATM    7  C   UNL     1      -8.112  15.877  69.186  1.00  0.00    -0.239 C  
BRANCH   7   8
HETATM    8  C   UNL     1      -9.512  16.165  68.627  1.00  0.00    -0.227 C  
BRANCH   8   9
HETATM    9  C   UNL     1      -9.543  17.541  68.010  1.00  0.00    -0.282 A  
HETATM   10  C   UNL     1      -9.442  20.038  66.749  1.00  0.00    -0.530 A  
HETATM   11  C   UNL     1     -10.178  19.001  66.181  1.00  0.00    -0.508 A  
HETATM   12  C   UNL     1     -10.229  17.756  66.808  1.00  0.00    -0.351 A  
HETATM   13  C   UNL     1      -8.766  19.838  67.951  1.00  0.00    -0.370 A  
HETATM   14  C   UNL     1      -8.817  18.594  68.582  1.00  0.00    -0.333 A  
ENDBRANCH   8   9
ENDBRANCH   7   8
ENDBRANCH   6   7
BRANCH   6  15
HETATM   15  N   UNL     1      -7.482  13.444  69.337  1.00  0.00    -0.299 NA 
HETATM   16  H   UNL     1      -7.669  13.492  70.339  1.00  0.00     0.000 HD 
BRANCH  15  17
HETATM   17  C   UNL     1      -7.241  12.134  68.669  1.00  0.00    -0.109 C  
HETATM   18  O   UNL     1      -9.632  11.984  68.943  1.00  0.00    -0.053 OA 
HETATM   19  C   UNL     1      -5.977  11.533  69.273  1.00  0.00    -0.065 C  
HETATM   20  O   UNL     1     -11.255   7.433  69.468  1.00  0.00    -0.134 OA 
HETATM   21  O   UNL     1      -9.197   7.837  70.298  1.00  0.00    -0.155 OA 
HETATM   22  C   UNL     1      -5.472  10.295  68.558  1.00  0.00    -0.038 C  
HETATM   23  C   UNL     1      -8.580  11.333  68.829  1.00  0.00    -0.108 C  
HETATM   24  C   UNL     1      -6.316   9.094  68.909  1.00  0.00    -0.044 C  
HETATM   25  N   UNL     1      -7.621   9.092  68.284  1.00  0.00    -0.083 NA 
HETATM   26  C   UNL     1     -10.236   8.110  69.472  1.00  0.00    -0.213 C  
HETATM   27  C   UNL     1      -7.682   8.834  66.848  1.00  0.00    -0.094 C  
HETATM   28  N   UNL     1      -8.645   9.937  68.753  1.00  0.00    -0.125 N  
HETATM   29  C   UNL     1      -9.034   8.186  66.524  1.00  0.00    -0.191 C  
HETATM   30  C   UNL     1     -10.006   9.334  68.574  1.00  0.00    -0.175 C  
HETATM   31  C   UNL     1     -10.209   8.994  67.087  1.00  0.00    -0.334 C  
ENDBRANCH  15  17
ENDBRANCH   6  15
ENDBRANCH   4   6
ENDBRANCH   3   4
ENDBRANCH   2   3
TORSDOF 8
ENDMDL
MODEL      247
REMARK 921   NORMALIZED FREE ENERGY PREDICTED BY IDOCK:   -2.12 KCAL/MOL
REMARK 922        TOTAL FREE ENERGY PREDICTED BY IDOCK:   -4.33 KCAL/MOL
REMARK 923 INTER-LIGAND FREE ENERGY PREDICTED BY IDOCK:   -4.43 KCAL/MOL
REMARK 924 INTRA-LIGAND FREE ENERGY PREDICTED BY IDOCK:    0.10 KCAL/MOL
REMARK 927      BINDING AFFINITY PREDICTED BY RF-SCORE:    0.00 PKD
ROOT
HETATM    1  C   UNL     1     -11.419  13.255  65.158  1.00  0.00    -0.319 C  
HETATM    2  C   UNL     1     -11.258  13.774  66.574  1.00  0.00    -0.312 C  
ENDROOT
BRANCH   2   3
HETATM    3  O   UNL     1     -10.535  12.822  67.366  1.00  0.00    -0.226 OA 
BRANCH   3   4
HETATM    4  C   UNL     1      -9.195  13.049  67.482  1.00  0.00    -0.195 C  
HETATM    5  O   UNL     1      -8.683  14.113  67.818  1.00  0.00    -0.163 OA 
BRANCH   4   6
HETATM    6  C   UNL     1      -8.409  11.766  67.161  1.00  0.00    -0.168 C  
BRANCH   6   7
HETATM    7  C   UNL     1      -9.359  10.710  66.586  1.00  0.00    -0.189 C  
BRANCH   7   8
HETATM    8  C   UNL     1      -9.067  10.388  65.115  1.00  0.00    -0.232 C  
BRANCH   8   9
HETATM    9  C   UNL     1      -7.908   9.428  65.022  1.00  0.00    -0.115 A  
HETATM   10  C   UNL     1      -5.731   7.668  65.051  1.00  0.00    -0.037 A  
HETATM   11  C   UNL     1      -7.016   7.190  65.300  1.00  0.00    -0.056 A  
HETATM   12  C   UNL     1      -8.101   8.066  65.286  1.00  0.00    -0.138 A  
HETATM   13  C   UNL     1      -5.530   9.019  64.775  1.00  0.00    -0.050 A  
HETATM   14  C   UNL     1      -6.614   9.897  64.758  1.00  0.00    -0.121 A  
ENDBRANCH   8   9
ENDBRANCH   7   8
ENDBRANCH   6   7
BRANCH   6  15
HETATM   15  N   UNL     1      -7.730  11.340  68.400  1.00  0.00    -0.117 NA 
HETATM   16  H   UNL     1      -6.835  11.748  68.671  1.00  0.00     0.000 HD 
BRANCH  15  17
HETATM   17  C   UNL     1      -8.381  10.300  69.247  1.00  0.00    -0.163 C  
HETATM   18  O   UNL     1      -6.502   9.017  68.450  1.00  0.00    -0.054 OA 
HETATM   19  C   UNL     1      -9.885  10.394  69.019  1.00  0.00    -0.222 C  
HETATM   20  O   UNL     1      -7.406   4.257  68.077  1.00  0.00    -0.063 OA 
HETATM   21  O   UNL     1      -9.166   5.617  67.701  1.00  0.00    -0.107 OA 
HETATM   22  C   UNL     1     -10.713   9.545  69.964  1.00  0.00    -0.278 C  
HETATM   23  C   UNL     1      -7.668   8.955  68.874  1.00  0.00    -0.095 C  
HETATM   24  C   UNL     1     -10.655   8.090  69.565  1.00  0.00    -0.214 C  
HETATM   25  N   UNL     1      -9.394   7.450  69.870  1.00  0.00    -0.155 NA 
HETATM   26  C   UNL     1      -7.949   5.342  68.231  1.00  0.00    -0.088 C  
HETATM   27  C   UNL     1      -9.099   7.174  71.273  1.00  0.00    -0.151 C  
HETATM   28  N   UNL     1      -8.250   7.700  69.088  1.00  0.00    -0.128 N  
HETATM   29  C   UNL     1      -8.178   5.949  71.349  1.00  0.00    -0.123 C  
HETATM   30  C   UNL     1      -7.339   6.511  69.016  1.00  0.00    -0.093 C  
HETATM   31  C   UNL     1      -6.949   6.095  70.446  1.00  0.00    -0.059 C  
ENDBRANCH  15  17
ENDBRANCH   6  15
ENDBRANCH   4   6
ENDBRANCH   3   4
ENDBRANCH   2   3
TORSDOF 8
ENDMDL
MODEL      248
REMARK 921   NORMALIZED FREE ENERGY PREDICTED BY IDOCK:   -2.07 KCAL/MOL
REMARK 922        TOTAL FREE ENERGY PREDICTED BY IDOCK:   -4.25 KCAL/MOL
REMARK 923 INTER-LIGAND FREE ENERGY PREDICTED BY IDOCK:   -3.74 KCAL/MOL
REMARK 924 INTRA-LIGAND FREE ENERGY PREDICTED BY IDOCK:   -0.51 KCAL/MOL
REMARK 927      BINDING AFFINITY PREDICTED BY RF-SCORE:    0.00 PKD
ROOT
HETATM    1  C   UNL     1      -6.065  13.734  70.481  1.00  0.00    -0.122 C  
HETATM    2  C   UNL     1      -6.407  12.517  69.644  1.00  0.00    -0.100 C  
ENDROOT
BRANCH   2   3
HETATM    3  O   UNL     1      -5.211  11.939  69.106  1.00  0.00    -0.051 OA 
BRANCH   3   4
HETATM    4  C   UNL     1      -5.396  10.976  68.158  1.00  0.00    -0.039 C  
HETATM    5  O   UNL     1      -5.667  11.184  66.979  1.00  0.00    -0.056 OA 
BRANCH   4   6
HETATM    6  C   UNL     1      -5.186   9.580  68.771  1.00  0.00    -0.037 C  
BRANCH   6   7
HETATM    7  C   UNL     1      -5.604   8.506  67.761  1.00  0.00    -0.035 C  
BRANCH   7   8
HETATM    8  C   UNL     1      -6.939   8.825  67.075  1.00  0.00    -0.074 C  
BRANCH   8   9
HETATM    9  C   UNL     1      -7.541   7.560  66.515  1.00  0.00    -0.089 A  
HETATM   10  C   UNL     1      -8.835   5.316  65.453  1.00  0.00    -0.152 A  
HETATM   11  C   UNL     1      -8.237   6.243  64.602  1.00  0.00    -0.080 A  
HETATM   12  C   UNL     1      -7.592   7.362  65.130  1.00  0.00    -0.104 A  
HETATM   13  C   UNL     1      -8.778   5.499  66.834  1.00  0.00    -0.112 A  
HETATM   14  C   UNL     1      -8.132   6.616  67.365  1.00  0.00    -0.121 A  
ENDBRANCH   8   9
ENDBRANCH   7   8
ENDBRANCH   6   7
BRANCH   6  15
HETATM   15  N   UNL     1      -5.945   9.531  70.035  1.00  0.00    -0.039 NA 
HETATM   16  H   UNL     1      -6.078  10.373  70.596  1.00  0.00     0.000 HD 
BRANCH  15  17
HETATM   17  C   UNL     1      -6.513   8.225  70.475  1.00  0.00    -0.036 C  
HETATM   18  O   UNL     1      -8.559   9.337  69.848  1.00  0.00    -0.138 OA 
HETATM   19  C   UNL     1      -5.779   7.805  71.742  1.00  0.00    -0.035 C  
HETATM   20  O   UNL     1     -12.431   7.884  72.401  1.00  0.00    -0.263 OA 
HETATM   21  O   UNL     1     -10.465   7.850  73.506  1.00  0.00    -0.239 OA 
HETATM   22  C   UNL     1      -6.090   6.395  72.206  1.00  0.00    -0.038 C  
HETATM   23  C   UNL     1      -8.061   8.458  70.571  1.00  0.00    -0.107 C  
HETATM   24  C   UNL     1      -7.445   6.338  72.868  1.00  0.00    -0.096 C  
HETATM   25  N   UNL     1      -8.553   6.429  71.942  1.00  0.00    -0.127 NA 
HETATM   26  C   UNL     1     -11.209   7.835  72.373  1.00  0.00    -0.337 C  
HETATM   27  C   UNL     1      -8.817   5.274  71.089  1.00  0.00    -0.135 C  
HETATM   28  N   UNL     1      -8.903   7.660  71.355  1.00  0.00    -0.130 N  
HETATM   29  C   UNL     1     -10.313   5.245  70.751  1.00  0.00    -0.309 C  
HETATM   30  C   UNL     1     -10.374   7.764  71.087  1.00  0.00    -0.200 C  
HETATM   31  C   UNL     1     -10.803   6.587  70.194  1.00  0.00    -0.336 C  
ENDBRANCH  15  17
ENDBRANCH   6  15
ENDBRANCH   4   6
ENDBRANCH   3   4
ENDBRANCH   2   3
TORSDOF 8
ENDMDL
MODEL      249
REMARK 921   NORMALIZED FREE ENERGY PREDICTED BY IDOCK:   -2.05 KCAL/MOL
REMARK 922        TOTAL FREE ENERGY PREDICTED BY IDOCK:   -4.22 KCAL/MOL
REMARK 923 INTER-LIGAND FREE ENERGY PREDICTED BY IDOCK:   -5.91 KCAL/MOL
REMARK 924 INTRA-LIGAND FREE ENERGY PREDICTED BY IDOCK:    1.69 KCAL/MOL
REMARK 927      BINDING AFFINITY PREDICTED BY RF-SCORE:    0.00 PKD
ROOT
HETATM    1  C   UNL     1     -13.320  12.325  64.044  1.00  0.00     0.283 C  
HETATM    2  C   UNL     1     -12.340  13.383  64.512  1.00  0.00    -0.360 C  
ENDROOT
BRANCH   2   3
HETATM    3  O   UNL     1     -11.007  13.024  64.123  1.00  0.00    -0.373 OA 
BRANCH   3   4
HETATM    4  C   UNL     1     -10.341  12.207  64.988  1.00  0.00    -0.287 C  
HETATM    5  O   UNL     1      -9.869  11.109  64.706  1.00  0.00    -0.242 OA 
BRANCH   4   6
HETATM    6  C   UNL     1     -10.237  12.870  66.373  1.00  0.00    -0.267 C  
BRANCH   6   7
HETATM    7  C   UNL     1     -10.067  11.793  67.449  1.00  0.00    -0.212 C  
BRANCH   7   8
HETATM    8  C   UNL     1      -8.744  11.924  68.215  1.00  0.00    -0.170 C  
BRANCH   8   9
HETATM    9  C   UNL     1      -7.675  11.104  67.536  1.00  0.00    -0.116 A  
HETATM   10  C   UNL     1      -5.557   9.664  66.407  1.00  0.00    -0.052 A  
HETATM   11  C   UNL     1      -6.242   9.148  67.505  1.00  0.00    -0.058 A  
HETATM   12  C   UNL     1      -7.298   9.864  68.069  1.00  0.00    -0.084 A  
HETATM   13  C   UNL     1      -5.934  10.890  65.862  1.00  0.00    -0.116 A  
HETATM   14  C   UNL     1      -6.991  11.608  66.423  1.00  0.00     0.141 A  
ENDBRANCH   8   9
ENDBRANCH   7   8
ENDBRANCH   6   7
BRANCH   6  15
HETATM   15  N   UNL     1     -11.439  13.705  66.556  1.00  0.00    -0.323 NA 
HETATM   16  H   UNL     1     -12.355  13.375  66.251  1.00  0.00     0.000 HD 
BRANCH  15  17
HETATM   17  C   UNL     1     -11.287  15.042  67.198  1.00  0.00    -0.320 C  
HETATM   18  O   UNL     1      -9.445  15.155  65.645  1.00  0.00    -0.307 OA 
HETATM   19  C   UNL     1     -11.515  14.866  68.694  1.00  0.00    -0.326 C  
HETATM   20  O   UNL     1      -5.743  17.891  67.203  1.00  0.00    -0.129 OA 
HETATM   21  O   UNL     1      -6.904  16.813  68.809  1.00  0.00    -0.166 OA 
HETATM   22  C   UNL     1     -11.604  16.166  69.470  1.00  0.00    -0.254 C  
HETATM   23  C   UNL     1      -9.886  15.570  66.730  1.00  0.00    -0.241 C  
HETATM   24  C   UNL     1     -10.233  16.767  69.662  1.00  0.00    -0.093 C  
HETATM   25  N   UNL     1      -9.679  17.357  68.462  1.00  0.00    -0.291 NA 
HETATM   26  C   UNL     1      -6.777  17.350  67.571  1.00  0.00    -0.151 C  
HETATM   27  C   UNL     1     -10.266  18.609  67.993  1.00  0.00    -0.385 C  
HETATM   28  N   UNL     1      -9.168  16.547  67.430  1.00  0.00    -0.215 N  
HETATM   29  C   UNL     1      -9.190  19.401  67.238  1.00  0.00    -0.378 C  
HETATM   30  C   UNL     1      -8.033  17.202  66.702  1.00  0.00    -0.265 C  
HETATM   31  C   UNL     1      -8.509  18.559  66.153  1.00  0.00    -0.153 C  
ENDBRANCH  15  17
ENDBRANCH   6  15
ENDBRANCH   4   6
ENDBRANCH   3   4
ENDBRANCH   2   3
TORSDOF 8
ENDMDL
MODEL      250
REMARK 921   NORMALIZED FREE ENERGY PREDICTED BY IDOCK:   -2.03 KCAL/MOL
REMARK 922        TOTAL FREE ENERGY PREDICTED BY IDOCK:   -4.20 KCAL/MOL
REMARK 923 INTER-LIGAND FREE ENERGY PREDICTED BY IDOCK:   -6.56 KCAL/MOL
REMARK 924 INTRA-LIGAND FREE ENERGY PREDICTED BY IDOCK:    2.36 KCAL/MOL
REMARK 927      BINDING AFFINITY PREDICTED BY RF-SCORE:    0.00 PKD
ROOT
HETATM    1  C   UNL     1      -5.706  15.908  71.190  1.00  0.00     0.315 C  
HETATM    2  C   UNL     1      -6.272  16.415  69.877  1.00  0.00    -0.163 C  
ENDROOT
BRANCH   2   3
HETATM    3  O   UNL     1      -5.618  15.767  68.778  1.00  0.00    -0.098 OA 
BRANCH   3   4
HETATM    4  C   UNL     1      -5.930  16.247  67.540  1.00  0.00    -0.160 C  
HETATM    5  O   UNL     1      -5.351  15.954  66.499  1.00  0.00     0.237 OA 
BRANCH   4   6
HETATM    6  C   UNL     1      -7.141  17.193  67.627  1.00  0.00    -0.153 C  
BRANCH   6   7
HETATM    7  C   UNL     1      -6.909  18.227  68.734  1.00  0.00    -0.268 C  
BRANCH   7   8
HETATM    8  C   UNL     1      -7.180  19.664  68.270  1.00  0.00    -0.341 C  
BRANCH   8   9
HETATM    9  C   UNL     1      -8.554  19.752  67.655  1.00  0.00    -0.376 A  
HETATM   10  C   UNL     1     -11.099  19.712  66.491  1.00  0.00    -0.148 A  
HETATM   11  C   UNL     1     -10.959  19.525  67.864  1.00  0.00    -0.143 A  
HETATM   12  C   UNL     1      -9.691  19.544  68.445  1.00  0.00    -0.498 A  
HETATM   13  C   UNL     1      -9.975  19.933  65.698  1.00  0.00    -0.252 A  
HETATM   14  C   UNL     1      -8.705  19.955  66.277  1.00  0.00    -0.384 A  
ENDBRANCH   8   9
ENDBRANCH   7   8
ENDBRANCH   6   7
BRANCH   6  15
HETATM   15  N   UNL     1      -8.341  16.360  67.837  1.00  0.00    -0.169 NA 
HETATM   16  H   UNL     1      -9.183  16.755  68.256  1.00  0.00     0.000 HD 
BRANCH  15  17
HETATM   17  C   UNL     1      -8.295  14.928  67.424  1.00  0.00    -0.194 C  
HETATM   18  O   UNL     1      -9.930  15.727  65.842  1.00  0.00    -0.301 OA 
HETATM   19  C   UNL     1      -8.244  14.084  68.692  1.00  0.00    -0.103 C  
HETATM   20  O   UNL     1     -13.174  12.359  64.518  1.00  0.00    -0.834 OA 
HETATM   21  O   UNL     1     -12.392  12.186  66.627  1.00  0.00    -0.453 OA 
HETATM   22  C   UNL     1      -7.983  12.610  68.449  1.00  0.00    -0.134 C  
HETATM   23  C   UNL     1      -9.521  14.734  66.466  1.00  0.00    -0.293 C  
HETATM   24  C   UNL     1      -9.226  11.924  67.938  1.00  0.00    -0.187 C  
HETATM   25  N   UNL     1      -9.544  12.238  66.562  1.00  0.00    -0.232 NA 
HETATM   26  C   UNL     1     -12.299  12.600  65.340  1.00  0.00    -0.436 C  
HETATM   27  C   UNL     1      -8.690  11.668  65.524  1.00  0.00     0.192 C  
HETATM   28  N   UNL     1     -10.102  13.484  66.217  1.00  0.00    -0.291 N  
HETATM   29  C   UNL     1      -9.520  11.494  64.246  1.00  0.00    -0.106 C  
HETATM   30  C   UNL     1     -11.019  13.390  65.035  1.00  0.00    -0.316 C  
HETATM   31  C   UNL     1     -10.246  12.786  63.850  1.00  0.00    -0.265 C  
ENDBRANCH  15  17
ENDBRANCH   6  15
ENDBRANCH   4   6
ENDBRANCH   3   4
ENDBRANCH   2   3
TORSDOF 8
ENDMDL
MODEL      251
REMARK 921   NORMALIZED FREE ENERGY PREDICTED BY IDOCK:   -1.95 KCAL/MOL
REMARK 922        TOTAL FREE ENERGY PREDICTED BY IDOCK:   -4.08 KCAL/MOL
REMARK 923 INTER-LIGAND FREE ENERGY PREDICTED BY IDOCK:   -4.74 KCAL/MOL
REMARK 924 INTRA-LIGAND FREE ENERGY PREDICTED BY IDOCK:    0.66 KCAL/MOL
REMARK 927      BINDING AFFINITY PREDICTED BY RF-SCORE:    0.00 PKD
ROOT
HETATM    1  C   UNL     1      -5.368  15.791  71.777  1.00  0.00     0.196 C  
HETATM    2  C   UNL     1      -5.971  15.990  70.400  1.00  0.00    -0.007 C  
ENDROOT
BRANCH   2   3
HETATM    3  O   UNL     1      -5.223  15.250  69.426  1.00  0.00    -0.093 OA 
BRANCH   3   4
HETATM    4  C   UNL     1      -5.849  15.048  68.232  1.00  0.00    -0.119 C  
HETATM    5  O   UNL     1      -5.294  15.007  67.137  1.00  0.00    -0.207 OA 
BRANCH   4   6
HETATM    6  C   UNL     1      -7.359  14.844  68.451  1.00  0.00    -0.114 C  
BRANCH   6   7
HETATM    7  C   UNL     1      -7.961  16.103  69.085  1.00  0.00    -0.233 C  
BRANCH   7   8
HETATM    8  C   UNL     1      -9.284  16.522  68.430  1.00  0.00    -0.222 C  
BRANCH   8   9
HETATM    9  C   UNL     1     -10.393  15.607  68.886  1.00  0.00    -0.218 A  
HETATM   10  C   UNL     1     -12.309  13.763  69.760  1.00  0.00    -0.311 A  
HETATM   11  C   UNL     1     -11.623  14.546  70.687  1.00  0.00    -0.278 A  
HETATM   12  C   UNL     1     -10.668  15.465  70.252  1.00  0.00    -0.320 A  
HETATM   13  C   UNL     1     -12.052  13.906  68.398  1.00  0.00    -0.327 A  
HETATM   14  C   UNL     1     -11.098  14.826  67.961  1.00  0.00    -0.294 A  
ENDBRANCH   8   9
ENDBRANCH   7   8
ENDBRANCH   6   7
BRANCH   6  15
HETATM   15  N   UNL     1      -7.528  13.630  69.271  1.00  0.00    -0.317 NA 
HETATM   16  H   UNL     1      -7.980  13.676  70.185  1.00  0.00     0.000 HD 
BRANCH  15  17
HETATM   17  C   UNL     1      -7.026  12.333  68.735  1.00  0.00    -0.098 C  
HETATM   18  O   UNL     1      -9.389  11.991  68.398  1.00  0.00    -0.200 OA 
HETATM   19  C   UNL     1      -5.919  11.848  69.664  1.00  0.00    -0.114 C  
HETATM   20  O   UNL     1     -10.745   7.332  68.661  1.00  0.00    -0.203 OA 
HETATM   21  O   UNL     1      -9.006   7.918  69.972  1.00  0.00    -0.144 OA 
HETATM   22  C   UNL     1      -5.154  10.644  69.148  1.00  0.00    -0.041 C  
HETATM   23  C   UNL     1      -8.297  11.427  68.580  1.00  0.00    -0.153 C  
HETATM   24  C   UNL     1      -5.967   9.383  69.316  1.00  0.00    -0.037 C  
HETATM   25  N   UNL     1      -7.064   9.264  68.381  1.00  0.00    -0.072 NA 
HETATM   26  C   UNL     1      -9.815   8.091  68.899  1.00  0.00    -0.175 C  
HETATM   27  C   UNL     1      -6.735   8.978  66.987  1.00  0.00    -0.069 C  
HETATM   28  N   UNL     1      -8.236  10.029  68.542  1.00  0.00    -0.105 N  
HETATM   29  C   UNL     1      -7.906   8.216  66.353  1.00  0.00    -0.093 C  
HETATM   30  C   UNL     1      -9.455   9.313  68.044  1.00  0.00    -0.137 C  
HETATM   31  C   UNL     1      -9.244   8.934  66.568  1.00  0.00    -0.231 C  
ENDBRANCH  15  17
ENDBRANCH   6  15
ENDBRANCH   4   6
ENDBRANCH   3   4
ENDBRANCH   2   3
TORSDOF 8
ENDMDL
MODEL      252
REMARK 921   NORMALIZED FREE ENERGY PREDICTED BY IDOCK:   -1.93 KCAL/MOL
REMARK 922        TOTAL FREE ENERGY PREDICTED BY IDOCK:   -4.04 KCAL/MOL
REMARK 923 INTER-LIGAND FREE ENERGY PREDICTED BY IDOCK:   -5.45 KCAL/MOL
REMARK 924 INTRA-LIGAND FREE ENERGY PREDICTED BY IDOCK:    1.41 KCAL/MOL
REMARK 927      BINDING AFFINITY PREDICTED BY RF-SCORE:    0.00 PKD
ROOT
HETATM    1  C   UNL     1     -12.147  15.230  66.340  1.00  0.00     0.439 C  
HETATM    2  C   UNL     1     -12.243  13.952  67.150  1.00  0.00    -0.318 C  
ENDROOT
BRANCH   2   3
HETATM    3  O   UNL     1     -11.777  14.181  68.486  1.00  0.00    -0.306 OA 
BRANCH   3   4
HETATM    4  C   UNL     1     -10.464  14.532  68.600  1.00  0.00    -0.247 C  
HETATM    5  O   UNL     1     -10.009  15.322  69.422  1.00  0.00    -0.234 OA 
BRANCH   4   6
HETATM    6  C   UNL     1      -9.618  13.770  67.564  1.00  0.00    -0.219 C  
BRANCH   6   7
HETATM    7  C   UNL     1      -9.606  12.277  67.908  1.00  0.00    -0.203 C  
BRANCH   7   8
HETATM    8  C   UNL     1      -9.897  11.386  66.693  1.00  0.00    -0.233 C  
BRANCH   8   9
HETATM    9  C   UNL     1      -9.590   9.948  67.028  1.00  0.00    -0.218 A  
HETATM   10  C   UNL     1      -8.928   7.263  67.465  1.00  0.00    -0.122 A  
HETATM   11  C   UNL     1      -8.016   8.266  67.788  1.00  0.00    -0.122 A  
HETATM   12  C   UNL     1      -8.345   9.604  67.570  1.00  0.00    -0.118 A  
HETATM   13  C   UNL     1     -10.174   7.595  66.937  1.00  0.00    -0.365 A  
HETATM   14  C   UNL     1     -10.506   8.934  66.720  1.00  0.00    -0.269 A  
ENDBRANCH   8   9
ENDBRANCH   7   8
ENDBRANCH   6   7
BRANCH   6  15
HETATM   15  N   UNL     1      -8.277  14.384  67.547  1.00  0.00    -0.175 NA 
HETATM   16  H   UNL     1      -7.479  13.906  67.966  1.00  0.00     0.000 HD 
BRANCH  15  17
HETATM   17  C   UNL     1      -8.114  15.720  66.905  1.00  0.00    -0.257 C  
HETATM   18  O   UNL     1      -6.561  15.985  68.731  1.00  0.00    -0.117 OA 
HETATM   19  C   UNL     1      -9.498  16.209  66.497  1.00  0.00    -0.289 C  
HETATM   20  O   UNL     1      -6.114  20.577  70.260  1.00  0.00    -0.453 OA 
HETATM   21  O   UNL     1      -8.147  20.005  69.469  1.00  0.00     0.102 OA 
HETATM   22  C   UNL     1      -9.491  17.460  65.640  1.00  0.00     0.297 C  
HETATM   23  C   UNL     1      -7.310  16.582  67.939  1.00  0.00    -0.136 C  
HETATM   24  C   UNL     1      -9.212  18.681  66.482  1.00  0.00    -0.320 C  
HETATM   25  N   UNL     1      -7.834  18.796  66.909  1.00  0.00    -0.236 NA 
HETATM   26  C   UNL     1      -6.805  19.844  69.565  1.00  0.00    -0.278 C  
HETATM   27  C   UNL     1      -6.841  19.150  65.898  1.00  0.00    -0.267 C  
HETATM   28  N   UNL     1      -7.329  17.982  67.941  1.00  0.00    -0.219 N  
HETATM   29  C   UNL     1      -5.686  19.891  66.584  1.00  0.00    -0.177 C  
HETATM   30  C   UNL     1      -6.263  18.671  68.738  1.00  0.00    -0.221 C  
HETATM   31  C   UNL     1      -5.138  19.116  67.787  1.00  0.00    -0.168 C  
ENDBRANCH  15  17
ENDBRANCH   6  15
ENDBRANCH   4   6
ENDBRANCH   3   4
ENDBRANCH   2   3
TORSDOF 8
ENDMDL
MODEL      253
REMARK 921   NORMALIZED FREE ENERGY PREDICTED BY IDOCK:   -1.20 KCAL/MOL
REMARK 922        TOTAL FREE ENERGY PREDICTED BY IDOCK:   -2.97 KCAL/MOL
REMARK 923 INTER-LIGAND FREE ENERGY PREDICTED BY IDOCK:   -4.26 KCAL/MOL
REMARK 924 INTRA-LIGAND FREE ENERGY PREDICTED BY IDOCK:    1.30 KCAL/MOL
REMARK 927      BINDING AFFINITY PREDICTED BY RF-SCORE:    0.00 PKD
ROOT
HETATM    1  C   UNL     1      -6.658  20.318  66.541  1.00  0.00    -0.261 C  
HETATM    2  C   UNL     1      -6.417  19.318  67.656  1.00  0.00    -0.212 C  
ENDROOT
BRANCH   2   3
HETATM    3  O   UNL     1      -5.901  18.095  67.114  1.00  0.00    -0.138 OA 
BRANCH   3   4
HETATM    4  C   UNL     1      -6.837  17.171  66.751  1.00  0.00    -0.224 C  
HETATM    5  O   UNL     1      -7.567  17.250  65.767  1.00  0.00    -0.440 OA 
BRANCH   4   6
HETATM    6  C   UNL     1      -6.828  15.991  67.738  1.00  0.00    -0.147 C  
BRANCH   6   7
HETATM    7  C   UNL     1      -7.531  14.785  67.104  1.00  0.00    -0.069 C  
BRANCH   7   8
HETATM    8  C   UNL     1      -6.816  13.460  67.399  1.00  0.00    -0.081 C  
BRANCH   8   9
HETATM    9  C   UNL     1      -7.802  12.320  67.329  1.00  0.00    -0.171 A  
HETATM   10  C   UNL     1      -9.504  10.113  67.068  1.00  0.00    -0.197 A  
HETATM   11  C   UNL     1      -8.476  10.092  68.008  1.00  0.00    -0.118 A  
HETATM   12  C   UNL     1      -7.628  11.192  68.140  1.00  0.00    -0.103 A  
HETATM   13  C   UNL     1      -9.693  11.237  66.265  1.00  0.00    -0.246 A  
HETATM   14  C   UNL     1      -8.846  12.339  66.396  1.00  0.00    -0.072 A  
ENDBRANCH   8   9
ENDBRANCH   7   8
ENDBRANCH   6   7
BRANCH   6  15
HETATM   15  N   UNL     1      -7.459  16.453  68.989  1.00  0.00    -0.219 NA 
HETATM   16  H   UNL     1      -6.890  16.707  69.797  1.00  0.00     0.000 HD 
BRANCH  15  17
HETATM   17  C   UNL     1      -8.946  16.543  69.046  1.00  0.00    -0.225 C  
HETATM   18  O   UNL     1      -8.657  14.379  70.069  1.00  0.00     0.691 OA 
HETATM   19  C   UNL     1      -9.425  17.131  67.724  1.00  0.00    -0.253 C  
HETATM   20  O   UNL     1     -12.381  11.348  69.310  1.00  0.00    -0.291 OA 
HETATM   21  O   UNL     1     -11.961  12.815  67.649  1.00  0.00    -0.354 OA 
HETATM   22  C   UNL     1     -10.899  17.485  67.696  1.00  0.00    -0.229 C  
HETATM   23  C   UNL     1      -9.434  15.101  69.423  1.00  0.00    -0.183 C  
HETATM   24  C   UNL     1     -11.743  16.243  67.549  1.00  0.00     0.451 C  
HETATM   25  N   UNL     1     -11.815  15.438  68.749  1.00  0.00    -0.344 NA 
HETATM   26  C   UNL     1     -11.898  12.410  68.941  1.00  0.00    -0.301 C  
HETATM   27  C   UNL     1     -12.605  15.957  69.863  1.00  0.00     0.175 C  
HETATM   28  N   UNL     1     -10.727  14.639  69.148  1.00  0.00    -0.251 N  
HETATM   29  C   UNL     1     -13.142  14.772  70.677  1.00  0.00    -0.343 C  
HETATM   30  C   UNL     1     -11.166  13.396  69.861  1.00  0.00     0.098 C  
HETATM   31  C   UNL     1     -12.029  13.793  71.072  1.00  0.00    -0.206 C  
ENDBRANCH  15  17
ENDBRANCH   6  15
ENDBRANCH   4   6
ENDBRANCH   3   4
ENDBRANCH   2   3
TORSDOF 8
ENDMDL
MODEL      254
REMARK 921   NORMALIZED FREE ENERGY PREDICTED BY IDOCK:    0.00 KCAL/MOL
REMARK 922        TOTAL FREE ENERGY PREDICTED BY IDOCK:   -1.20 KCAL/MOL
REMARK 923 INTER-LIGAND FREE ENERGY PREDICTED BY IDOCK:   -1.53 KCAL/MOL
REMARK 924 INTRA-LIGAND FREE ENERGY PREDICTED BY IDOCK:    0.33 KCAL/MOL
REMARK 927      BINDING AFFINITY PREDICTED BY RF-SCORE:    0.00 PKD
ROOT
HETATM    1  C   UNL     1      -6.379  12.775  70.824  1.00  0.00     0.738 C  
HETATM    2  C   UNL     1      -6.700  11.709  69.794  1.00  0.00    -0.012 C  
ENDROOT
BRANCH   2   3
HETATM    3  O   UNL     1      -5.595  11.548  68.894  1.00  0.00    -0.046 OA 
BRANCH   3   4
HETATM    4  C   UNL     1      -5.835  10.768  67.801  1.00  0.00    -0.043 C  
HETATM    5  O   UNL     1      -6.484  11.108  66.816  1.00  0.00    -0.104 OA 
BRANCH   4   6
HETATM    6  C   UNL     1      -5.145   9.402  67.961  1.00  0.00    -0.033 C  
BRANCH   6   7
HETATM    7  C   UNL     1      -5.237   8.621  66.646  1.00  0.00    -0.035 C  
BRANCH   7   8
HETATM    8  C   UNL     1      -6.660   8.133  66.344  1.00  0.00    -0.051 C  
BRANCH   8   9
HETATM    9  C   UNL     1      -6.626   7.114  65.232  1.00  0.00    -0.047 A  
HETATM   10  C   UNL     1      -6.758   5.177  63.215  1.00  0.00    -0.033 A  
HETATM   11  C   UNL     1      -7.165   6.484  62.953  1.00  0.00    -0.054 A  
HETATM   12  C   UNL     1      -7.099   7.450  63.958  1.00  0.00    -0.071 A  
HETATM   13  C   UNL     1      -6.273   4.836  64.477  1.00  0.00    -0.030 A  
HETATM   14  C   UNL     1      -6.205   5.801  65.483  1.00  0.00    -0.037 A  
ENDBRANCH   8   9
ENDBRANCH   7   8
ENDBRANCH   6   7
BRANCH   6  15
HETATM   15  N   UNL     1      -5.781   8.715  69.102  1.00  0.00    -0.038 NA 
HETATM   16  H   UNL     1      -5.667   9.068  70.053  1.00  0.00     0.000 HD 
BRANCH  15  17
HETATM   17  C   UNL     1      -6.595   7.494  68.836  1.00  0.00    -0.048 C  
HETATM   18  O   UNL     1      -8.356   8.971  69.565  1.00  0.00    -0.109 OA 
HETATM   19  C   UNL     1      -5.813   6.295  69.360  1.00  0.00    -0.020 C  
HETATM   20  O   UNL     1     -12.049   6.680  71.740  1.00  0.00    -0.331 OA 
HETATM   21  O   UNL     1     -10.016   5.745  72.025  1.00  0.00    -0.170 OA 
HETATM   22  C   UNL     1      -6.404   4.951  68.981  1.00  0.00    -0.032 C  
HETATM   23  C   UNL     1      -7.999   7.785  69.471  1.00  0.00    -0.117 C  
HETATM   24  C   UNL     1      -7.615   4.643  69.827  1.00  0.00    -0.055 C  
HETATM   25  N   UNL     1      -8.787   5.415  69.476  1.00  0.00    -0.105 NA 
HETATM   26  C   UNL     1     -10.898   6.525  71.354  1.00  0.00    -0.245 C  
HETATM   27  C   UNL     1      -9.462   5.087  68.224  1.00  0.00    -0.133 C  
HETATM   28  N   UNL     1      -8.892   6.772  69.839  1.00  0.00    -0.141 N  
HETATM   29  C   UNL     1     -10.949   5.442  68.360  1.00  0.00     0.247 C  
HETATM   30  C   UNL     1     -10.310   7.183  70.099  1.00  0.00    -0.206 C  
HETATM   31  C   UNL     1     -11.155   6.881  68.848  1.00  0.00    -0.171 C  
ENDBRANCH  15  17
ENDBRANCH   6  15
ENDBRANCH   4   6
ENDBRANCH   3   4
ENDBRANCH   2   3
TORSDOF 8
ENDMDL
MODEL      255
REMARK 921   NORMALIZED FREE ENERGY PREDICTED BY IDOCK:    0.26 KCAL/MOL
REMARK 922        TOTAL FREE ENERGY PREDICTED BY IDOCK:   -0.83 KCAL/MOL
REMARK 923 INTER-LIGAND FREE ENERGY PREDICTED BY IDOCK:   -4.80 KCAL/MOL
REMARK 924 INTRA-LIGAND FREE ENERGY PREDICTED BY IDOCK:    3.97 KCAL/MOL
REMARK 927      BINDING AFFINITY PREDICTED BY RF-SCORE:    0.00 PKD
ROOT
HETATM    1  C   UNL     1      -6.640  20.402  65.837  1.00  0.00    -0.267 C  
HETATM    2  C   UNL     1      -6.314  19.279  66.803  1.00  0.00    -0.185 C  
ENDROOT
BRANCH   2   3
HETATM    3  O   UNL     1      -6.248  18.031  66.100  1.00  0.00    -0.182 OA 
BRANCH   3   4
HETATM    4  C   UNL     1      -7.381  17.273  66.138  1.00  0.00    -0.281 C  
HETATM    5  O   UNL     1      -8.405  17.494  65.497  1.00  0.00    -0.257 OA 
BRANCH   4   6
HETATM    6  C   UNL     1      -7.187  16.073  67.082  1.00  0.00    -0.222 C  
BRANCH   6   7
HETATM    7  C   UNL     1      -8.050  14.900  66.608  1.00  0.00     0.134 C  
BRANCH   7   8
HETATM    8  C   UNL     1      -9.294  15.354  65.833  1.00  0.00    -0.329 C  
BRANCH   8   9
HETATM    9  C   UNL     1      -9.940  14.168  65.161  1.00  0.00    -0.263 A  
HETATM   10  C   UNL     1     -11.286  11.975  64.058  1.00  0.00    -0.468 A  
HETATM   11  C   UNL     1     -11.639  13.269  63.683  1.00  0.00    -0.376 A  
HETATM   12  C   UNL     1     -10.970  14.363  64.232  1.00  0.00    -0.005 A  
HETATM   13  C   UNL     1     -10.254  11.771  64.973  1.00  0.00    -0.314 A  
HETATM   14  C   UNL     1      -9.581  12.863  65.522  1.00  0.00     0.012 A  
ENDBRANCH   8   9
ENDBRANCH   7   8
ENDBRANCH   6   7
BRANCH   6  15
HETATM   15  N   UNL     1      -7.505  16.528  68.449  1.00  0.00    -0.177 NA 
HETATM   16  H   UNL     1      -6.763  16.809  69.091  1.00  0.00     0.000 HD 
BRANCH  15  17
HETATM   17  C   UNL     1      -8.933  16.568  68.872  1.00  0.00    -0.245 C  
HETATM   18  O   UNL     1      -8.497  14.224  69.234  1.00  0.00     0.059 OA 
HETATM   19  C   UNL     1      -9.683  17.456  67.885  1.00  0.00    -0.272 C  
HETATM   20  O   UNL     1     -12.406  11.397  68.643  1.00  0.00    -0.491 OA 
HETATM   21  O   UNL     1     -12.328  13.239  67.343  1.00  0.00    -0.243 OA 
HETATM   22  C   UNL     1     -11.109  17.773  68.290  1.00  0.00     0.184 C  
HETATM   23  C   UNL     1      -9.375  15.068  68.985  1.00  0.00    -0.206 C  
HETATM   24  C   UNL     1     -12.010  16.589  68.043  1.00  0.00     0.758 C  
HETATM   25  N   UNL     1     -11.833  15.510  68.991  1.00  0.00    -0.367 NA 
HETATM   26  C   UNL     1     -11.982  12.528  68.444  1.00  0.00    -0.221 C  
HETATM   27  C   UNL     1     -12.323  15.718  70.351  1.00  0.00    -0.333 C  
HETATM   28  N   UNL     1     -10.713  14.660  68.915  1.00  0.00    -0.241 N  
HETATM   29  C   UNL     1     -12.701  14.357  70.949  1.00  0.00    -0.425 C  
HETATM   30  C   UNL     1     -11.021  13.270  69.382  1.00  0.00    -0.012 C  
HETATM   31  C   UNL     1     -11.565  13.335  70.820  1.00  0.00     0.434 C  
ENDBRANCH  15  17
ENDBRANCH   6  15
ENDBRANCH   4   6
ENDBRANCH   3   4
ENDBRANCH   2   3
TORSDOF 8
ENDMDL
MODEL      256
REMARK 921   NORMALIZED FREE ENERGY PREDICTED BY IDOCK:    0.55 KCAL/MOL
REMARK 922        TOTAL FREE ENERGY PREDICTED BY IDOCK:   -0.40 KCAL/MOL
REMARK 923 INTER-LIGAND FREE ENERGY PREDICTED BY IDOCK:   -2.97 KCAL/MOL
REMARK 924 INTRA-LIGAND FREE ENERGY PREDICTED BY IDOCK:    2.57 KCAL/MOL
REMARK 927      BINDING AFFINITY PREDICTED BY RF-SCORE:    0.00 PKD
ROOT
HETATM    1  C   UNL     1     -10.388  16.132  70.134  1.00  0.00    -0.042 C  
HETATM    2  C   UNL     1      -9.201  16.820  69.489  1.00  0.00     0.255 C  
ENDROOT
BRANCH   2   3
HETATM    3  O   UNL     1      -8.782  16.089  68.329  1.00  0.00    -0.171 OA 
BRANCH   3   4
HETATM    4  C   UNL     1      -9.275  14.822  68.220  1.00  0.00    -0.187 C  
HETATM    5  O   UNL     1      -9.914  14.233  69.088  1.00  0.00    -0.153 OA 
BRANCH   4   6
HETATM    6  C   UNL     1      -8.942  14.239  66.836  1.00  0.00    -0.236 C  
BRANCH   6   7
HETATM    7  C   UNL     1      -9.867  14.856  65.781  1.00  0.00    -0.380 C  
BRANCH   7   8
HETATM    8  C   UNL     1     -10.912  15.801  66.389  1.00  0.00    -0.159 C  
BRANCH   8   9
HETATM    9  C   UNL     1     -10.428  17.226  66.297  1.00  0.00    -0.268 A  
HETATM   10  C   UNL     1      -9.474  19.858  66.323  1.00  0.00    -0.505 A  
HETATM   11  C   UNL     1      -8.605  18.806  66.045  1.00  0.00    -0.037 A  
HETATM   12  C   UNL     1      -9.079  17.494  66.032  1.00  0.00    -0.060 A  
HETATM   13  C   UNL     1     -10.821  19.603  66.576  1.00  0.00    -0.454 A  
HETATM   14  C   UNL     1     -11.298  18.292  66.561  1.00  0.00     1.055 A  
ENDBRANCH   8   9
ENDBRANCH   7   8
ENDBRANCH   6   7
BRANCH   6  15
HETATM   15  N   UNL     1      -9.053  12.771  66.934  1.00  0.00    -0.219 NA 
HETATM   16  H   UNL     1      -9.953  12.328  67.124  1.00  0.00     0.000 HD 
BRANCH  15  17
HETATM   17  C   UNL     1      -7.823  11.949  66.751  1.00  0.00    -0.070 C  
HETATM   18  O   UNL     1      -9.197  10.961  65.034  1.00  0.00    -0.199 OA 
HETATM   19  C   UNL     1      -7.290  11.600  68.136  1.00  0.00    -0.092 C  
HETATM   20  O   UNL     1      -8.205   6.278  64.195  1.00  0.00    -0.102 OA 
HETATM   21  O   UNL     1      -7.901   6.975  66.319  1.00  0.00    -0.098 OA 
HETATM   22  C   UNL     1      -5.924  10.943  68.131  1.00  0.00    -0.049 C  
HETATM   23  C   UNL     1      -8.249  10.767  65.813  1.00  0.00    -0.146 C  
HETATM   24  C   UNL     1      -6.028   9.497  67.711  1.00  0.00    -0.052 C  
HETATM   25  N   UNL     1      -6.276   9.314  66.297  1.00  0.00    -0.063 NA 
HETATM   26  C   UNL     1      -8.002   7.190  64.984  1.00  0.00    -0.129 C  
HETATM   27  C   UNL     1      -5.179   9.600  65.377  1.00  0.00    -0.040 C  
HETATM   28  N   UNL     1      -7.552   9.554  65.752  1.00  0.00    -0.099 N  
HETATM   29  C   UNL     1      -5.348   8.727  64.127  1.00  0.00    -0.056 C  
HETATM   30  C   UNL     1      -7.848   8.664  64.583  1.00  0.00    -0.129 C  
HETATM   31  C   UNL     1      -6.751   8.853  63.521  1.00  0.00    -0.089 C  
ENDBRANCH  15  17
ENDBRANCH   6  15
ENDBRANCH   4   6
ENDBRANCH   3   4
ENDBRANCH   2   3
TORSDOF 8
ENDMDL
MODEL      257
REMARK 921   NORMALIZED FREE ENERGY PREDICTED BY IDOCK:    0.57 KCAL/MOL
REMARK 922        TOTAL FREE ENERGY PREDICTED BY IDOCK:   -0.37 KCAL/MOL
REMARK 923 INTER-LIGAND FREE ENERGY PREDICTED BY IDOCK:   -2.17 KCAL/MOL
REMARK 924 INTRA-LIGAND FREE ENERGY PREDICTED BY IDOCK:    1.80 KCAL/MOL
REMARK 927      BINDING AFFINITY PREDICTED BY RF-SCORE:    0.00 PKD
ROOT
HETATM    1  C   UNL     1     -11.893  12.580  70.463  1.00  0.00    -0.145 C  
HETATM    2  C   UNL     1     -11.913  11.180  69.881  1.00  0.00    -0.363 C  
ENDROOT
BRANCH   2   3
HETATM    3  O   UNL     1     -10.931  11.066  68.843  1.00  0.00    -0.194 OA 
BRANCH   3   4
HETATM    4  C   UNL     1      -9.636  10.984  69.262  1.00  0.00     0.016 C  
HETATM    5  O   UNL     1      -9.244  11.216  70.402  1.00  0.00     1.727 OA 
BRANCH   4   6
HETATM    6  C   UNL     1      -8.731  10.527  68.105  1.00  0.00    -0.130 C  
BRANCH   6   7
HETATM    7  C   UNL     1      -7.809   9.401  68.587  1.00  0.00    -0.088 C  
BRANCH   7   8
HETATM    8  C   UNL     1      -8.208   8.857  69.965  1.00  0.00    -0.122 C  
BRANCH   8   9
HETATM    9  C   UNL     1      -7.344   7.671  70.316  1.00  0.00    -0.071 A  
HETATM   10  C   UNL     1      -5.711   5.442  70.767  1.00  0.00    -0.016 A  
HETATM   11  C   UNL     1      -5.141   6.705  70.624  1.00  0.00    -0.018 A  
HETATM   12  C   UNL     1      -5.953   7.817  70.399  1.00  0.00    -0.030 A  
HETATM   13  C   UNL     1      -7.095   5.289  70.700  1.00  0.00    -0.060 A  
HETATM   14  C   UNL     1      -7.910   6.400  70.477  1.00  0.00    -0.107 A  
ENDBRANCH   8   9
ENDBRANCH   7   8
ENDBRANCH   6   7
BRANCH   6  15
HETATM   15  N   UNL     1      -8.007  11.714  67.612  1.00  0.00    -0.129 NA 
HETATM   16  H   UNL     1      -7.008  11.825  67.785  1.00  0.00     0.000 HD 
BRANCH  15  17
HETATM   17  C   UNL     1      -8.769  12.748  66.855  1.00  0.00    -0.168 C  
HETATM   18  O   UNL     1      -7.338  14.199  68.145  1.00  0.00    -0.104 OA 
HETATM   19  C   UNL     1     -10.229  12.314  66.820  1.00  0.00    -0.229 C  
HETATM   20  O   UNL     1      -9.334  18.515  69.151  1.00  0.00    -0.168 OA 
HETATM   21  O   UNL     1     -10.773  16.784  69.009  1.00  0.00    -0.322 OA 
HETATM   22  C   UNL     1     -11.107  13.149  65.908  1.00  0.00    -0.298 C  
HETATM   23  C   UNL     1      -8.429  14.110  67.555  1.00  0.00    -0.187 C  
HETATM   24  C   UNL     1     -11.428  14.478  66.547  1.00  0.00    -0.362 C  
HETATM   25  N   UNL     1     -10.317  15.405  66.558  1.00  0.00    -0.280 NA 
HETATM   26  C   UNL     1      -9.595  17.395  68.734  1.00  0.00    -0.267 C  
HETATM   27  C   UNL     1      -9.924  16.004  65.286  1.00  0.00    -0.029 C  
HETATM   28  N   UNL     1      -9.250  15.240  67.462  1.00  0.00    -0.197 N  
HETATM   29  C   UNL     1      -9.302  17.379  65.563  1.00  0.00     0.648 C  
HETATM   30  C   UNL     1      -8.646  16.549  67.874  1.00  0.00    -0.183 C  
HETATM   31  C   UNL     1      -8.189  17.307  66.615  1.00  0.00    -0.296 C  
ENDBRANCH  15  17
ENDBRANCH   6  15
ENDBRANCH   4   6
ENDBRANCH   3   4
ENDBRANCH   2   3
TORSDOF 8
ENDMDL
MODEL      258
REMARK 921   NORMALIZED FREE ENERGY PREDICTED BY IDOCK:    0.71 KCAL/MOL
REMARK 922        TOTAL FREE ENERGY PREDICTED BY IDOCK:   -0.17 KCAL/MOL
REMARK 923 INTER-LIGAND FREE ENERGY PREDICTED BY IDOCK:   -1.66 KCAL/MOL
REMARK 924 INTRA-LIGAND FREE ENERGY PREDICTED BY IDOCK:    1.49 KCAL/MOL
REMARK 927      BINDING AFFINITY PREDICTED BY RF-SCORE:    0.00 PKD
ROOT
HETATM    1  C   UNL     1     -12.568  11.035  63.180  1.00  0.00     1.723 C  
HETATM    2  C   UNL     1     -13.093  12.436  63.425  1.00  0.00     0.237 C  
ENDROOT
BRANCH   2   3
HETATM    3  O   UNL     1     -12.018  13.382  63.358  1.00  0.00    -0.480 OA 
BRANCH   3   4
HETATM    4  C   UNL     1     -12.158  14.491  64.139  1.00  0.00    -0.350 C  
HETATM    5  O   UNL     1     -13.192  14.834  64.705  1.00  0.00    -0.144 OA 
BRANCH   4   6
HETATM    6  C   UNL     1     -10.819  15.243  64.240  1.00  0.00     0.340 C  
BRANCH   6   7
HETATM    7  C   UNL     1      -9.761  14.328  64.866  1.00  0.00     0.261 C  
BRANCH   7   8
HETATM    8  C   UNL     1     -10.003  12.845  64.559  1.00  0.00    -0.160 C  
BRANCH   8   9
HETATM    9  C   UNL     1      -9.621  12.006  65.753  1.00  0.00    -0.227 A  
HETATM   10  C   UNL     1      -8.756  10.379  67.860  1.00  0.00    -0.118 A  
HETATM   11  C   UNL     1      -8.230  11.660  67.709  1.00  0.00    -0.141 A  
HETATM   12  C   UNL     1      -8.660  12.472  66.660  1.00  0.00    -0.057 A  
HETATM   13  C   UNL     1      -9.722   9.911  66.971  1.00  0.00    -0.230 A  
HETATM   14  C   UNL     1     -10.156  10.722  65.921  1.00  0.00    -0.314 A  
ENDBRANCH   8   9
ENDBRANCH   7   8
ENDBRANCH   6   7
BRANCH   6  15
HETATM   15  N   UNL     1     -11.062  16.479  65.008  1.00  0.00    -0.456 NA 
HETATM   16  H   UNL     1     -11.872  17.067  64.808  1.00  0.00     0.000 HD 
BRANCH  15  17
HETATM   17  C   UNL     1     -10.097  16.852  66.081  1.00  0.00    -0.333 C  
HETATM   18  O   UNL     1     -11.062  14.893  67.103  1.00  0.00    -0.316 OA 
HETATM   19  C   UNL     1     -10.143  18.367  66.238  1.00  0.00    -0.409 C  
HETATM   20  O   UNL     1     -11.115  15.051  71.961  1.00  0.00    -0.248 OA 
HETATM   21  O   UNL     1     -11.331  17.039  70.917  1.00  0.00     0.226 OA 
HETATM   22  C   UNL     1      -9.068  18.934  67.145  1.00  0.00    -0.305 C  
HETATM   23  C   UNL     1     -10.496  15.978  67.320  1.00  0.00    -0.308 C  
HETATM   24  C   UNL     1      -9.408  18.687  68.594  1.00  0.00    -0.341 C  
HETATM   25  N   UNL     1      -9.232  17.312  69.011  1.00  0.00    -0.174 NA 
HETATM   26  C   UNL     1     -10.943  15.741  70.965  1.00  0.00    -0.187 C  
HETATM   27  C   UNL     1      -7.865  16.818  69.149  1.00  0.00    -0.145 C  
HETATM   28  N   UNL     1     -10.158  16.321  68.635  1.00  0.00    -0.224 N  
HETATM   29  C   UNL     1      -7.849  15.709  70.209  1.00  0.00     0.868 C  
HETATM   30  C   UNL     1     -10.289  15.243  69.669  1.00  0.00    -0.262 C  
HETATM   31  C   UNL     1      -8.902  14.630  69.929  1.00  0.00     0.612 C  
ENDBRANCH  15  17
ENDBRANCH   6  15
ENDBRANCH   4   6
ENDBRANCH   3   4
ENDBRANCH   2   3
TORSDOF 8
ENDMDL
MODEL      259
REMARK 921   NORMALIZED FREE ENERGY PREDICTED BY IDOCK:    0.76 KCAL/MOL
REMARK 922        TOTAL FREE ENERGY PREDICTED BY IDOCK:   -0.09 KCAL/MOL
REMARK 923 INTER-LIGAND FREE ENERGY PREDICTED BY IDOCK:   -4.83 KCAL/MOL
REMARK 924 INTRA-LIGAND FREE ENERGY PREDICTED BY IDOCK:    4.74 KCAL/MOL
REMARK 927      BINDING AFFINITY PREDICTED BY RF-SCORE:    0.00 PKD
ROOT
HETATM    1  C   UNL     1      -5.884  15.322  68.932  1.00  0.00    -0.097 C  
HETATM    2  C   UNL     1      -7.218  16.017  68.736  1.00  0.00    -0.157 C  
ENDROOT
BRANCH   2   3
HETATM    3  O   UNL     1      -8.281  15.182  69.213  1.00  0.00    -0.204 OA 
BRANCH   3   4
HETATM    4  C   UNL     1      -9.492  15.793  69.355  1.00  0.00    -0.275 C  
HETATM    5  O   UNL     1      -9.690  17.002  69.277  1.00  0.00    -0.198 OA 
BRANCH   4   6
HETATM    6  C   UNL     1     -10.591  14.744  69.598  1.00  0.00    -0.148 C  
BRANCH   6   7
HETATM    7  C   UNL     1     -10.086  13.361  69.176  1.00  0.00     0.224 C  
BRANCH   7   8
HETATM    8  C   UNL     1      -8.881  13.433  68.228  1.00  0.00    -0.172 C  
BRANCH   8   9
HETATM    9  C   UNL     1      -8.289  12.058  68.047  1.00  0.00    -0.162 A  
HETATM   10  C   UNL     1      -7.198   9.483  67.914  1.00  0.00    -0.082 A  
HETATM   11  C   UNL     1      -8.581   9.654  67.915  1.00  0.00    -0.122 A  
HETATM   12  C   UNL     1      -9.125  10.937  67.982  1.00  0.00    -0.152 A  
HETATM   13  C   UNL     1      -6.357  10.594  67.965  1.00  0.00    -0.058 A  
HETATM   14  C   UNL     1      -6.899  11.878  68.030  1.00  0.00    -0.072 A  
ENDBRANCH   8   9
ENDBRANCH   7   8
ENDBRANCH   6   7
BRANCH   6  15
HETATM   15  N   UNL     1     -11.794  15.184  68.866  1.00  0.00    -0.450 NA 
HETATM   16  H   UNL     1     -12.635  15.471  69.369  1.00  0.00     0.000 HD 
BRANCH  15  17
HETATM   17  C   UNL     1     -11.756  15.198  67.376  1.00  0.00    -0.175 C  
HETATM   18  O   UNL     1     -12.182  12.850  67.720  1.00  0.00    -0.243 OA 
HETATM   19  C   UNL     1     -10.606  16.105  66.953  1.00  0.00    -0.283 C  
HETATM   20  O   UNL     1     -10.349  10.002  64.236  1.00  0.00     0.109 OA 
HETATM   21  O   UNL     1      -9.178  11.878  64.679  1.00  0.00     0.089 OA 
HETATM   22  C   UNL     1     -10.556  16.397  65.466  1.00  0.00    -0.346 C  
HETATM   23  C   UNL     1     -11.693  13.691  66.947  1.00  0.00    -0.389 C  
HETATM   24  C   UNL     1     -10.016  15.211  64.706  1.00  0.00     0.221 C  
HETATM   25  N   UNL     1     -10.948  14.109  64.601  1.00  0.00    -0.396 NA 
HETATM   26  C   UNL     1     -10.316  11.141  64.680  1.00  0.00    -0.330 C  
HETATM   27  C   UNL     1     -12.094  14.276  63.711  1.00  0.00    -0.074 C  
HETATM   28  N   UNL     1     -11.203  13.273  65.704  1.00  0.00    -0.284 N  
HETATM   29  C   UNL     1     -12.516  12.896  63.191  1.00  0.00    -0.166 C  
HETATM   30  C   UNL     1     -11.521  11.867  65.292  1.00  0.00    -0.253 C  
HETATM   31  C   UNL     1     -12.721  11.889  64.328  1.00  0.00    -0.182 C  
ENDBRANCH  15  17
ENDBRANCH   6  15
ENDBRANCH   4   6
ENDBRANCH   3   4
ENDBRANCH   2   3
TORSDOF 8
ENDMDL
MODEL      260
REMARK 921   NORMALIZED FREE ENERGY PREDICTED BY IDOCK:    1.37 KCAL/MOL
REMARK 922        TOTAL FREE ENERGY PREDICTED BY IDOCK:    0.81 KCAL/MOL
REMARK 923 INTER-LIGAND FREE ENERGY PREDICTED BY IDOCK:   -2.15 KCAL/MOL
REMARK 924 INTRA-LIGAND FREE ENERGY PREDICTED BY IDOCK:    2.96 KCAL/MOL
REMARK 927      BINDING AFFINITY PREDICTED BY RF-SCORE:    0.00 PKD
ROOT
HETATM    1  C   UNL     1      -5.555  13.546  70.288  1.00  0.00    -0.139 C  
HETATM    2  C   UNL     1      -6.348  12.359  69.776  1.00  0.00    -0.081 C  
ENDROOT
BRANCH   2   3
HETATM    3  O   UNL     1      -5.461  11.280  69.451  1.00  0.00    -0.044 OA 
BRANCH   3   4
HETATM    4  C   UNL     1      -6.044  10.194  68.868  1.00  0.00    -0.043 C  
HETATM    5  O   UNL     1      -5.919   9.869  67.691  1.00  0.00    -0.050 OA 
BRANCH   4   6
HETATM    6  C   UNL     1      -6.862   9.407  69.907  1.00  0.00    -0.061 C  
BRANCH   6   7
HETATM    7  C   UNL     1      -7.227   8.031  69.340  1.00  0.00    -0.071 C  
BRANCH   7   8
HETATM    8  C   UNL     1      -8.274   8.110  68.221  1.00  0.00    -0.129 C  
BRANCH   8   9
HETATM    9  C   UNL     1      -8.634   6.720  67.759  1.00  0.00    -0.121 A  
HETATM   10  C   UNL     1      -9.242   4.195  66.714  1.00  0.00    -0.169 A  
HETATM   11  C   UNL     1      -7.955   4.466  67.173  1.00  0.00    -0.101 A  
HETATM   12  C   UNL     1      -7.651   5.724  67.694  1.00  0.00    -0.089 A  
HETATM   13  C   UNL     1     -10.231   5.174  66.786  1.00  0.00    -0.289 A  
HETATM   14  C   UNL     1      -9.930   6.433  67.309  1.00  0.00    -0.184 A  
ENDBRANCH   8   9
ENDBRANCH   7   8
ENDBRANCH   6   7
BRANCH   6  15
HETATM   15  N   UNL     1      -8.033  10.230  70.265  1.00  0.00    -0.416 NA 
HETATM   16  H   UNL     1      -8.000  10.867  71.061  1.00  0.00     0.000 HD 
BRANCH  15  17
HETATM   17  C   UNL     1      -9.268  10.110  69.437  1.00  0.00    -0.214 C  
HETATM   18  O   UNL     1      -8.203  11.929  68.267  1.00  0.00    -0.145 OA 
HETATM   19  C   UNL     1     -10.439   9.887  70.386  1.00  0.00    -0.347 C  
HETATM   20  O   UNL     1     -11.333  15.006  66.180  1.00  0.00    -0.339 OA 
HETATM   21  O   UNL     1     -12.043  14.037  68.090  1.00  0.00    -0.355 OA 
HETATM   22  C   UNL     1     -11.743   9.535  69.695  1.00  0.00     0.199 C  
HETATM   23  C   UNL     1      -9.291  11.394  68.538  1.00  0.00    -0.180 C  
HETATM   24  C   UNL     1     -12.366  10.761  69.074  1.00  0.00     0.197 C  
HETATM   25  N   UNL     1     -11.693  11.218  67.878  1.00  0.00    -0.592 NA 
HETATM   26  C   UNL     1     -11.261  14.086  66.984  1.00  0.00    -0.313 C  
HETATM   27  C   UNL     1     -11.844  10.413  66.669  1.00  0.00     2.202 C  
HETATM   28  N   UNL     1     -10.462  11.897  67.958  1.00  0.00    -0.202 N  
HETATM   29  C   UNL     1     -11.714  11.334  65.448  1.00  0.00     0.468 C  
HETATM   30  C   UNL     1     -10.294  12.901  66.858  1.00  0.00    -0.243 C  
HETATM   31  C   UNL     1     -10.441  12.187  65.503  1.00  0.00    -0.300 C  
ENDBRANCH  15  17
ENDBRANCH   6  15
ENDBRANCH   4   6
ENDBRANCH   3   4
ENDBRANCH   2   3
TORSDOF 8
ENDMDL
MODEL      261
REMARK 921   NORMALIZED FREE ENERGY PREDICTED BY IDOCK:    4.00 KCAL/MOL
REMARK 922        TOTAL FREE ENERGY PREDICTED BY IDOCK:    4.65 KCAL/MOL
REMARK 923 INTER-LIGAND FREE ENERGY PREDICTED BY IDOCK:   -1.41 KCAL/MOL
REMARK 924 INTRA-LIGAND FREE ENERGY PREDICTED BY IDOCK:    6.06 KCAL/MOL
REMARK 927      BINDING AFFINITY PREDICTED BY RF-SCORE:    0.00 PKD
ROOT
HETATM    1  C   UNL     1      -5.442  12.400  68.802  1.00  0.00    -0.054 C  
HETATM    2  C   UNL     1      -6.225  13.658  68.479  1.00  0.00    -0.091 C  
ENDROOT
BRANCH   2   3
HETATM    3  O   UNL     1      -6.941  14.101  69.639  1.00  0.00    -0.102 OA 
BRANCH   3   4
HETATM    4  C   UNL     1      -7.758  15.177  69.451  1.00  0.00    -0.213 C  
HETATM    5  O   UNL     1      -7.442  16.217  68.879  1.00  0.00    -0.170 OA 
BRANCH   4   6
HETATM    6  C   UNL     1      -9.153  14.894  70.036  1.00  0.00     0.509 C  
BRANCH   6   7
HETATM    7  C   UNL     1      -9.589  13.474  69.661  1.00  0.00     1.343 C  
BRANCH   7   8
HETATM    8  C   UNL     1      -9.021  13.016  68.311  1.00  0.00    -0.177 C  
BRANCH   8   9
HETATM    9  C   UNL     1      -9.182  11.523  68.168  1.00  0.00    -0.181 A  
HETATM   10  C   UNL     1      -9.547   8.785  67.712  1.00  0.00    -0.177 A  
HETATM   11  C   UNL     1      -8.346   9.396  67.357  1.00  0.00    -0.125 A  
HETATM   12  C   UNL     1      -8.163  10.760  67.584  1.00  0.00    -0.115 A  
HETATM   13  C   UNL     1     -10.562   9.533  68.306  1.00  0.00    -0.260 A  
HETATM   14  C   UNL     1     -10.381  10.898  68.536  1.00  0.00    -0.203 A  
ENDBRANCH   8   9
ENDBRANCH   7   8
ENDBRANCH   6   7
BRANCH   6  15
HETATM   15  N   UNL     1     -10.063  15.944  69.539  1.00  0.00    -0.265 NA 
HETATM   16  H   UNL     1     -10.573  16.543  70.190  1.00  0.00     0.000 HD 
BRANCH  15  17
HETATM   17  C   UNL     1     -10.223  16.110  68.066  1.00  0.00    -0.252 C  
HETATM   18  O   UNL     1     -11.942  14.463  68.450  1.00  0.00    -0.331 OA 
HETATM   19  C   UNL     1      -8.829  16.191  67.457  1.00  0.00    -0.198 C  
HETATM   20  O   UNL     1     -12.712  11.524  64.656  1.00  0.00     0.146 OA 
HETATM   21  O   UNL     1     -10.594  12.259  64.909  1.00  0.00    -0.273 OA 
HETATM   22  C   UNL     1      -8.810  16.571  65.989  1.00  0.00    -0.267 C  
HETATM   23  C   UNL     1     -11.151  14.929  67.613  1.00  0.00    -0.311 C  
HETATM   24  C   UNL     1      -9.213  15.398  65.129  1.00  0.00     1.014 C  
HETATM   25  N   UNL     1     -10.627  15.095  65.177  1.00  0.00    -0.401 NA 
HETATM   26  C   UNL     1     -11.932  12.355  65.103  1.00  0.00    -0.400 C  
HETATM   27  C   UNL     1     -11.539  16.019  64.509  1.00  0.00    -0.205 C  
HETATM   28  N   UNL     1     -11.189  14.453  66.298  1.00  0.00    -0.332 N  
HETATM   29  C   UNL     1     -12.780  15.239  64.054  1.00  0.00     0.564 C  
HETATM   30  C   UNL     1     -12.349  13.579  65.930  1.00  0.00    -0.456 C  
HETATM   31  C   UNL     1     -13.402  14.428  65.197  1.00  0.00     0.576 C  
ENDBRANCH  15  17
ENDBRANCH   6  15
ENDBRANCH   4   6
ENDBRANCH   3   4
ENDBRANCH   2   3
TORSDOF 8
ENDMDL
MODEL      262
REMARK 921   NORMALIZED FREE ENERGY PREDICTED BY IDOCK:    6.20 KCAL/MOL
REMARK 922        TOTAL FREE ENERGY PREDICTED BY IDOCK:    7.89 KCAL/MOL
REMARK 923 INTER-LIGAND FREE ENERGY PREDICTED BY IDOCK:   -1.09 KCAL/MOL
REMARK 924 INTRA-LIGAND FREE ENERGY PREDICTED BY IDOCK:    8.98 KCAL/MOL
REMARK 927      BINDING AFFINITY PREDICTED BY RF-SCORE:    0.00 PKD
ROOT
HETATM    1  C   UNL     1     -11.951  15.889  66.438  1.00  0.00     1.083 C  
HETATM    2  C   UNL     1     -11.947  14.823  67.517  1.00  0.00    -0.210 C  
ENDROOT
BRANCH   2   3
HETATM    3  O   UNL     1     -10.699  14.843  68.222  1.00  0.00    -0.240 OA 
BRANCH   3   4
HETATM    4  C   UNL     1      -9.595  15.083  67.458  1.00  0.00    -0.203 C  
HETATM    5  O   UNL     1      -8.663  15.820  67.770  1.00  0.00    -0.168 OA 
BRANCH   4   6
HETATM    6  C   UNL     1      -9.665  14.272  66.153  1.00  0.00    -0.303 C  
BRANCH   6   7
HETATM    7  C   UNL     1      -9.053  12.885  66.375  1.00  0.00    -0.083 C  
BRANCH   7   8
HETATM    8  C   UNL     1      -7.774  12.930  67.223  1.00  0.00    -0.122 C  
BRANCH   8   9
HETATM    9  C   UNL     1      -7.581  11.611  67.928  1.00  0.00    -0.115 A  
HETATM   10  C   UNL     1      -7.418   9.177  69.302  1.00  0.00    -0.075 A  
HETATM   11  C   UNL     1      -7.887   9.206  67.990  1.00  0.00    -0.100 A  
HETATM   12  C   UNL     1      -7.969  10.418  67.305  1.00  0.00    -0.110 A  
HETATM   13  C   UNL     1      -7.017  10.357  69.926  1.00  0.00    -0.149 A  
HETATM   14  C   UNL     1      -7.096  11.571  69.242  1.00  0.00    -0.077 A  
ENDBRANCH   8   9
ENDBRANCH   7   8
ENDBRANCH   6   7
BRANCH   6  15
HETATM   15  N   UNL     1      -8.985  15.057  65.105  1.00  0.00     0.805 NA 
HETATM   16  H   UNL     1      -8.560  14.596  64.300  1.00  0.00     0.000 HD 
BRANCH  15  17
HETATM   17  C   UNL     1      -8.932  16.540  65.248  1.00  0.00     1.419 C  
HETATM   18  O   UNL     1      -6.747  15.999  66.112  1.00  0.00     0.439 OA 
HETATM   19  C   UNL     1     -10.289  17.003  65.768  1.00  0.00    -0.275 C  
HETATM   20  O   UNL     1      -5.135  19.141  69.452  1.00  0.00    -0.179 OA 
HETATM   21  O   UNL     1      -7.369  18.828  69.403  1.00  0.00    -0.166 OA 
HETATM   22  C   UNL     1     -10.476  18.507  65.771  1.00  0.00    -0.277 C  
HETATM   23  C   UNL     1      -7.673  16.827  66.138  1.00  0.00    -0.173 C  
HETATM   24  C   UNL     1      -9.724  19.136  66.919  1.00  0.00    -0.328 C  
HETATM   25  N   UNL     1      -8.290  19.174  66.729  1.00  0.00    -0.281 NA 
HETATM   26  C   UNL     1      -6.138  18.801  68.837  1.00  0.00    -0.226 C  
HETATM   27  C   UNL     1      -7.764  20.116  65.745  1.00  0.00    -0.179 C  
HETATM   28  N   UNL     1      -7.513  18.008  66.872  1.00  0.00    -0.203 N  
HETATM   29  C   UNL     1      -6.345  20.523  66.166  1.00  0.00    -0.260 C  
HETATM   30  C   UNL     1      -6.136  18.302  67.386  1.00  0.00    -0.170 C  
HETATM   31  C   UNL     1      -5.454  19.306  66.439  1.00  0.00    -0.163 C  
ENDBRANCH  15  17
ENDBRANCH   6  15
ENDBRANCH   4   6
ENDBRANCH   3   4
ENDBRANCH   2   3
TORSDOF 8
ENDMDL
MODEL      263
REMARK 921   NORMALIZED FREE ENERGY PREDICTED BY IDOCK:    9.16 KCAL/MOL
REMARK 922        TOTAL FREE ENERGY PREDICTED BY IDOCK:   12.24 KCAL/MOL
REMARK 923 INTER-LIGAND FREE ENERGY PREDICTED BY IDOCK:   -0.63 KCAL/MOL
REMARK 924 INTRA-LIGAND FREE ENERGY PREDICTED BY IDOCK:   12.87 KCAL/MOL
REMARK 927      BINDING AFFINITY PREDICTED BY RF-SCORE:    0.00 PKD
ROOT
HETATM    1  C   UNL     1     -10.539  17.279  68.191  1.00  0.00    -0.386 C  
HETATM    2  C   UNL     1      -9.560  18.250  67.560  1.00  0.00    -0.280 C  
ENDROOT
BRANCH   2   3
HETATM    3  O   UNL     1      -8.480  17.531  66.950  1.00  0.00    -0.222 OA 
BRANCH   3   4
HETATM    4  C   UNL     1      -8.602  16.173  66.951  1.00  0.00    -0.221 C  
HETATM    5  O   UNL     1      -9.276  15.521  66.159  1.00  0.00    -0.303 OA 
BRANCH   4   6
HETATM    6  C   UNL     1      -7.744  15.563  68.074  1.00  0.00    -0.127 C  
BRANCH   6   7
HETATM    7  C   UNL     1      -6.292  16.030  67.924  1.00  0.00    -0.155 C  
BRANCH   7   8
HETATM    8  C   UNL     1      -5.986  16.577  66.523  1.00  0.00     0.325 C  
BRANCH   8   9
HETATM    9  C   UNL     1      -6.259  18.060  66.482  1.00  0.00    -0.219 A  
HETATM   10  C   UNL     1      -6.692  20.812  66.213  1.00  0.00    -0.260 A  
HETATM   11  C   UNL     1      -7.672  19.910  65.803  1.00  0.00    -0.275 A  
HETATM   12  C   UNL     1      -7.457  18.538  65.937  1.00  0.00    -0.210 A  
HETATM   13  C   UNL     1      -5.502  20.346  66.768  1.00  0.00    -0.192 A  
HETATM   14  C   UNL     1      -5.286  18.974  66.905  1.00  0.00    -0.148 A  
ENDBRANCH   8   9
ENDBRANCH   7   8
ENDBRANCH   6   7
BRANCH   6  15
HETATM   15  N   UNL     1      -7.905  14.098  68.008  1.00  0.00    -0.131 NA 
HETATM   16  H   UNL     1      -7.115  13.478  68.192  1.00  0.00     0.000 HD 
BRANCH  15  17
HETATM   17  C   UNL     1      -9.246  13.542  67.669  1.00  0.00    -0.214 C  
HETATM   18  O   UNL     1      -8.518  11.850  69.225  1.00  0.00     0.315 OA 
HETATM   19  C   UNL     1      -9.447  13.708  66.167  1.00  0.00    -0.166 C  
HETATM   20  O   UNL     1     -10.356   7.444  68.317  1.00  0.00    -0.185 OA 
HETATM   21  O   UNL     1      -9.998   8.744  66.509  1.00  0.00    -0.254 OA 
HETATM   22  C   UNL     1     -10.848  13.385  65.686  1.00  0.00    -0.292 C  
HETATM   23  C   UNL     1      -9.251  12.086  68.249  1.00  0.00    -0.192 C  
HETATM   24  C   UNL     1     -11.065  11.892  65.638  1.00  0.00    -0.310 C  
HETATM   25  N   UNL     1     -11.219  11.281  66.941  1.00  0.00    -0.353 NA 
HETATM   26  C   UNL     1     -10.215   8.559  67.834  1.00  0.00    -0.218 C  
HETATM   27  C   UNL     1     -12.464  11.533  67.661  1.00  0.00     1.600 C  
HETATM   28  N   UNL     1     -10.107  11.082  67.780  1.00  0.00    -0.175 N  
HETATM   29  C   UNL     1     -12.751  10.336  68.577  1.00  0.00     2.915 C  
HETATM   30  C   UNL     1     -10.254   9.864  68.641  1.00  0.00    -0.178 C  
HETATM   31  C   UNL     1     -11.549   9.987  69.463  1.00  0.00    -0.119 C  
ENDBRANCH  15  17
ENDBRANCH   6  15
ENDBRANCH   4   6
ENDBRANCH   3   4
ENDBRANCH   2   3
TORSDOF 8
ENDMDL
MODEL      264
REMARK 921   NORMALIZED FREE ENERGY PREDICTED BY IDOCK:   12.48 KCAL/MOL
REMARK 922        TOTAL FREE ENERGY PREDICTED BY IDOCK:   17.10 KCAL/MOL
REMARK 923 INTER-LIGAND FREE ENERGY PREDICTED BY IDOCK:   13.13 KCAL/MOL
REMARK 924 INTRA-LIGAND FREE ENERGY PREDICTED BY IDOCK:    3.97 KCAL/MOL
REMARK 927      BINDING AFFINITY PREDICTED BY RF-SCORE:    0.00 PKD
ROOT
HETATM    1  C   UNL     1     -13.297  14.426  69.577  1.00  0.00     1.684 C  
HETATM    2  C   UNL     1     -13.866  13.152  68.984  1.00  0.00     6.942 C  
ENDROOT
BRANCH   2   3
HETATM    3  O   UNL     1     -13.072  12.735  67.865  1.00  0.00     1.748 OA 
BRANCH   3   4
HETATM    4  C   UNL     1     -11.723  12.853  68.023  1.00  0.00    -0.356 C  
HETATM    5  O   UNL     1     -11.127  13.895  68.281  1.00  0.00    -0.241 OA 
BRANCH   4   6
HETATM    6  C   UNL     1     -11.047  11.479  67.862  1.00  0.00    -0.256 C  
BRANCH   6   7
HETATM    7  C   UNL     1      -9.802  11.411  68.753  1.00  0.00    -0.175 C  
BRANCH   7   8
HETATM    8  C   UNL     1     -10.003  12.105  70.107  1.00  0.00     2.803 C  
BRANCH   8   9
HETATM    9  C   UNL     1     -11.256  11.587  70.767  1.00  0.00     1.028 A  
HETATM   10  C   UNL     1     -13.680  10.657  71.814  1.00  0.00    -0.014 A  
HETATM   11  C   UNL     1     -12.827   9.779  71.148  1.00  0.00    -0.434 A  
HETATM   12  C   UNL     1     -11.619  10.242  70.626  1.00  0.00    -0.435 A  
HETATM   13  C   UNL     1     -13.321  11.994  71.971  1.00  0.00    -0.447 A  
HETATM   14  C   UNL     1     -12.112  12.459  71.451  1.00  0.00     0.446 A  
ENDBRANCH   8   9
ENDBRANCH   7   8
ENDBRANCH   6   7
BRANCH   6  15
HETATM   15  N   UNL     1     -10.760  11.292  66.427  1.00  0.00    -0.270 NA 
HETATM   16  H   UNL     1     -11.509  11.076  65.769  1.00  0.00     0.000 HD 
BRANCH  15  17
HETATM   17  C   UNL     1      -9.350  11.424  65.960  1.00  0.00    -0.217 C  
HETATM   18  O   UNL     1      -9.479   9.020  66.102  1.00  0.00    -0.213 OA 
HETATM   19  C   UNL     1      -8.719  12.585  66.719  1.00  0.00    -0.147 C  
HETATM   20  O   UNL     1      -5.232   6.896  67.139  1.00  0.00    -0.011 OA 
HETATM   21  O   UNL     1      -5.544   8.943  68.034  1.00  0.00    -0.035 OA 
HETATM   22  C   UNL     1      -7.348  12.989  66.213  1.00  0.00     2.075 C  
HETATM   23  C   UNL     1      -8.717  10.001  66.144  1.00  0.00    -0.140 C  
HETATM   24  C   UNL     1      -6.298  12.006  66.670  1.00  0.00     0.179 C  
HETATM   25  N   UNL     1      -6.338  10.740  65.971  1.00  0.00    -0.131 NA 
HETATM   26  C   UNL     1      -5.799   7.980  67.114  1.00  0.00    -0.042 C  
HETATM   27  C   UNL     1      -5.885  10.721  64.582  1.00  0.00     0.066 C  
HETATM   28  N   UNL     1      -7.337   9.790  66.255  1.00  0.00    -0.097 N  
HETATM   29  C   UNL     1      -5.336   9.324  64.265  1.00  0.00    -0.059 C  
HETATM   30  C   UNL     1      -6.853   8.383  66.074  1.00  0.00    -0.064 C  
HETATM   31  C   UNL     1      -6.328   8.216  64.637  1.00  0.00    -0.056 C  
ENDBRANCH  15  17
ENDBRANCH   6  15
ENDBRANCH   4   6
ENDBRANCH   3   4
ENDBRANCH   2   3
TORSDOF 8
ENDMDL
MODEL      265
REMARK 921   NORMALIZED FREE ENERGY PREDICTED BY IDOCK:   15.09 KCAL/MOL
REMARK 922        TOTAL FREE ENERGY PREDICTED BY IDOCK:   20.93 KCAL/MOL
REMARK 923 INTER-LIGAND FREE ENERGY PREDICTED BY IDOCK:   18.20 KCAL/MOL
REMARK 924 INTRA-LIGAND FREE ENERGY PREDICTED BY IDOCK:    2.73 KCAL/MOL
REMARK 927      BINDING AFFINITY PREDICTED BY RF-SCORE:    0.00 PKD
ROOT
HETATM    1  C   UNL     1      -5.147  12.078  69.210  1.00  0.00    -0.052 C  
HETATM    2  C   UNL     1      -5.721  13.403  68.746  1.00  0.00    -0.074 C  
ENDROOT
BRANCH   2   3
HETATM    3  O   UNL     1      -5.291  14.456  69.619  1.00  0.00    -0.091 OA 
BRANCH   3   4
HETATM    4  C   UNL     1      -5.435  15.722  69.131  1.00  0.00    -0.102 C  
HETATM    5  O   UNL     1      -5.383  16.035  67.945  1.00  0.00    -0.111 OA 
BRANCH   4   6
HETATM    6  C   UNL     1      -5.705  16.707  70.281  1.00  0.00    -0.166 C  
BRANCH   6   7
HETATM    7  C   UNL     1      -6.113  15.932  71.539  1.00  0.00     1.248 C  
BRANCH   7   8
HETATM    8  C   UNL     1      -6.790  14.594  71.216  1.00  0.00     1.051 C  
BRANCH   8   9
HETATM    9  C   UNL     1      -6.343  13.544  72.202  1.00  0.00     1.836 A  
HETATM   10  C   UNL     1      -5.331  11.595  73.939  1.00  0.00     0.794 A  
HETATM   11  C   UNL     1      -5.142  12.945  74.223  1.00  0.00    -0.007 A  
HETATM   12  C   UNL     1      -5.647  13.918  73.358  1.00  0.00    -0.078 A  
HETATM   13  C   UNL     1      -6.035  11.213  72.798  1.00  0.00     2.233 A  
HETATM   14  C   UNL     1      -6.542  12.183  71.932  1.00  0.00     4.530 A  
ENDBRANCH   8   9
ENDBRANCH   7   8
ENDBRANCH   6   7
BRANCH   6  15
HETATM   15  N   UNL     1      -6.729  17.663  69.817  1.00  0.00    -0.016 NA 
HETATM   16  H   UNL     1      -6.720  18.633  70.133  1.00  0.00     0.000 HD 
BRANCH  15  17
HETATM   17  C   UNL     1      -7.779  17.179  68.874  1.00  0.00    -0.230 C  
HETATM   18  O   UNL     1      -7.365  19.347  67.902  1.00  0.00    -0.248 OA 
HETATM   19  C   UNL     1      -8.852  16.478  69.699  1.00  0.00     0.451 C  
HETATM   20  O   UNL     1     -11.247  21.269  65.697  1.00  0.00     3.196 OA 
HETATM   21  O   UNL     1     -11.686  19.960  67.481  1.00  0.00     0.619 OA 
HETATM   22  C   UNL     1      -9.891  15.743  68.874  1.00  0.00    -0.224 C  
HETATM   23  C   UNL     1      -8.203  18.440  68.044  1.00  0.00    -0.271 C  
HETATM   24  C   UNL     1     -10.871  16.714  68.262  1.00  0.00    -0.356 C  
HETATM   25  N   UNL     1     -10.330  17.476  67.158  1.00  0.00    -0.329 NA 
HETATM   26  C   UNL     1     -10.902  20.373  66.456  1.00  0.00     0.477 C  
HETATM   27  C   UNL     1     -10.099  16.770  65.900  1.00  0.00    -0.304 C  
HETATM   28  N   UNL     1      -9.435  18.539  67.385  1.00  0.00    -0.281 N  
HETATM   29  C   UNL     1     -10.228  17.773  64.745  1.00  0.00     2.372 C  
HETATM   30  C   UNL     1      -9.566  19.623  66.358  1.00  0.00    -0.401 C  
HETATM   31  C   UNL     1      -9.355  19.015  64.961  1.00  0.00     2.730 C  
ENDBRANCH  15  17
ENDBRANCH   6  15
ENDBRANCH   4   6
ENDBRANCH   3   4
ENDBRANCH   2   3
TORSDOF 8
ENDMDL
MODEL      266
REMARK 921   NORMALIZED FREE ENERGY PREDICTED BY IDOCK:   26.01 KCAL/MOL
REMARK 922        TOTAL FREE ENERGY PREDICTED BY IDOCK:   36.97 KCAL/MOL
REMARK 923 INTER-LIGAND FREE ENERGY PREDICTED BY IDOCK:   26.21 KCAL/MOL
REMARK 924 INTRA-LIGAND FREE ENERGY PREDICTED BY IDOCK:   10.76 KCAL/MOL
REMARK 927      BINDING AFFINITY PREDICTED BY RF-SCORE:    0.00 PKD
ROOT
HETATM    1  C   UNL     1      -7.842   8.333  67.963  1.00  0.00    -0.118 C  
HETATM    2  C   UNL     1      -8.078   9.823  67.810  1.00  0.00    -0.113 C  
ENDROOT
BRANCH   2   3
HETATM    3  O   UNL     1      -9.329  10.186  68.408  1.00  0.00    -0.132 OA 
BRANCH   3   4
HETATM    4  C   UNL     1      -9.308  11.309  69.182  1.00  0.00     0.102 C  
HETATM    5  O   UNL     1     -10.175  12.179  69.192  1.00  0.00    -0.012 OA 
BRANCH   4   6
HETATM    6  C   UNL     1      -8.052  11.319  70.071  1.00  0.00     1.469 C  
BRANCH   6   7
HETATM    7  C   UNL     1      -7.906   9.964  70.771  1.00  0.00     0.329 C  
BRANCH   7   8
HETATM    8  C   UNL     1      -8.618   9.918  72.129  1.00  0.00     3.653 C  
BRANCH   8   9
HETATM    9  C   UNL     1      -9.187   8.541  72.362  1.00  0.00    -0.328 A  
HETATM   10  C   UNL     1     -10.251   6.030  72.995  1.00  0.00    -0.210 A  
HETATM   11  C   UNL     1     -11.102   7.107  72.759  1.00  0.00    -0.339 A  
HETATM   12  C   UNL     1     -10.573   8.358  72.444  1.00  0.00    -0.405 A  
HETATM   13  C   UNL     1      -8.870   6.198  72.904  1.00  0.00    -0.125 A  
HETATM   14  C   UNL     1      -8.338   7.449  72.587  1.00  0.00    -0.131 A  
ENDBRANCH   8   9
ENDBRANCH   7   8
ENDBRANCH   6   7
BRANCH   6  15
HETATM   15  N   UNL     1      -8.177  12.456  71.003  1.00  0.00     7.217 NA 
HETATM   16  H   UNL     1      -7.961  12.345  71.994  1.00  0.00     0.000 HD 
BRANCH  15  17
HETATM   17  C   UNL     1      -8.628  13.772  70.465  1.00  0.00     4.057 C  
HETATM   18  O   UNL     1     -10.771  12.681  70.644  1.00  0.00     2.110 OA 
HETATM   19  C   UNL     1      -7.642  14.190  69.381  1.00  0.00     0.137 C  
HETATM   20  O   UNL     1     -14.013  14.197  67.355  1.00  0.00     6.018 OA 
HETATM   21  O   UNL     1     -11.859  14.213  66.683  1.00  0.00    -0.386 OA 
HETATM   22  C   UNL     1      -7.835  15.606  68.875  1.00  0.00    -0.186 C  
HETATM   23  C   UNL     1     -10.125  13.559  70.048  1.00  0.00     1.805 C  
HETATM   24  C   UNL     1      -9.022  15.684  67.946  1.00  0.00    -0.180 C  
HETATM   25  N   UNL     1     -10.299  15.601  68.621  1.00  0.00    -0.211 NA 
HETATM   26  C   UNL     1     -12.822  14.230  67.637  1.00  0.00     1.315 C  
HETATM   27  C   UNL     1     -10.722  16.755  69.410  1.00  0.00    -0.300 C  
HETATM   28  N   UNL     1     -10.777  14.371  69.112  1.00  0.00    -0.250 N  
HETATM   29  C   UNL     1     -12.256  16.799  69.430  1.00  0.00     1.656 C  
HETATM   30  C   UNL     1     -12.273  14.283  69.069  1.00  0.00    -0.220 C  
HETATM   31  C   UNL     1     -12.865  15.461  69.863  1.00  0.00    -0.011 C  
ENDBRANCH  15  17
ENDBRANCH   6  15
ENDBRANCH   4   6
ENDBRANCH   3   4
ENDBRANCH   2   3
TORSDOF 8
ENDMDL
MODEL      267
REMARK 921   NORMALIZED FREE ENERGY PREDICTED BY IDOCK:   26.72 KCAL/MOL
REMARK 922        TOTAL FREE ENERGY PREDICTED BY IDOCK:   38.00 KCAL/MOL
REMARK 923 INTER-LIGAND FREE ENERGY PREDICTED BY IDOCK:   10.43 KCAL/MOL
REMARK 924 INTRA-LIGAND FREE ENERGY PREDICTED BY IDOCK:   27.57 KCAL/MOL
REMARK 927      BINDING AFFINITY PREDICTED BY RF-SCORE:    0.00 PKD
ROOT
HETATM    1  C   UNL     1     -12.361  12.496  66.572  1.00  0.00     0.198 C  
HETATM    2  C   UNL     1     -11.387  11.636  65.791  1.00  0.00    -0.182 C  
ENDROOT
BRANCH   2   3
HETATM    3  O   UNL     1     -10.584  12.458  64.934  1.00  0.00    -0.276 OA 
BRANCH   3   4
HETATM    4  C   UNL     1      -9.754  13.335  65.569  1.00  0.00    -0.042 C  
HETATM    5  O   UNL     1      -8.586  13.113  65.875  1.00  0.00     0.635 OA 
BRANCH   4   6
HETATM    6  C   UNL     1     -10.483  14.667  65.822  1.00  0.00    -0.325 C  
BRANCH   6   7
HETATM    7  C   UNL     1      -9.455  15.788  66.012  1.00  0.00    -0.392 C  
BRANCH   7   8
HETATM    8  C   UNL     1     -10.106  17.143  66.317  1.00  0.00    -0.329 C  
BRANCH   8   9
HETATM    9  C   UNL     1     -10.105  17.387  67.806  1.00  0.00    -0.323 A  
HETATM   10  C   UNL     1     -10.302  17.890  70.553  1.00  0.00     1.792 A  
HETATM   11  C   UNL     1     -10.619  16.630  70.052  1.00  0.00    -0.104 A  
HETATM   12  C   UNL     1     -10.521  16.378  68.683  1.00  0.00    -0.293 A  
HETATM   13  C   UNL     1      -9.874  18.898  69.690  1.00  0.00     0.274 A  
HETATM   14  C   UNL     1      -9.774  18.648  68.320  1.00  0.00    -0.394 A  
ENDBRANCH   8   9
ENDBRANCH   7   8
ENDBRANCH   6   7
BRANCH   6  15
HETATM   15  N   UNL     1     -11.369  14.474  66.985  1.00  0.00    -0.337 NA 
HETATM   16  H   UNL     1     -12.347  14.763  66.949  1.00  0.00     0.000 HD 
BRANCH  15  17
HETATM   17  C   UNL     1     -10.805  13.847  68.214  1.00  0.00    -0.249 C  
HETATM   18  O   UNL     1     -12.169  12.013  67.446  1.00  0.00    -0.491 OA 
HETATM   19  C   UNL     1     -10.816  14.901  69.316  1.00  0.00    -0.272 C  
HETATM   20  O   UNL     1     -13.855   9.198  71.032  1.00  0.00    -0.197 OA 
HETATM   21  O   UNL     1     -13.591  11.379  71.544  1.00  0.00    -0.007 OA 
HETATM   22  C   UNL     1     -10.081  14.492  70.578  1.00  0.00     1.101 C  
HETATM   23  C   UNL     1     -11.650  12.545  68.442  1.00  0.00    -0.322 C  
HETATM   24  C   UNL     1     -10.905  13.516  71.383  1.00  0.00     4.025 C  
HETATM   25  N   UNL     1     -10.959  12.187  70.814  1.00  0.00     2.036 NA 
HETATM   26  C   UNL     1     -13.316  10.274  70.809  1.00  0.00    -0.102 C  
HETATM   27  C   UNL     1      -9.749  11.371  70.889  1.00  0.00     5.599 C  
HETATM   28  N   UNL     1     -11.758  11.916  69.687  1.00  0.00    -0.326 N  
HETATM   29  C   UNL     1     -10.157   9.892  70.923  1.00  0.00     0.031 C  
HETATM   30  C   UNL     1     -12.292  10.515  69.692  1.00  0.00    -0.075 C  
HETATM   31  C   UNL     1     -11.112   9.531  69.779  1.00  0.00    -0.216 C  
ENDBRANCH  15  17
ENDBRANCH   6  15
ENDBRANCH   4   6
ENDBRANCH   3   4
ENDBRANCH   2   3
TORSDOF 8
ENDMDL
MODEL      268
REMARK 921   NORMALIZED FREE ENERGY PREDICTED BY IDOCK:   67.91 KCAL/MOL
REMARK 922        TOTAL FREE ENERGY PREDICTED BY IDOCK:   98.46 KCAL/MOL
REMARK 923 INTER-LIGAND FREE ENERGY PREDICTED BY IDOCK:   61.38 KCAL/MOL
REMARK 924 INTRA-LIGAND FREE ENERGY PREDICTED BY IDOCK:   37.09 KCAL/MOL
REMARK 927      BINDING AFFINITY PREDICTED BY RF-SCORE:    0.00 PKD
ROOT
HETATM    1  C   UNL     1     -13.750  12.375  64.237  1.00  0.00     1.515 C  
HETATM    2  C   UNL     1     -12.557  13.110  64.816  1.00  0.00    -0.364 C  
ENDROOT
BRANCH   2   3
HETATM    3  O   UNL     1     -11.648  12.176  65.414  1.00  0.00    -0.350 OA 
BRANCH   3   4
HETATM    4  C   UNL     1     -11.987  11.742  66.663  1.00  0.00     0.252 C  
HETATM    5  O   UNL     1     -11.744  10.628  67.116  1.00  0.00    -0.230 OA 
BRANCH   4   6
HETATM    6  C   UNL     1     -12.695  12.865  67.442  1.00  0.00     1.414 C  
BRANCH   6   7
HETATM    7  C   UNL     1     -14.102  12.407  67.839  1.00  0.00    13.568 C  
BRANCH   7   8
HETATM    8  C   UNL     1     -14.340  12.470  69.354  1.00  0.00    10.485 C  
BRANCH   8   9
HETATM    9  C   UNL     1     -13.100  12.021  70.086  1.00  0.00     0.764 A  
HETATM   10  C   UNL     1     -10.754  11.071  71.282  1.00  0.00     2.815 A  
HETATM   11  C   UNL     1     -10.706  12.180  70.441  1.00  0.00     1.968 A  
HETATM   12  C   UNL     1     -11.874  12.655  69.844  1.00  0.00    -0.364 A  
HETATM   13  C   UNL     1     -11.971  10.442  71.540  1.00  0.00    -0.300 A  
HETATM   14  C   UNL     1     -13.141  10.916  70.946  1.00  0.00    -0.237 A  
ENDBRANCH   8   9
ENDBRANCH   7   8
ENDBRANCH   6   7
BRANCH   6  15
HETATM   15  N   UNL     1     -12.683  14.071  66.591  1.00  0.00    -0.435 NA 
HETATM   16  H   UNL     1     -13.249  14.884  66.833  1.00  0.00     0.000 HD 
BRANCH  15  17
HETATM   17  C   UNL     1     -11.825  14.074  65.372  1.00  0.00    -0.359 C  
HETATM   18  O   UNL     1     -10.920  12.125  66.466  1.00  0.00    -0.258 OA 
HETATM   19  C   UNL     1     -11.429  15.519  65.091  1.00  0.00    -0.156 C  
HETATM   20  O   UNL     1      -6.225  11.340  65.484  1.00  0.00     0.123 OA 
HETATM   21  O   UNL     1      -6.866  13.502  65.522  1.00  0.00     6.134 OA 
HETATM   22  C   UNL     1     -10.727  15.726  63.763  1.00  0.00     2.587 C  
HETATM   23  C   UNL     1     -10.678  13.047  65.669  1.00  0.00    -0.275 C  
HETATM   24  C   UNL     1      -9.294  15.256  63.837  1.00  0.00     7.909 C  
HETATM   25  N   UNL     1      -9.150  13.816  63.849  1.00  0.00     3.801 NA 
HETATM   26  C   UNL     1      -7.113  12.176  65.390  1.00  0.00     3.184 C  
HETATM   27  C   UNL     1      -9.419  13.101  62.604  1.00  0.00     6.371 C  
HETATM   28  N   UNL     1      -9.444  13.071  65.007  1.00  0.00     0.269 N  
HETATM   29  C   UNL     1      -8.579  11.817  62.585  1.00  0.00     0.667 C  
HETATM   30  C   UNL     1      -8.589  11.846  65.127  1.00  0.00     0.798 C  
HETATM   31  C   UNL     1      -8.764  10.988  63.862  1.00  0.00     0.081 C  
ENDBRANCH  15  17
ENDBRANCH   6  15
ENDBRANCH   4   6
ENDBRANCH   3   4
ENDBRANCH   2   3
TORSDOF 8
ENDMDL
