MODEL        1
REMARK 921   NORMALIZED FREE ENERGY PREDICTED BY IDOCK:   -8.56 KCAL/MOL
REMARK 922        TOTAL FREE ENERGY PREDICTED BY IDOCK:  -13.07 KCAL/MOL
REMARK 923 INTER-LIGAND FREE ENERGY PREDICTED BY IDOCK:  -12.06 KCAL/MOL
REMARK 924 INTRA-LIGAND FREE ENERGY PREDICTED BY IDOCK:   -1.01 KCAL/MOL
REMARK 927      BINDING AFFINITY PREDICTED BY RF-SCORE:    0.00 PKD
ROOT
HETATM    1  O   UNL     1     -13.405   8.473  72.307  1.00  0.00    -0.347 OA 
HETATM    2  C   UNL     1     -12.976   9.542  71.878  1.00  0.00    -0.425 C  
HETATM    3  C   UNL     1     -11.752   9.628  70.997  1.00  0.00    -0.433 C  
HETATM    4  C   UNL     1     -11.827  10.780  70.002  1.00  0.00    -0.424 C  
HETATM    5  C   UNL     1     -12.317  12.055  70.635  1.00  0.00    -0.394 A  
HETATM    6  C   UNL     1     -13.155  11.978  71.754  1.00  0.00    -0.355 A  
HETATM    7  N   UNL     1     -13.512  10.733  72.281  1.00  0.00    -0.539 N  
HETATM    8  C   UNL     1     -13.679  13.136  72.319  1.00  0.00    -0.647 A  
HETATM    9  C   UNL     1     -13.377  14.384  71.761  1.00  0.00    -0.446 A  
HETATM   10  H   UNL     1     -14.220  10.712  73.014  1.00  0.00     0.000 HD 
HETATM   11  C   UNL     1     -12.571  14.488  70.622  1.00  0.00    -0.352 A  
HETATM   12  C   UNL     1     -12.040  13.317  70.063  1.00  0.00    -0.385 A  
ENDROOT
BRANCH  11  13
HETATM   13  O   UNL     1     -12.400  15.775  70.166  1.00  0.00    -0.384 OA 
BRANCH  13  14
HETATM   14  C   UNL     1     -11.108  16.122  69.669  1.00  0.00    -0.344 C  
BRANCH  14  15
HETATM   15  C   UNL     1     -11.153  16.388  68.145  1.00  0.00    -0.320 C  
BRANCH  15  16
HETATM   16  C   UNL     1      -9.792  16.023  67.535  1.00  0.00    -0.235 C  
BRANCH  16  17
HETATM   17  C   UNL     1      -9.767  15.164  66.265  1.00  0.00    -0.315 C  
BRANCH  17  18
HETATM   18  C   UNL     1     -10.878  15.401  65.306  1.00  0.00    -0.409 A  
HETATM   19  N   UNL     1     -10.928  16.477  64.536  1.00  0.00    -0.845 NA 
HETATM   20  N   UNL     1     -12.011  16.339  63.725  1.00  0.00    -0.766 NA 
HETATM   21  N   UNL     1     -12.647  15.215  63.987  1.00  0.00    -0.717 NA 
HETATM   22  N   UNL     1     -11.922  14.576  64.936  1.00  0.00    -0.410 NA 
BRANCH  22  23
HETATM   23  C   UNL     1     -12.427  13.288  65.405  1.00  0.00    -0.489 C  
HETATM   24  C   UNL     1     -12.730  12.310  64.236  1.00  0.00    -0.413 C  
HETATM   25  C   UNL     1     -11.441  11.843  63.554  1.00  0.00    -0.523 C  
HETATM   26  C   UNL     1     -10.531  11.126  64.545  1.00  0.00    -0.415 C  
HETATM   27  C   UNL     1     -10.283  11.949  65.810  1.00  0.00    -0.276 C  
HETATM   28  C   UNL     1     -11.576  12.500  66.416  1.00  0.00    -0.449 C  
ENDBRANCH  22  23
ENDBRANCH  17  18
ENDBRANCH  16  17
ENDBRANCH  15  16
ENDBRANCH  14  15
ENDBRANCH  13  14
ENDBRANCH  11  13
TORSDOF 7
ENDMDL
MODEL        2
REMARK 921   NORMALIZED FREE ENERGY PREDICTED BY IDOCK:   -7.86 KCAL/MOL
REMARK 922        TOTAL FREE ENERGY PREDICTED BY IDOCK:  -12.09 KCAL/MOL
REMARK 923 INTER-LIGAND FREE ENERGY PREDICTED BY IDOCK:  -10.96 KCAL/MOL
REMARK 924 INTRA-LIGAND FREE ENERGY PREDICTED BY IDOCK:   -1.13 KCAL/MOL
REMARK 927      BINDING AFFINITY PREDICTED BY RF-SCORE:    0.00 PKD
ROOT
HETATM    1  O   UNL     1     -13.151  15.492  73.792  1.00  0.00    -0.482 OA 
HETATM    2  C   UNL     1     -12.994  14.939  72.706  1.00  0.00    -0.447 C  
HETATM    3  C   UNL     1     -12.911  15.708  71.408  1.00  0.00    -0.555 C  
HETATM    4  C   UNL     1     -12.003  15.036  70.385  1.00  0.00    -0.372 C  
HETATM    5  C   UNL     1     -12.237  13.551  70.297  1.00  0.00    -0.417 A  
HETATM    6  C   UNL     1     -12.727  12.874  71.421  1.00  0.00    -0.270 A  
HETATM    7  N   UNL     1     -13.010  13.576  72.597  1.00  0.00    -0.289 N  
HETATM    8  C   UNL     1     -12.888  11.493  71.393  1.00  0.00    -0.489 A  
HETATM    9  C   UNL     1     -12.548  10.774  70.241  1.00  0.00    -0.350 A  
HETATM   10  H   UNL     1     -13.245  13.035  73.428  1.00  0.00     0.000 HD 
HETATM   11  C   UNL     1     -12.023  11.420  69.117  1.00  0.00    -0.328 A  
HETATM   12  C   UNL     1     -11.871  12.813  69.149  1.00  0.00    -0.352 A  
ENDROOT
BRANCH  11  13
HETATM   13  O   UNL     1     -11.697  10.576  68.080  1.00  0.00    -0.450 OA 
BRANCH  13  14
HETATM   14  C   UNL     1     -10.630  10.982  67.222  1.00  0.00    -0.245 C  
BRANCH  14  15
HETATM   15  C   UNL     1     -11.177  11.619  65.922  1.00  0.00    -0.296 C  
BRANCH  15  16
HETATM   16  C   UNL     1     -10.148  12.626  65.389  1.00  0.00    -0.277 C  
BRANCH  16  17
HETATM   17  C   UNL     1     -10.011  13.977  66.099  1.00  0.00    -0.325 C  
BRANCH  17  18
HETATM   18  C   UNL     1     -10.583  15.144  65.378  1.00  0.00    -0.391 A  
HETATM   19  N   UNL     1     -11.652  15.040  64.604  1.00  0.00    -0.410 NA 
HETATM   20  N   UNL     1     -11.960  16.294  64.175  1.00  0.00    -0.807 NA 
HETATM   21  N   UNL     1     -11.096  17.170  64.646  1.00  0.00    -1.007 NA 
HETATM   22  N   UNL     1     -10.254  16.483  65.455  1.00  0.00    -0.578 NA 
BRANCH  22  23
HETATM   23  C   UNL     1      -9.189  17.242  66.106  1.00  0.00    -0.162 C  
HETATM   24  C   UNL     1      -9.605  18.709  66.406  1.00  0.00    -0.338 C  
HETATM   25  C   UNL     1     -10.667  18.770  67.506  1.00  0.00    -0.474 C  
HETATM   26  C   UNL     1     -10.146  18.154  68.800  1.00  0.00    -0.392 C  
HETATM   27  C   UNL     1      -9.574  16.752  68.589  1.00  0.00    -0.255 C  
HETATM   28  C   UNL     1      -8.597  16.687  67.412  1.00  0.00    -0.203 C  
ENDBRANCH  22  23
ENDBRANCH  17  18
ENDBRANCH  16  17
ENDBRANCH  15  16
ENDBRANCH  14  15
ENDBRANCH  13  14
ENDBRANCH  11  13
TORSDOF 7
ENDMDL
MODEL        3
REMARK 921   NORMALIZED FREE ENERGY PREDICTED BY IDOCK:   -7.64 KCAL/MOL
REMARK 922        TOTAL FREE ENERGY PREDICTED BY IDOCK:  -11.78 KCAL/MOL
REMARK 923 INTER-LIGAND FREE ENERGY PREDICTED BY IDOCK:  -10.32 KCAL/MOL
REMARK 924 INTRA-LIGAND FREE ENERGY PREDICTED BY IDOCK:   -1.46 KCAL/MOL
REMARK 927      BINDING AFFINITY PREDICTED BY RF-SCORE:    0.00 PKD
ROOT
HETATM    1  O   UNL     1     -11.045   8.413  72.609  1.00  0.00    -0.359 OA 
HETATM    2  C   UNL     1     -11.129   8.848  71.463  1.00  0.00    -0.326 C  
HETATM    3  C   UNL     1     -11.921  10.089  71.123  1.00  0.00    -0.484 C  
HETATM    4  C   UNL     1     -11.323  10.864  69.955  1.00  0.00    -0.381 C  
HETATM    5  C   UNL     1     -10.919   9.966  68.816  1.00  0.00    -0.217 A  
HETATM    6  C   UNL     1     -10.567   8.639  69.091  1.00  0.00    -0.178 A  
HETATM    7  N   UNL     1     -10.610   8.157  70.403  1.00  0.00    -0.220 N  
HETATM    8  C   UNL     1     -10.123   7.805  68.070  1.00  0.00    -0.227 A  
HETATM    9  C   UNL     1     -10.017   8.297  66.764  1.00  0.00    -0.355 A  
HETATM   10  H   UNL     1     -10.229   7.229  70.581  1.00  0.00     0.000 HD 
HETATM   11  C   UNL     1     -10.328   9.628  66.467  1.00  0.00    -0.194 A  
HETATM   12  C   UNL     1     -10.782  10.460  67.499  1.00  0.00    -0.339 A  
ENDROOT
BRANCH  11  13
HETATM   13  O   UNL     1     -10.133   9.974  65.150  1.00  0.00    -0.325 OA 
BRANCH  13  14
HETATM   14  C   UNL     1      -9.851  11.346  64.873  1.00  0.00    -0.258 C  
BRANCH  14  15
HETATM   15  C   UNL     1     -10.677  11.849  63.665  1.00  0.00    -0.502 C  
BRANCH  15  16
HETATM   16  C   UNL     1     -12.147  11.984  64.089  1.00  0.00    -0.458 C  
BRANCH  16  17
HETATM   17  C   UNL     1     -12.521  13.082  65.092  1.00  0.00    -0.552 C  
BRANCH  17  18
HETATM   18  C   UNL     1     -11.997  14.439  64.786  1.00  0.00    -0.447 A  
HETATM   19  N   UNL     1     -12.528  15.205  63.846  1.00  0.00    -0.711 NA 
HETATM   20  N   UNL     1     -11.878  16.399  63.887  1.00  0.00    -0.948 NA 
HETATM   21  N   UNL     1     -10.941  16.385  64.814  1.00  0.00    -0.684 NA 
HETATM   22  N   UNL     1     -11.034  15.186  65.437  1.00  0.00    -0.354 NA 
BRANCH  22  23
HETATM   23  C   UNL     1     -10.089  14.921  66.518  1.00  0.00    -0.271 C  
HETATM   24  C   UNL     1      -9.706  16.210  67.298  1.00  0.00    -0.233 C  
HETATM   25  C   UNL     1     -10.888  16.735  68.117  1.00  0.00    -0.353 C  
HETATM   26  C   UNL     1     -11.353  15.693  69.129  1.00  0.00    -0.341 C  
HETATM   27  C   UNL     1     -11.621  14.333  68.484  1.00  0.00    -0.355 C  
HETATM   28  C   UNL     1     -10.473  13.876  67.578  1.00  0.00    -0.248 C  
ENDBRANCH  22  23
ENDBRANCH  17  18
ENDBRANCH  16  17
ENDBRANCH  15  16
ENDBRANCH  14  15
ENDBRANCH  13  14
ENDBRANCH  11  13
TORSDOF 7
ENDMDL
MODEL        4
REMARK 921   NORMALIZED FREE ENERGY PREDICTED BY IDOCK:   -7.59 KCAL/MOL
REMARK 922        TOTAL FREE ENERGY PREDICTED BY IDOCK:  -11.71 KCAL/MOL
REMARK 923 INTER-LIGAND FREE ENERGY PREDICTED BY IDOCK:  -10.85 KCAL/MOL
REMARK 924 INTRA-LIGAND FREE ENERGY PREDICTED BY IDOCK:   -0.85 KCAL/MOL
REMARK 927      BINDING AFFINITY PREDICTED BY RF-SCORE:    0.00 PKD
ROOT
HETATM    1  O   UNL     1     -11.349   5.760  70.622  1.00  0.00    -0.222 OA 
HETATM    2  C   UNL     1     -11.778   6.900  70.781  1.00  0.00    -0.369 C  
HETATM    3  C   UNL     1     -12.985   7.199  71.640  1.00  0.00    -0.415 C  
HETATM    4  C   UNL     1     -12.899   8.562  72.316  1.00  0.00    -0.404 C  
HETATM    5  C   UNL     1     -12.433   9.642  71.376  1.00  0.00    -0.465 A  
HETATM    6  C   UNL     1     -11.617   9.292  70.293  1.00  0.00    -0.114 A  
HETATM    7  N   UNL     1     -11.261   7.956  70.084  1.00  0.00    -0.408 N  
HETATM    8  C   UNL     1     -11.114  10.275  69.447  1.00  0.00    -0.299 A  
HETATM    9  C   UNL     1     -11.416  11.621  69.685  1.00  0.00    -0.359 A  
HETATM   10  H   UNL     1     -10.567   7.756  69.364  1.00  0.00     0.000 HD 
HETATM   11  C   UNL     1     -12.199  12.002  70.779  1.00  0.00    -0.286 A  
HETATM   12  C   UNL     1     -12.708  11.006  71.623  1.00  0.00    -0.483 A  
ENDROOT
BRANCH  11  13
HETATM   13  O   UNL     1     -12.371  13.362  70.906  1.00  0.00    -0.366 OA 
BRANCH  13  14
HETATM   14  C   UNL     1     -12.295  14.141  69.713  1.00  0.00    -0.299 C  
BRANCH  14  15
HETATM   15  C   UNL     1     -10.955  14.913  69.640  1.00  0.00    -0.294 C  
BRANCH  15  16
HETATM   16  C   UNL     1     -10.979  15.839  68.416  1.00  0.00    -0.323 C  
BRANCH  16  17
HETATM   17  C   UNL     1     -10.193  15.423  67.168  1.00  0.00    -0.251 C  
BRANCH  17  18
HETATM   18  C   UNL     1     -10.898  15.606  65.872  1.00  0.00    -0.293 A  
HETATM   19  N   UNL     1     -10.734  16.687  65.126  1.00  0.00    -0.646 NA 
HETATM   20  N   UNL     1     -11.444  16.495  63.982  1.00  0.00    -1.122 NA 
HETATM   21  N   UNL     1     -12.062  15.332  64.008  1.00  0.00    -0.526 NA 
HETATM   22  N   UNL     1     -11.687  14.724  65.159  1.00  0.00    -0.355 NA 
BRANCH  22  23
HETATM   23  C   UNL     1     -12.247  13.401  65.427  1.00  0.00    -0.452 C  
HETATM   24  C   UNL     1     -12.456  12.574  64.129  1.00  0.00    -0.518 C  
HETATM   25  C   UNL     1     -11.117  12.162  63.511  1.00  0.00    -0.525 C  
HETATM   26  C   UNL     1     -10.307  11.314  64.485  1.00  0.00    -0.381 C  
HETATM   27  C   UNL     1     -10.163  11.977  65.855  1.00  0.00    -0.263 C  
HETATM   28  C   UNL     1     -11.498  12.482  66.407  1.00  0.00    -0.418 C  
ENDBRANCH  22  23
ENDBRANCH  17  18
ENDBRANCH  16  17
ENDBRANCH  15  16
ENDBRANCH  14  15
ENDBRANCH  13  14
ENDBRANCH  11  13
TORSDOF 7
ENDMDL
MODEL        5
REMARK 921   NORMALIZED FREE ENERGY PREDICTED BY IDOCK:   -7.40 KCAL/MOL
REMARK 922        TOTAL FREE ENERGY PREDICTED BY IDOCK:  -11.44 KCAL/MOL
REMARK 923 INTER-LIGAND FREE ENERGY PREDICTED BY IDOCK:  -10.77 KCAL/MOL
REMARK 924 INTRA-LIGAND FREE ENERGY PREDICTED BY IDOCK:   -0.67 KCAL/MOL
REMARK 927      BINDING AFFINITY PREDICTED BY RF-SCORE:    0.00 PKD
ROOT
HETATM    1  O   UNL     1     -10.265   6.407  74.377  1.00  0.00    -0.335 OA 
HETATM    2  C   UNL     1     -10.324   7.313  73.549  1.00  0.00    -0.366 C  
HETATM    3  C   UNL     1      -9.105   8.089  73.109  1.00  0.00    -0.341 C  
HETATM    4  C   UNL     1      -9.198   8.553  71.660  1.00  0.00    -0.304 C  
HETATM    5  C   UNL     1     -10.547   9.134  71.328  1.00  0.00    -0.399 A  
HETATM    6  C   UNL     1     -11.667   8.701  72.048  1.00  0.00    -0.369 A  
HETATM    7  N   UNL     1     -11.525   7.757  73.069  1.00  0.00    -0.595 N  
HETATM    8  C   UNL     1     -12.936   9.167  71.718  1.00  0.00    -0.448 A  
HETATM    9  C   UNL     1     -13.095  10.064  70.656  1.00  0.00    -0.220 A  
HETATM   10  H   UNL     1     -12.373   7.374  73.484  1.00  0.00     0.000 HD 
HETATM   11  C   UNL     1     -11.998  10.487  69.898  1.00  0.00    -0.264 A  
HETATM   12  C   UNL     1     -10.722  10.019  70.240  1.00  0.00    -0.367 A  
ENDROOT
BRANCH  11  13
HETATM   13  O   UNL     1     -12.318  11.334  68.862  1.00  0.00    -0.485 OA 
BRANCH  13  14
HETATM   14  C   UNL     1     -11.570  12.545  68.757  1.00  0.00    -0.322 C  
BRANCH  14  15
HETATM   15  C   UNL     1     -11.997  13.353  67.508  1.00  0.00    -0.381 C  
BRANCH  15  16
HETATM   16  C   UNL     1     -11.353  12.724  66.264  1.00  0.00    -0.365 C  
BRANCH  16  17
HETATM   17  C   UNL     1     -10.330  13.549  65.474  1.00  0.00    -0.309 C  
BRANCH  17  18
HETATM   18  C   UNL     1     -10.834  14.828  64.908  1.00  0.00    -0.416 A  
HETATM   19  N   UNL     1     -11.878  14.878  64.096  1.00  0.00    -0.343 NA 
HETATM   20  N   UNL     1     -12.125  16.191  63.840  1.00  0.00    -0.849 NA 
HETATM   21  N   UNL     1     -11.246  16.956  64.455  1.00  0.00    -1.120 NA 
HETATM   22  N   UNL     1     -10.459  16.129  65.183  1.00  0.00    -0.608 NA 
BRANCH  22  23
HETATM   23  C   UNL     1      -9.390  16.744  65.965  1.00  0.00    -0.210 C  
HETATM   24  C   UNL     1      -9.750  18.183  66.430  1.00  0.00    -0.329 C  
HETATM   25  C   UNL     1     -10.857  18.164  67.487  1.00  0.00    -0.264 C  
HETATM   26  C   UNL     1     -10.426  17.366  68.713  1.00  0.00    -0.333 C  
HETATM   27  C   UNL     1      -9.912  15.973  68.350  1.00  0.00    -0.220 C  
HETATM   28  C   UNL     1      -8.886  16.002  67.214  1.00  0.00    -0.207 C  
ENDBRANCH  22  23
ENDBRANCH  17  18
ENDBRANCH  16  17
ENDBRANCH  15  16
ENDBRANCH  14  15
ENDBRANCH  13  14
ENDBRANCH  11  13
TORSDOF 7
ENDMDL
MODEL        6
REMARK 921   NORMALIZED FREE ENERGY PREDICTED BY IDOCK:   -7.31 KCAL/MOL
REMARK 922        TOTAL FREE ENERGY PREDICTED BY IDOCK:  -11.32 KCAL/MOL
REMARK 923 INTER-LIGAND FREE ENERGY PREDICTED BY IDOCK:  -10.58 KCAL/MOL
REMARK 924 INTRA-LIGAND FREE ENERGY PREDICTED BY IDOCK:   -0.74 KCAL/MOL
REMARK 927      BINDING AFFINITY PREDICTED BY RF-SCORE:    0.00 PKD
ROOT
HETATM    1  O   UNL     1     -11.664   6.473  70.721  1.00  0.00    -0.361 OA 
HETATM    2  C   UNL     1     -12.144   7.592  70.892  1.00  0.00    -0.226 C  
HETATM    3  C   UNL     1     -13.441   7.813  71.634  1.00  0.00    -0.401 C  
HETATM    4  C   UNL     1     -13.468   9.141  72.382  1.00  0.00    -0.535 C  
HETATM    5  C   UNL     1     -12.942  10.280  71.551  1.00  0.00    -0.556 A  
HETATM    6  C   UNL     1     -12.008  10.009  70.543  1.00  0.00    -0.272 A  
HETATM    7  N   UNL     1     -11.590   8.696  70.306  1.00  0.00    -0.461 N  
HETATM    8  C   UNL     1     -11.452  11.049  69.805  1.00  0.00    -0.387 A  
HETATM    9  C   UNL     1     -11.818  12.372  70.077  1.00  0.00    -0.363 A  
HETATM   10  H   UNL     1     -10.820   8.553  69.653  1.00  0.00     0.000 HD 
HETATM   11  C   UNL     1     -12.722  12.674  71.101  1.00  0.00    -0.254 A  
HETATM   12  C   UNL     1     -13.284  11.621  71.836  1.00  0.00    -0.475 A  
ENDROOT
BRANCH  11  13
HETATM   13  O   UNL     1     -12.949  14.020  71.276  1.00  0.00    -0.325 OA 
BRANCH  13  14
HETATM   14  C   UNL     1     -11.961  14.758  71.994  1.00  0.00    -0.294 C  
BRANCH  14  15
HETATM   15  C   UNL     1     -11.634  16.090  71.277  1.00  0.00    -0.506 C  
BRANCH  15  16
HETATM   16  C   UNL     1     -10.847  15.785  69.994  1.00  0.00    -0.348 C  
BRANCH  16  17
HETATM   17  C   UNL     1     -11.578  15.875  68.649  1.00  0.00    -0.383 C  
BRANCH  17  18
HETATM   18  C   UNL     1     -10.724  16.186  67.473  1.00  0.00    -0.304 A  
HETATM   19  N   UNL     1     -10.236  15.241  66.686  1.00  0.00    -0.264 NA 
HETATM   20  N   UNL     1      -9.583  15.864  65.668  1.00  0.00    -0.393 NA 
HETATM   21  N   UNL     1      -9.635  17.172  65.816  1.00  0.00    -0.537 NA 
HETATM   22  N   UNL     1     -10.399  17.405  66.910  1.00  0.00    -0.326 NA 
BRANCH  22  23
HETATM   23  C   UNL     1     -10.610  18.799  67.291  1.00  0.00    -0.442 C  
HETATM   24  C   UNL     1     -10.005  19.130  68.684  1.00  0.00    -0.486 C  
HETATM   25  C   UNL     1      -8.475  19.107  68.644  1.00  0.00    -0.397 C  
HETATM   26  C   UNL     1      -7.942  20.128  67.644  1.00  0.00    -0.327 C  
HETATM   27  C   UNL     1      -8.585  19.984  66.265  1.00  0.00    -0.337 C  
HETATM   28  C   UNL     1     -10.112  19.896  66.335  1.00  0.00    -0.615 C  
ENDBRANCH  22  23
ENDBRANCH  17  18
ENDBRANCH  16  17
ENDBRANCH  15  16
ENDBRANCH  14  15
ENDBRANCH  13  14
ENDBRANCH  11  13
TORSDOF 7
ENDMDL
MODEL        7
REMARK 921   NORMALIZED FREE ENERGY PREDICTED BY IDOCK:   -7.24 KCAL/MOL
REMARK 922        TOTAL FREE ENERGY PREDICTED BY IDOCK:  -11.21 KCAL/MOL
REMARK 923 INTER-LIGAND FREE ENERGY PREDICTED BY IDOCK:  -10.34 KCAL/MOL
REMARK 924 INTRA-LIGAND FREE ENERGY PREDICTED BY IDOCK:   -0.87 KCAL/MOL
REMARK 927      BINDING AFFINITY PREDICTED BY RF-SCORE:    0.00 PKD
ROOT
HETATM    1  O   UNL     1     -14.363   9.141  72.900  1.00  0.00    -0.519 OA 
HETATM    2  C   UNL     1     -13.356   9.275  72.207  1.00  0.00    -0.477 C  
HETATM    3  C   UNL     1     -12.181   8.331  72.293  1.00  0.00    -0.428 C  
HETATM    4  C   UNL     1     -11.461   8.168  70.960  1.00  0.00    -0.301 C  
HETATM    5  C   UNL     1     -11.244   9.483  70.259  1.00  0.00    -0.307 A  
HETATM    6  C   UNL     1     -12.132  10.537  70.506  1.00  0.00    -0.345 A  
HETATM    7  N   UNL     1     -13.191  10.369  71.404  1.00  0.00    -0.380 N  
HETATM    8  C   UNL     1     -11.999  11.741  69.822  1.00  0.00    -0.392 A  
HETATM    9  C   UNL     1     -10.979  11.897  68.876  1.00  0.00    -0.285 A  
HETATM   10  H   UNL     1     -13.886  11.112  71.462  1.00  0.00     0.000 HD 
HETATM   11  C   UNL     1     -10.099  10.849  68.584  1.00  0.00    -0.191 A  
HETATM   12  C   UNL     1     -10.235   9.641  69.283  1.00  0.00    -0.215 A  
ENDROOT
BRANCH  11  13
HETATM   13  O   UNL     1      -9.180  11.138  67.603  1.00  0.00    -0.148 OA 
BRANCH  13  14
HETATM   14  C   UNL     1      -9.528  12.156  66.665  1.00  0.00    -0.223 C  
BRANCH  14  15
HETATM   15  C   UNL     1      -9.992  11.539  65.324  1.00  0.00    -0.302 C  
BRANCH  15  16
HETATM   16  C   UNL     1     -11.353  12.140  64.942  1.00  0.00    -0.378 C  
BRANCH  16  17
HETATM   17  C   UNL     1     -11.869  13.344  65.739  1.00  0.00    -0.412 C  
BRANCH  17  18
HETATM   18  C   UNL     1     -11.688  14.670  65.091  1.00  0.00    -0.364 A  
HETATM   19  N   UNL     1     -12.513  15.117  64.157  1.00  0.00    -0.714 NA 
HETATM   20  N   UNL     1     -12.118  16.382  63.846  1.00  0.00    -0.747 NA 
HETATM   21  N   UNL     1     -11.056  16.722  64.548  1.00  0.00    -1.039 NA 
HETATM   22  N   UNL     1     -10.800  15.687  65.383  1.00  0.00    -0.377 NA 
BRANCH  22  23
HETATM   23  C   UNL     1      -9.653  15.821  66.278  1.00  0.00    -0.313 C  
HETATM   24  C   UNL     1      -9.292  17.306  66.560  1.00  0.00    -0.283 C  
HETATM   25  C   UNL     1     -10.363  17.983  67.419  1.00  0.00    -0.391 C  
HETATM   26  C   UNL     1     -10.515  17.272  68.759  1.00  0.00    -0.340 C  
HETATM   27  C   UNL     1     -10.730  15.767  68.600  1.00  0.00    -0.263 C  
HETATM   28  C   UNL     1      -9.717  15.126  67.648  1.00  0.00    -0.211 C  
ENDBRANCH  22  23
ENDBRANCH  17  18
ENDBRANCH  16  17
ENDBRANCH  15  16
ENDBRANCH  14  15
ENDBRANCH  13  14
ENDBRANCH  11  13
TORSDOF 7
ENDMDL
MODEL        8
REMARK 921   NORMALIZED FREE ENERGY PREDICTED BY IDOCK:   -7.20 KCAL/MOL
REMARK 922        TOTAL FREE ENERGY PREDICTED BY IDOCK:  -11.17 KCAL/MOL
REMARK 923 INTER-LIGAND FREE ENERGY PREDICTED BY IDOCK:   -9.51 KCAL/MOL
REMARK 924 INTRA-LIGAND FREE ENERGY PREDICTED BY IDOCK:   -1.66 KCAL/MOL
REMARK 927      BINDING AFFINITY PREDICTED BY RF-SCORE:    0.00 PKD
ROOT
HETATM    1  O   UNL     1      -9.911  11.244  62.713  1.00  0.00    -0.292 OA 
HETATM    2  C   UNL     1     -10.457  11.995  63.519  1.00  0.00    -0.464 C  
HETATM    3  C   UNL     1     -11.948  12.238  63.518  1.00  0.00    -0.625 C  
HETATM    4  C   UNL     1     -12.499  12.505  64.913  1.00  0.00    -0.524 C  
HETATM    5  C   UNL     1     -11.641  13.463  65.697  1.00  0.00    -0.350 A  
HETATM    6  C   UNL     1     -10.274  13.542  65.405  1.00  0.00    -0.302 A  
HETATM    7  N   UNL     1      -9.725  12.754  64.389  1.00  0.00    -0.559 N  
HETATM    8  C   UNL     1      -9.443  14.365  66.157  1.00  0.00    -0.271 A  
HETATM    9  C   UNL     1      -9.973  15.111  67.218  1.00  0.00    -0.230 A  
HETATM   10  H   UNL     1      -8.710  12.746  64.290  1.00  0.00     0.000 HD 
HETATM   11  C   UNL     1     -11.328  15.024  67.553  1.00  0.00    -0.333 A  
HETATM   12  C   UNL     1     -12.161  14.198  66.786  1.00  0.00    -0.474 A  
ENDROOT
BRANCH  11  13
HETATM   13  O   UNL     1     -11.690  15.781  68.644  1.00  0.00    -0.375 OA 
BRANCH  13  14
HETATM   14  C   UNL     1     -11.355  15.267  69.932  1.00  0.00    -0.289 C  
BRANCH  14  15
HETATM   15  C   UNL     1     -12.625  15.047  70.789  1.00  0.00    -0.429 C  
BRANCH  15  16
HETATM   16  C   UNL     1     -12.686  13.575  71.221  1.00  0.00    -0.432 C  
BRANCH  16  17
HETATM   17  C   UNL     1     -12.128  12.509  70.271  1.00  0.00    -0.373 C  
BRANCH  17  18
HETATM   18  C   UNL     1     -12.048  11.132  70.824  1.00  0.00    -0.357 A  
HETATM   19  N   UNL     1     -13.017  10.609  71.559  1.00  0.00    -0.437 NA 
HETATM   20  N   UNL     1     -12.670   9.321  71.823  1.00  0.00    -0.353 NA 
HETATM   21  N   UNL     1     -11.499   9.037  71.289  1.00  0.00    -0.294 NA 
HETATM   22  N   UNL     1     -11.113  10.140  70.603  1.00  0.00    -0.323 NA 
BRANCH  22  23
HETATM   23  C   UNL     1      -9.827  10.078  69.912  1.00  0.00    -0.224 C  
HETATM   24  C   UNL     1      -9.488   8.644  69.420  1.00  0.00    -0.161 C  
HETATM   25  C   UNL     1     -10.410   8.217  68.275  1.00  0.00    -0.241 C  
HETATM   26  C   UNL     1     -10.279   9.166  67.089  1.00  0.00    -0.329 C  
HETATM   27  C   UNL     1     -10.452  10.630  67.492  1.00  0.00    -0.272 C  
HETATM   28  C   UNL     1      -9.604  11.009  68.709  1.00  0.00    -0.194 C  
ENDBRANCH  22  23
ENDBRANCH  17  18
ENDBRANCH  16  17
ENDBRANCH  15  16
ENDBRANCH  14  15
ENDBRANCH  13  14
ENDBRANCH  11  13
TORSDOF 7
ENDMDL
MODEL        9
REMARK 921   NORMALIZED FREE ENERGY PREDICTED BY IDOCK:   -7.20 KCAL/MOL
REMARK 922        TOTAL FREE ENERGY PREDICTED BY IDOCK:  -11.16 KCAL/MOL
REMARK 923 INTER-LIGAND FREE ENERGY PREDICTED BY IDOCK:  -10.31 KCAL/MOL
REMARK 924 INTRA-LIGAND FREE ENERGY PREDICTED BY IDOCK:   -0.86 KCAL/MOL
REMARK 927      BINDING AFFINITY PREDICTED BY RF-SCORE:    0.00 PKD
ROOT
HETATM    1  O   UNL     1     -13.410  15.126  73.656  1.00  0.00    -0.419 OA 
HETATM    2  C   UNL     1     -13.220  14.694  72.521  1.00  0.00    -0.428 C  
HETATM    3  C   UNL     1     -13.332  15.568  71.293  1.00  0.00    -0.588 C  
HETATM    4  C   UNL     1     -12.380  15.140  70.183  1.00  0.00    -0.385 C  
HETATM    5  C   UNL     1     -12.372  13.649  69.974  1.00  0.00    -0.342 A  
HETATM    6  C   UNL     1     -12.687  12.813  71.052  1.00  0.00    -0.243 A  
HETATM    7  N   UNL     1     -13.020  13.361  72.294  1.00  0.00    -0.317 N  
HETATM    8  C   UNL     1     -12.621  11.431  70.910  1.00  0.00    -0.453 A  
HETATM    9  C   UNL     1     -12.228  10.873  69.687  1.00  0.00    -0.354 A  
HETATM   10  H   UNL     1     -13.120  12.724  73.084  1.00  0.00     0.000 HD 
HETATM   11  C   UNL     1     -11.874  11.685  68.605  1.00  0.00    -0.308 A  
HETATM   12  C   UNL     1     -11.950  13.077  68.753  1.00  0.00    -0.302 A  
ENDROOT
BRANCH  11  13
HETATM   13  O   UNL     1     -11.469  10.993  67.487  1.00  0.00    -0.468 OA 
BRANCH  13  14
HETATM   14  C   UNL     1     -10.808  11.739  66.464  1.00  0.00    -0.282 C  
BRANCH  14  15
HETATM   15  C   UNL     1     -11.815  12.224  65.394  1.00  0.00    -0.418 C  
BRANCH  15  16
HETATM   16  C   UNL     1     -11.388  13.614  64.901  1.00  0.00    -0.353 C  
BRANCH  16  17
HETATM   17  C   UNL     1     -10.386  14.413  65.743  1.00  0.00    -0.340 C  
BRANCH  17  18
HETATM   18  C   UNL     1     -10.481  15.892  65.625  1.00  0.00    -0.392 A  
HETATM   19  N   UNL     1     -10.938  16.484  64.533  1.00  0.00    -0.845 NA 
HETATM   20  N   UNL     1     -10.976  17.820  64.788  1.00  0.00    -0.556 NA 
HETATM   21  N   UNL     1     -10.533  18.073  66.003  1.00  0.00    -0.489 NA 
HETATM   22  N   UNL     1     -10.272  16.873  66.574  1.00  0.00    -0.310 NA 
BRANCH  22  23
HETATM   23  C   UNL     1      -9.759  16.883  67.942  1.00  0.00    -0.254 C  
HETATM   24  C   UNL     1      -8.252  16.510  68.012  1.00  0.00    -0.172 C  
HETATM   25  C   UNL     1      -7.378  17.612  67.406  1.00  0.00    -0.202 C  
HETATM   26  C   UNL     1      -7.573  18.929  68.148  1.00  0.00    -0.305 C  
HETATM   27  C   UNL     1      -9.046  19.321  68.265  1.00  0.00    -0.394 C  
HETATM   28  C   UNL     1      -9.922  18.171  68.768  1.00  0.00    -0.389 C  
ENDBRANCH  22  23
ENDBRANCH  17  18
ENDBRANCH  16  17
ENDBRANCH  15  16
ENDBRANCH  14  15
ENDBRANCH  13  14
ENDBRANCH  11  13
TORSDOF 7
ENDMDL
MODEL       10
REMARK 921   NORMALIZED FREE ENERGY PREDICTED BY IDOCK:   -7.17 KCAL/MOL
REMARK 922        TOTAL FREE ENERGY PREDICTED BY IDOCK:  -11.12 KCAL/MOL
REMARK 923 INTER-LIGAND FREE ENERGY PREDICTED BY IDOCK:   -9.98 KCAL/MOL
REMARK 924 INTRA-LIGAND FREE ENERGY PREDICTED BY IDOCK:   -1.14 KCAL/MOL
REMARK 927      BINDING AFFINITY PREDICTED BY RF-SCORE:    0.00 PKD
ROOT
HETATM    1  O   UNL     1     -12.020   6.420  70.960  1.00  0.00    -0.333 OA 
HETATM    2  C   UNL     1     -11.444   6.862  69.968  1.00  0.00    -0.277 C  
HETATM    3  C   UNL     1     -10.865   5.965  68.899  1.00  0.00    -0.373 C  
HETATM    4  C   UNL     1     -10.913   6.598  67.514  1.00  0.00    -0.416 C  
HETATM    5  C   UNL     1     -10.473   8.038  67.524  1.00  0.00    -0.331 A  
HETATM    6  C   UNL     1     -10.636   8.788  68.695  1.00  0.00    -0.139 A  
HETATM    7  N   UNL     1     -11.182   8.198  69.838  1.00  0.00    -0.446 N  
HETATM    8  C   UNL     1     -10.303  10.139  68.714  1.00  0.00    -0.211 A  
HETATM    9  C   UNL     1      -9.814  10.754  67.556  1.00  0.00    -0.197 A  
HETATM   10  H   UNL     1     -11.401   8.804  70.628  1.00  0.00     0.000 HD 
HETATM   11  C   UNL     1      -9.674  10.037  66.363  1.00  0.00    -0.210 A  
HETATM   12  C   UNL     1     -10.004   8.675  66.353  1.00  0.00    -0.331 A  
ENDROOT
BRANCH  11  13
HETATM   13  O   UNL     1      -9.223  10.787  65.301  1.00  0.00    -0.188 OA 
BRANCH  13  14
HETATM   14  C   UNL     1      -9.961  10.698  64.082  1.00  0.00    -0.342 C  
BRANCH  14  15
HETATM   15  C   UNL     1     -10.729  12.012  63.803  1.00  0.00    -0.478 C  
BRANCH  15  16
HETATM   16  C   UNL     1     -12.028  12.014  64.622  1.00  0.00    -0.326 C  
BRANCH  16  17
HETATM   17  C   UNL     1     -12.359  13.250  65.466  1.00  0.00    -0.533 C  
BRANCH  17  18
HETATM   18  C   UNL     1     -11.891  14.549  64.915  1.00  0.00    -0.416 A  
HETATM   19  N   UNL     1     -12.538  15.178  63.947  1.00  0.00    -0.695 NA 
HETATM   20  N   UNL     1     -11.902  16.364  63.744  1.00  0.00    -0.840 NA 
HETATM   21  N   UNL     1     -10.864  16.476  64.548  1.00  0.00    -0.794 NA 
HETATM   22  N   UNL     1     -10.868  15.376  65.337  1.00  0.00    -0.369 NA 
BRANCH  22  23
HETATM   23  C   UNL     1      -9.800  15.261  66.326  1.00  0.00    -0.294 C  
HETATM   24  C   UNL     1      -9.316  16.646  66.839  1.00  0.00    -0.246 C  
HETATM   25  C   UNL     1     -10.386  17.324  67.699  1.00  0.00    -0.350 C  
HETATM   26  C   UNL     1     -10.731  16.467  68.912  1.00  0.00    -0.337 C  
HETATM   27  C   UNL     1     -11.084  15.030  68.529  1.00  0.00    -0.279 C  
HETATM   28  C   UNL     1     -10.059  14.406  67.579  1.00  0.00    -0.232 C  
ENDBRANCH  22  23
ENDBRANCH  17  18
ENDBRANCH  16  17
ENDBRANCH  15  16
ENDBRANCH  14  15
ENDBRANCH  13  14
ENDBRANCH  11  13
TORSDOF 7
ENDMDL
MODEL       11
REMARK 921   NORMALIZED FREE ENERGY PREDICTED BY IDOCK:   -7.12 KCAL/MOL
REMARK 922        TOTAL FREE ENERGY PREDICTED BY IDOCK:  -11.04 KCAL/MOL
REMARK 923 INTER-LIGAND FREE ENERGY PREDICTED BY IDOCK:   -9.61 KCAL/MOL
REMARK 924 INTRA-LIGAND FREE ENERGY PREDICTED BY IDOCK:   -1.43 KCAL/MOL
REMARK 927      BINDING AFFINITY PREDICTED BY RF-SCORE:    0.00 PKD
ROOT
HETATM    1  O   UNL     1     -13.046  16.289  74.021  1.00  0.00    -0.687 OA 
HETATM    2  C   UNL     1     -12.756  15.699  72.983  1.00  0.00    -0.471 C  
HETATM    3  C   UNL     1     -13.011  14.222  72.791  1.00  0.00    -0.545 C  
HETATM    4  C   UNL     1     -13.320  13.864  71.342  1.00  0.00    -0.363 C  
HETATM    5  C   UNL     1     -12.386  14.538  70.372  1.00  0.00    -0.400 A  
HETATM    6  C   UNL     1     -11.798  15.757  70.733  1.00  0.00    -0.404 A  
HETATM    7  N   UNL     1     -12.065  16.324  71.983  1.00  0.00    -0.610 N  
HETATM    8  C   UNL     1     -10.986  16.437  69.832  1.00  0.00    -0.339 A  
HETATM    9  C   UNL     1     -10.763  15.908  68.555  1.00  0.00    -0.274 A  
HETATM   10  H   UNL     1     -11.721  17.267  72.160  1.00  0.00     0.000 HD 
HETATM   11  C   UNL     1     -11.365  14.710  68.156  1.00  0.00    -0.302 A  
HETATM   12  C   UNL     1     -12.176  14.026  69.072  1.00  0.00    -0.280 A  
ENDROOT
BRANCH  11  13
HETATM   13  O   UNL     1     -11.087  14.340  66.860  1.00  0.00    -0.298 OA 
BRANCH  13  14
HETATM   14  C   UNL     1      -9.771  13.858  66.590  1.00  0.00    -0.289 C  
BRANCH  14  15
HETATM   15  C   UNL     1      -9.814  12.419  66.022  1.00  0.00    -0.268 C  
BRANCH  15  16
HETATM   16  C   UNL     1      -9.786  11.421  67.188  1.00  0.00    -0.212 C  
BRANCH  16  17
HETATM   17  C   UNL     1     -11.032  10.566  67.450  1.00  0.00    -0.352 C  
BRANCH  17  18
HETATM   18  C   UNL     1     -10.782   9.238  68.069  1.00  0.00    -0.174 A  
HETATM   19  N   UNL     1     -10.666   8.134  67.348  1.00  0.00    -0.241 NA 
HETATM   20  N   UNL     1     -10.356   7.125  68.206  1.00  0.00    -0.188 NA 
HETATM   21  N   UNL     1     -10.298   7.571  69.444  1.00  0.00    -0.208 NA 
HETATM   22  N   UNL     1     -10.502   8.909  69.381  1.00  0.00    -0.221 NA 
BRANCH  22  23
HETATM   23  C   UNL     1     -10.487   9.646  70.642  1.00  0.00    -0.312 C  
HETATM   24  C   UNL     1     -11.536  10.791  70.670  1.00  0.00    -0.388 C  
HETATM   25  C   UNL     1     -12.962  10.237  70.719  1.00  0.00    -0.408 C  
HETATM   26  C   UNL     1     -13.169   9.377  71.961  1.00  0.00    -0.529 C  
HETATM   27  C   UNL     1     -12.095   8.299  72.109  1.00  0.00    -0.425 C  
HETATM   28  C   UNL     1     -10.678   8.855  71.947  1.00  0.00    -0.426 C  
ENDBRANCH  22  23
ENDBRANCH  17  18
ENDBRANCH  16  17
ENDBRANCH  15  16
ENDBRANCH  14  15
ENDBRANCH  13  14
ENDBRANCH  11  13
TORSDOF 7
ENDMDL
MODEL       12
REMARK 921   NORMALIZED FREE ENERGY PREDICTED BY IDOCK:   -7.08 KCAL/MOL
REMARK 922        TOTAL FREE ENERGY PREDICTED BY IDOCK:  -10.99 KCAL/MOL
REMARK 923 INTER-LIGAND FREE ENERGY PREDICTED BY IDOCK:   -9.32 KCAL/MOL
REMARK 924 INTRA-LIGAND FREE ENERGY PREDICTED BY IDOCK:   -1.66 KCAL/MOL
REMARK 927      BINDING AFFINITY PREDICTED BY RF-SCORE:    0.00 PKD
ROOT
HETATM    1  O   UNL     1     -13.655   9.060  72.716  1.00  0.00    -0.433 OA 
HETATM    2  C   UNL     1     -13.127   9.979  72.093  1.00  0.00    -0.386 C  
HETATM    3  C   UNL     1     -11.940   9.763  71.184  1.00  0.00    -0.463 C  
HETATM    4  C   UNL     1     -11.927  10.723  70.000  1.00  0.00    -0.427 C  
HETATM    5  C   UNL     1     -12.242  12.139  70.405  1.00  0.00    -0.378 A  
HETATM    6  C   UNL     1     -13.034  12.359  71.539  1.00  0.00    -0.285 A  
HETATM    7  N   UNL     1     -13.507  11.277  72.287  1.00  0.00    -0.521 N  
HETATM    8  C   UNL     1     -13.400  13.652  71.898  1.00  0.00    -0.510 A  
HETATM    9  C   UNL     1     -12.982  14.738  71.118  1.00  0.00    -0.422 A  
HETATM   10  H   UNL     1     -14.181  11.470  73.028  1.00  0.00     0.000 HD 
HETATM   11  C   UNL     1     -12.220  14.544  69.962  1.00  0.00    -0.342 A  
HETATM   12  C   UNL     1     -11.849  13.239  69.610  1.00  0.00    -0.391 A  
ENDROOT
BRANCH  11  13
HETATM   13  O   UNL     1     -11.924  15.701  69.279  1.00  0.00    -0.365 OA 
BRANCH  13  14
HETATM   14  C   UNL     1     -10.727  16.386  69.647  1.00  0.00    -0.337 C  
BRANCH  14  15
HETATM   15  C   UNL     1      -9.560  16.009  68.705  1.00  0.00    -0.222 C  
BRANCH  15  16
HETATM   16  C   UNL     1     -10.043  16.105  67.250  1.00  0.00    -0.265 C  
BRANCH  16  17
HETATM   17  C   UNL     1      -9.702  14.959  66.290  1.00  0.00    -0.320 C  
BRANCH  17  18
HETATM   18  C   UNL     1     -10.773  13.948  66.089  1.00  0.00    -0.283 A  
HETATM   19  N   UNL     1     -12.058  14.266  66.117  1.00  0.00    -0.416 NA 
HETATM   20  N   UNL     1     -12.756  13.139  65.812  1.00  0.00    -0.433 NA 
HETATM   21  N   UNL     1     -11.938  12.125  65.617  1.00  0.00    -0.523 NA 
HETATM   22  N   UNL     1     -10.681  12.619  65.725  1.00  0.00    -0.263 NA 
BRANCH  22  23
HETATM   23  C   UNL     1      -9.578  11.677  65.550  1.00  0.00    -0.218 C  
HETATM   24  C   UNL     1      -8.450  11.886  66.598  1.00  0.00    -0.143 C  
HETATM   25  C   UNL     1      -8.912  11.477  67.999  1.00  0.00    -0.170 C  
HETATM   26  C   UNL     1      -9.318  10.007  68.030  1.00  0.00    -0.139 C  
HETATM   27  C   UNL     1     -10.326   9.658  66.935  1.00  0.00    -0.307 C  
HETATM   28  C   UNL     1      -9.900  10.173  65.558  1.00  0.00    -0.365 C  
ENDBRANCH  22  23
ENDBRANCH  17  18
ENDBRANCH  16  17
ENDBRANCH  15  16
ENDBRANCH  14  15
ENDBRANCH  13  14
ENDBRANCH  11  13
TORSDOF 7
ENDMDL
MODEL       13
REMARK 921   NORMALIZED FREE ENERGY PREDICTED BY IDOCK:   -7.05 KCAL/MOL
REMARK 922        TOTAL FREE ENERGY PREDICTED BY IDOCK:  -10.95 KCAL/MOL
REMARK 923 INTER-LIGAND FREE ENERGY PREDICTED BY IDOCK:   -9.77 KCAL/MOL
REMARK 924 INTRA-LIGAND FREE ENERGY PREDICTED BY IDOCK:   -1.18 KCAL/MOL
REMARK 927      BINDING AFFINITY PREDICTED BY RF-SCORE:    0.00 PKD
ROOT
HETATM    1  O   UNL     1     -14.044  15.916  72.831  1.00  0.00    -0.561 OA 
HETATM    2  C   UNL     1     -13.616  15.026  72.098  1.00  0.00    -0.427 C  
HETATM    3  C   UNL     1     -13.046  15.309  70.728  1.00  0.00    -0.468 C  
HETATM    4  C   UNL     1     -11.942  14.332  70.340  1.00  0.00    -0.402 C  
HETATM    5  C   UNL     1     -12.298  12.905  70.662  1.00  0.00    -0.385 A  
HETATM    6  C   UNL     1     -13.188  12.649  71.713  1.00  0.00    -0.359 A  
HETATM    7  N   UNL     1     -13.747  13.708  72.435  1.00  0.00    -0.570 N  
HETATM    8  C   UNL     1     -13.483  11.340  72.079  1.00  0.00    -0.289 A  
HETATM    9  C   UNL     1     -12.880  10.273  71.402  1.00  0.00    -0.544 A  
HETATM   10  H   UNL     1     -14.289  13.481  73.268  1.00  0.00     0.000 HD 
HETATM   11  C   UNL     1     -11.961  10.500  70.372  1.00  0.00    -0.335 A  
HETATM   12  C   UNL     1     -11.675  11.821  70.004  1.00  0.00    -0.386 A  
ENDROOT
BRANCH  11  13
HETATM   13  O   UNL     1     -11.421   9.355  69.833  1.00  0.00    -0.161 OA 
BRANCH  13  14
HETATM   14  C   UNL     1     -10.034   9.385  69.498  1.00  0.00    -0.191 C  
BRANCH  14  15
HETATM   15  C   UNL     1      -9.768   8.636  68.171  1.00  0.00    -0.178 C  
BRANCH  15  16
HETATM   16  C   UNL     1     -10.510   9.355  67.035  1.00  0.00    -0.302 C  
BRANCH  16  17
HETATM   17  C   UNL     1     -10.140  10.810  66.726  1.00  0.00    -0.267 C  
BRANCH  17  18
HETATM   18  C   UNL     1     -10.298  11.227  65.308  1.00  0.00    -0.280 A  
HETATM   19  N   UNL     1      -9.616  10.660  64.326  1.00  0.00    -0.268 NA 
HETATM   20  N   UNL     1     -10.059  11.207  63.162  1.00  0.00    -0.344 NA 
HETATM   21  N   UNL     1     -10.984  12.116  63.399  1.00  0.00    -0.431 NA 
HETATM   22  N   UNL     1     -11.197  12.106  64.737  1.00  0.00    -0.314 NA 
BRANCH  22  23
HETATM   23  C   UNL     1     -12.191  13.040  65.259  1.00  0.00    -0.466 C  
HETATM   24  C   UNL     1     -11.931  13.411  66.745  1.00  0.00    -0.447 C  
HETATM   25  C   UNL     1     -10.674  14.273  66.890  1.00  0.00    -0.290 C  
HETATM   26  C   UNL     1     -10.808  15.568  66.097  1.00  0.00    -0.295 C  
HETATM   27  C   UNL     1     -11.209  15.323  64.642  1.00  0.00    -0.366 C  
HETATM   28  C   UNL     1     -12.400  14.369  64.514  1.00  0.00    -0.440 C  
ENDBRANCH  22  23
ENDBRANCH  17  18
ENDBRANCH  16  17
ENDBRANCH  15  16
ENDBRANCH  14  15
ENDBRANCH  13  14
ENDBRANCH  11  13
TORSDOF 7
ENDMDL
MODEL       14
REMARK 921   NORMALIZED FREE ENERGY PREDICTED BY IDOCK:   -7.00 KCAL/MOL
REMARK 922        TOTAL FREE ENERGY PREDICTED BY IDOCK:  -10.88 KCAL/MOL
REMARK 923 INTER-LIGAND FREE ENERGY PREDICTED BY IDOCK:   -9.58 KCAL/MOL
REMARK 924 INTRA-LIGAND FREE ENERGY PREDICTED BY IDOCK:   -1.30 KCAL/MOL
REMARK 927      BINDING AFFINITY PREDICTED BY RF-SCORE:    0.00 PKD
ROOT
HETATM    1  O   UNL     1     -11.187   6.149  70.188  1.00  0.00    -0.351 OA 
HETATM    2  C   UNL     1     -11.205   7.378  70.229  1.00  0.00    -0.247 C  
HETATM    3  C   UNL     1     -10.172   8.227  69.525  1.00  0.00    -0.210 C  
HETATM    4  C   UNL     1     -10.738   9.559  69.046  1.00  0.00    -0.224 C  
HETATM    5  C   UNL     1     -11.593  10.229  70.088  1.00  0.00    -0.376 A  
HETATM    6  C   UNL     1     -12.249   9.436  71.038  1.00  0.00    -0.279 A  
HETATM    7  N   UNL     1     -12.093   8.047  71.024  1.00  0.00    -0.428 N  
HETATM    8  C   UNL     1     -13.100  10.020  71.971  1.00  0.00    -0.541 A  
HETATM    9  C   UNL     1     -13.311  11.404  71.953  1.00  0.00    -0.409 A  
HETATM   10  H   UNL     1     -12.682   7.496  71.648  1.00  0.00     0.000 HD 
HETATM   11  C   UNL     1     -12.696  12.215  70.994  1.00  0.00    -0.228 A  
HETATM   12  C   UNL     1     -11.834  11.621  70.062  1.00  0.00    -0.435 A  
ENDROOT
BRANCH  11  13
HETATM   13  O   UNL     1     -13.034  13.546  71.077  1.00  0.00    -0.280 OA 
BRANCH  13  14
HETATM   14  C   UNL     1     -12.030  14.443  71.553  1.00  0.00    -0.226 C  
BRANCH  14  15
HETATM   15  C   UNL     1     -12.115  15.805  70.823  1.00  0.00    -0.448 C  
BRANCH  15  16
HETATM   16  C   UNL     1     -12.101  15.561  69.308  1.00  0.00    -0.284 C  
BRANCH  16  17
HETATM   17  C   UNL     1     -10.750  15.351  68.613  1.00  0.00    -0.246 C  
BRANCH  17  18
HETATM   18  C   UNL     1     -10.677  15.801  67.198  1.00  0.00    -0.312 A  
HETATM   19  N   UNL     1      -9.900  16.801  66.815  1.00  0.00    -0.264 NA 
HETATM   20  N   UNL     1     -10.002  16.893  65.462  1.00  0.00    -0.584 NA 
HETATM   21  N   UNL     1     -10.839  15.987  64.997  1.00  0.00    -0.550 NA 
HETATM   22  N   UNL     1     -11.233  15.247  66.061  1.00  0.00    -0.284 NA 
BRANCH  22  23
HETATM   23  C   UNL     1     -12.178  14.163  65.805  1.00  0.00    -0.442 C  
HETATM   24  C   UNL     1     -12.133  13.674  64.330  1.00  0.00    -0.470 C  
HETATM   25  C   UNL     1     -10.822  12.944  64.027  1.00  0.00    -0.443 C  
HETATM   26  C   UNL     1     -10.655  11.728  64.931  1.00  0.00    -0.344 C  
HETATM   27  C   UNL     1     -10.827  12.073  66.411  1.00  0.00    -0.314 C  
HETATM   28  C   UNL     1     -12.087  12.900  66.679  1.00  0.00    -0.360 C  
ENDBRANCH  22  23
ENDBRANCH  17  18
ENDBRANCH  16  17
ENDBRANCH  15  16
ENDBRANCH  14  15
ENDBRANCH  13  14
ENDBRANCH  11  13
TORSDOF 7
ENDMDL
MODEL       15
REMARK 921   NORMALIZED FREE ENERGY PREDICTED BY IDOCK:   -6.98 KCAL/MOL
REMARK 922        TOTAL FREE ENERGY PREDICTED BY IDOCK:  -10.86 KCAL/MOL
REMARK 923 INTER-LIGAND FREE ENERGY PREDICTED BY IDOCK:   -9.69 KCAL/MOL
REMARK 924 INTRA-LIGAND FREE ENERGY PREDICTED BY IDOCK:   -1.17 KCAL/MOL
REMARK 927      BINDING AFFINITY PREDICTED BY RF-SCORE:    0.00 PKD
ROOT
HETATM    1  O   UNL     1     -13.114  16.552  73.936  1.00  0.00    -0.633 OA 
HETATM    2  C   UNL     1     -12.852  15.831  72.975  1.00  0.00    -0.502 C  
HETATM    3  C   UNL     1     -13.370  14.417  72.858  1.00  0.00    -0.575 C  
HETATM    4  C   UNL     1     -13.613  14.000  71.412  1.00  0.00    -0.327 C  
HETATM    5  C   UNL     1     -12.484  14.402  70.501  1.00  0.00    -0.416 A  
HETATM    6  C   UNL     1     -11.706  15.517  70.837  1.00  0.00    -0.375 A  
HETATM    7  N   UNL     1     -11.968  16.229  72.011  1.00  0.00    -0.609 N  
HETATM    8  C   UNL     1     -10.701  15.955  69.981  1.00  0.00    -0.343 A  
HETATM    9  C   UNL     1     -10.473  15.285  68.773  1.00  0.00    -0.237 A  
HETATM   10  H   UNL     1     -11.465  17.104  72.159  1.00  0.00     0.000 HD 
HETATM   11  C   UNL     1     -11.258  14.190  68.395  1.00  0.00    -0.265 A  
HETATM   12  C   UNL     1     -12.264  13.750  69.267  1.00  0.00    -0.307 A  
ENDROOT
BRANCH  11  13
HETATM   13  O   UNL     1     -10.942  13.665  67.163  1.00  0.00    -0.282 OA 
BRANCH  13  14
HETATM   14  C   UNL     1     -11.599  12.456  66.784  1.00  0.00    -0.379 C  
BRANCH  14  15
HETATM   15  C   UNL     1     -10.703  11.227  67.065  1.00  0.00    -0.305 C  
BRANCH  15  16
HETATM   16  C   UNL     1     -11.337  10.393  68.187  1.00  0.00    -0.284 C  
BRANCH  16  17
HETATM   17  C   UNL     1     -10.841  10.600  69.623  1.00  0.00    -0.318 C  
BRANCH  17  18
HETATM   18  C   UNL     1     -11.755  10.125  70.695  1.00  0.00    -0.338 A  
HETATM   19  N   UNL     1     -13.024  10.496  70.756  1.00  0.00    -0.365 NA 
HETATM   20  N   UNL     1     -13.590   9.818  71.790  1.00  0.00    -0.346 NA 
HETATM   21  N   UNL     1     -12.699   9.051  72.386  1.00  0.00    -0.386 NA 
HETATM   22  N   UNL     1     -11.550   9.178  71.680  1.00  0.00    -0.355 NA 
BRANCH  22  23
HETATM   23  C   UNL     1     -10.394   8.418  72.147  1.00  0.00    -0.327 C  
HETATM   24  C   UNL     1     -10.803   7.131  72.916  1.00  0.00    -0.362 C  
HETATM   25  C   UNL     1     -11.423   6.095  71.974  1.00  0.00    -0.366 C  
HETATM   26  C   UNL     1     -10.438   5.698  70.880  1.00  0.00    -0.323 C  
HETATM   27  C   UNL     1      -9.858   6.909  70.149  1.00  0.00    -0.185 C  
HETATM   28  C   UNL     1      -9.344   7.984  71.111  1.00  0.00    -0.176 C  
ENDBRANCH  22  23
ENDBRANCH  17  18
ENDBRANCH  16  17
ENDBRANCH  15  16
ENDBRANCH  14  15
ENDBRANCH  13  14
ENDBRANCH  11  13
TORSDOF 7
ENDMDL
MODEL       16
REMARK 921   NORMALIZED FREE ENERGY PREDICTED BY IDOCK:   -6.96 KCAL/MOL
REMARK 922        TOTAL FREE ENERGY PREDICTED BY IDOCK:  -10.83 KCAL/MOL
REMARK 923 INTER-LIGAND FREE ENERGY PREDICTED BY IDOCK:  -10.58 KCAL/MOL
REMARK 924 INTRA-LIGAND FREE ENERGY PREDICTED BY IDOCK:   -0.24 KCAL/MOL
REMARK 927      BINDING AFFINITY PREDICTED BY RF-SCORE:    0.00 PKD
ROOT
HETATM    1  O   UNL     1     -11.037   5.483  73.701  1.00  0.00    -0.251 OA 
HETATM    2  C   UNL     1     -10.866   6.561  73.134  1.00  0.00    -0.257 C  
HETATM    3  C   UNL     1      -9.494   7.073  72.764  1.00  0.00    -0.170 C  
HETATM    4  C   UNL     1      -9.506   7.917  71.495  1.00  0.00    -0.184 C  
HETATM    5  C   UNL     1     -10.644   8.903  71.471  1.00  0.00    -0.399 A  
HETATM    6  C   UNL     1     -11.812   8.606  72.184  1.00  0.00    -0.377 A  
HETATM    7  N   UNL     1     -11.907   7.420  72.918  1.00  0.00    -0.574 N  
HETATM    8  C   UNL     1     -12.906   9.464  72.125  1.00  0.00    -0.480 A  
HETATM    9  C   UNL     1     -12.842  10.624  71.342  1.00  0.00    -0.556 A  
HETATM   10  H   UNL     1     -12.813   7.180  73.318  1.00  0.00     0.000 HD 
HETATM   11  C   UNL     1     -11.701  10.926  70.593  1.00  0.00    -0.316 A  
HETATM   12  C   UNL     1     -10.600  10.061  70.663  1.00  0.00    -0.272 A  
ENDROOT
BRANCH  11  13
HETATM   13  O   UNL     1     -11.805  12.074  69.842  1.00  0.00    -0.320 OA 
BRANCH  13  14
HETATM   14  C   UNL     1     -10.895  12.222  68.752  1.00  0.00    -0.229 C  
BRANCH  14  15
HETATM   15  C   UNL     1     -11.612  11.999  67.398  1.00  0.00    -0.388 C  
BRANCH  15  16
HETATM   16  C   UNL     1     -11.833  13.359  66.721  1.00  0.00    -0.452 C  
BRANCH  16  17
HETATM   17  C   UNL     1     -10.643  14.319  66.602  1.00  0.00    -0.278 C  
BRANCH  17  18
HETATM   18  C   UNL     1     -10.857  15.504  65.730  1.00  0.00    -0.331 A  
HETATM   19  N   UNL     1     -11.253  15.392  64.472  1.00  0.00    -0.345 NA 
HETATM   20  N   UNL     1     -11.436  16.653  63.995  1.00  0.00    -1.136 NA 
HETATM   21  N   UNL     1     -11.142  17.545  64.920  1.00  0.00    -0.773 NA 
HETATM   22  N   UNL     1     -10.833  16.850  66.040  1.00  0.00    -0.094 NA 
BRANCH  22  23
HETATM   23  C   UNL     1     -10.464  17.623  67.224  1.00  0.00    -0.338 C  
HETATM   24  C   UNL     1      -8.940  17.559  67.521  1.00  0.00    -0.230 C  
HETATM   25  C   UNL     1      -8.136  18.317  66.462  1.00  0.00    -0.293 C  
HETATM   26  C   UNL     1      -8.546  19.785  66.416  1.00  0.00    -0.398 C  
HETATM   27  C   UNL     1     -10.057  19.964  66.271  1.00  0.00    -0.613 C  
HETATM   28  C   UNL     1     -10.848  19.111  67.266  1.00  0.00    -0.529 C  
ENDBRANCH  22  23
ENDBRANCH  17  18
ENDBRANCH  16  17
ENDBRANCH  15  16
ENDBRANCH  14  15
ENDBRANCH  13  14
ENDBRANCH  11  13
TORSDOF 7
ENDMDL
MODEL       17
REMARK 921   NORMALIZED FREE ENERGY PREDICTED BY IDOCK:   -6.88 KCAL/MOL
REMARK 922        TOTAL FREE ENERGY PREDICTED BY IDOCK:  -10.71 KCAL/MOL
REMARK 923 INTER-LIGAND FREE ENERGY PREDICTED BY IDOCK:   -9.85 KCAL/MOL
REMARK 924 INTRA-LIGAND FREE ENERGY PREDICTED BY IDOCK:   -0.86 KCAL/MOL
REMARK 927      BINDING AFFINITY PREDICTED BY RF-SCORE:    0.00 PKD
ROOT
HETATM    1  O   UNL     1     -11.398   8.746  72.311  1.00  0.00    -0.355 OA 
HETATM    2  C   UNL     1     -11.636   9.487  71.360  1.00  0.00    -0.395 C  
HETATM    3  C   UNL     1     -12.655  10.600  71.435  1.00  0.00    -0.526 C  
HETATM    4  C   UNL     1     -12.284  11.794  70.563  1.00  0.00    -0.438 C  
HETATM    5  C   UNL     1     -11.808  11.381  69.195  1.00  0.00    -0.413 A  
HETATM    6  C   UNL     1     -11.210  10.124  69.037  1.00  0.00    -0.173 A  
HETATM    7  N   UNL     1     -11.078   9.265  70.131  1.00  0.00    -0.254 N  
HETATM    8  C   UNL     1     -10.699   9.742  67.801  1.00  0.00    -0.329 A  
HETATM    9  C   UNL     1     -10.771  10.621  66.714  1.00  0.00    -0.272 A  
HETATM   10  H   UNL     1     -10.529   8.415  70.005  1.00  0.00     0.000 HD 
HETATM   11  C   UNL     1     -11.330  11.896  66.853  1.00  0.00    -0.330 A  
HETATM   12  C   UNL     1     -11.851  12.271  68.099  1.00  0.00    -0.372 A  
ENDROOT
BRANCH  11  13
HETATM   13  O   UNL     1     -11.290  12.659  65.709  1.00  0.00    -0.305 OA 
BRANCH  13  14
HETATM   14  C   UNL     1     -12.523  13.220  65.258  1.00  0.00    -0.489 C  
BRANCH  14  15
HETATM   15  C   UNL     1     -12.284  14.557  64.515  1.00  0.00    -0.483 C  
BRANCH  15  16
HETATM   16  C   UNL     1     -10.836  15.008  64.753  1.00  0.00    -0.375 C  
BRANCH  16  17
HETATM   17  C   UNL     1     -10.592  16.387  65.376  1.00  0.00    -0.338 C  
BRANCH  17  18
HETATM   18  C   UNL     1     -10.569  16.428  66.861  1.00  0.00    -0.252 A  
HETATM   19  N   UNL     1     -10.384  15.341  67.594  1.00  0.00    -0.247 NA 
HETATM   20  N   UNL     1     -10.329  15.738  68.894  1.00  0.00    -0.214 NA 
HETATM   21  N   UNL     1     -10.496  17.042  68.988  1.00  0.00    -0.334 NA 
HETATM   22  N   UNL     1     -10.589  17.510  67.720  1.00  0.00    -0.381 NA 
BRANCH  22  23
HETATM   23  C   UNL     1     -10.783  18.948  67.553  1.00  0.00    -0.434 C  
HETATM   24  C   UNL     1     -10.090  19.773  68.673  1.00  0.00    -0.546 C  
HETATM   25  C   UNL     1      -8.566  19.707  68.548  1.00  0.00    -0.338 C  
HETATM   26  C   UNL     1      -8.106  20.259  67.203  1.00  0.00    -0.379 C  
HETATM   27  C   UNL     1      -8.838  19.612  66.027  1.00  0.00    -0.276 C  
HETATM   28  C   UNL     1     -10.356  19.588  66.221  1.00  0.00    -0.601 C  
ENDBRANCH  22  23
ENDBRANCH  17  18
ENDBRANCH  16  17
ENDBRANCH  15  16
ENDBRANCH  14  15
ENDBRANCH  13  14
ENDBRANCH  11  13
TORSDOF 7
ENDMDL
MODEL       18
REMARK 921   NORMALIZED FREE ENERGY PREDICTED BY IDOCK:   -6.84 KCAL/MOL
REMARK 922        TOTAL FREE ENERGY PREDICTED BY IDOCK:  -10.66 KCAL/MOL
REMARK 923 INTER-LIGAND FREE ENERGY PREDICTED BY IDOCK:   -9.68 KCAL/MOL
REMARK 924 INTRA-LIGAND FREE ENERGY PREDICTED BY IDOCK:   -0.98 KCAL/MOL
REMARK 927      BINDING AFFINITY PREDICTED BY RF-SCORE:    0.00 PKD
ROOT
HETATM    1  O   UNL     1     -10.453   7.486  73.594  1.00  0.00    -0.349 OA 
HETATM    2  C   UNL     1     -10.926   8.088  72.633  1.00  0.00    -0.382 C  
HETATM    3  C   UNL     1     -12.409   8.118  72.345  1.00  0.00    -0.345 C  
HETATM    4  C   UNL     1     -12.852   9.419  71.687  1.00  0.00    -0.461 C  
HETATM    5  C   UNL     1     -11.923   9.850  70.583  1.00  0.00    -0.361 A  
HETATM    6  C   UNL     1     -10.579   9.458  70.637  1.00  0.00    -0.290 A  
HETATM    7  N   UNL     1     -10.120   8.664  71.691  1.00  0.00    -0.265 N  
HETATM    8  C   UNL     1      -9.682   9.898  69.669  1.00  0.00    -0.252 A  
HETATM    9  C   UNL     1     -10.120  10.744  68.643  1.00  0.00    -0.194 A  
HETATM   10  H   UNL     1      -9.115   8.505  71.764  1.00  0.00     0.000 HD 
HETATM   11  C   UNL     1     -11.448  11.179  68.586  1.00  0.00    -0.298 A  
HETATM   12  C   UNL     1     -12.349  10.726  69.560  1.00  0.00    -0.208 A  
ENDROOT
BRANCH  11  13
HETATM   13  O   UNL     1     -11.717  12.041  67.547  1.00  0.00    -0.443 OA 
BRANCH  13  14
HETATM   14  C   UNL     1     -11.129  11.738  66.282  1.00  0.00    -0.311 C  
BRANCH  14  15
HETATM   15  C   UNL     1     -12.005  12.269  65.122  1.00  0.00    -0.395 C  
BRANCH  15  16
HETATM   16  C   UNL     1     -11.925  13.802  65.100  1.00  0.00    -0.393 C  
BRANCH  16  17
HETATM   17  C   UNL     1     -10.588  14.460  64.740  1.00  0.00    -0.417 C  
BRANCH  17  18
HETATM   18  C   UNL     1     -10.514  15.929  64.961  1.00  0.00    -0.266 A  
HETATM   19  N   UNL     1     -11.397  16.766  64.442  1.00  0.00    -1.077 NA 
HETATM   20  N   UNL     1     -11.094  18.008  64.907  1.00  0.00    -0.484 NA 
HETATM   21  N   UNL     1     -10.031  17.965  65.685  1.00  0.00    -0.510 NA 
HETATM   22  N   UNL     1      -9.681  16.661  65.786  1.00  0.00    -0.531 NA 
BRANCH  22  23
HETATM   23  C   UNL     1      -8.513  16.345  66.605  1.00  0.00    -0.271 C  
HETATM   24  C   UNL     1      -8.376  17.292  67.829  1.00  0.00    -0.212 C  
HETATM   25  C   UNL     1      -9.482  17.035  68.856  1.00  0.00    -0.235 C  
HETATM   26  C   UNL     1      -9.430  15.598  69.363  1.00  0.00    -0.279 C  
HETATM   27  C   UNL     1      -9.413  14.578  68.224  1.00  0.00    -0.207 C  
HETATM   28  C   UNL     1      -8.375  14.914  67.150  1.00  0.00    -0.247 C  
ENDBRANCH  22  23
ENDBRANCH  17  18
ENDBRANCH  16  17
ENDBRANCH  15  16
ENDBRANCH  14  15
ENDBRANCH  13  14
ENDBRANCH  11  13
TORSDOF 7
ENDMDL
MODEL       19
REMARK 921   NORMALIZED FREE ENERGY PREDICTED BY IDOCK:   -6.83 KCAL/MOL
REMARK 922        TOTAL FREE ENERGY PREDICTED BY IDOCK:  -10.63 KCAL/MOL
REMARK 923 INTER-LIGAND FREE ENERGY PREDICTED BY IDOCK:   -9.81 KCAL/MOL
REMARK 924 INTRA-LIGAND FREE ENERGY PREDICTED BY IDOCK:   -0.82 KCAL/MOL
REMARK 927      BINDING AFFINITY PREDICTED BY RF-SCORE:    0.00 PKD
ROOT
HETATM    1  O   UNL     1     -10.060  10.479  63.162  1.00  0.00    -0.242 OA 
HETATM    2  C   UNL     1     -10.379  11.076  64.188  1.00  0.00    -0.369 C  
HETATM    3  C   UNL     1     -10.952  12.473  64.169  1.00  0.00    -0.425 C  
HETATM    4  C   UNL     1     -11.938  12.718  65.305  1.00  0.00    -0.473 C  
HETATM    5  C   UNL     1     -11.437  12.193  66.624  1.00  0.00    -0.426 A  
HETATM    6  C   UNL     1     -10.543  11.115  66.629  1.00  0.00    -0.264 A  
HETATM    7  N   UNL     1     -10.113  10.553  65.423  1.00  0.00    -0.288 N  
HETATM    8  C   UNL     1     -10.116  10.563  67.832  1.00  0.00    -0.204 A  
HETATM    9  C   UNL     1     -10.590  11.080  69.044  1.00  0.00    -0.258 A  
HETATM   10  H   UNL     1      -9.564   9.695  65.468  1.00  0.00     0.000 HD 
HETATM   11  C   UNL     1     -11.511  12.133  69.068  1.00  0.00    -0.297 A  
HETATM   12  C   UNL     1     -11.930  12.689  67.852  1.00  0.00    -0.307 A  
ENDROOT
BRANCH  11  13
HETATM   13  O   UNL     1     -11.916  12.502  70.330  1.00  0.00    -0.347 OA 
BRANCH  13  14
HETATM   14  C   UNL     1     -12.640  13.726  70.449  1.00  0.00    -0.256 C  
BRANCH  14  15
HETATM   15  C   UNL     1     -11.680  14.916  70.691  1.00  0.00    -0.357 C  
BRANCH  15  16
HETATM   16  C   UNL     1     -11.659  15.803  69.439  1.00  0.00    -0.371 C  
BRANCH  16  17
HETATM   17  C   UNL     1     -10.302  16.195  68.842  1.00  0.00    -0.250 C  
BRANCH  17  18
HETATM   18  C   UNL     1     -10.318  16.582  67.407  1.00  0.00    -0.290 A  
HETATM   19  N   UNL     1     -10.320  15.684  66.435  1.00  0.00    -0.286 NA 
HETATM   20  N   UNL     1     -10.426  16.364  65.261  1.00  0.00    -0.627 NA 
HETATM   21  N   UNL     1     -10.468  17.662  65.480  1.00  0.00    -0.638 NA 
HETATM   22  N   UNL     1     -10.463  17.826  66.825  1.00  0.00    -0.328 NA 
BRANCH  22  23
HETATM   23  C   UNL     1     -10.503  19.196  67.329  1.00  0.00    -0.456 C  
HETATM   24  C   UNL     1      -9.874  19.324  68.744  1.00  0.00    -0.514 C  
HETATM   25  C   UNL     1      -8.358  19.115  68.699  1.00  0.00    -0.403 C  
HETATM   26  C   UNL     1      -7.694  20.147  67.793  1.00  0.00    -0.321 C  
HETATM   27  C   UNL     1      -8.339  20.207  66.408  1.00  0.00    -0.287 C  
HETATM   28  C   UNL     1      -9.865  20.303  66.474  1.00  0.00    -0.531 C  
ENDBRANCH  22  23
ENDBRANCH  17  18
ENDBRANCH  16  17
ENDBRANCH  15  16
ENDBRANCH  14  15
ENDBRANCH  13  14
ENDBRANCH  11  13
TORSDOF 7
ENDMDL
MODEL       20
REMARK 921   NORMALIZED FREE ENERGY PREDICTED BY IDOCK:   -6.66 KCAL/MOL
REMARK 922        TOTAL FREE ENERGY PREDICTED BY IDOCK:  -10.40 KCAL/MOL
REMARK 923 INTER-LIGAND FREE ENERGY PREDICTED BY IDOCK:   -9.90 KCAL/MOL
REMARK 924 INTRA-LIGAND FREE ENERGY PREDICTED BY IDOCK:   -0.50 KCAL/MOL
REMARK 927      BINDING AFFINITY PREDICTED BY RF-SCORE:    0.00 PKD
ROOT
HETATM    1  O   UNL     1      -7.033  19.580  69.409  1.00  0.00    -0.340 OA 
HETATM    2  C   UNL     1      -7.924  19.003  68.789  1.00  0.00    -0.333 C  
HETATM    3  C   UNL     1      -9.363  19.460  68.825  1.00  0.00    -0.444 C  
HETATM    4  C   UNL     1     -10.099  19.180  67.520  1.00  0.00    -0.463 C  
HETATM    5  C   UNL     1      -9.824  17.798  66.990  1.00  0.00    -0.309 A  
HETATM    6  C   UNL     1      -8.610  17.178  67.312  1.00  0.00    -0.201 A  
HETATM    7  N   UNL     1      -7.682  17.831  68.129  1.00  0.00    -0.244 N  
HETATM    8  C   UNL     1      -8.297  15.930  66.782  1.00  0.00    -0.306 A  
HETATM    9  C   UNL     1      -9.194  15.296  65.914  1.00  0.00    -0.236 A  
HETATM   10  H   UNL     1      -6.762  17.404  68.238  1.00  0.00     0.000 HD 
HETATM   11  C   UNL     1     -10.397  15.908  65.547  1.00  0.00    -0.400 A  
HETATM   12  C   UNL     1     -10.709  17.161  66.092  1.00  0.00    -0.094 A  
ENDROOT
BRANCH  11  13
HETATM   13  O   UNL     1     -11.152  15.182  64.655  1.00  0.00    -0.375 OA 
BRANCH  13  14
HETATM   14  C   UNL     1     -11.109  13.760  64.771  1.00  0.00    -0.377 C  
BRANCH  14  15
HETATM   15  C   UNL     1     -12.348  13.228  65.530  1.00  0.00    -0.533 C  
BRANCH  15  16
HETATM   16  C   UNL     1     -11.880  12.322  66.677  1.00  0.00    -0.362 C  
BRANCH  16  17
HETATM   17  C   UNL     1     -11.211  12.970  67.895  1.00  0.00    -0.304 C  
BRANCH  17  18
HETATM   18  C   UNL     1     -11.780  12.594  69.216  1.00  0.00    -0.322 A  
HETATM   19  N   UNL     1     -11.774  11.347  69.658  1.00  0.00    -0.314 NA 
HETATM   20  N   UNL     1     -12.281  11.367  70.921  1.00  0.00    -0.368 NA 
HETATM   21  N   UNL     1     -12.621  12.592  71.265  1.00  0.00    -0.313 NA 
HETATM   22  N   UNL     1     -12.261  13.394  70.234  1.00  0.00    -0.346 NA 
BRANCH  22  23
HETATM   23  C   UNL     1     -12.539  14.822  70.373  1.00  0.00    -0.346 C  
HETATM   24  C   UNL     1     -13.945  15.095  70.974  1.00  0.00    -0.383 C  
HETATM   25  C   UNL     1     -14.010  14.681  72.447  1.00  0.00    -0.578 C  
HETATM   26  C   UNL     1     -12.986  15.451  73.273  1.00  0.00    -0.648 C  
HETATM   27  C   UNL     1     -11.578  15.368  72.683  1.00  0.00    -0.504 C  
HETATM   28  C   UNL     1     -11.551  15.678  71.183  1.00  0.00    -0.462 C  
ENDBRANCH  22  23
ENDBRANCH  17  18
ENDBRANCH  16  17
ENDBRANCH  15  16
ENDBRANCH  14  15
ENDBRANCH  13  14
ENDBRANCH  11  13
TORSDOF 7
ENDMDL
MODEL       21
REMARK 921   NORMALIZED FREE ENERGY PREDICTED BY IDOCK:   -6.66 KCAL/MOL
REMARK 922        TOTAL FREE ENERGY PREDICTED BY IDOCK:  -10.39 KCAL/MOL
REMARK 923 INTER-LIGAND FREE ENERGY PREDICTED BY IDOCK:   -9.43 KCAL/MOL
REMARK 924 INTRA-LIGAND FREE ENERGY PREDICTED BY IDOCK:   -0.96 KCAL/MOL
REMARK 927      BINDING AFFINITY PREDICTED BY RF-SCORE:    0.00 PKD
ROOT
HETATM    1  O   UNL     1     -12.733  15.212  63.733  1.00  0.00    -0.722 OA 
HETATM    2  C   UNL     1     -12.160  14.293  64.314  1.00  0.00    -0.441 C  
HETATM    3  C   UNL     1     -12.133  14.179  65.820  1.00  0.00    -0.433 C  
HETATM    4  C   UNL     1     -12.098  12.732  66.297  1.00  0.00    -0.400 C  
HETATM    5  C   UNL     1     -11.118  11.893  65.520  1.00  0.00    -0.356 A  
HETATM    6  C   UNL     1     -10.814  12.254  64.202  1.00  0.00    -0.365 A  
HETATM    7  N   UNL     1     -11.401  13.386  63.629  1.00  0.00    -0.587 N  
HETATM    8  C   UNL     1      -9.965  11.461  63.436  1.00  0.00    -0.435 A  
HETATM    9  C   UNL     1      -9.421  10.292  63.981  1.00  0.00    -0.356 A  
HETATM   10  H   UNL     1     -11.254  13.545  62.632  1.00  0.00     0.000 HD 
HETATM   11  C   UNL     1      -9.736   9.890  65.283  1.00  0.00    -0.313 A  
HETATM   12  C   UNL     1     -10.585  10.697  66.052  1.00  0.00    -0.195 A  
ENDROOT
BRANCH  11  13
HETATM   13  O   UNL     1      -9.160   8.699  65.662  1.00  0.00    -0.198 OA 
BRANCH  13  14
HETATM   14  C   UNL     1      -9.594   8.131  66.898  1.00  0.00    -0.208 C  
BRANCH  14  15
HETATM   15  C   UNL     1      -8.649   8.534  68.055  1.00  0.00    -0.134 C  
BRANCH  15  16
HETATM   16  C   UNL     1      -9.363   8.284  69.391  1.00  0.00    -0.155 C  
BRANCH  16  17
HETATM   17  C   UNL     1      -9.457   9.438  70.397  1.00  0.00    -0.319 C  
BRANCH  17  18
HETATM   18  C   UNL     1     -10.728  10.208  70.376  1.00  0.00    -0.266 A  
HETATM   19  N   UNL     1     -10.990  11.113  69.446  1.00  0.00    -0.248 NA 
HETATM   20  N   UNL     1     -12.256  11.558  69.665  1.00  0.00    -0.265 NA 
HETATM   21  N   UNL     1     -12.779  10.968  70.721  1.00  0.00    -0.339 NA 
HETATM   22  N   UNL     1     -11.863  10.069  71.152  1.00  0.00    -0.369 NA 
BRANCH  22  23
HETATM   23  C   UNL     1     -12.209   9.277  72.330  1.00  0.00    -0.235 C  
HETATM   24  C   UNL     1     -13.745   9.169  72.539  1.00  0.00    -0.499 C  
HETATM   25  C   UNL     1     -14.394   8.306  71.454  1.00  0.00    -0.461 C  
HETATM   26  C   UNL     1     -13.816   6.895  71.464  1.00  0.00    -0.275 C  
HETATM   27  C   UNL     1     -12.288   6.890  71.407  1.00  0.00    -0.421 C  
HETATM   28  C   UNL     1     -11.660   7.844  72.426  1.00  0.00    -0.436 C  
ENDBRANCH  22  23
ENDBRANCH  17  18
ENDBRANCH  16  17
ENDBRANCH  15  16
ENDBRANCH  14  15
ENDBRANCH  13  14
ENDBRANCH  11  13
TORSDOF 7
ENDMDL
MODEL       22
REMARK 921   NORMALIZED FREE ENERGY PREDICTED BY IDOCK:   -6.62 KCAL/MOL
REMARK 922        TOTAL FREE ENERGY PREDICTED BY IDOCK:  -10.35 KCAL/MOL
REMARK 923 INTER-LIGAND FREE ENERGY PREDICTED BY IDOCK:   -9.40 KCAL/MOL
REMARK 924 INTRA-LIGAND FREE ENERGY PREDICTED BY IDOCK:   -0.94 KCAL/MOL
REMARK 927      BINDING AFFINITY PREDICTED BY RF-SCORE:    0.00 PKD
ROOT
HETATM    1  O   UNL     1     -11.402   6.188  70.628  1.00  0.00    -0.325 OA 
HETATM    2  C   UNL     1     -11.332   7.411  70.528  1.00  0.00    -0.271 C  
HETATM    3  C   UNL     1     -10.245   8.099  69.736  1.00  0.00    -0.203 C  
HETATM    4  C   UNL     1     -10.716   9.403  69.105  1.00  0.00    -0.216 C  
HETATM    5  C   UNL     1     -11.517  10.248  70.060  1.00  0.00    -0.367 A  
HETATM    6  C   UNL     1     -12.225   9.617  71.092  1.00  0.00    -0.350 A  
HETATM    7  N   UNL     1     -12.168   8.228  71.237  1.00  0.00    -0.331 N  
HETATM    8  C   UNL     1     -13.029  10.363  71.947  1.00  0.00    -0.555 A  
HETATM    9  C   UNL     1     -13.141  11.747  71.771  1.00  0.00    -0.480 A  
HETATM   10  H   UNL     1     -12.792   7.796  71.918  1.00  0.00     0.000 HD 
HETATM   11  C   UNL     1     -12.473  12.397  70.728  1.00  0.00    -0.267 A  
HETATM   12  C   UNL     1     -11.658  11.641  69.874  1.00  0.00    -0.366 A  
ENDROOT
BRANCH  11  13
HETATM   13  O   UNL     1     -12.715  13.750  70.657  1.00  0.00    -0.313 OA 
BRANCH  13  14
HETATM   14  C   UNL     1     -11.958  14.593  71.525  1.00  0.00    -0.334 C  
BRANCH  14  15
HETATM   15  C   UNL     1     -11.236  15.704  70.726  1.00  0.00    -0.396 C  
BRANCH  15  16
HETATM   16  C   UNL     1     -11.637  15.597  69.248  1.00  0.00    -0.375 C  
BRANCH  16  17
HETATM   17  C   UNL     1     -10.617  15.030  68.253  1.00  0.00    -0.247 C  
BRANCH  17  18
HETATM   18  C   UNL     1     -10.631  15.644  66.899  1.00  0.00    -0.311 A  
HETATM   19  N   UNL     1     -11.476  15.256  65.957  1.00  0.00    -0.169 NA 
HETATM   20  N   UNL     1     -11.284  16.072  64.885  1.00  0.00    -0.359 NA 
HETATM   21  N   UNL     1     -10.325  16.942  65.131  1.00  0.00    -0.592 NA 
HETATM   22  N   UNL     1      -9.937  16.735  66.412  1.00  0.00    -0.289 NA 
BRANCH  22  23
HETATM   23  C   UNL     1      -8.869  17.585  66.931  1.00  0.00    -0.251 C  
HETATM   24  C   UNL     1      -8.762  18.934  66.167  1.00  0.00    -0.175 C  
HETATM   25  C   UNL     1      -9.966  19.834  66.459  1.00  0.00    -0.570 C  
HETATM   26  C   UNL     1     -10.064  20.143  67.949  1.00  0.00    -0.533 C  
HETATM   27  C   UNL     1     -10.030  18.880  68.810  1.00  0.00    -0.466 C  
HETATM   28  C   UNL     1      -8.885  17.939  68.427  1.00  0.00    -0.293 C  
ENDBRANCH  22  23
ENDBRANCH  17  18
ENDBRANCH  16  17
ENDBRANCH  15  16
ENDBRANCH  14  15
ENDBRANCH  13  14
ENDBRANCH  11  13
TORSDOF 7
ENDMDL
MODEL       23
REMARK 921   NORMALIZED FREE ENERGY PREDICTED BY IDOCK:   -6.60 KCAL/MOL
REMARK 922        TOTAL FREE ENERGY PREDICTED BY IDOCK:  -10.31 KCAL/MOL
REMARK 923 INTER-LIGAND FREE ENERGY PREDICTED BY IDOCK:   -9.18 KCAL/MOL
REMARK 924 INTRA-LIGAND FREE ENERGY PREDICTED BY IDOCK:   -1.14 KCAL/MOL
REMARK 927      BINDING AFFINITY PREDICTED BY RF-SCORE:    0.00 PKD
ROOT
HETATM    1  O   UNL     1     -13.422   8.627  72.374  1.00  0.00    -0.369 OA 
HETATM    2  C   UNL     1     -12.958   9.661  71.898  1.00  0.00    -0.435 C  
HETATM    3  C   UNL     1     -11.700   9.675  71.061  1.00  0.00    -0.433 C  
HETATM    4  C   UNL     1     -11.717  10.764  69.996  1.00  0.00    -0.417 C  
HETATM    5  C   UNL     1     -12.208  12.083  70.530  1.00  0.00    -0.414 A  
HETATM    6  C   UNL     1     -13.090  12.088  71.618  1.00  0.00    -0.318 A  
HETATM    7  N   UNL     1     -13.489  10.883  72.205  1.00  0.00    -0.528 N  
HETATM    8  C   UNL     1     -13.615  13.286  72.090  1.00  0.00    -0.655 A  
HETATM    9  C   UNL     1     -13.270  14.492  71.469  1.00  0.00    -0.431 A  
HETATM   10  H   UNL     1     -14.225  10.918  72.910  1.00  0.00     0.000 HD 
HETATM   11  C   UNL     1     -12.419  14.514  70.359  1.00  0.00    -0.347 A  
HETATM   12  C   UNL     1     -11.888  13.303  69.893  1.00  0.00    -0.380 A  
ENDROOT
BRANCH  11  13
HETATM   13  O   UNL     1     -12.208  15.767  69.832  1.00  0.00    -0.352 OA 
BRANCH  13  14
HETATM   14  C   UNL     1     -10.855  16.154  69.595  1.00  0.00    -0.338 C  
BRANCH  14  15
HETATM   15  C   UNL     1     -10.647  16.567  68.118  1.00  0.00    -0.329 C  
BRANCH  15  16
HETATM   16  C   UNL     1      -9.208  16.228  67.703  1.00  0.00    -0.206 C  
BRANCH  16  17
HETATM   17  C   UNL     1      -8.990  15.148  66.637  1.00  0.00    -0.319 C  
BRANCH  17  18
HETATM   18  C   UNL     1      -8.936  13.749  67.139  1.00  0.00    -0.235 A  
HETATM   19  N   UNL     1      -8.266  13.417  68.230  1.00  0.00    -0.156 NA 
HETATM   20  N   UNL     1      -8.496  12.095  68.455  1.00  0.00    -0.166 NA 
HETATM   21  N   UNL     1      -9.274  11.594  67.517  1.00  0.00    -0.169 NA 
HETATM   22  N   UNL     1      -9.616  12.626  66.709  1.00  0.00    -0.235 NA 
BRANCH  22  23
HETATM   23  C   UNL     1     -10.486  12.325  65.575  1.00  0.00    -0.264 C  
HETATM   24  C   UNL     1     -11.986  12.278  65.976  1.00  0.00    -0.342 C  
HETATM   25  C   UNL     1     -12.509  13.672  66.333  1.00  0.00    -0.377 C  
HETATM   26  C   UNL     1     -12.367  14.625  65.151  1.00  0.00    -0.248 C  
HETATM   27  C   UNL     1     -10.948  14.639  64.581  1.00  0.00    -0.340 C  
HETATM   28  C   UNL     1     -10.400  13.230  64.335  1.00  0.00    -0.372 C  
ENDBRANCH  22  23
ENDBRANCH  17  18
ENDBRANCH  16  17
ENDBRANCH  15  16
ENDBRANCH  14  15
ENDBRANCH  13  14
ENDBRANCH  11  13
TORSDOF 7
ENDMDL
MODEL       24
REMARK 921   NORMALIZED FREE ENERGY PREDICTED BY IDOCK:   -6.59 KCAL/MOL
REMARK 922        TOTAL FREE ENERGY PREDICTED BY IDOCK:  -10.30 KCAL/MOL
REMARK 923 INTER-LIGAND FREE ENERGY PREDICTED BY IDOCK:   -9.13 KCAL/MOL
REMARK 924 INTRA-LIGAND FREE ENERGY PREDICTED BY IDOCK:   -1.17 KCAL/MOL
REMARK 927      BINDING AFFINITY PREDICTED BY RF-SCORE:    0.00 PKD
ROOT
HETATM    1  O   UNL     1     -14.158  15.906  72.999  1.00  0.00    -0.518 OA 
HETATM    2  C   UNL     1     -13.699  15.093  72.200  1.00  0.00    -0.477 C  
HETATM    3  C   UNL     1     -13.186  15.497  70.837  1.00  0.00    -0.474 C  
HETATM    4  C   UNL     1     -12.039  14.616  70.358  1.00  0.00    -0.383 C  
HETATM    5  C   UNL     1     -12.301  13.153  70.594  1.00  0.00    -0.405 A  
HETATM    6  C   UNL     1     -13.143  12.776  71.647  1.00  0.00    -0.331 A  
HETATM    7  N   UNL     1     -13.743  13.750  72.451  1.00  0.00    -0.560 N  
HETATM    8  C   UNL     1     -13.350  11.430  71.933  1.00  0.00    -0.409 A  
HETATM    9  C   UNL     1     -12.704  10.448  71.172  1.00  0.00    -0.514 A  
HETATM   10  H   UNL     1     -14.246  13.437  73.281  1.00  0.00     0.000 HD 
HETATM   11  C   UNL     1     -11.830  10.796  70.137  1.00  0.00    -0.343 A  
HETATM   12  C   UNL     1     -11.633  12.154  69.850  1.00  0.00    -0.297 A  
ENDROOT
BRANCH  11  13
HETATM   13  O   UNL     1     -11.239   9.723  69.511  1.00  0.00    -0.218 OA 
BRANCH  13  14
HETATM   14  C   UNL     1     -10.653   9.960  68.231  1.00  0.00    -0.229 C  
BRANCH  14  15
HETATM   15  C   UNL     1      -9.110  10.033  68.333  1.00  0.00    -0.121 C  
BRANCH  15  16
HETATM   16  C   UNL     1      -8.679  11.506  68.326  1.00  0.00    -0.162 C  
BRANCH  16  17
HETATM   17  C   UNL     1      -8.903  12.328  67.051  1.00  0.00    -0.205 C  
BRANCH  17  18
HETATM   18  C   UNL     1      -9.407  13.711  67.257  1.00  0.00    -0.233 A  
HETATM   19  N   UNL     1      -8.609  14.708  67.604  1.00  0.00    -0.166 NA 
HETATM   20  N   UNL     1      -9.364  15.840  67.620  1.00  0.00    -0.215 NA 
HETATM   21  N   UNL     1     -10.616  15.566  67.312  1.00  0.00    -0.294 NA 
HETATM   22  N   UNL     1     -10.659  14.244  67.019  1.00  0.00    -0.278 NA 
BRANCH  22  23
HETATM   23  C   UNL     1     -11.956  13.687  66.644  1.00  0.00    -0.415 C  
HETATM   24  C   UNL     1     -12.671  14.532  65.554  1.00  0.00    -0.193 C  
HETATM   25  C   UNL     1     -11.950  14.424  64.207  1.00  0.00    -0.433 C  
HETATM   26  C   UNL     1     -11.907  12.977  63.729  1.00  0.00    -0.566 C  
HETATM   27  C   UNL     1     -11.350  12.028  64.790  1.00  0.00    -0.369 C  
HETATM   28  C   UNL     1     -12.006  12.228  66.159  1.00  0.00    -0.323 C  
ENDBRANCH  22  23
ENDBRANCH  17  18
ENDBRANCH  16  17
ENDBRANCH  15  16
ENDBRANCH  14  15
ENDBRANCH  13  14
ENDBRANCH  11  13
TORSDOF 7
ENDMDL
MODEL       25
REMARK 921   NORMALIZED FREE ENERGY PREDICTED BY IDOCK:   -6.59 KCAL/MOL
REMARK 922        TOTAL FREE ENERGY PREDICTED BY IDOCK:  -10.29 KCAL/MOL
REMARK 923 INTER-LIGAND FREE ENERGY PREDICTED BY IDOCK:   -9.06 KCAL/MOL
REMARK 924 INTRA-LIGAND FREE ENERGY PREDICTED BY IDOCK:   -1.23 KCAL/MOL
REMARK 927      BINDING AFFINITY PREDICTED BY RF-SCORE:    0.00 PKD
ROOT
HETATM    1  O   UNL     1     -14.345   8.810  72.722  1.00  0.00    -0.569 OA 
HETATM    2  C   UNL     1     -13.457   8.890  71.877  1.00  0.00    -0.414 C  
HETATM    3  C   UNL     1     -13.065  10.201  71.234  1.00  0.00    -0.490 C  
HETATM    4  C   UNL     1     -11.587  10.256  70.871  1.00  0.00    -0.454 C  
HETATM    5  C   UNL     1     -11.109   8.990  70.210  1.00  0.00    -0.263 A  
HETATM    6  C   UNL     1     -11.764   7.786  70.499  1.00  0.00    -0.102 A  
HETATM    7  N   UNL     1     -12.854   7.771  71.374  1.00  0.00    -0.434 N  
HETATM    8  C   UNL     1     -11.303   6.590  69.958  1.00  0.00    -0.472 A  
HETATM    9  C   UNL     1     -10.174   6.588  69.130  1.00  0.00    -0.208 A  
HETATM   10  H   UNL     1     -13.224   6.864  71.657  1.00  0.00     0.000 HD 
HETATM   11  C   UNL     1      -9.481   7.770  68.853  1.00  0.00    -0.150 A  
HETATM   12  C   UNL     1      -9.955   8.973  69.395  1.00  0.00    -0.191 A  
ENDROOT
BRANCH  11  13
HETATM   13  O   UNL     1      -8.368   7.602  68.061  1.00  0.00    -0.122 OA 
BRANCH  13  14
HETATM   14  C   UNL     1      -8.574   7.573  66.649  1.00  0.00    -0.130 C  
BRANCH  14  15
HETATM   15  C   UNL     1      -8.398   8.983  66.035  1.00  0.00    -0.126 C  
BRANCH  15  16
HETATM   16  C   UNL     1      -9.760   9.480  65.530  1.00  0.00    -0.344 C  
BRANCH  16  17
HETATM   17  C   UNL     1      -9.795  10.697  64.598  1.00  0.00    -0.382 C  
BRANCH  17  18
HETATM   18  C   UNL     1     -11.007  11.552  64.700  1.00  0.00    -0.288 A  
HETATM   19  N   UNL     1     -11.818  11.751  63.674  1.00  0.00    -0.444 NA 
HETATM   20  N   UNL     1     -12.862  12.497  64.127  1.00  0.00    -0.746 NA 
HETATM   21  N   UNL     1     -12.707  12.785  65.404  1.00  0.00    -0.603 NA 
HETATM   22  N   UNL     1     -11.579  12.151  65.806  1.00  0.00    -0.373 NA 
BRANCH  22  23
HETATM   23  C   UNL     1     -11.183  12.317  67.202  1.00  0.00    -0.307 C  
HETATM   24  C   UNL     1      -9.666  12.617  67.356  1.00  0.00    -0.199 C  
HETATM   25  C   UNL     1      -9.320  14.012  66.827  1.00  0.00    -0.289 C  
HETATM   26  C   UNL     1     -10.093  15.087  67.584  1.00  0.00    -0.231 C  
HETATM   27  C   UNL     1     -11.596  14.809  67.620  1.00  0.00    -0.374 C  
HETATM   28  C   UNL     1     -11.918  13.374  68.044  1.00  0.00    -0.357 C  
ENDBRANCH  22  23
ENDBRANCH  17  18
ENDBRANCH  16  17
ENDBRANCH  15  16
ENDBRANCH  14  15
ENDBRANCH  13  14
ENDBRANCH  11  13
TORSDOF 7
ENDMDL
MODEL       26
REMARK 921   NORMALIZED FREE ENERGY PREDICTED BY IDOCK:   -6.58 KCAL/MOL
REMARK 922        TOTAL FREE ENERGY PREDICTED BY IDOCK:  -10.29 KCAL/MOL
REMARK 923 INTER-LIGAND FREE ENERGY PREDICTED BY IDOCK:   -9.00 KCAL/MOL
REMARK 924 INTRA-LIGAND FREE ENERGY PREDICTED BY IDOCK:   -1.29 KCAL/MOL
REMARK 927      BINDING AFFINITY PREDICTED BY RF-SCORE:    0.00 PKD
ROOT
HETATM    1  O   UNL     1     -13.188  14.849  73.807  1.00  0.00    -0.395 OA 
HETATM    2  C   UNL     1     -13.055  14.635  72.604  1.00  0.00    -0.458 C  
HETATM    3  C   UNL     1     -13.424  15.657  71.553  1.00  0.00    -0.502 C  
HETATM    4  C   UNL     1     -12.541  15.569  70.315  1.00  0.00    -0.362 C  
HETATM    5  C   UNL     1     -12.330  14.150  69.858  1.00  0.00    -0.382 A  
HETATM    6  C   UNL     1     -12.401  13.117  70.801  1.00  0.00    -0.321 A  
HETATM    7  N   UNL     1     -12.682  13.405  72.140  1.00  0.00    -0.155 N  
HETATM    8  C   UNL     1     -12.143  11.803  70.423  1.00  0.00    -0.440 A  
HETATM    9  C   UNL     1     -11.801  11.513  69.096  1.00  0.00    -0.406 A  
HETATM   10  H   UNL     1     -12.601  12.646  72.816  1.00  0.00     0.000 HD 
HETATM   11  C   UNL     1     -11.688  12.529  68.142  1.00  0.00    -0.348 A  
HETATM   12  C   UNL     1     -11.957  13.850  68.529  1.00  0.00    -0.394 A  
ENDROOT
BRANCH  11  13
HETATM   13  O   UNL     1     -11.302  12.095  66.895  1.00  0.00    -0.302 OA 
BRANCH  13  14
HETATM   14  C   UNL     1     -10.268  12.830  66.241  1.00  0.00    -0.253 C  
BRANCH  14  15
HETATM   15  C   UNL     1      -8.952  12.777  67.054  1.00  0.00    -0.221 C  
BRANCH  15  16
HETATM   16  C   UNL     1      -8.400  14.202  67.201  1.00  0.00    -0.189 C  
BRANCH  16  17
HETATM   17  C   UNL     1      -8.689  14.969  68.497  1.00  0.00    -0.175 C  
BRANCH  17  18
HETATM   18  C   UNL     1      -7.992  16.274  68.641  1.00  0.00    -0.215 A  
HETATM   19  N   UNL     1      -6.673  16.369  68.679  1.00  0.00    -0.139 NA 
HETATM   20  N   UNL     1      -6.368  17.695  68.726  1.00  0.00    -0.191 NA 
HETATM   21  N   UNL     1      -7.465  18.423  68.740  1.00  0.00    -0.290 NA 
HETATM   22  N   UNL     1      -8.502  17.558  68.626  1.00  0.00    -0.276 NA 
BRANCH  22  23
HETATM   23  C   UNL     1      -9.847  18.128  68.620  1.00  0.00    -0.377 C  
HETATM   24  C   UNL     1      -9.835  19.671  68.440  1.00  0.00    -0.531 C  
HETATM   25  C   UNL     1      -9.388  20.063  67.030  1.00  0.00    -0.510 C  
HETATM   26  C   UNL     1     -10.323  19.473  65.979  1.00  0.00    -0.604 C  
HETATM   27  C   UNL     1     -10.522  17.968  66.155  1.00  0.00    -0.336 C  
HETATM   28  C   UNL     1     -10.860  17.584  67.598  1.00  0.00    -0.229 C  
ENDBRANCH  22  23
ENDBRANCH  17  18
ENDBRANCH  16  17
ENDBRANCH  15  16
ENDBRANCH  14  15
ENDBRANCH  13  14
ENDBRANCH  11  13
TORSDOF 7
ENDMDL
MODEL       27
REMARK 921   NORMALIZED FREE ENERGY PREDICTED BY IDOCK:   -6.51 KCAL/MOL
REMARK 922        TOTAL FREE ENERGY PREDICTED BY IDOCK:  -10.18 KCAL/MOL
REMARK 923 INTER-LIGAND FREE ENERGY PREDICTED BY IDOCK:   -9.13 KCAL/MOL
REMARK 924 INTRA-LIGAND FREE ENERGY PREDICTED BY IDOCK:   -1.05 KCAL/MOL
REMARK 927      BINDING AFFINITY PREDICTED BY RF-SCORE:    0.00 PKD
ROOT
HETATM    1  O   UNL     1     -12.227   6.230  72.300  1.00  0.00    -0.286 OA 
HETATM    2  C   UNL     1     -11.927   7.351  71.893  1.00  0.00    -0.302 C  
HETATM    3  C   UNL     1     -10.649   7.621  71.134  1.00  0.00    -0.235 C  
HETATM    4  C   UNL     1     -10.801   8.742  70.113  1.00  0.00    -0.241 C  
HETATM    5  C   UNL     1     -11.542   9.930  70.668  1.00  0.00    -0.413 A  
HETATM    6  C   UNL     1     -12.465   9.729  71.702  1.00  0.00    -0.410 A  
HETATM    7  N   UNL     1     -12.677   8.447  72.216  1.00  0.00    -0.463 N  
HETATM    8  C   UNL     1     -13.215  10.795  72.188  1.00  0.00    -0.360 A  
HETATM    9  C   UNL     1     -13.054  12.071  71.636  1.00  0.00    -0.422 A  
HETATM   10  H   UNL     1     -13.444   8.320  72.877  1.00  0.00     0.000 HD 
HETATM   11  C   UNL     1     -12.165  12.293  70.580  1.00  0.00    -0.300 A  
HETATM   12  C   UNL     1     -11.407  11.216  70.100  1.00  0.00    -0.295 A  
ENDROOT
BRANCH  11  13
HETATM   13  O   UNL     1     -12.149  13.588  70.116  1.00  0.00    -0.330 OA 
BRANCH  13  14
HETATM   14  C   UNL     1     -11.083  13.951  69.238  1.00  0.00    -0.218 C  
BRANCH  14  15
HETATM   15  C   UNL     1     -11.480  15.158  68.355  1.00  0.00    -0.347 C  
BRANCH  15  16
HETATM   16  C   UNL     1     -11.931  14.644  66.980  1.00  0.00    -0.301 C  
BRANCH  16  17
HETATM   17  C   UNL     1     -12.158  13.138  66.802  1.00  0.00    -0.389 C  
BRANCH  17  18
HETATM   18  C   UNL     1     -12.103  12.641  65.402  1.00  0.00    -0.462 A  
HETATM   19  N   UNL     1     -13.160  12.655  64.606  1.00  0.00    -0.848 NA 
HETATM   20  N   UNL     1     -12.748  12.221  63.384  1.00  0.00    -0.758 NA 
HETATM   21  N   UNL     1     -11.466  11.917  63.408  1.00  0.00    -0.403 NA 
HETATM   22  N   UNL     1     -11.020  12.230  64.648  1.00  0.00    -0.293 NA 
BRANCH  22  23
HETATM   23  C   UNL     1      -9.609  11.980  64.932  1.00  0.00    -0.019 C  
HETATM   24  C   UNL     1      -9.341  11.751  66.446  1.00  0.00    -0.229 C  
HETATM   25  C   UNL     1      -9.934  10.422  66.920  1.00  0.00    -0.254 C  
HETATM   26  C   UNL     1      -9.327   9.252  66.152  1.00  0.00    -0.270 C  
HETATM   27  C   UNL     1      -9.408   9.445  64.637  1.00  0.00    -0.112 C  
HETATM   28  C   UNL     1      -8.914  10.824  64.193  1.00  0.00    -0.167 C  
ENDBRANCH  22  23
ENDBRANCH  17  18
ENDBRANCH  16  17
ENDBRANCH  15  16
ENDBRANCH  14  15
ENDBRANCH  13  14
ENDBRANCH  11  13
TORSDOF 7
ENDMDL
MODEL       28
REMARK 921   NORMALIZED FREE ENERGY PREDICTED BY IDOCK:   -6.49 KCAL/MOL
REMARK 922        TOTAL FREE ENERGY PREDICTED BY IDOCK:  -10.16 KCAL/MOL
REMARK 923 INTER-LIGAND FREE ENERGY PREDICTED BY IDOCK:   -9.17 KCAL/MOL
REMARK 924 INTRA-LIGAND FREE ENERGY PREDICTED BY IDOCK:   -1.00 KCAL/MOL
REMARK 927      BINDING AFFINITY PREDICTED BY RF-SCORE:    0.00 PKD
ROOT
HETATM    1  O   UNL     1     -13.260  11.754  63.272  1.00  0.00    -0.555 OA 
HETATM    2  C   UNL     1     -12.485  12.456  63.919  1.00  0.00    -0.476 C  
HETATM    3  C   UNL     1     -11.562  11.887  64.971  1.00  0.00    -0.277 C  
HETATM    4  C   UNL     1     -10.252  12.658  65.080  1.00  0.00    -0.294 C  
HETATM    5  C   UNL     1     -10.460  14.149  65.073  1.00  0.00    -0.447 A  
HETATM    6  C   UNL     1     -11.585  14.673  64.424  1.00  0.00    -0.305 A  
HETATM    7  N   UNL     1     -12.505  13.818  63.810  1.00  0.00    -0.803 N  
HETATM    8  C   UNL     1     -11.769  16.050  64.342  1.00  0.00    -0.134 A  
HETATM    9  C   UNL     1     -10.820  16.915  64.900  1.00  0.00    -0.012 A  
HETATM   10  H   UNL     1     -13.240  14.239  63.243  1.00  0.00     0.000 HD 
HETATM   11  C   UNL     1      -9.671  16.420  65.523  1.00  0.00     0.010 A  
HETATM   12  C   UNL     1      -9.496  15.031  65.609  1.00  0.00    -0.179 A  
ENDROOT
BRANCH  11  13
HETATM   13  O   UNL     1      -8.813  17.392  65.983  1.00  0.00    -0.498 OA 
BRANCH  13  14
HETATM   14  C   UNL     1      -8.251  17.202  67.281  1.00  0.00    -0.187 C  
BRANCH  14  15
HETATM   15  C   UNL     1      -9.078  17.945  68.357  1.00  0.00    -0.292 C  
BRANCH  15  16
HETATM   16  C   UNL     1     -10.105  16.973  68.956  1.00  0.00    -0.290 C  
BRANCH  16  17
HETATM   17  C   UNL     1      -9.657  15.543  69.278  1.00  0.00    -0.266 C  
BRANCH  17  18
HETATM   18  C   UNL     1     -10.740  14.525  69.329  1.00  0.00    -0.226 A  
HETATM   19  N   UNL     1     -10.592  13.311  68.824  1.00  0.00    -0.232 NA 
HETATM   20  N   UNL     1     -11.724  12.615  69.116  1.00  0.00    -0.309 NA 
HETATM   21  N   UNL     1     -12.579  13.374  69.771  1.00  0.00    -0.041 NA 
HETATM   22  N   UNL     1     -11.961  14.562  69.973  1.00  0.00    -0.310 NA 
BRANCH  22  23
HETATM   23  C   UNL     1     -12.714  15.591  70.687  1.00  0.00    -0.436 C  
HETATM   24  C   UNL     1     -14.049  15.050  71.270  1.00  0.00    -0.516 C  
HETATM   25  C   UNL     1     -13.797  14.075  72.422  1.00  0.00    -0.653 C  
HETATM   26  C   UNL     1     -13.031  14.754  73.552  1.00  0.00    -0.449 C  
HETATM   27  C   UNL     1     -11.761  15.449  73.060  1.00  0.00    -0.477 C  
HETATM   28  C   UNL     1     -12.013  16.335  71.837  1.00  0.00    -0.513 C  
ENDBRANCH  22  23
ENDBRANCH  17  18
ENDBRANCH  16  17
ENDBRANCH  15  16
ENDBRANCH  14  15
ENDBRANCH  13  14
ENDBRANCH  11  13
TORSDOF 7
ENDMDL
MODEL       29
REMARK 921   NORMALIZED FREE ENERGY PREDICTED BY IDOCK:   -6.49 KCAL/MOL
REMARK 922        TOTAL FREE ENERGY PREDICTED BY IDOCK:  -10.16 KCAL/MOL
REMARK 923 INTER-LIGAND FREE ENERGY PREDICTED BY IDOCK:   -9.19 KCAL/MOL
REMARK 924 INTRA-LIGAND FREE ENERGY PREDICTED BY IDOCK:   -0.97 KCAL/MOL
REMARK 927      BINDING AFFINITY PREDICTED BY RF-SCORE:    0.00 PKD
ROOT
HETATM    1  O   UNL     1     -12.869  16.461  74.091  1.00  0.00    -0.702 OA 
HETATM    2  C   UNL     1     -12.625  15.802  73.082  1.00  0.00    -0.494 C  
HETATM    3  C   UNL     1     -12.885  14.316  73.003  1.00  0.00    -0.461 C  
HETATM    4  C   UNL     1     -13.260  13.862  71.597  1.00  0.00    -0.446 C  
HETATM    5  C   UNL     1     -12.374  14.468  70.541  1.00  0.00    -0.403 A  
HETATM    6  C   UNL     1     -11.774  15.709  70.791  1.00  0.00    -0.375 A  
HETATM    7  N   UNL     1     -11.984  16.359  72.011  1.00  0.00    -0.649 N  
HETATM    8  C   UNL     1     -11.007  16.327  69.809  1.00  0.00    -0.354 A  
HETATM    9  C   UNL     1     -10.842  15.712  68.562  1.00  0.00    -0.282 A  
HETATM   10  H   UNL     1     -11.635  17.312  72.108  1.00  0.00     0.000 HD 
HETATM   11  C   UNL     1     -11.459  14.490  68.273  1.00  0.00    -0.311 A  
HETATM   12  C   UNL     1     -12.224  13.869  69.270  1.00  0.00    -0.319 A  
ENDROOT
BRANCH  11  13
HETATM   13  O   UNL     1     -11.240  14.034  66.994  1.00  0.00    -0.297 OA 
BRANCH  13  14
HETATM   14  C   UNL     1     -12.321  14.150  66.068  1.00  0.00    -0.445 C  
BRANCH  14  15
HETATM   15  C   UNL     1     -11.809  14.091  64.609  1.00  0.00    -0.433 C  
BRANCH  15  16
HETATM   16  C   UNL     1     -10.718  13.016  64.507  1.00  0.00    -0.404 C  
BRANCH  16  17
HETATM   17  C   UNL     1     -11.135  11.578  64.176  1.00  0.00    -0.417 C  
BRANCH  17  18
HETATM   18  C   UNL     1     -10.103  10.536  64.417  1.00  0.00    -0.325 A  
HETATM   19  N   UNL     1      -9.085  10.348  63.592  1.00  0.00    -0.229 NA 
HETATM   20  N   UNL     1      -8.291   9.392  64.147  1.00  0.00    -0.157 NA 
HETATM   21  N   UNL     1      -8.802   8.968  65.284  1.00  0.00    -0.193 NA 
HETATM   22  N   UNL     1      -9.911   9.713  65.509  1.00  0.00    -0.313 NA 
BRANCH  22  23
HETATM   23  C   UNL     1     -10.669   9.430  66.725  1.00  0.00    -0.059 C  
HETATM   24  C   UNL     1      -9.976   8.364  67.620  1.00  0.00    -0.246 C  
HETATM   25  C   UNL     1      -8.691   8.914  68.245  1.00  0.00    -0.134 C  
HETATM   26  C   UNL     1      -8.987  10.135  69.109  1.00  0.00    -0.181 C  
HETATM   27  C   UNL     1      -9.798  11.194  68.364  1.00  0.00    -0.188 C  
HETATM   28  C   UNL     1     -11.019  10.606  67.652  1.00  0.00    -0.370 C  
ENDBRANCH  22  23
ENDBRANCH  17  18
ENDBRANCH  16  17
ENDBRANCH  15  16
ENDBRANCH  14  15
ENDBRANCH  13  14
ENDBRANCH  11  13
TORSDOF 7
ENDMDL
MODEL       30
REMARK 921   NORMALIZED FREE ENERGY PREDICTED BY IDOCK:   -6.48 KCAL/MOL
REMARK 922        TOTAL FREE ENERGY PREDICTED BY IDOCK:  -10.15 KCAL/MOL
REMARK 923 INTER-LIGAND FREE ENERGY PREDICTED BY IDOCK:   -9.29 KCAL/MOL
REMARK 924 INTRA-LIGAND FREE ENERGY PREDICTED BY IDOCK:   -0.86 KCAL/MOL
REMARK 927      BINDING AFFINITY PREDICTED BY RF-SCORE:    0.00 PKD
ROOT
HETATM    1  O   UNL     1     -10.650   6.403  73.175  1.00  0.00    -0.225 OA 
HETATM    2  C   UNL     1     -10.759   7.145  72.200  1.00  0.00    -0.215 C  
HETATM    3  C   UNL     1     -11.271   8.562  72.313  1.00  0.00    -0.432 C  
HETATM    4  C   UNL     1     -10.644   9.494  71.284  1.00  0.00    -0.358 C  
HETATM    5  C   UNL     1     -10.595   8.883  69.909  1.00  0.00    -0.229 A  
HETATM    6  C   UNL     1     -10.535   7.489  69.789  1.00  0.00    -0.230 A  
HETATM    7  N   UNL     1     -10.541   6.684  70.932  1.00  0.00    -0.219 N  
HETATM    8  C   UNL     1     -10.419   6.897  68.535  1.00  0.00    -0.229 A  
HETATM    9  C   UNL     1     -10.350   7.698  67.389  1.00  0.00    -0.347 A  
HETATM   10  H   UNL     1     -10.371   5.686  70.811  1.00  0.00     0.000 HD 
HETATM   11  C   UNL     1     -10.372   9.094  67.483  1.00  0.00    -0.261 A  
HETATM   12  C   UNL     1     -10.497   9.683  68.748  1.00  0.00    -0.238 A  
ENDROOT
BRANCH  11  13
HETATM   13  O   UNL     1     -10.252   9.743  66.276  1.00  0.00    -0.249 OA 
BRANCH  13  14
HETATM   14  C   UNL     1      -9.364  10.860  66.223  1.00  0.00    -0.179 C  
BRANCH  14  15
HETATM   15  C   UNL     1      -9.933  11.978  65.317  1.00  0.00    -0.273 C  
BRANCH  15  16
HETATM   16  C   UNL     1     -11.457  12.036  65.494  1.00  0.00    -0.368 C  
BRANCH  16  17
HETATM   17  C   UNL     1     -12.082  13.326  66.038  1.00  0.00    -0.491 C  
BRANCH  17  18
HETATM   18  C   UNL     1     -11.815  14.554  65.244  1.00  0.00    -0.358 A  
HETATM   19  N   UNL     1     -12.588  14.924  64.236  1.00  0.00    -0.703 NA 
HETATM   20  N   UNL     1     -12.121  16.123  63.792  1.00  0.00    -0.732 NA 
HETATM   21  N   UNL     1     -11.065  16.495  64.486  1.00  0.00    -0.866 NA 
HETATM   22  N   UNL     1     -10.886  15.557  65.447  1.00  0.00    -0.374 NA 
BRANCH  22  23
HETATM   23  C   UNL     1      -9.761  15.743  66.359  1.00  0.00    -0.282 C  
HETATM   24  C   UNL     1      -9.519  17.240  66.701  1.00  0.00    -0.278 C  
HETATM   25  C   UNL     1     -10.646  17.800  67.572  1.00  0.00    -0.365 C  
HETATM   26  C   UNL     1     -10.755  17.028  68.883  1.00  0.00    -0.300 C  
HETATM   27  C   UNL     1     -10.853  15.518  68.664  1.00  0.00    -0.267 C  
HETATM   28  C   UNL     1      -9.784  14.993  67.702  1.00  0.00    -0.215 C  
ENDBRANCH  22  23
ENDBRANCH  17  18
ENDBRANCH  16  17
ENDBRANCH  15  16
ENDBRANCH  14  15
ENDBRANCH  13  14
ENDBRANCH  11  13
TORSDOF 7
ENDMDL
MODEL       31
REMARK 921   NORMALIZED FREE ENERGY PREDICTED BY IDOCK:   -6.47 KCAL/MOL
REMARK 922        TOTAL FREE ENERGY PREDICTED BY IDOCK:  -10.14 KCAL/MOL
REMARK 923 INTER-LIGAND FREE ENERGY PREDICTED BY IDOCK:   -9.02 KCAL/MOL
REMARK 924 INTRA-LIGAND FREE ENERGY PREDICTED BY IDOCK:   -1.12 KCAL/MOL
REMARK 927      BINDING AFFINITY PREDICTED BY RF-SCORE:    0.00 PKD
ROOT
HETATM    1  O   UNL     1     -13.278  11.955  62.948  1.00  0.00    -0.358 OA 
HETATM    2  C   UNL     1     -12.426  12.109  63.821  1.00  0.00    -0.514 C  
HETATM    3  C   UNL     1     -11.103  11.379  63.799  1.00  0.00    -0.417 C  
HETATM    4  C   UNL     1      -9.974  12.196  64.417  1.00  0.00    -0.240 C  
HETATM    5  C   UNL     1     -10.381  12.856  65.708  1.00  0.00    -0.297 A  
HETATM    6  C   UNL     1     -11.730  13.171  65.911  1.00  0.00    -0.384 A  
HETATM    7  N   UNL     1     -12.681  12.858  64.935  1.00  0.00    -0.701 N  
HETATM    8  C   UNL     1     -12.127  13.843  67.063  1.00  0.00    -0.451 A  
HETATM    9  C   UNL     1     -11.173  14.215  68.018  1.00  0.00    -0.302 A  
HETATM   10  H   UNL     1     -13.628  13.214  65.063  1.00  0.00     0.000 HD 
HETATM   11  C   UNL     1      -9.815  13.944  67.823  1.00  0.00    -0.237 A  
HETATM   12  C   UNL     1      -9.423  13.260  66.664  1.00  0.00    -0.262 A  
ENDROOT
BRANCH  11  13
HETATM   13  O   UNL     1      -8.995  14.409  68.826  1.00  0.00    -0.185 OA 
BRANCH  13  14
HETATM   14  C   UNL     1      -7.602  14.119  68.715  1.00  0.00    -0.125 C  
BRANCH  14  15
HETATM   15  C   UNL     1      -6.756  15.161  69.485  1.00  0.00    -0.171 C  
BRANCH  15  16
HETATM   16  C   UNL     1      -6.544  16.391  68.591  1.00  0.00    -0.142 C  
BRANCH  16  17
HETATM   17  C   UNL     1      -6.831  16.262  67.091  1.00  0.00    -0.243 C  
BRANCH  17  18
HETATM   18  C   UNL     1      -6.893  17.541  66.336  1.00  0.00    -0.273 A  
HETATM   19  N   UNL     1      -5.811  18.121  65.840  1.00  0.00    -0.187 NA 
HETATM   20  N   UNL     1      -6.225  19.211  65.140  1.00  0.00    -0.268 NA 
HETATM   21  N   UNL     1      -7.535  19.335  65.207  1.00  0.00    -0.302 NA 
HETATM   22  N   UNL     1      -7.987  18.264  65.903  1.00  0.00    -0.519 NA 
BRANCH  22  23
HETATM   23  C   UNL     1      -9.429  18.170  66.119  1.00  0.00    -0.153 C  
HETATM   24  C   UNL     1      -9.781  17.567  67.507  1.00  0.00    -0.278 C  
HETATM   25  C   UNL     1      -9.418  18.530  68.639  1.00  0.00    -0.373 C  
HETATM   26  C   UNL     1     -10.170  19.848  68.494  1.00  0.00    -0.529 C  
HETATM   27  C   UNL     1     -10.009  20.462  67.103  1.00  0.00    -0.568 C  
HETATM   28  C   UNL     1     -10.268  19.451  65.982  1.00  0.00    -0.540 C  
ENDBRANCH  22  23
ENDBRANCH  17  18
ENDBRANCH  16  17
ENDBRANCH  15  16
ENDBRANCH  14  15
ENDBRANCH  13  14
ENDBRANCH  11  13
TORSDOF 7
ENDMDL
MODEL       32
REMARK 921   NORMALIZED FREE ENERGY PREDICTED BY IDOCK:   -6.47 KCAL/MOL
REMARK 922        TOTAL FREE ENERGY PREDICTED BY IDOCK:  -10.13 KCAL/MOL
REMARK 923 INTER-LIGAND FREE ENERGY PREDICTED BY IDOCK:   -9.35 KCAL/MOL
REMARK 924 INTRA-LIGAND FREE ENERGY PREDICTED BY IDOCK:   -0.78 KCAL/MOL
REMARK 927      BINDING AFFINITY PREDICTED BY RF-SCORE:    0.00 PKD
ROOT
HETATM    1  O   UNL     1     -13.975  16.291  73.413  1.00  0.00    -0.500 OA 
HETATM    2  C   UNL     1     -13.418  15.559  72.598  1.00  0.00    -0.547 C  
HETATM    3  C   UNL     1     -12.949  14.167  72.948  1.00  0.00    -0.498 C  
HETATM    4  C   UNL     1     -13.020  13.210  71.764  1.00  0.00    -0.435 C  
HETATM    5  C   UNL     1     -12.487  13.823  70.496  1.00  0.00    -0.409 A  
HETATM    6  C   UNL     1     -12.547  15.214  70.339  1.00  0.00    -0.359 A  
HETATM    7  N   UNL     1     -13.077  16.014  71.355  1.00  0.00    -0.500 N  
HETATM    8  C   UNL     1     -12.126  15.803  69.152  1.00  0.00    -0.217 A  
HETATM    9  C   UNL     1     -11.651  15.004  68.105  1.00  0.00    -0.360 A  
HETATM   10  H   UNL     1     -13.219  17.004  71.155  1.00  0.00     0.000 HD 
HETATM   11  C   UNL     1     -11.614  13.611  68.222  1.00  0.00    -0.339 A  
HETATM   12  C   UNL     1     -12.032  13.024  69.424  1.00  0.00    -0.338 A  
ENDROOT
BRANCH  11  13
HETATM   13  O   UNL     1     -11.164  12.960  67.096  1.00  0.00    -0.265 OA 
BRANCH  13  14
HETATM   14  C   UNL     1      -9.807  12.519  67.098  1.00  0.00    -0.210 C  
BRANCH  14  15
HETATM   15  C   UNL     1      -8.841  13.698  66.831  1.00  0.00    -0.201 C  
BRANCH  15  16
HETATM   16  C   UNL     1      -8.015  13.962  68.098  1.00  0.00    -0.148 C  
BRANCH  16  17
HETATM   17  C   UNL     1      -7.815  15.413  68.551  1.00  0.00    -0.134 C  
BRANCH  17  18
HETATM   18  C   UNL     1      -7.512  16.389  67.471  1.00  0.00    -0.141 A  
HETATM   19  N   UNL     1      -6.321  16.459  66.898  1.00  0.00    -0.289 NA 
HETATM   20  N   UNL     1      -6.409  17.383  65.903  1.00  0.00    -0.109 NA 
HETATM   21  N   UNL     1      -7.619  17.903  65.859  1.00  0.00    -0.534 NA 
HETATM   22  N   UNL     1      -8.351  17.252  66.794  1.00  0.00    -0.230 NA 
BRANCH  22  23
HETATM   23  C   UNL     1      -9.748  17.654  66.945  1.00  0.00    -0.292 C  
HETATM   24  C   UNL     1     -10.070  18.146  68.384  1.00  0.00    -0.401 C  
HETATM   25  C   UNL     1      -9.389  19.485  68.678  1.00  0.00    -0.430 C  
HETATM   26  C   UNL     1      -9.852  20.557  67.698  1.00  0.00    -0.484 C  
HETATM   27  C   UNL     1      -9.713  20.115  66.241  1.00  0.00    -0.515 C  
HETATM   28  C   UNL     1     -10.302  18.724  65.990  1.00  0.00    -0.467 C  
ENDBRANCH  22  23
ENDBRANCH  17  18
ENDBRANCH  16  17
ENDBRANCH  15  16
ENDBRANCH  14  15
ENDBRANCH  13  14
ENDBRANCH  11  13
TORSDOF 7
ENDMDL
MODEL       33
REMARK 921   NORMALIZED FREE ENERGY PREDICTED BY IDOCK:   -6.45 KCAL/MOL
REMARK 922        TOTAL FREE ENERGY PREDICTED BY IDOCK:  -10.10 KCAL/MOL
REMARK 923 INTER-LIGAND FREE ENERGY PREDICTED BY IDOCK:   -9.57 KCAL/MOL
REMARK 924 INTRA-LIGAND FREE ENERGY PREDICTED BY IDOCK:   -0.54 KCAL/MOL
REMARK 927      BINDING AFFINITY PREDICTED BY RF-SCORE:    0.00 PKD
ROOT
HETATM    1  O   UNL     1     -10.526   6.765  74.213  1.00  0.00    -0.338 OA 
HETATM    2  C   UNL     1     -10.459   7.613  73.327  1.00  0.00    -0.355 C  
HETATM    3  C   UNL     1      -9.142   8.115  72.782  1.00  0.00    -0.328 C  
HETATM    4  C   UNL     1      -9.225   8.499  71.310  1.00  0.00    -0.256 C  
HETATM    5  C   UNL     1     -10.457   9.305  70.995  1.00  0.00    -0.384 A  
HETATM    6  C   UNL     1     -11.598   9.137  71.789  1.00  0.00    -0.387 A  
HETATM    7  N   UNL     1     -11.580   8.248  72.868  1.00  0.00    -0.374 N  
HETATM    8  C   UNL     1     -12.773   9.815  71.481  1.00  0.00    -0.504 A  
HETATM    9  C   UNL     1     -12.819  10.661  70.366  1.00  0.00    -0.277 A  
HETATM   10  H   UNL     1     -12.462   8.059  73.343  1.00  0.00     0.000 HD 
HETATM   11  C   UNL     1     -11.705  10.820  69.535  1.00  0.00    -0.312 A  
HETATM   12  C   UNL     1     -10.522  10.139  69.856  1.00  0.00    -0.322 A  
ENDROOT
BRANCH  11  13
HETATM   13  O   UNL     1     -11.917  11.647  68.457  1.00  0.00    -0.438 OA 
BRANCH  13  14
HETATM   14  C   UNL     1     -11.294  11.283  67.225  1.00  0.00    -0.255 C  
BRANCH  14  15
HETATM   15  C   UNL     1     -11.544  12.357  66.139  1.00  0.00    -0.452 C  
BRANCH  15  16
HETATM   16  C   UNL     1     -12.040  13.643  66.815  1.00  0.00    -0.445 C  
BRANCH  16  17
HETATM   17  C   UNL     1     -11.126  14.874  66.804  1.00  0.00    -0.335 C  
BRANCH  17  18
HETATM   18  C   UNL     1     -11.075  15.649  68.072  1.00  0.00    -0.335 A  
HETATM   19  N   UNL     1     -11.885  15.395  69.087  1.00  0.00    -0.341 NA 
HETATM   20  N   UNL     1     -11.518  16.215  70.108  1.00  0.00    -0.336 NA 
HETATM   21  N   UNL     1     -10.515  16.988  69.744  1.00  0.00    -0.132 NA 
HETATM   22  N   UNL     1     -10.176  16.612  68.488  1.00  0.00    -0.264 NA 
BRANCH  22  23
HETATM   23  C   UNL     1      -9.075  17.330  67.851  1.00  0.00    -0.239 C  
HETATM   24  C   UNL     1      -9.367  17.660  66.361  1.00  0.00    -0.265 C  
HETATM   25  C   UNL     1     -10.467  18.717  66.231  1.00  0.00    -0.468 C  
HETATM   26  C   UNL     1     -10.062  20.010  66.930  1.00  0.00    -0.601 C  
HETATM   27  C   UNL     1      -9.614  19.778  68.373  1.00  0.00    -0.454 C  
HETATM   28  C   UNL     1      -8.595  18.641  68.496  1.00  0.00    -0.370 C  
ENDBRANCH  22  23
ENDBRANCH  17  18
ENDBRANCH  16  17
ENDBRANCH  15  16
ENDBRANCH  14  15
ENDBRANCH  13  14
ENDBRANCH  11  13
TORSDOF 7
ENDMDL
MODEL       34
REMARK 921   NORMALIZED FREE ENERGY PREDICTED BY IDOCK:   -6.43 KCAL/MOL
REMARK 922        TOTAL FREE ENERGY PREDICTED BY IDOCK:  -10.08 KCAL/MOL
REMARK 923 INTER-LIGAND FREE ENERGY PREDICTED BY IDOCK:   -8.77 KCAL/MOL
REMARK 924 INTRA-LIGAND FREE ENERGY PREDICTED BY IDOCK:   -1.31 KCAL/MOL
REMARK 927      BINDING AFFINITY PREDICTED BY RF-SCORE:    0.00 PKD
ROOT
HETATM    1  O   UNL     1     -11.287   6.252  70.098  1.00  0.00    -0.372 OA 
HETATM    2  C   UNL     1     -11.247   7.479  70.159  1.00  0.00    -0.196 C  
HETATM    3  C   UNL     1     -10.145   8.288  69.516  1.00  0.00    -0.197 C  
HETATM    4  C   UNL     1     -10.624   9.652  69.035  1.00  0.00    -0.237 C  
HETATM    5  C   UNL     1     -11.491  10.348  70.050  1.00  0.00    -0.382 A  
HETATM    6  C   UNL     1     -12.226   9.574  70.957  1.00  0.00    -0.304 A  
HETATM    7  N   UNL     1     -12.137   8.180  70.926  1.00  0.00    -0.473 N  
HETATM    8  C   UNL     1     -13.089  10.185  71.862  1.00  0.00    -0.571 A  
HETATM    9  C   UNL     1     -13.231  11.578  71.859  1.00  0.00    -0.479 A  
HETATM   10  H   UNL     1     -12.778   7.649  71.515  1.00  0.00     0.000 HD 
HETATM   11  C   UNL     1     -12.536  12.372  70.941  1.00  0.00    -0.246 A  
HETATM   12  C   UNL     1     -11.663  11.750  70.038  1.00  0.00    -0.386 A  
ENDROOT
BRANCH  11  13
HETATM   13  O   UNL     1     -12.813  13.717  71.032  1.00  0.00    -0.323 OA 
BRANCH  13  14
HETATM   14  C   UNL     1     -11.824  14.544  71.645  1.00  0.00    -0.169 C  
BRANCH  14  15
HETATM   15  C   UNL     1     -11.567  15.817  70.804  1.00  0.00    -0.429 C  
BRANCH  15  16
HETATM   16  C   UNL     1     -12.234  15.649  69.431  1.00  0.00    -0.201 C  
BRANCH  16  17
HETATM   17  C   UNL     1     -11.398  15.919  68.174  1.00  0.00    -0.311 C  
BRANCH  17  18
HETATM   18  C   UNL     1     -10.437  14.848  67.799  1.00  0.00    -0.255 A  
HETATM   19  N   UNL     1      -9.149  14.919  68.097  1.00  0.00    -0.173 NA 
HETATM   20  N   UNL     1      -8.579  13.751  67.695  1.00  0.00    -0.174 NA 
HETATM   21  N   UNL     1      -9.477  12.966  67.135  1.00  0.00    -0.221 NA 
HETATM   22  N   UNL     1     -10.667  13.605  67.242  1.00  0.00    -0.277 NA 
BRANCH  22  23
HETATM   23  C   UNL     1     -11.838  12.931  66.686  1.00  0.00    -0.395 C  
HETATM   24  C   UNL     1     -12.714  13.882  65.824  1.00  0.00    -0.503 C  
HETATM   25  C   UNL     1     -12.002  14.266  64.524  1.00  0.00    -0.478 C  
HETATM   26  C   UNL     1     -11.688  13.029  63.690  1.00  0.00    -0.550 C  
HETATM   27  C   UNL     1     -10.947  11.958  64.492  1.00  0.00    -0.376 C  
HETATM   28  C   UNL     1     -11.613  11.667  65.839  1.00  0.00    -0.094 C  
ENDBRANCH  22  23
ENDBRANCH  17  18
ENDBRANCH  16  17
ENDBRANCH  15  16
ENDBRANCH  14  15
ENDBRANCH  13  14
ENDBRANCH  11  13
TORSDOF 7
ENDMDL
MODEL       35
REMARK 921   NORMALIZED FREE ENERGY PREDICTED BY IDOCK:   -6.40 KCAL/MOL
REMARK 922        TOTAL FREE ENERGY PREDICTED BY IDOCK:  -10.03 KCAL/MOL
REMARK 923 INTER-LIGAND FREE ENERGY PREDICTED BY IDOCK:   -8.49 KCAL/MOL
REMARK 924 INTRA-LIGAND FREE ENERGY PREDICTED BY IDOCK:   -1.54 KCAL/MOL
REMARK 927      BINDING AFFINITY PREDICTED BY RF-SCORE:    0.00 PKD
ROOT
HETATM    1  O   UNL     1      -9.703  11.019  62.836  1.00  0.00    -0.319 OA 
HETATM    2  C   UNL     1     -10.226  11.622  63.770  1.00  0.00    -0.389 C  
HETATM    3  C   UNL     1     -11.502  12.415  63.611  1.00  0.00    -0.568 C  
HETATM    4  C   UNL     1     -12.354  12.414  64.874  1.00  0.00    -0.475 C  
HETATM    5  C   UNL     1     -11.539  12.655  66.117  1.00  0.00    -0.445 A  
HETATM    6  C   UNL     1     -10.189  12.283  66.125  1.00  0.00    -0.239 A  
HETATM    7  N   UNL     1      -9.610  11.714  64.987  1.00  0.00    -0.352 N  
HETATM    8  C   UNL     1      -9.429  12.429  67.281  1.00  0.00    -0.191 A  
HETATM    9  C   UNL     1     -10.017  12.940  68.444  1.00  0.00    -0.211 A  
HETATM   10  H   UNL     1      -8.664  11.342  65.071  1.00  0.00     0.000 HD 
HETATM   11  C   UNL     1     -11.372  13.286  68.474  1.00  0.00    -0.284 A  
HETATM   12  C   UNL     1     -12.130  13.144  67.304  1.00  0.00    -0.329 A  
ENDROOT
BRANCH  11  13
HETATM   13  O   UNL     1     -11.815  13.732  69.698  1.00  0.00    -0.293 OA 
BRANCH  13  14
HETATM   14  C   UNL     1     -12.104  15.125  69.817  1.00  0.00    -0.319 C  
BRANCH  14  15
HETATM   15  C   UNL     1     -10.841  15.920  70.226  1.00  0.00    -0.349 C  
BRANCH  15  16
HETATM   16  C   UNL     1     -10.717  17.157  69.326  1.00  0.00    -0.146 C  
BRANCH  16  17
HETATM   17  C   UNL     1     -10.654  16.954  67.807  1.00  0.00    -0.340 C  
BRANCH  17  18
HETATM   18  C   UNL     1     -10.017  18.054  67.036  1.00  0.00    -0.329 A  
HETATM   19  N   UNL     1     -10.558  19.258  66.948  1.00  0.00    -0.442 NA 
HETATM   20  N   UNL     1      -9.685  20.039  66.255  1.00  0.00    -0.430 NA 
HETATM   21  N   UNL     1      -8.627  19.343  65.893  1.00  0.00    -0.421 NA 
HETATM   22  N   UNL     1      -8.781  18.106  66.423  1.00  0.00    -0.384 NA 
BRANCH  22  23
HETATM   23  C   UNL     1      -7.725  17.132  66.158  1.00  0.00    -0.267 C  
HETATM   24  C   UNL     1      -6.304  17.741  66.319  1.00  0.00    -0.269 C  
HETATM   25  C   UNL     1      -5.997  18.053  67.786  1.00  0.00    -0.157 C  
HETATM   26  C   UNL     1      -6.069  16.790  68.637  1.00  0.00    -0.145 C  
HETATM   27  C   UNL     1      -7.380  16.029  68.442  1.00  0.00    -0.131 C  
HETATM   28  C   UNL     1      -7.726  15.823  66.965  1.00  0.00    -0.267 C  
ENDBRANCH  22  23
ENDBRANCH  17  18
ENDBRANCH  16  17
ENDBRANCH  15  16
ENDBRANCH  14  15
ENDBRANCH  13  14
ENDBRANCH  11  13
TORSDOF 7
ENDMDL
MODEL       36
REMARK 921   NORMALIZED FREE ENERGY PREDICTED BY IDOCK:   -6.32 KCAL/MOL
REMARK 922        TOTAL FREE ENERGY PREDICTED BY IDOCK:   -9.93 KCAL/MOL
REMARK 923 INTER-LIGAND FREE ENERGY PREDICTED BY IDOCK:   -9.29 KCAL/MOL
REMARK 924 INTRA-LIGAND FREE ENERGY PREDICTED BY IDOCK:   -0.63 KCAL/MOL
REMARK 927      BINDING AFFINITY PREDICTED BY RF-SCORE:    0.00 PKD
ROOT
HETATM    1  O   UNL     1     -13.327   8.123  72.166  1.00  0.00    -0.292 OA 
HETATM    2  C   UNL     1     -12.968   9.227  71.764  1.00  0.00    -0.396 C  
HETATM    3  C   UNL     1     -11.817   9.404  70.801  1.00  0.00    -0.323 C  
HETATM    4  C   UNL     1     -12.005  10.601  69.877  1.00  0.00    -0.385 C  
HETATM    5  C   UNL     1     -12.490  11.824  70.610  1.00  0.00    -0.364 A  
HETATM    6  C   UNL     1     -13.239  11.658  71.782  1.00  0.00    -0.333 A  
HETATM    7  N   UNL     1     -13.513  10.376  72.267  1.00  0.00    -0.568 N  
HETATM    8  C   UNL     1     -13.759  12.766  72.444  1.00  0.00    -0.457 A  
HETATM    9  C   UNL     1     -13.542  14.051  71.931  1.00  0.00    -0.520 A  
HETATM   10  H   UNL     1     -14.163  10.292  73.047  1.00  0.00     0.000 HD 
HETATM   11  C   UNL     1     -12.827  14.242  70.744  1.00  0.00    -0.337 A  
HETATM   12  C   UNL     1     -12.300  13.122  70.087  1.00  0.00    -0.284 A  
ENDROOT
BRANCH  11  13
HETATM   13  O   UNL     1     -12.735  15.556  70.345  1.00  0.00    -0.425 OA 
BRANCH  13  14
HETATM   14  C   UNL     1     -11.435  16.045  70.015  1.00  0.00    -0.331 C  
BRANCH  14  15
HETATM   15  C   UNL     1     -11.159  15.905  68.499  1.00  0.00    -0.340 C  
BRANCH  15  16
HETATM   16  C   UNL     1      -9.727  15.388  68.298  1.00  0.00    -0.209 C  
BRANCH  16  17
HETATM   17  C   UNL     1      -8.593  16.053  69.086  1.00  0.00    -0.247 C  
BRANCH  17  18
HETATM   18  C   UNL     1      -7.495  16.633  68.268  1.00  0.00    -0.182 A  
HETATM   19  N   UNL     1      -6.621  15.876  67.623  1.00  0.00    -0.156 NA 
HETATM   20  N   UNL     1      -5.818  16.711  66.909  1.00  0.00    -0.290 NA 
HETATM   21  N   UNL     1      -6.159  17.968  67.112  1.00  0.00    -0.145 NA 
HETATM   22  N   UNL     1      -7.249  17.945  67.915  1.00  0.00    -0.215 NA 
BRANCH  22  23
HETATM   23  C   UNL     1      -7.825  19.234  68.292  1.00  0.00    -0.319 C  
HETATM   24  C   UNL     1      -7.683  20.297  67.168  1.00  0.00    -0.360 C  
HETATM   25  C   UNL     1      -8.577  19.962  65.971  1.00  0.00    -0.283 C  
HETATM   26  C   UNL     1     -10.043  19.907  66.386  1.00  0.00    -0.615 C  
HETATM   27  C   UNL     1     -10.275  18.992  67.589  1.00  0.00    -0.478 C  
HETATM   28  C   UNL     1      -9.298  19.268  68.734  1.00  0.00    -0.437 C  
ENDBRANCH  22  23
ENDBRANCH  17  18
ENDBRANCH  16  17
ENDBRANCH  15  16
ENDBRANCH  14  15
ENDBRANCH  13  14
ENDBRANCH  11  13
TORSDOF 7
ENDMDL
MODEL       37
REMARK 921   NORMALIZED FREE ENERGY PREDICTED BY IDOCK:   -6.31 KCAL/MOL
REMARK 922        TOTAL FREE ENERGY PREDICTED BY IDOCK:   -9.91 KCAL/MOL
REMARK 923 INTER-LIGAND FREE ENERGY PREDICTED BY IDOCK:   -8.64 KCAL/MOL
REMARK 924 INTRA-LIGAND FREE ENERGY PREDICTED BY IDOCK:   -1.27 KCAL/MOL
REMARK 927      BINDING AFFINITY PREDICTED BY RF-SCORE:    0.00 PKD
ROOT
HETATM    1  O   UNL     1     -12.224   8.383  72.145  1.00  0.00    -0.330 OA 
HETATM    2  C   UNL     1     -11.835   8.714  71.027  1.00  0.00    -0.265 C  
HETATM    3  C   UNL     1     -11.877  10.145  70.545  1.00  0.00    -0.408 C  
HETATM    4  C   UNL     1     -10.742  10.473  69.583  1.00  0.00    -0.302 C  
HETATM    5  C   UNL     1     -10.538   9.399  68.548  1.00  0.00    -0.234 A  
HETATM    6  C   UNL     1     -10.899   8.082  68.857  1.00  0.00     0.029 A  
HETATM    7  N   UNL     1     -11.457   7.780  70.103  1.00  0.00    -0.473 N  
HETATM    8  C   UNL     1     -10.659   7.057  67.948  1.00  0.00    -0.276 A  
HETATM    9  C   UNL     1     -10.044   7.341  66.723  1.00  0.00    -0.291 A  
HETATM   10  H   UNL     1     -11.590   6.797  70.339  1.00  0.00     0.000 HD 
HETATM   11  C   UNL     1      -9.642   8.641  66.402  1.00  0.00    -0.247 A  
HETATM   12  C   UNL     1      -9.894   9.670  67.320  1.00  0.00    -0.225 A  
ENDROOT
BRANCH  11  13
HETATM   13  O   UNL     1      -9.013   8.755  65.183  1.00  0.00    -0.184 OA 
BRANCH  13  14
HETATM   14  C   UNL     1      -8.534  10.049  64.817  1.00  0.00    -0.173 C  
BRANCH  14  15
HETATM   15  C   UNL     1      -8.684  10.285  63.295  1.00  0.00    -0.207 C  
BRANCH  15  16
HETATM   16  C   UNL     1      -9.744  11.371  63.062  1.00  0.00    -0.393 C  
BRANCH  16  17
HETATM   17  C   UNL     1     -11.014  11.350  63.920  1.00  0.00    -0.442 C  
BRANCH  17  18
HETATM   18  C   UNL     1     -11.595  12.680  64.243  1.00  0.00    -0.374 A  
HETATM   19  N   UNL     1     -12.303  13.373  63.366  1.00  0.00    -0.732 NA 
HETATM   20  N   UNL     1     -12.754  14.486  64.006  1.00  0.00    -0.727 NA 
HETATM   21  N   UNL     1     -12.325  14.511  65.251  1.00  0.00    -0.342 NA 
HETATM   22  N   UNL     1     -11.643  13.357  65.446  1.00  0.00    -0.307 NA 
BRANCH  22  23
HETATM   23  C   UNL     1     -11.058  13.144  66.768  1.00  0.00    -0.289 C  
HETATM   24  C   UNL     1      -9.511  13.296  66.761  1.00  0.00    -0.257 C  
HETATM   25  C   UNL     1      -9.098  14.752  66.532  1.00  0.00    -0.291 C  
HETATM   26  C   UNL     1      -9.655  15.654  67.628  1.00  0.00    -0.220 C  
HETATM   27  C   UNL     1     -11.162  15.476  67.820  1.00  0.00    -0.302 C  
HETATM   28  C   UNL     1     -11.570  14.005  67.935  1.00  0.00    -0.377 C  
ENDBRANCH  22  23
ENDBRANCH  17  18
ENDBRANCH  16  17
ENDBRANCH  15  16
ENDBRANCH  14  15
ENDBRANCH  13  14
ENDBRANCH  11  13
TORSDOF 7
ENDMDL
MODEL       38
REMARK 921   NORMALIZED FREE ENERGY PREDICTED BY IDOCK:   -6.29 KCAL/MOL
REMARK 922        TOTAL FREE ENERGY PREDICTED BY IDOCK:   -9.88 KCAL/MOL
REMARK 923 INTER-LIGAND FREE ENERGY PREDICTED BY IDOCK:   -8.70 KCAL/MOL
REMARK 924 INTRA-LIGAND FREE ENERGY PREDICTED BY IDOCK:   -1.18 KCAL/MOL
REMARK 927      BINDING AFFINITY PREDICTED BY RF-SCORE:    0.00 PKD
ROOT
HETATM    1  O   UNL     1     -12.761  15.138  63.845  1.00  0.00    -0.759 OA 
HETATM    2  C   UNL     1     -12.116  14.220  64.348  1.00  0.00    -0.468 C  
HETATM    3  C   UNL     1     -11.910  14.097  65.839  1.00  0.00    -0.391 C  
HETATM    4  C   UNL     1     -11.811  12.648  66.299  1.00  0.00    -0.471 C  
HETATM    5  C   UNL     1     -10.924  11.821  65.407  1.00  0.00    -0.352 A  
HETATM    6  C   UNL     1     -10.781  12.191  64.064  1.00  0.00    -0.384 A  
HETATM    7  N   UNL     1     -11.439  13.322  63.571  1.00  0.00    -0.638 N  
HETATM    8  C   UNL     1     -10.025  11.408  63.198  1.00  0.00    -0.402 A  
HETATM    9  C   UNL     1      -9.413  10.239  63.667  1.00  0.00    -0.348 A  
HETATM   10  H   UNL     1     -11.412  13.487  62.566  1.00  0.00     0.000 HD 
HETATM   11  C   UNL     1      -9.568   9.828  64.995  1.00  0.00    -0.264 A  
HETATM   12  C   UNL     1     -10.325  10.625  65.864  1.00  0.00    -0.291 A  
ENDROOT
BRANCH  11  13
HETATM   13  O   UNL     1      -8.944   8.639  65.295  1.00  0.00    -0.181 OA 
BRANCH  13  14
HETATM   14  C   UNL     1      -7.551   8.695  65.604  1.00  0.00    -0.086 C  
BRANCH  14  15
HETATM   15  C   UNL     1      -7.323   8.703  67.135  1.00  0.00    -0.088 C  
BRANCH  15  16
HETATM   16  C   UNL     1      -6.916  10.118  67.571  1.00  0.00    -0.085 C  
BRANCH  16  17
HETATM   17  C   UNL     1      -7.777  10.837  68.616  1.00  0.00    -0.114 C  
BRANCH  17  18
HETATM   18  C   UNL     1      -8.057  10.068  69.858  1.00  0.00    -0.166 A  
HETATM   19  N   UNL     1      -7.162   9.938  70.824  1.00  0.00    -0.325 NA 
HETATM   20  N   UNL     1      -7.764   9.261  71.839  1.00  0.00    -0.196 NA 
HETATM   21  N   UNL     1      -9.004   8.950  71.518  1.00  0.00    -0.282 NA 
HETATM   22  N   UNL     1      -9.235   9.498  70.301  1.00  0.00    -0.246 NA 
BRANCH  22  23
HETATM   23  C   UNL     1     -10.557   9.290  69.717  1.00  0.00    -0.231 C  
HETATM   24  C   UNL     1     -11.523   8.553  70.686  1.00  0.00    -0.249 C  
HETATM   25  C   UNL     1     -11.907   9.444  71.870  1.00  0.00    -0.402 C  
HETATM   26  C   UNL     1     -12.599  10.716  71.391  1.00  0.00    -0.526 C  
HETATM   27  C   UNL     1     -11.794  11.449  70.319  1.00  0.00    -0.438 C  
HETATM   28  C   UNL     1     -11.323  10.519  69.198  1.00  0.00    -0.319 C  
ENDBRANCH  22  23
ENDBRANCH  17  18
ENDBRANCH  16  17
ENDBRANCH  15  16
ENDBRANCH  14  15
ENDBRANCH  13  14
ENDBRANCH  11  13
TORSDOF 7
ENDMDL
MODEL       39
REMARK 921   NORMALIZED FREE ENERGY PREDICTED BY IDOCK:   -6.29 KCAL/MOL
REMARK 922        TOTAL FREE ENERGY PREDICTED BY IDOCK:   -9.87 KCAL/MOL
REMARK 923 INTER-LIGAND FREE ENERGY PREDICTED BY IDOCK:   -8.53 KCAL/MOL
REMARK 924 INTRA-LIGAND FREE ENERGY PREDICTED BY IDOCK:   -1.34 KCAL/MOL
REMARK 927      BINDING AFFINITY PREDICTED BY RF-SCORE:    0.00 PKD
ROOT
HETATM    1  O   UNL     1      -9.649  10.547  62.949  1.00  0.00    -0.310 OA 
HETATM    2  C   UNL     1      -9.890  10.600  64.153  1.00  0.00    -0.335 C  
HETATM    3  C   UNL     1     -10.200  11.897  64.862  1.00  0.00    -0.310 C  
HETATM    4  C   UNL     1     -11.165  11.712  66.028  1.00  0.00    -0.299 C  
HETATM    5  C   UNL     1     -10.814  10.523  66.881  1.00  0.00    -0.252 A  
HETATM    6  C   UNL     1     -10.131   9.448  66.298  1.00  0.00    -0.258 A  
HETATM    7  N   UNL     1      -9.767   9.495  64.949  1.00  0.00    -0.438 N  
HETATM    8  C   UNL     1      -9.854   8.306  67.043  1.00  0.00    -0.298 A  
HETATM    9  C   UNL     1     -10.269   8.226  68.378  1.00  0.00    -0.242 A  
HETATM   10  H   UNL     1      -9.385   8.647  64.530  1.00  0.00     0.000 HD 
HETATM   11  C   UNL     1     -10.983   9.269  68.975  1.00  0.00    -0.033 A  
HETATM   12  C   UNL     1     -11.252  10.420  68.221  1.00  0.00    -0.330 A  
ENDROOT
BRANCH  11  13
HETATM   13  O   UNL     1     -11.360   9.026  70.276  1.00  0.00    -0.251 OA 
BRANCH  13  14
HETATM   14  C   UNL     1     -11.413  10.147  71.158  1.00  0.00    -0.307 C  
BRANCH  14  15
HETATM   15  C   UNL     1     -12.860  10.405  71.639  1.00  0.00    -0.579 C  
BRANCH  15  16
HETATM   16  C   UNL     1     -13.042  11.909  71.890  1.00  0.00    -0.474 C  
BRANCH  16  17
HETATM   17  C   UNL     1     -12.529  12.894  70.833  1.00  0.00    -0.383 C  
BRANCH  17  18
HETATM   18  C   UNL     1     -12.329  14.291  71.300  1.00  0.00    -0.363 A  
HETATM   19  N   UNL     1     -12.409  14.627  72.577  1.00  0.00    -0.291 NA 
HETATM   20  N   UNL     1     -12.089  15.946  72.666  1.00  0.00    -0.465 NA 
HETATM   21  N   UNL     1     -11.833  16.443  71.473  1.00  0.00    -0.366 NA 
HETATM   22  N   UNL     1     -11.917  15.409  70.601  1.00  0.00    -0.323 NA 
BRANCH  22  23
HETATM   23  C   UNL     1     -11.674  15.706  69.191  1.00  0.00    -0.390 C  
HETATM   24  C   UNL     1     -10.552  16.763  68.994  1.00  0.00    -0.343 C  
HETATM   25  C   UNL     1      -9.182  16.196  69.374  1.00  0.00    -0.170 C  
HETATM   26  C   UNL     1      -8.840  14.981  68.518  1.00  0.00    -0.181 C  
HETATM   27  C   UNL     1      -9.952  13.932  68.525  1.00  0.00    -0.221 C  
HETATM   28  C   UNL     1     -11.332  14.536  68.253  1.00  0.00    -0.319 C  
ENDBRANCH  22  23
ENDBRANCH  17  18
ENDBRANCH  16  17
ENDBRANCH  15  16
ENDBRANCH  14  15
ENDBRANCH  13  14
ENDBRANCH  11  13
TORSDOF 7
ENDMDL
MODEL       40
REMARK 921   NORMALIZED FREE ENERGY PREDICTED BY IDOCK:   -6.27 KCAL/MOL
REMARK 922        TOTAL FREE ENERGY PREDICTED BY IDOCK:   -9.85 KCAL/MOL
REMARK 923 INTER-LIGAND FREE ENERGY PREDICTED BY IDOCK:   -8.63 KCAL/MOL
REMARK 924 INTRA-LIGAND FREE ENERGY PREDICTED BY IDOCK:   -1.22 KCAL/MOL
REMARK 927      BINDING AFFINITY PREDICTED BY RF-SCORE:    0.00 PKD
ROOT
HETATM    1  O   UNL     1      -7.899   9.040  71.837  1.00  0.00    -0.345 OA 
HETATM    2  C   UNL     1      -7.899   9.510  70.701  1.00  0.00    -0.117 C  
HETATM    3  C   UNL     1      -6.807  10.428  70.204  1.00  0.00    -0.155 C  
HETATM    4  C   UNL     1      -6.549  10.277  68.710  1.00  0.00    -0.052 C  
HETATM    5  C   UNL     1      -7.823  10.218  67.910  1.00  0.00    -0.101 A  
HETATM    6  C   UNL     1      -8.985   9.732  68.521  1.00  0.00    -0.124 A  
HETATM    7  N   UNL     1      -8.960   9.328  69.859  1.00  0.00    -0.166 N  
HETATM    8  C   UNL     1     -10.160   9.601  67.788  1.00  0.00    -0.232 A  
HETATM    9  C   UNL     1     -10.179   9.946  66.431  1.00  0.00    -0.292 A  
HETATM   10  H   UNL     1      -9.788   8.865  70.231  1.00  0.00     0.000 HD 
HETATM   11  C   UNL     1      -9.024  10.400  65.787  1.00  0.00    -0.168 A  
HETATM   12  C   UNL     1      -7.845  10.537  66.533  1.00  0.00    -0.134 A  
ENDROOT
BRANCH  11  13
HETATM   13  O   UNL     1      -9.188  10.657  64.445  1.00  0.00    -0.205 OA 
BRANCH  13  14
HETATM   14  C   UNL     1      -9.889  11.850  64.092  1.00  0.00    -0.207 C  
BRANCH  14  15
HETATM   15  C   UNL     1     -11.308  11.524  63.569  1.00  0.00    -0.375 C  
BRANCH  15  16
HETATM   16  C   UNL     1     -12.067  12.837  63.333  1.00  0.00    -0.619 C  
BRANCH  16  17
HETATM   17  C   UNL     1     -12.452  13.689  64.548  1.00  0.00    -0.335 C  
BRANCH  17  18
HETATM   18  C   UNL     1     -11.728  14.980  64.685  1.00  0.00    -0.382 A  
HETATM   19  N   UNL     1     -12.040  16.043  63.961  1.00  0.00    -0.793 NA 
HETATM   20  N   UNL     1     -11.255  17.067  64.393  1.00  0.00    -1.077 NA 
HETATM   21  N   UNL     1     -10.448  16.659  65.352  1.00  0.00    -0.622 NA 
HETATM   22  N   UNL     1     -10.766  15.366  65.598  1.00  0.00    -0.349 NA 
BRANCH  22  23
HETATM   23  C   UNL     1     -10.000  14.676  66.634  1.00  0.00    -0.274 C  
HETATM   24  C   UNL     1      -9.633  15.612  67.819  1.00  0.00    -0.209 C  
HETATM   25  C   UNL     1     -10.874  15.991  68.632  1.00  0.00    -0.301 C  
HETATM   26  C   UNL     1     -11.550  14.749  69.203  1.00  0.00    -0.330 C  
HETATM   27  C   UNL     1     -11.827  13.692  68.133  1.00  0.00    -0.407 C  
HETATM   28  C   UNL     1     -10.604  13.407  67.258  1.00  0.00    -0.256 C  
ENDBRANCH  22  23
ENDBRANCH  17  18
ENDBRANCH  16  17
ENDBRANCH  15  16
ENDBRANCH  14  15
ENDBRANCH  13  14
ENDBRANCH  11  13
TORSDOF 7
ENDMDL
MODEL       41
REMARK 921   NORMALIZED FREE ENERGY PREDICTED BY IDOCK:   -6.26 KCAL/MOL
REMARK 922        TOTAL FREE ENERGY PREDICTED BY IDOCK:   -9.84 KCAL/MOL
REMARK 923 INTER-LIGAND FREE ENERGY PREDICTED BY IDOCK:   -8.80 KCAL/MOL
REMARK 924 INTRA-LIGAND FREE ENERGY PREDICTED BY IDOCK:   -1.04 KCAL/MOL
REMARK 927      BINDING AFFINITY PREDICTED BY RF-SCORE:    0.00 PKD
ROOT
HETATM    1  O   UNL     1     -11.503   6.676  72.944  1.00  0.00    -0.191 OA 
HETATM    2  C   UNL     1     -11.275   7.508  72.068  1.00  0.00    -0.257 C  
HETATM    3  C   UNL     1     -12.377   8.238  71.337  1.00  0.00    -0.326 C  
HETATM    4  C   UNL     1     -11.972   9.648  70.924  1.00  0.00    -0.391 C  
HETATM    5  C   UNL     1     -10.591   9.697  70.325  1.00  0.00    -0.333 A  
HETATM    6  C   UNL     1      -9.653   8.730  70.706  1.00  0.00    -0.208 A  
HETATM    7  N   UNL     1     -10.004   7.728  71.614  1.00  0.00    -0.172 N  
HETATM    8  C   UNL     1      -8.349   8.790  70.223  1.00  0.00    -0.139 A  
HETATM    9  C   UNL     1      -7.971   9.826  69.361  1.00  0.00    -0.125 A  
HETATM   10  H   UNL     1      -9.263   7.120  71.962  1.00  0.00     0.000 HD 
HETATM   11  C   UNL     1      -8.878  10.825  68.992  1.00  0.00    -0.127 A  
HETATM   12  C   UNL     1     -10.192  10.754  69.477  1.00  0.00    -0.146 A  
ENDROOT
BRANCH  11  13
HETATM   13  O   UNL     1      -8.349  11.798  68.177  1.00  0.00    -0.141 OA 
BRANCH  13  14
HETATM   14  C   UNL     1      -8.653  13.155  68.501  1.00  0.00    -0.056 C  
BRANCH  14  15
HETATM   15  C   UNL     1      -7.718  14.128  67.744  1.00  0.00    -0.175 C  
BRANCH  15  16
HETATM   16  C   UNL     1      -8.573  15.107  66.926  1.00  0.00    -0.289 C  
BRANCH  16  17
HETATM   17  C   UNL     1     -10.099  15.018  67.044  1.00  0.00    -0.244 C  
BRANCH  17  18
HETATM   18  C   UNL     1     -10.860  15.367  65.815  1.00  0.00    -0.343 A  
HETATM   19  N   UNL     1     -10.621  16.472  65.127  1.00  0.00    -0.674 NA 
HETATM   20  N   UNL     1     -11.420  16.439  64.026  1.00  0.00    -1.073 NA 
HETATM   21  N   UNL     1     -12.164  15.352  64.025  1.00  0.00    -0.562 NA 
HETATM   22  N   UNL     1     -11.789  14.629  65.107  1.00  0.00    -0.365 NA 
BRANCH  22  23
HETATM   23  C   UNL     1     -12.478  13.361  65.333  1.00  0.00    -0.494 C  
HETATM   24  C   UNL     1     -12.781  12.608  64.008  1.00  0.00    -0.363 C  
HETATM   25  C   UNL     1     -11.496  12.085  63.361  1.00  0.00    -0.489 C  
HETATM   26  C   UNL     1     -10.769  11.123  64.294  1.00  0.00    -0.403 C  
HETATM   27  C   UNL     1     -10.548  11.717  65.686  1.00  0.00    -0.324 C  
HETATM   28  C   UNL     1     -11.821  12.334  66.271  1.00  0.00    -0.387 C  
ENDBRANCH  22  23
ENDBRANCH  17  18
ENDBRANCH  16  17
ENDBRANCH  15  16
ENDBRANCH  14  15
ENDBRANCH  13  14
ENDBRANCH  11  13
TORSDOF 7
ENDMDL
MODEL       42
REMARK 921   NORMALIZED FREE ENERGY PREDICTED BY IDOCK:   -6.26 KCAL/MOL
REMARK 922        TOTAL FREE ENERGY PREDICTED BY IDOCK:   -9.83 KCAL/MOL
REMARK 923 INTER-LIGAND FREE ENERGY PREDICTED BY IDOCK:   -8.75 KCAL/MOL
REMARK 924 INTRA-LIGAND FREE ENERGY PREDICTED BY IDOCK:   -1.08 KCAL/MOL
REMARK 927      BINDING AFFINITY PREDICTED BY RF-SCORE:    0.00 PKD
ROOT
HETATM    1  O   UNL     1     -12.605  14.967  63.723  1.00  0.00    -0.791 OA 
HETATM    2  C   UNL     1     -12.324  14.050  64.492  1.00  0.00    -0.378 C  
HETATM    3  C   UNL     1     -12.121  12.630  64.020  1.00  0.00    -0.542 C  
HETATM    4  C   UNL     1     -11.097  11.874  64.859  1.00  0.00    -0.363 C  
HETATM    5  C   UNL     1     -11.291  12.092  66.336  1.00  0.00    -0.411 A  
HETATM    6  C   UNL     1     -11.884  13.283  66.773  1.00  0.00    -0.394 A  
HETATM    7  N   UNL     1     -12.302  14.242  65.846  1.00  0.00    -0.425 N  
HETATM    8  C   UNL     1     -12.013  13.544  68.133  1.00  0.00    -0.376 A  
HETATM    9  C   UNL     1     -11.540  12.616  69.070  1.00  0.00    -0.367 A  
HETATM   10  H   UNL     1     -12.612  15.145  66.203  1.00  0.00     0.000 HD 
HETATM   11  C   UNL     1     -10.913  11.435  68.661  1.00  0.00    -0.220 A  
HETATM   12  C   UNL     1     -10.793  11.175  67.289  1.00  0.00    -0.326 A  
ENDROOT
BRANCH  11  13
HETATM   13  O   UNL     1     -10.464  10.646  69.695  1.00  0.00    -0.228 OA 
BRANCH  13  14
HETATM   14  C   UNL     1     -11.407  10.306  70.711  1.00  0.00    -0.337 C  
BRANCH  14  15
HETATM   15  C   UNL     1     -10.827   9.241  71.672  1.00  0.00    -0.418 C  
BRANCH  15  16
HETATM   16  C   UNL     1     -11.951   8.284  72.093  1.00  0.00    -0.429 C  
BRANCH  16  17
HETATM   17  C   UNL     1     -12.323   7.133  71.151  1.00  0.00    -0.404 C  
BRANCH  17  18
HETATM   18  C   UNL     1     -11.255   6.128  70.908  1.00  0.00    -0.299 A  
HETATM   19  N   UNL     1     -10.719   5.417  71.888  1.00  0.00    -0.227 NA 
HETATM   20  N   UNL     1      -9.848   4.541  71.318  1.00  0.00    -0.181 NA 
HETATM   21  N   UNL     1      -9.814   4.706  70.011  1.00  0.00    -0.211 NA 
HETATM   22  N   UNL     1     -10.734   5.656  69.719  1.00  0.00    -0.335 NA 
BRANCH  22  23
HETATM   23  C   UNL     1     -10.888   6.025  68.314  1.00  0.00    -0.284 C  
HETATM   24  C   UNL     1     -10.570   7.524  68.058  1.00  0.00    -0.217 C  
HETATM   25  C   UNL     1      -9.076   7.813  68.233  1.00  0.00    -0.130 C  
HETATM   26  C   UNL     1      -8.245   6.982  67.262  1.00  0.00    -0.119 C  
HETATM   27  C   UNL     1      -8.585   5.493  67.329  1.00  0.00    -0.108 C  
HETATM   28  C   UNL     1     -10.093   5.231  67.264  1.00  0.00    -0.234 C  
ENDBRANCH  22  23
ENDBRANCH  17  18
ENDBRANCH  16  17
ENDBRANCH  15  16
ENDBRANCH  14  15
ENDBRANCH  13  14
ENDBRANCH  11  13
TORSDOF 7
ENDMDL
MODEL       43
REMARK 921   NORMALIZED FREE ENERGY PREDICTED BY IDOCK:   -6.23 KCAL/MOL
REMARK 922        TOTAL FREE ENERGY PREDICTED BY IDOCK:   -9.79 KCAL/MOL
REMARK 923 INTER-LIGAND FREE ENERGY PREDICTED BY IDOCK:   -8.36 KCAL/MOL
REMARK 924 INTRA-LIGAND FREE ENERGY PREDICTED BY IDOCK:   -1.43 KCAL/MOL
REMARK 927      BINDING AFFINITY PREDICTED BY RF-SCORE:    0.00 PKD
ROOT
HETATM    1  O   UNL     1     -13.361  12.204  64.283  1.00  0.00    -0.761 OA 
HETATM    2  C   UNL     1     -12.402  12.789  64.781  1.00  0.00    -0.478 C  
HETATM    3  C   UNL     1     -12.068  14.225  64.451  1.00  0.00    -0.490 C  
HETATM    4  C   UNL     1     -11.431  14.962  65.623  1.00  0.00    -0.290 C  
HETATM    5  C   UNL     1     -10.370  14.144  66.309  1.00  0.00    -0.294 A  
HETATM    6  C   UNL     1     -10.456  12.747  66.263  1.00  0.00    -0.257 A  
HETATM    7  N   UNL     1     -11.503  12.129  65.572  1.00  0.00    -0.350 N  
HETATM    8  C   UNL     1      -9.530  11.964  66.945  1.00  0.00    -0.205 A  
HETATM    9  C   UNL     1      -8.515  12.575  67.691  1.00  0.00    -0.171 A  
HETATM   10  H   UNL     1     -11.603  11.119  65.665  1.00  0.00     0.000 HD 
HETATM   11  C   UNL     1      -8.426  13.967  67.783  1.00  0.00    -0.184 A  
HETATM   12  C   UNL     1      -9.358  14.750  67.087  1.00  0.00    -0.233 A  
ENDROOT
BRANCH  11  13
HETATM   13  O   UNL     1      -7.403  14.418  68.586  1.00  0.00    -0.109 OA 
BRANCH  13  14
HETATM   14  C   UNL     1      -6.074  14.276  68.086  1.00  0.00    -0.137 C  
BRANCH  14  15
HETATM   15  C   UNL     1      -5.362  15.647  68.009  1.00  0.00    -0.133 C  
BRANCH  15  16
HETATM   16  C   UNL     1      -6.292  16.725  68.584  1.00  0.00    -0.154 C  
BRANCH  16  17
HETATM   17  C   UNL     1      -5.941  18.198  68.344  1.00  0.00    -0.180 C  
BRANCH  17  18
HETATM   18  C   UNL     1      -6.341  18.748  67.023  1.00  0.00    -0.179 A  
HETATM   19  N   UNL     1      -5.679  18.469  65.912  1.00  0.00    -0.163 NA 
HETATM   20  N   UNL     1      -6.353  19.052  64.885  1.00  0.00    -0.468 NA 
HETATM   21  N   UNL     1      -7.406  19.705  65.333  1.00  0.00    -0.409 NA 
HETATM   22  N   UNL     1      -7.458  19.481  66.668  1.00  0.00    -0.239 NA 
BRANCH  22  23
HETATM   23  C   UNL     1      -8.550  20.108  67.408  1.00  0.00    -0.343 C  
HETATM   24  C   UNL     1      -9.870  20.155  66.588  1.00  0.00    -0.588 C  
HETATM   25  C   UNL     1     -10.459  18.754  66.404  1.00  0.00    -0.485 C  
HETATM   26  C   UNL     1     -10.765  18.112  67.753  1.00  0.00    -0.355 C  
HETATM   27  C   UNL     1      -9.565  18.144  68.700  1.00  0.00    -0.342 C  
HETATM   28  C   UNL     1      -8.920  19.530  68.784  1.00  0.00    -0.364 C  
ENDBRANCH  22  23
ENDBRANCH  17  18
ENDBRANCH  16  17
ENDBRANCH  15  16
ENDBRANCH  14  15
ENDBRANCH  13  14
ENDBRANCH  11  13
TORSDOF 7
ENDMDL
MODEL       44
REMARK 921   NORMALIZED FREE ENERGY PREDICTED BY IDOCK:   -6.22 KCAL/MOL
REMARK 922        TOTAL FREE ENERGY PREDICTED BY IDOCK:   -9.78 KCAL/MOL
REMARK 923 INTER-LIGAND FREE ENERGY PREDICTED BY IDOCK:   -8.73 KCAL/MOL
REMARK 924 INTRA-LIGAND FREE ENERGY PREDICTED BY IDOCK:   -1.05 KCAL/MOL
REMARK 927      BINDING AFFINITY PREDICTED BY RF-SCORE:    0.00 PKD
ROOT
HETATM    1  O   UNL     1     -10.289  17.899  68.911  1.00  0.00    -0.367 OA 
HETATM    2  C   UNL     1     -10.845  16.830  69.151  1.00  0.00    -0.287 C  
HETATM    3  C   UNL     1     -11.025  15.756  68.104  1.00  0.00    -0.330 C  
HETATM    4  C   UNL     1     -10.993  14.351  68.693  1.00  0.00    -0.264 C  
HETATM    5  C   UNL     1     -11.811  14.236  69.951  1.00  0.00    -0.382 A  
HETATM    6  C   UNL     1     -12.000  15.376  70.744  1.00  0.00    -0.359 A  
HETATM    7  N   UNL     1     -11.448  16.601  70.356  1.00  0.00    -0.409 N  
HETATM    8  C   UNL     1     -12.692  15.287  71.947  1.00  0.00    -0.436 A  
HETATM    9  C   UNL     1     -13.195  14.051  72.373  1.00  0.00    -0.585 A  
HETATM   10  H   UNL     1     -11.499  17.375  71.018  1.00  0.00     0.000 HD 
HETATM   11  C   UNL     1     -12.991  12.891  71.619  1.00  0.00    -0.313 A  
HETATM   12  C   UNL     1     -12.299  12.990  70.404  1.00  0.00    -0.351 A  
ENDROOT
BRANCH  11  13
HETATM   13  O   UNL     1     -13.505  11.749  72.188  1.00  0.00    -0.446 OA 
BRANCH  13  14
HETATM   14  C   UNL     1     -13.130  10.503  71.599  1.00  0.00    -0.446 C  
BRANCH  14  15
HETATM   15  C   UNL     1     -13.741   9.315  72.380  1.00  0.00    -0.517 C  
BRANCH  15  16
HETATM   16  C   UNL     1     -12.667   8.232  72.559  1.00  0.00    -0.225 C  
BRANCH  16  17
HETATM   17  C   UNL     1     -11.280   8.469  71.950  1.00  0.00    -0.397 C  
BRANCH  17  18
HETATM   18  C   UNL     1     -10.816   7.437  70.985  1.00  0.00    -0.239 A  
HETATM   19  N   UNL     1     -11.293   6.203  70.989  1.00  0.00    -0.303 NA 
HETATM   20  N   UNL     1     -10.730   5.552  69.936  1.00  0.00    -0.323 NA 
HETATM   21  N   UNL     1      -9.899   6.346  69.291  1.00  0.00    -0.146 NA 
HETATM   22  N   UNL     1      -9.979   7.557  69.893  1.00  0.00    -0.187 NA 
BRANCH  22  23
HETATM   23  C   UNL     1      -9.139   8.625  69.356  1.00  0.00    -0.149 C  
HETATM   24  C   UNL     1      -8.768   8.393  67.865  1.00  0.00    -0.138 C  
HETATM   25  C   UNL     1      -9.990   8.552  66.958  1.00  0.00    -0.318 C  
HETATM   26  C   UNL     1     -10.582   9.952  67.084  1.00  0.00    -0.295 C  
HETATM   27  C   UNL     1     -10.853  10.341  68.538  1.00  0.00    -0.281 C  
HETATM   28  C   UNL     1      -9.655  10.070  69.451  1.00  0.00    -0.237 C  
ENDBRANCH  22  23
ENDBRANCH  17  18
ENDBRANCH  16  17
ENDBRANCH  15  16
ENDBRANCH  14  15
ENDBRANCH  13  14
ENDBRANCH  11  13
TORSDOF 7
ENDMDL
MODEL       45
REMARK 921   NORMALIZED FREE ENERGY PREDICTED BY IDOCK:   -6.22 KCAL/MOL
REMARK 922        TOTAL FREE ENERGY PREDICTED BY IDOCK:   -9.78 KCAL/MOL
REMARK 923 INTER-LIGAND FREE ENERGY PREDICTED BY IDOCK:   -8.49 KCAL/MOL
REMARK 924 INTRA-LIGAND FREE ENERGY PREDICTED BY IDOCK:   -1.29 KCAL/MOL
REMARK 927      BINDING AFFINITY PREDICTED BY RF-SCORE:    0.00 PKD
ROOT
HETATM    1  O   UNL     1     -11.388  16.458  68.576  1.00  0.00    -0.371 OA 
HETATM    2  C   UNL     1     -11.678  15.602  69.409  1.00  0.00    -0.383 C  
HETATM    3  C   UNL     1     -12.019  15.946  70.840  1.00  0.00    -0.432 C  
HETATM    4  C   UNL     1     -13.030  14.982  71.449  1.00  0.00    -0.445 C  
HETATM    5  C   UNL     1     -12.711  13.543  71.140  1.00  0.00    -0.425 A  
HETATM    6  C   UNL     1     -12.002  13.243  69.970  1.00  0.00    -0.329 A  
HETATM    7  N   UNL     1     -11.585  14.269  69.118  1.00  0.00    -0.285 N  
HETATM    8  C   UNL     1     -11.753  11.920  69.621  1.00  0.00    -0.413 A  
HETATM    9  C   UNL     1     -12.222  10.883  70.437  1.00  0.00    -0.453 A  
HETATM   10  H   UNL     1     -11.184  14.006  68.218  1.00  0.00     0.000 HD 
HETATM   11  C   UNL     1     -12.963  11.153  71.592  1.00  0.00    -0.443 A  
HETATM   12  C   UNL     1     -13.203  12.489  71.941  1.00  0.00    -0.495 A  
ENDROOT
BRANCH  11  13
HETATM   13  O   UNL     1     -13.391  10.032  72.265  1.00  0.00    -0.429 OA 
BRANCH  13  14
HETATM   14  C   UNL     1     -13.893   8.952  71.478  1.00  0.00    -0.336 C  
BRANCH  14  15
HETATM   15  C   UNL     1     -13.237   7.613  71.891  1.00  0.00    -0.293 C  
BRANCH  15  16
HETATM   16  C   UNL     1     -12.048   7.905  72.817  1.00  0.00    -0.154 C  
BRANCH  16  17
HETATM   17  C   UNL     1     -10.677   7.324  72.452  1.00  0.00    -0.283 C  
BRANCH  17  18
HETATM   18  C   UNL     1      -9.838   8.166  71.559  1.00  0.00    -0.179 A  
HETATM   19  N   UNL     1      -8.830   8.892  72.017  1.00  0.00    -0.382 NA 
HETATM   20  N   UNL     1      -8.225   9.462  70.940  1.00  0.00    -0.298 NA 
HETATM   21  N   UNL     1      -8.846   9.126  69.828  1.00  0.00    -0.149 NA 
HETATM   22  N   UNL     1      -9.827   8.262  70.181  1.00  0.00    -0.183 NA 
BRANCH  22  23
HETATM   23  C   UNL     1     -10.672   7.739  69.111  1.00  0.00    -0.126 C  
HETATM   24  C   UNL     1      -9.943   7.721  67.738  1.00  0.00    -0.220 C  
HETATM   25  C   UNL     1      -8.827   6.674  67.715  1.00  0.00    -0.114 C  
HETATM   26  C   UNL     1      -9.386   5.278  67.970  1.00  0.00    -0.135 C  
HETATM   27  C   UNL     1     -10.247   5.217  69.232  1.00  0.00    -0.276 C  
HETATM   28  C   UNL     1     -11.286   6.340  69.289  1.00  0.00    -0.458 C  
ENDBRANCH  22  23
ENDBRANCH  17  18
ENDBRANCH  16  17
ENDBRANCH  15  16
ENDBRANCH  14  15
ENDBRANCH  13  14
ENDBRANCH  11  13
TORSDOF 7
ENDMDL
MODEL       46
REMARK 921   NORMALIZED FREE ENERGY PREDICTED BY IDOCK:   -6.20 KCAL/MOL
REMARK 922        TOTAL FREE ENERGY PREDICTED BY IDOCK:   -9.76 KCAL/MOL
REMARK 923 INTER-LIGAND FREE ENERGY PREDICTED BY IDOCK:   -9.23 KCAL/MOL
REMARK 924 INTRA-LIGAND FREE ENERGY PREDICTED BY IDOCK:   -0.53 KCAL/MOL
REMARK 927      BINDING AFFINITY PREDICTED BY RF-SCORE:    0.00 PKD
ROOT
HETATM    1  O   UNL     1      -7.375  21.184  67.303  1.00  0.00    -0.430 OA 
HETATM    2  C   UNL     1      -8.214  20.306  67.112  1.00  0.00    -0.334 C  
HETATM    3  C   UNL     1      -9.699  20.570  67.198  1.00  0.00    -0.581 C  
HETATM    4  C   UNL     1     -10.505  19.696  66.245  1.00  0.00    -0.621 C  
HETATM    5  C   UNL     1     -10.055  18.259  66.262  1.00  0.00    -0.389 A  
HETATM    6  C   UNL     1      -8.727  17.969  66.600  1.00  0.00    -0.259 A  
HETATM    7  N   UNL     1      -7.845  19.001  66.933  1.00  0.00    -0.239 N  
HETATM    8  C   UNL     1      -8.262  16.659  66.557  1.00  0.00    -0.330 A  
HETATM    9  C   UNL     1      -9.122  15.626  66.164  1.00  0.00    -0.378 A  
HETATM   10  H   UNL     1      -6.860  18.765  67.050  1.00  0.00     0.000 HD 
HETATM   11  C   UNL     1     -10.443  15.892  65.788  1.00  0.00    -0.370 A  
HETATM   12  C   UNL     1     -10.906  17.213  65.841  1.00  0.00    -0.017 A  
ENDROOT
BRANCH  11  13
HETATM   13  O   UNL     1     -11.151  14.782  65.386  1.00  0.00    -0.325 OA 
BRANCH  13  14
HETATM   14  C   UNL     1     -11.119  13.643  66.246  1.00  0.00    -0.301 C  
BRANCH  14  15
HETATM   15  C   UNL     1     -11.807  13.950  67.597  1.00  0.00    -0.422 C  
BRANCH  15  16
HETATM   16  C   UNL     1     -11.075  13.192  68.713  1.00  0.00    -0.309 C  
BRANCH  16  17
HETATM   17  C   UNL     1     -11.846  12.127  69.502  1.00  0.00    -0.386 C  
BRANCH  17  18
HETATM   18  C   UNL     1     -11.376  10.728  69.323  1.00  0.00    -0.286 A  
HETATM   19  N   UNL     1     -10.882  10.291  68.176  1.00  0.00    -0.246 NA 
HETATM   20  N   UNL     1     -10.470   9.010  68.379  1.00  0.00    -0.207 NA 
HETATM   21  N   UNL     1     -10.715   8.635  69.618  1.00  0.00    -0.224 NA 
HETATM   22  N   UNL     1     -11.230   9.716  70.252  1.00  0.00    -0.258 NA 
BRANCH  22  23
HETATM   23  C   UNL     1     -11.592   9.554  71.657  1.00  0.00    -0.381 C  
HETATM   24  C   UNL     1     -13.086   9.887  71.926  1.00  0.00    -0.559 C  
HETATM   25  C   UNL     1     -14.010   8.836  71.304  1.00  0.00    -0.230 C  
HETATM   26  C   UNL     1     -13.725   7.453  71.879  1.00  0.00    -0.329 C  
HETATM   27  C   UNL     1     -12.244   7.081  71.797  1.00  0.00    -0.387 C  
HETATM   28  C   UNL     1     -11.329   8.192  72.322  1.00  0.00    -0.429 C  
ENDBRANCH  22  23
ENDBRANCH  17  18
ENDBRANCH  16  17
ENDBRANCH  15  16
ENDBRANCH  14  15
ENDBRANCH  13  14
ENDBRANCH  11  13
TORSDOF 7
ENDMDL
MODEL       47
REMARK 921   NORMALIZED FREE ENERGY PREDICTED BY IDOCK:   -6.18 KCAL/MOL
REMARK 922        TOTAL FREE ENERGY PREDICTED BY IDOCK:   -9.73 KCAL/MOL
REMARK 923 INTER-LIGAND FREE ENERGY PREDICTED BY IDOCK:   -8.43 KCAL/MOL
REMARK 924 INTRA-LIGAND FREE ENERGY PREDICTED BY IDOCK:   -1.30 KCAL/MOL
REMARK 927      BINDING AFFINITY PREDICTED BY RF-SCORE:    0.00 PKD
ROOT
HETATM    1  O   UNL     1     -12.619  14.902  63.902  1.00  0.00    -0.831 OA 
HETATM    2  C   UNL     1     -12.115  13.831  64.232  1.00  0.00    -0.440 C  
HETATM    3  C   UNL     1     -12.261  12.577  63.402  1.00  0.00    -0.613 C  
HETATM    4  C   UNL     1     -11.047  11.662  63.504  1.00  0.00    -0.476 C  
HETATM    5  C   UNL     1     -10.564  11.503  64.922  1.00  0.00    -0.360 A  
HETATM    6  C   UNL     1     -10.803  12.535  65.838  1.00  0.00    -0.269 A  
HETATM    7  N   UNL     1     -11.495  13.683  65.441  1.00  0.00    -0.307 N  
HETATM    8  C   UNL     1     -10.310  12.447  67.136  1.00  0.00    -0.232 A  
HETATM    9  C   UNL     1      -9.562  11.329  67.525  1.00  0.00    -0.181 A  
HETATM   10  H   UNL     1     -11.540  14.462  66.097  1.00  0.00     0.000 HD 
HETATM   11  C   UNL     1      -9.279  10.301  66.620  1.00  0.00    -0.155 A  
HETATM   12  C   UNL     1      -9.786  10.392  65.316  1.00  0.00    -0.339 A  
ENDROOT
BRANCH  11  13
HETATM   13  O   UNL     1      -8.499   9.292  67.136  1.00  0.00    -0.122 OA 
BRANCH  13  14
HETATM   14  C   UNL     1      -9.170   8.115  67.585  1.00  0.00    -0.137 C  
BRANCH  14  15
HETATM   15  C   UNL     1      -8.458   7.507  68.816  1.00  0.00    -0.129 C  
BRANCH  15  16
HETATM   16  C   UNL     1      -7.593   8.589  69.478  1.00  0.00    -0.089 C  
BRANCH  16  17
HETATM   17  C   UNL     1      -8.232   9.486  70.545  1.00  0.00    -0.203 C  
BRANCH  17  18
HETATM   18  C   UNL     1      -8.946   8.775  71.638  1.00  0.00    -0.231 A  
HETATM   19  N   UNL     1      -8.360   8.477  72.787  1.00  0.00    -0.384 NA 
HETATM   20  N   UNL     1      -9.307   7.918  73.587  1.00  0.00    -0.272 NA 
HETATM   21  N   UNL     1     -10.461   7.841  72.956  1.00  0.00    -0.349 NA 
HETATM   22  N   UNL     1     -10.279   8.429  71.749  1.00  0.00    -0.228 NA 
BRANCH  22  23
HETATM   23  C   UNL     1     -11.427   8.470  70.848  1.00  0.00    -0.267 C  
HETATM   24  C   UNL     1     -12.777   8.318  71.603  1.00  0.00    -0.351 C  
HETATM   25  C   UNL     1     -13.079   9.555  72.454  1.00  0.00    -0.430 C  
HETATM   26  C   UNL     1     -13.162  10.805  71.586  1.00  0.00    -0.487 C  
HETATM   27  C   UNL     1     -11.937  10.974  70.687  1.00  0.00    -0.464 C  
HETATM   28  C   UNL     1     -11.584   9.692  69.928  1.00  0.00    -0.077 C  
ENDBRANCH  22  23
ENDBRANCH  17  18
ENDBRANCH  16  17
ENDBRANCH  15  16
ENDBRANCH  14  15
ENDBRANCH  13  14
ENDBRANCH  11  13
TORSDOF 7
ENDMDL
MODEL       48
REMARK 921   NORMALIZED FREE ENERGY PREDICTED BY IDOCK:   -6.18 KCAL/MOL
REMARK 922        TOTAL FREE ENERGY PREDICTED BY IDOCK:   -9.73 KCAL/MOL
REMARK 923 INTER-LIGAND FREE ENERGY PREDICTED BY IDOCK:   -9.04 KCAL/MOL
REMARK 924 INTRA-LIGAND FREE ENERGY PREDICTED BY IDOCK:   -0.69 KCAL/MOL
REMARK 927      BINDING AFFINITY PREDICTED BY RF-SCORE:    0.00 PKD
ROOT
HETATM    1  O   UNL     1     -11.730   8.628  72.174  1.00  0.00    -0.341 OA 
HETATM    2  C   UNL     1     -11.862   9.493  71.311  1.00  0.00    -0.373 C  
HETATM    3  C   UNL     1     -12.767  10.689  71.494  1.00  0.00    -0.549 C  
HETATM    4  C   UNL     1     -12.250  11.929  70.774  1.00  0.00    -0.401 C  
HETATM    5  C   UNL     1     -11.774  11.627  69.378  1.00  0.00    -0.405 A  
HETATM    6  C   UNL     1     -11.301  10.342  69.087  1.00  0.00    -0.186 A  
HETATM    7  N   UNL     1     -11.290   9.355  70.077  1.00  0.00    -0.393 N  
HETATM    8  C   UNL     1     -10.790  10.052  67.826  1.00  0.00    -0.337 A  
HETATM    9  C   UNL     1     -10.739  11.051  66.846  1.00  0.00    -0.325 A  
HETATM   10  H   UNL     1     -10.825   8.473  69.864  1.00  0.00     0.000 HD 
HETATM   11  C   UNL     1     -11.173  12.352  67.121  1.00  0.00    -0.298 A  
HETATM   12  C   UNL     1     -11.693  12.635  68.391  1.00  0.00    -0.377 A  
ENDROOT
BRANCH  11  13
HETATM   13  O   UNL     1     -11.020  13.232  66.074  1.00  0.00    -0.278 OA 
BRANCH  13  14
HETATM   14  C   UNL     1     -11.603  14.527  66.223  1.00  0.00    -0.360 C  
BRANCH  14  15
HETATM   15  C   UNL     1     -10.896  15.560  65.314  1.00  0.00    -0.425 C  
BRANCH  15  16
HETATM   16  C   UNL     1      -9.468  15.786  65.832  1.00  0.00    -0.377 C  
BRANCH  16  17
HETATM   17  C   UNL     1      -9.271  16.092  67.321  1.00  0.00    -0.215 C  
BRANCH  17  18
HETATM   18  C   UNL     1      -9.420  17.519  67.710  1.00  0.00    -0.269 A  
HETATM   19  N   UNL     1     -10.602  18.064  67.952  1.00  0.00    -0.394 NA 
HETATM   20  N   UNL     1     -10.377  19.341  68.364  1.00  0.00    -0.387 NA 
HETATM   21  N   UNL     1      -9.087  19.609  68.364  1.00  0.00    -0.345 NA 
HETATM   22  N   UNL     1      -8.457  18.461  68.015  1.00  0.00    -0.269 NA 
BRANCH  22  23
HETATM   23  C   UNL     1      -6.999  18.498  67.939  1.00  0.00    -0.220 C  
HETATM   24  C   UNL     1      -6.474  18.236  66.500  1.00  0.00    -0.229 C  
HETATM   25  C   UNL     1      -6.805  19.404  65.567  1.00  0.00    -0.303 C  
HETATM   26  C   UNL     1      -6.175  20.698  66.071  1.00  0.00    -0.266 C  
HETATM   27  C   UNL     1      -6.511  20.979  67.536  1.00  0.00    -0.420 C  
HETATM   28  C   UNL     1      -6.278  19.763  68.436  1.00  0.00    -0.292 C  
ENDBRANCH  22  23
ENDBRANCH  17  18
ENDBRANCH  16  17
ENDBRANCH  15  16
ENDBRANCH  14  15
ENDBRANCH  13  14
ENDBRANCH  11  13
TORSDOF 7
ENDMDL
MODEL       49
REMARK 921   NORMALIZED FREE ENERGY PREDICTED BY IDOCK:   -6.18 KCAL/MOL
REMARK 922        TOTAL FREE ENERGY PREDICTED BY IDOCK:   -9.72 KCAL/MOL
REMARK 923 INTER-LIGAND FREE ENERGY PREDICTED BY IDOCK:   -8.17 KCAL/MOL
REMARK 924 INTRA-LIGAND FREE ENERGY PREDICTED BY IDOCK:   -1.54 KCAL/MOL
REMARK 927      BINDING AFFINITY PREDICTED BY RF-SCORE:    0.00 PKD
ROOT
HETATM    1  O   UNL     1     -11.480  16.068  68.298  1.00  0.00    -0.355 OA 
HETATM    2  C   UNL     1     -11.717  14.921  68.671  1.00  0.00    -0.330 C  
HETATM    3  C   UNL     1     -11.479  13.717  67.790  1.00  0.00    -0.354 C  
HETATM    4  C   UNL     1     -11.088  12.477  68.584  1.00  0.00    -0.305 C  
HETATM    5  C   UNL     1     -11.945  12.283  69.807  1.00  0.00    -0.365 A  
HETATM    6  C   UNL     1     -12.529  13.404  70.409  1.00  0.00    -0.252 A  
HETATM    7  N   UNL     1     -12.330  14.678  69.868  1.00  0.00    -0.452 N  
HETATM    8  C   UNL     1     -13.270  13.266  71.579  1.00  0.00    -0.383 A  
HETATM    9  C   UNL     1     -13.422  12.002  72.163  1.00  0.00    -0.338 A  
HETATM   10  H   UNL     1     -12.665  15.479  70.402  1.00  0.00     0.000 HD 
HETATM   11  C   UNL     1     -12.820  10.871  71.601  1.00  0.00    -0.449 A  
HETATM   12  C   UNL     1     -12.082  11.017  70.419  1.00  0.00    -0.463 A  
ENDROOT
BRANCH  11  13
HETATM   13  O   UNL     1     -13.024   9.710  72.311  1.00  0.00    -0.395 OA 
BRANCH  13  14
HETATM   14  C   UNL     1     -14.275   9.047  72.128  1.00  0.00    -0.335 C  
BRANCH  14  15
HETATM   15  C   UNL     1     -14.105   7.774  71.264  1.00  0.00    -0.365 C  
BRANCH  15  16
HETATM   16  C   UNL     1     -12.807   7.063  71.673  1.00  0.00    -0.408 C  
BRANCH  16  17
HETATM   17  C   UNL     1     -11.756   6.781  70.593  1.00  0.00    -0.440 C  
BRANCH  17  18
HETATM   18  C   UNL     1     -10.508   7.585  70.685  1.00  0.00    -0.216 A  
HETATM   19  N   UNL     1     -10.170   8.239  71.784  1.00  0.00    -0.210 NA 
HETATM   20  N   UNL     1      -8.945   8.789  71.562  1.00  0.00    -0.225 NA 
HETATM   21  N   UNL     1      -8.525   8.509  70.345  1.00  0.00    -0.129 NA 
HETATM   22  N   UNL     1      -9.461   7.702  69.791  1.00  0.00    -0.157 NA 
BRANCH  22  23
HETATM   23  C   UNL     1      -9.225   7.249  68.423  1.00  0.00    -0.137 C  
HETATM   24  C   UNL     1     -10.451   7.493  67.499  1.00  0.00    -0.341 C  
HETATM   25  C   UNL     1     -10.660   8.987  67.238  1.00  0.00    -0.301 C  
HETATM   26  C   UNL     1      -9.435   9.599  66.567  1.00  0.00    -0.233 C  
HETATM   27  C   UNL     1      -8.142   9.292  67.324  1.00  0.00    -0.113 C  
HETATM   28  C   UNL     1      -8.004   7.808  67.674  1.00  0.00    -0.124 C  
ENDBRANCH  22  23
ENDBRANCH  17  18
ENDBRANCH  16  17
ENDBRANCH  15  16
ENDBRANCH  14  15
ENDBRANCH  13  14
ENDBRANCH  11  13
TORSDOF 7
ENDMDL
MODEL       50
REMARK 921   NORMALIZED FREE ENERGY PREDICTED BY IDOCK:   -6.16 KCAL/MOL
REMARK 922        TOTAL FREE ENERGY PREDICTED BY IDOCK:   -9.69 KCAL/MOL
REMARK 923 INTER-LIGAND FREE ENERGY PREDICTED BY IDOCK:   -7.91 KCAL/MOL
REMARK 924 INTRA-LIGAND FREE ENERGY PREDICTED BY IDOCK:   -1.78 KCAL/MOL
REMARK 927      BINDING AFFINITY PREDICTED BY RF-SCORE:    0.00 PKD
ROOT
HETATM    1  O   UNL     1      -9.025   6.389  66.499  1.00  0.00    -0.136 OA 
HETATM    2  C   UNL     1      -8.963   7.552  66.893  1.00  0.00    -0.135 C  
HETATM    3  C   UNL     1     -10.063   8.193  67.706  1.00  0.00    -0.260 C  
HETATM    4  C   UNL     1      -9.536   9.229  68.691  1.00  0.00    -0.148 C  
HETATM    5  C   UNL     1      -8.510  10.141  68.072  1.00  0.00    -0.118 A  
HETATM    6  C   UNL     1      -7.742   9.669  67.001  1.00  0.00    -0.095 A  
HETATM    7  N   UNL     1      -7.942   8.376  66.508  1.00  0.00    -0.095 N  
HETATM    8  C   UNL     1      -6.739  10.463  66.454  1.00  0.00    -0.107 A  
HETATM    9  C   UNL     1      -6.490  11.735  66.982  1.00  0.00    -0.147 A  
HETATM   10  H   UNL     1      -7.283   8.025  65.814  1.00  0.00     0.000 HD 
HETATM   11  C   UNL     1      -7.218  12.218  68.074  1.00  0.00    -0.102 A  
HETATM   12  C   UNL     1      -8.232  11.416  68.615  1.00  0.00    -0.142 A  
ENDROOT
BRANCH  11  13
HETATM   13  O   UNL     1      -6.830  13.465  68.507  1.00  0.00    -0.084 OA 
BRANCH  13  14
HETATM   14  C   UNL     1      -7.292  14.587  67.756  1.00  0.00    -0.175 C  
BRANCH  14  15
HETATM   15  C   UNL     1      -8.403  15.346  68.521  1.00  0.00    -0.151 C  
BRANCH  15  16
HETATM   16  C   UNL     1      -9.609  15.535  67.590  1.00  0.00    -0.210 C  
BRANCH  16  17
HETATM   17  C   UNL     1      -9.417  15.300  66.087  1.00  0.00    -0.361 C  
BRANCH  17  18
HETATM   18  C   UNL     1     -10.640  15.436  65.254  1.00  0.00    -0.428 A  
HETATM   19  N   UNL     1     -10.849  16.484  64.473  1.00  0.00    -0.794 NA 
HETATM   20  N   UNL     1     -12.003  16.252  63.790  1.00  0.00    -0.766 NA 
HETATM   21  N   UNL     1     -12.527  15.096  64.144  1.00  0.00    -0.714 NA 
HETATM   22  N   UNL     1     -11.659  14.533  65.019  1.00  0.00    -0.367 NA 
BRANCH  22  23
HETATM   23  C   UNL     1     -12.019  13.227  65.567  1.00  0.00    -0.405 C  
HETATM   24  C   UNL     1     -12.659  12.294  64.501  1.00  0.00    -0.416 C  
HETATM   25  C   UNL     1     -11.628  11.855  63.457  1.00  0.00    -0.537 C  
HETATM   26  C   UNL     1     -10.477  11.102  64.114  1.00  0.00    -0.442 C  
HETATM   27  C   UNL     1      -9.864  11.875  65.281  1.00  0.00    -0.255 C  
HETATM   28  C   UNL     1     -10.920  12.402  66.256  1.00  0.00    -0.323 C  
ENDBRANCH  22  23
ENDBRANCH  17  18
ENDBRANCH  16  17
ENDBRANCH  15  16
ENDBRANCH  14  15
ENDBRANCH  13  14
ENDBRANCH  11  13
TORSDOF 7
ENDMDL
MODEL       51
REMARK 921   NORMALIZED FREE ENERGY PREDICTED BY IDOCK:   -6.15 KCAL/MOL
REMARK 922        TOTAL FREE ENERGY PREDICTED BY IDOCK:   -9.68 KCAL/MOL
REMARK 923 INTER-LIGAND FREE ENERGY PREDICTED BY IDOCK:   -9.18 KCAL/MOL
REMARK 924 INTRA-LIGAND FREE ENERGY PREDICTED BY IDOCK:   -0.50 KCAL/MOL
REMARK 927      BINDING AFFINITY PREDICTED BY RF-SCORE:    0.00 PKD
ROOT
HETATM    1  O   UNL     1     -10.675   7.742  73.425  1.00  0.00    -0.348 OA 
HETATM    2  C   UNL     1     -11.052   8.395  72.454  1.00  0.00    -0.361 C  
HETATM    3  C   UNL     1     -12.512   8.545  72.096  1.00  0.00    -0.437 C  
HETATM    4  C   UNL     1     -12.819   9.888  71.443  1.00  0.00    -0.505 C  
HETATM    5  C   UNL     1     -11.806  10.262  70.394  1.00  0.00    -0.396 A  
HETATM    6  C   UNL     1     -10.501   9.765  70.504  1.00  0.00    -0.301 A  
HETATM    7  N   UNL     1     -10.157   8.921  71.564  1.00  0.00    -0.297 N  
HETATM    8  C   UNL     1      -9.525  10.148  69.590  1.00  0.00    -0.226 A  
HETATM    9  C   UNL     1      -9.845  11.043  68.561  1.00  0.00    -0.194 A  
HETATM   10  H   UNL     1      -9.173   8.681  71.681  1.00  0.00     0.000 HD 
HETATM   11  C   UNL     1     -11.131  11.581  68.448  1.00  0.00    -0.235 A  
HETATM   12  C   UNL     1     -12.111  11.185  69.369  1.00  0.00    -0.396 A  
ENDROOT
BRANCH  11  13
HETATM   13  O   UNL     1     -11.280  12.478  67.415  1.00  0.00    -0.261 OA 
BRANCH  13  14
HETATM   14  C   UNL     1     -10.344  12.394  66.341  1.00  0.00    -0.234 C  
BRANCH  14  15
HETATM   15  C   UNL     1     -10.816  13.231  65.128  1.00  0.00    -0.323 C  
BRANCH  15  16
HETATM   16  C   UNL     1     -10.269  14.659  65.264  1.00  0.00    -0.421 C  
BRANCH  16  17
HETATM   17  C   UNL     1      -9.298  14.964  66.411  1.00  0.00    -0.327 C  
BRANCH  17  18
HETATM   18  C   UNL     1      -8.540  16.237  66.291  1.00  0.00    -0.339 A  
HETATM   19  N   UNL     1      -7.227  16.263  66.128  1.00  0.00     0.169 NA 
HETATM   20  N   UNL     1      -6.869  17.565  65.965  1.00  0.00    -0.270 NA 
HETATM   21  N   UNL     1      -7.925  18.350  66.045  1.00  0.00    -0.488 NA 
HETATM   22  N   UNL     1      -8.998  17.536  66.188  1.00  0.00    -0.491 NA 
BRANCH  22  23
HETATM   23  C   UNL     1     -10.307  18.174  66.303  1.00  0.00    -0.397 C  
HETATM   24  C   UNL     1     -11.003  17.858  67.656  1.00  0.00    -0.104 C  
HETATM   25  C   UNL     1     -10.286  18.542  68.822  1.00  0.00    -0.326 C  
HETATM   26  C   UNL     1     -10.274  20.056  68.640  1.00  0.00    -0.443 C  
HETATM   27  C   UNL     1      -9.738  20.475  67.271  1.00  0.00    -0.600 C  
HETATM   28  C   UNL     1     -10.389  19.699  66.123  1.00  0.00    -0.627 C  
ENDBRANCH  22  23
ENDBRANCH  17  18
ENDBRANCH  16  17
ENDBRANCH  15  16
ENDBRANCH  14  15
ENDBRANCH  13  14
ENDBRANCH  11  13
TORSDOF 7
ENDMDL
MODEL       52
REMARK 921   NORMALIZED FREE ENERGY PREDICTED BY IDOCK:   -6.13 KCAL/MOL
REMARK 922        TOTAL FREE ENERGY PREDICTED BY IDOCK:   -9.66 KCAL/MOL
REMARK 923 INTER-LIGAND FREE ENERGY PREDICTED BY IDOCK:   -8.10 KCAL/MOL
REMARK 924 INTRA-LIGAND FREE ENERGY PREDICTED BY IDOCK:   -1.56 KCAL/MOL
REMARK 927      BINDING AFFINITY PREDICTED BY RF-SCORE:    0.00 PKD
ROOT
HETATM    1  O   UNL     1      -7.900   9.173  71.396  1.00  0.00    -0.310 OA 
HETATM    2  C   UNL     1      -8.606   9.373  70.410  1.00  0.00    -0.230 C  
HETATM    3  C   UNL     1     -10.109   9.217  70.444  1.00  0.00    -0.264 C  
HETATM    4  C   UNL     1     -10.819  10.178  69.498  1.00  0.00    -0.289 C  
HETATM    5  C   UNL     1     -10.159  10.246  68.146  1.00  0.00    -0.175 A  
HETATM    6  C   UNL     1      -8.789   9.974  68.046  1.00  0.00    -0.125 A  
HETATM    7  N   UNL     1      -8.056   9.627  69.185  1.00  0.00    -0.097 N  
HETATM    8  C   UNL     1      -8.138  10.097  66.823  1.00  0.00    -0.119 A  
HETATM    9  C   UNL     1      -8.852  10.504  65.690  1.00  0.00    -0.197 A  
HETATM   10  H   UNL     1      -7.043   9.559  69.095  1.00  0.00     0.000 HD 
HETATM   11  C   UNL     1     -10.213  10.816  65.769  1.00  0.00    -0.257 A  
HETATM   12  C   UNL     1     -10.864  10.683  67.002  1.00  0.00    -0.298 A  
ENDROOT
BRANCH  11  13
HETATM   13  O   UNL     1     -10.765  11.243  64.583  1.00  0.00    -0.321 OA 
BRANCH  13  14
HETATM   14  C   UNL     1     -11.988  11.976  64.661  1.00  0.00    -0.249 C  
BRANCH  14  15
HETATM   15  C   UNL     1     -11.938  13.233  63.761  1.00  0.00    -0.551 C  
BRANCH  15  16
HETATM   16  C   UNL     1     -11.781  14.476  64.649  1.00  0.00    -0.438 C  
BRANCH  16  17
HETATM   17  C   UNL     1     -10.367  14.942  65.012  1.00  0.00    -0.401 C  
BRANCH  17  18
HETATM   18  C   UNL     1     -10.287  16.185  65.825  1.00  0.00    -0.378 A  
HETATM   19  N   UNL     1     -10.571  17.376  65.322  1.00  0.00    -0.640 NA 
HETATM   20  N   UNL     1     -10.487  18.272  66.343  1.00  0.00    -0.385 NA 
HETATM   21  N   UNL     1     -10.136  17.669  67.461  1.00  0.00    -0.323 NA 
HETATM   22  N   UNL     1     -10.063  16.346  67.178  1.00  0.00    -0.265 NA 
BRANCH  22  23
HETATM   23  C   UNL     1      -9.684  15.452  68.269  1.00  0.00    -0.209 C  
HETATM   24  C   UNL     1     -10.209  15.943  69.646  1.00  0.00    -0.280 C  
HETATM   25  C   UNL     1     -11.732  15.821  69.736  1.00  0.00    -0.355 C  
HETATM   26  C   UNL     1     -12.173  14.373  69.553  1.00  0.00    -0.325 C  
HETATM   27  C   UNL     1     -11.589  13.741  68.290  1.00  0.00    -0.373 C  
HETATM   28  C   UNL     1     -10.081  13.970  68.162  1.00  0.00    -0.244 C  
ENDBRANCH  22  23
ENDBRANCH  17  18
ENDBRANCH  16  17
ENDBRANCH  15  16
ENDBRANCH  14  15
ENDBRANCH  13  14
ENDBRANCH  11  13
TORSDOF 7
ENDMDL
MODEL       53
REMARK 921   NORMALIZED FREE ENERGY PREDICTED BY IDOCK:   -6.12 KCAL/MOL
REMARK 922        TOTAL FREE ENERGY PREDICTED BY IDOCK:   -9.64 KCAL/MOL
REMARK 923 INTER-LIGAND FREE ENERGY PREDICTED BY IDOCK:   -8.90 KCAL/MOL
REMARK 924 INTRA-LIGAND FREE ENERGY PREDICTED BY IDOCK:   -0.74 KCAL/MOL
REMARK 927      BINDING AFFINITY PREDICTED BY RF-SCORE:    0.00 PKD
ROOT
HETATM    1  O   UNL     1     -10.126  19.637  69.150  1.00  0.00    -0.438 OA 
HETATM    2  C   UNL     1     -10.076  18.789  68.261  1.00  0.00    -0.383 C  
HETATM    3  C   UNL     1      -9.257  18.978  67.005  1.00  0.00    -0.330 C  
HETATM    4  C   UNL     1      -8.711  17.665  66.459  1.00  0.00    -0.289 C  
HETATM    5  C   UNL     1      -9.744  16.570  66.454  1.00  0.00    -0.305 A  
HETATM    6  C   UNL     1     -10.784  16.616  67.391  1.00  0.00    -0.253 A  
HETATM    7  N   UNL     1     -10.865  17.673  68.301  1.00  0.00    -0.272 N  
HETATM    8  C   UNL     1     -11.715  15.583  67.456  1.00  0.00    -0.006 A  
HETATM    9  C   UNL     1     -11.605  14.489  66.589  1.00  0.00    -0.385 A  
HETATM   10  H   UNL     1     -11.559  17.608  69.045  1.00  0.00     0.000 HD 
HETATM   11  C   UNL     1     -10.557  14.401  65.668  1.00  0.00    -0.329 A  
HETATM   12  C   UNL     1      -9.627  15.448  65.603  1.00  0.00    -0.323 A  
ENDROOT
BRANCH  11  13
HETATM   13  O   UNL     1     -10.559  13.248  64.917  1.00  0.00    -0.325 OA 
BRANCH  13  14
HETATM   14  C   UNL     1     -11.280  12.133  65.439  1.00  0.00    -0.333 C  
BRANCH  14  15
HETATM   15  C   UNL     1     -10.433  11.363  66.480  1.00  0.00    -0.292 C  
BRANCH  15  16
HETATM   16  C   UNL     1     -11.301  11.070  67.711  1.00  0.00    -0.365 C  
BRANCH  16  17
HETATM   17  C   UNL     1     -11.108  11.932  68.964  1.00  0.00    -0.300 C  
BRANCH  17  18
HETATM   18  C   UNL     1     -11.899  11.523  70.155  1.00  0.00    -0.356 A  
HETATM   19  N   UNL     1     -11.789  10.320  70.695  1.00  0.00    -0.320 NA 
HETATM   20  N   UNL     1     -12.573  10.306  71.807  1.00  0.00    -0.413 NA 
HETATM   21  N   UNL     1     -13.182  11.465  71.958  1.00  0.00    -0.455 NA 
HETATM   22  N   UNL     1     -12.730  12.270  70.967  1.00  0.00    -0.293 NA 
BRANCH  22  23
HETATM   23  C   UNL     1     -13.265  13.628  70.915  1.00  0.00    -0.042 C  
HETATM   24  C   UNL     1     -13.819  14.098  72.289  1.00  0.00    -0.643 C  
HETATM   25  C   UNL     1     -12.689  14.310  73.300  1.00  0.00    -0.259 C  
HETATM   26  C   UNL     1     -11.704  15.363  72.803  1.00  0.00    -0.535 C  
HETATM   27  C   UNL     1     -11.203  15.071  71.388  1.00  0.00    -0.260 C  
HETATM   28  C   UNL     1     -12.342  14.752  70.416  1.00  0.00    -0.402 C  
ENDBRANCH  22  23
ENDBRANCH  17  18
ENDBRANCH  16  17
ENDBRANCH  15  16
ENDBRANCH  14  15
ENDBRANCH  13  14
ENDBRANCH  11  13
TORSDOF 7
ENDMDL
MODEL       54
REMARK 921   NORMALIZED FREE ENERGY PREDICTED BY IDOCK:   -6.11 KCAL/MOL
REMARK 922        TOTAL FREE ENERGY PREDICTED BY IDOCK:   -9.62 KCAL/MOL
REMARK 923 INTER-LIGAND FREE ENERGY PREDICTED BY IDOCK:   -8.54 KCAL/MOL
REMARK 924 INTRA-LIGAND FREE ENERGY PREDICTED BY IDOCK:   -1.08 KCAL/MOL
REMARK 927      BINDING AFFINITY PREDICTED BY RF-SCORE:    0.00 PKD
ROOT
HETATM    1  O   UNL     1     -13.039  15.593  73.775  1.00  0.00    -0.495 OA 
HETATM    2  C   UNL     1     -12.917  14.999  72.707  1.00  0.00    -0.433 C  
HETATM    3  C   UNL     1     -12.886  15.717  71.378  1.00  0.00    -0.504 C  
HETATM    4  C   UNL     1     -12.010  15.011  70.350  1.00  0.00    -0.372 C  
HETATM    5  C   UNL     1     -12.236  13.523  70.328  1.00  0.00    -0.417 A  
HETATM    6  C   UNL     1     -12.681  12.888  71.494  1.00  0.00    -0.239 A  
HETATM    7  N   UNL     1     -12.927  13.633  72.651  1.00  0.00    -0.337 N  
HETATM    8  C   UNL     1     -12.833  11.505  71.524  1.00  0.00    -0.485 A  
HETATM    9  C   UNL     1     -12.529  10.744  70.389  1.00  0.00    -0.430 A  
HETATM   10  H   UNL     1     -13.128  13.123  73.510  1.00  0.00     0.000 HD 
HETATM   11  C   UNL     1     -12.049  11.349  69.223  1.00  0.00    -0.289 A  
HETATM   12  C   UNL     1     -11.906  12.743  69.197  1.00  0.00    -0.352 A  
ENDROOT
BRANCH  11  13
HETATM   13  O   UNL     1     -11.754  10.468  68.208  1.00  0.00    -0.401 OA 
BRANCH  13  14
HETATM   14  C   UNL     1     -10.479  10.602  67.580  1.00  0.00    -0.227 C  
BRANCH  14  15
HETATM   15  C   UNL     1     -10.143   9.349  66.736  1.00  0.00    -0.325 C  
BRANCH  15  16
HETATM   16  C   UNL     1      -9.028   8.560  67.437  1.00  0.00    -0.144 C  
BRANCH  16  17
HETATM   17  C   UNL     1      -9.382   7.750  68.690  1.00  0.00    -0.148 C  
BRANCH  17  18
HETATM   18  C   UNL     1      -8.793   8.245  69.963  1.00  0.00    -0.134 A  
HETATM   19  N   UNL     1      -8.024   9.320  70.013  1.00  0.00    -0.104 NA 
HETATM   20  N   UNL     1      -7.732   9.543  71.323  1.00  0.00    -0.276 NA 
HETATM   21  N   UNL     1      -8.284   8.620  72.085  1.00  0.00    -0.340 NA 
HETATM   22  N   UNL     1      -9.008   7.825  71.262  1.00  0.00    -0.132 NA 
BRANCH  22  23
HETATM   23  C   UNL     1      -9.724   6.709  71.873  1.00  0.00    -0.153 C  
HETATM   24  C   UNL     1     -10.548   7.145  73.117  1.00  0.00    -0.377 C  
HETATM   25  C   UNL     1     -11.739   8.019  72.715  1.00  0.00    -0.352 C  
HETATM   26  C   UNL     1     -12.671   7.267  71.771  1.00  0.00    -0.370 C  
HETATM   27  C   UNL     1     -11.931   6.667  70.575  1.00  0.00    -0.377 C  
HETATM   28  C   UNL     1     -10.679   5.888  70.990  1.00  0.00    -0.331 C  
ENDBRANCH  22  23
ENDBRANCH  17  18
ENDBRANCH  16  17
ENDBRANCH  15  16
ENDBRANCH  14  15
ENDBRANCH  13  14
ENDBRANCH  11  13
TORSDOF 7
ENDMDL
MODEL       55
REMARK 921   NORMALIZED FREE ENERGY PREDICTED BY IDOCK:   -6.10 KCAL/MOL
REMARK 922        TOTAL FREE ENERGY PREDICTED BY IDOCK:   -9.62 KCAL/MOL
REMARK 923 INTER-LIGAND FREE ENERGY PREDICTED BY IDOCK:   -8.88 KCAL/MOL
REMARK 924 INTRA-LIGAND FREE ENERGY PREDICTED BY IDOCK:   -0.74 KCAL/MOL
REMARK 927      BINDING AFFINITY PREDICTED BY RF-SCORE:    0.00 PKD
ROOT
HETATM    1  O   UNL     1      -9.992   4.110  71.767  1.00  0.00    -0.177 OA 
HETATM    2  C   UNL     1     -10.381   5.273  71.683  1.00  0.00    -0.216 C  
HETATM    3  C   UNL     1     -11.084   5.977  72.820  1.00  0.00    -0.305 C  
HETATM    4  C   UNL     1     -10.797   7.473  72.850  1.00  0.00    -0.425 C  
HETATM    5  C   UNL     1     -10.885   8.103  71.486  1.00  0.00    -0.290 A  
HETATM    6  C   UNL     1     -10.627   7.314  70.358  1.00  0.00    -0.226 A  
HETATM    7  N   UNL     1     -10.311   5.960  70.503  1.00  0.00    -0.219 N  
HETATM    8  C   UNL     1     -10.632   7.884  69.088  1.00  0.00    -0.184 A  
HETATM    9  C   UNL     1     -10.886   9.252  68.938  1.00  0.00    -0.128 A  
HETATM   10  H   UNL     1     -10.008   5.451  69.674  1.00  0.00     0.000 HD 
HETATM   11  C   UNL     1     -11.112  10.070  70.050  1.00  0.00    -0.295 A  
HETATM   12  C   UNL     1     -11.113   9.488  71.325  1.00  0.00    -0.449 A  
ENDROOT
BRANCH  11  13
HETATM   13  O   UNL     1     -11.303  11.398  69.746  1.00  0.00    -0.274 OA 
BRANCH  13  14
HETATM   14  C   UNL     1     -12.355  12.077  70.431  1.00  0.00    -0.233 C  
BRANCH  14  15
HETATM   15  C   UNL     1     -12.145  13.610  70.389  1.00  0.00    -0.421 C  
BRANCH  15  16
HETATM   16  C   UNL     1     -12.156  14.075  68.926  1.00  0.00    -0.351 C  
BRANCH  16  17
HETATM   17  C   UNL     1     -10.838  14.538  68.295  1.00  0.00    -0.247 C  
BRANCH  17  18
HETATM   18  C   UNL     1     -10.919  14.959  66.871  1.00  0.00    -0.327 A  
HETATM   19  N   UNL     1     -10.397  16.096  66.441  1.00  0.00    -0.305 NA 
HETATM   20  N   UNL     1     -10.566  16.130  65.092  1.00  0.00    -0.609 NA 
HETATM   21  N   UNL     1     -11.199  15.051  64.677  1.00  0.00    -0.361 NA 
HETATM   22  N   UNL     1     -11.380  14.268  65.767  1.00  0.00    -0.320 NA 
BRANCH  22  23
HETATM   23  C   UNL     1     -12.070  12.997  65.568  1.00  0.00    -0.452 C  
HETATM   24  C   UNL     1     -12.179  12.612  64.066  1.00  0.00    -0.544 C  
HETATM   25  C   UNL     1     -10.810  12.250  63.485  1.00  0.00    -0.508 C  
HETATM   26  C   UNL     1     -10.198  11.069  64.231  1.00  0.00    -0.414 C  
HETATM   27  C   UNL     1     -10.175  11.284  65.744  1.00  0.00    -0.301 C  
HETATM   28  C   UNL     1     -11.526  11.754  66.291  1.00  0.00    -0.296 C  
ENDBRANCH  22  23
ENDBRANCH  17  18
ENDBRANCH  16  17
ENDBRANCH  15  16
ENDBRANCH  14  15
ENDBRANCH  13  14
ENDBRANCH  11  13
TORSDOF 7
ENDMDL
MODEL       56
REMARK 921   NORMALIZED FREE ENERGY PREDICTED BY IDOCK:   -6.09 KCAL/MOL
REMARK 922        TOTAL FREE ENERGY PREDICTED BY IDOCK:   -9.60 KCAL/MOL
REMARK 923 INTER-LIGAND FREE ENERGY PREDICTED BY IDOCK:   -9.16 KCAL/MOL
REMARK 924 INTRA-LIGAND FREE ENERGY PREDICTED BY IDOCK:   -0.44 KCAL/MOL
REMARK 927      BINDING AFFINITY PREDICTED BY RF-SCORE:    0.00 PKD
ROOT
HETATM    1  O   UNL     1     -10.951   8.400  72.763  1.00  0.00    -0.317 OA 
HETATM    2  C   UNL     1     -11.241   9.029  71.747  1.00  0.00    -0.378 C  
HETATM    3  C   UNL     1     -12.291  10.114  71.738  1.00  0.00    -0.401 C  
HETATM    4  C   UNL     1     -11.984  11.218  70.734  1.00  0.00    -0.383 C  
HETATM    5  C   UNL     1     -11.537  10.676  69.402  1.00  0.00    -0.352 A  
HETATM    6  C   UNL     1     -10.905   9.427  69.357  1.00  0.00    -0.189 A  
HETATM    7  N   UNL     1     -10.713   8.693  70.531  1.00  0.00    -0.216 N  
HETATM    8  C   UNL     1     -10.418   8.931  68.152  1.00  0.00    -0.254 A  
HETATM    9  C   UNL     1     -10.551   9.687  66.981  1.00  0.00    -0.267 A  
HETATM   10  H   UNL     1     -10.141   7.851  70.478  1.00  0.00     0.000 HD 
HETATM   11  C   UNL     1     -11.146  10.952  67.004  1.00  0.00    -0.202 A  
HETATM   12  C   UNL     1     -11.640  11.443  68.220  1.00  0.00    -0.376 A  
ENDROOT
BRANCH  11  13
HETATM   13  O   UNL     1     -11.164  11.591  65.785  1.00  0.00    -0.265 OA 
BRANCH  13  14
HETATM   14  C   UNL     1     -12.245  12.489  65.538  1.00  0.00    -0.377 C  
BRANCH  14  15
HETATM   15  C   UNL     1     -11.954  13.381  64.307  1.00  0.00    -0.481 C  
BRANCH  15  16
HETATM   16  C   UNL     1     -10.519  13.917  64.409  1.00  0.00    -0.189 C  
BRANCH  16  17
HETATM   17  C   UNL     1     -10.123  14.717  65.655  1.00  0.00    -0.389 C  
BRANCH  17  18
HETATM   18  C   UNL     1     -10.358  16.183  65.581  1.00  0.00    -0.382 A  
HETATM   19  N   UNL     1     -10.826  16.768  64.489  1.00  0.00    -0.754 NA 
HETATM   20  N   UNL     1     -11.006  18.083  64.785  1.00  0.00    -0.337 NA 
HETATM   21  N   UNL     1     -10.641  18.334  66.026  1.00  0.00    -0.437 NA 
HETATM   22  N   UNL     1     -10.287  17.145  66.570  1.00  0.00    -0.321 NA 
BRANCH  22  23
HETATM   23  C   UNL     1      -9.836  17.155  67.959  1.00  0.00    -0.283 C  
HETATM   24  C   UNL     1      -8.308  16.902  68.087  1.00  0.00    -0.212 C  
HETATM   25  C   UNL     1      -7.502  18.088  67.550  1.00  0.00    -0.217 C  
HETATM   26  C   UNL     1      -7.835  19.363  68.318  1.00  0.00    -0.363 C  
HETATM   27  C   UNL     1      -9.338  19.631  68.379  1.00  0.00    -0.425 C  
HETATM   28  C   UNL     1     -10.138  18.399  68.811  1.00  0.00    -0.393 C  
ENDBRANCH  22  23
ENDBRANCH  17  18
ENDBRANCH  16  17
ENDBRANCH  15  16
ENDBRANCH  14  15
ENDBRANCH  13  14
ENDBRANCH  11  13
TORSDOF 7
ENDMDL
MODEL       57
REMARK 921   NORMALIZED FREE ENERGY PREDICTED BY IDOCK:   -6.06 KCAL/MOL
REMARK 922        TOTAL FREE ENERGY PREDICTED BY IDOCK:   -9.56 KCAL/MOL
REMARK 923 INTER-LIGAND FREE ENERGY PREDICTED BY IDOCK:   -8.43 KCAL/MOL
REMARK 924 INTRA-LIGAND FREE ENERGY PREDICTED BY IDOCK:   -1.13 KCAL/MOL
REMARK 927      BINDING AFFINITY PREDICTED BY RF-SCORE:    0.00 PKD
ROOT
HETATM    1  O   UNL     1      -8.745  10.984  62.817  1.00  0.00    -0.246 OA 
HETATM    2  C   UNL     1      -9.424  11.155  63.827  1.00  0.00    -0.235 C  
HETATM    3  C   UNL     1      -9.823  10.017  64.738  1.00  0.00    -0.325 C  
HETATM    4  C   UNL     1      -9.941  10.448  66.195  1.00  0.00    -0.290 C  
HETATM    5  C   UNL     1     -10.678  11.751  66.352  1.00  0.00    -0.306 A  
HETATM    6  C   UNL     1     -10.653  12.674  65.298  1.00  0.00    -0.291 A  
HETATM    7  N   UNL     1      -9.967  12.375  64.117  1.00  0.00    -0.553 N  
HETATM    8  C   UNL     1     -11.265  13.915  65.439  1.00  0.00    -0.306 A  
HETATM    9  C   UNL     1     -11.901  14.248  66.642  1.00  0.00    -0.442 A  
HETATM   10  H   UNL     1      -9.865  13.118  63.426  1.00  0.00     0.000 HD 
HETATM   11  C   UNL     1     -11.911  13.359  67.721  1.00  0.00    -0.324 A  
HETATM   12  C   UNL     1     -11.298  12.108  67.570  1.00  0.00    -0.392 A  
ENDROOT
BRANCH  11  13
HETATM   13  O   UNL     1     -12.536  13.844  68.847  1.00  0.00    -0.188 OA 
BRANCH  13  14
HETATM   14  C   UNL     1     -12.057  13.376  70.109  1.00  0.00    -0.344 C  
BRANCH  14  15
HETATM   15  C   UNL     1     -12.338  14.411  71.225  1.00  0.00    -0.432 C  
BRANCH  15  16
HETATM   16  C   UNL     1     -11.168  15.404  71.290  1.00  0.00    -0.407 C  
BRANCH  16  17
HETATM   17  C   UNL     1     -11.048  16.465  70.190  1.00  0.00    -0.285 C  
BRANCH  17  18
HETATM   18  C   UNL     1      -9.966  16.240  69.195  1.00  0.00    -0.260 A  
HETATM   19  N   UNL     1      -9.159  15.193  69.255  1.00  0.00    -0.219 NA 
HETATM   20  N   UNL     1      -8.354  15.244  68.159  1.00  0.00    -0.146 NA 
HETATM   21  N   UNL     1      -8.628  16.308  67.432  1.00  0.00    -0.175 NA 
HETATM   22  N   UNL     1      -9.679  16.921  68.028  1.00  0.00    -0.250 NA 
BRANCH  22  23
HETATM   23  C   UNL     1     -10.177  18.145  67.405  1.00  0.00    -0.372 C  
HETATM   24  C   UNL     1     -10.106  19.367  68.363  1.00  0.00    -0.538 C  
HETATM   25  C   UNL     1      -8.657  19.787  68.620  1.00  0.00    -0.230 C  
HETATM   26  C   UNL     1      -7.961  20.167  67.318  1.00  0.00    -0.363 C  
HETATM   27  C   UNL     1      -8.096  19.084  66.247  1.00  0.00    -0.298 C  
HETATM   28  C   UNL     1      -9.538  18.597  66.082  1.00  0.00    -0.214 C  
ENDBRANCH  22  23
ENDBRANCH  17  18
ENDBRANCH  16  17
ENDBRANCH  15  16
ENDBRANCH  14  15
ENDBRANCH  13  14
ENDBRANCH  11  13
TORSDOF 7
ENDMDL
MODEL       58
REMARK 921   NORMALIZED FREE ENERGY PREDICTED BY IDOCK:   -6.06 KCAL/MOL
REMARK 922        TOTAL FREE ENERGY PREDICTED BY IDOCK:   -9.55 KCAL/MOL
REMARK 923 INTER-LIGAND FREE ENERGY PREDICTED BY IDOCK:   -8.44 KCAL/MOL
REMARK 924 INTRA-LIGAND FREE ENERGY PREDICTED BY IDOCK:   -1.11 KCAL/MOL
REMARK 927      BINDING AFFINITY PREDICTED BY RF-SCORE:    0.00 PKD
ROOT
HETATM    1  O   UNL     1     -14.072  15.191  72.994  1.00  0.00    -0.347 OA 
HETATM    2  C   UNL     1     -13.586  14.577  72.047  1.00  0.00    -0.416 C  
HETATM    3  C   UNL     1     -13.320  15.227  70.710  1.00  0.00    -0.402 C  
HETATM    4  C   UNL     1     -12.109  14.633  70.000  1.00  0.00    -0.383 C  
HETATM    5  C   UNL     1     -12.092  13.128  70.055  1.00  0.00    -0.375 A  
HETATM    6  C   UNL     1     -12.723  12.482  71.125  1.00  0.00    -0.245 A  
HETATM    7  N   UNL     1     -13.373  13.228  72.112  1.00  0.00    -0.504 N  
HETATM    8  C   UNL     1     -12.665  11.097  71.240  1.00  0.00    -0.531 A  
HETATM    9  C   UNL     1     -11.963  10.346  70.289  1.00  0.00    -0.387 A  
HETATM   10  H   UNL     1     -13.711  12.732  72.937  1.00  0.00     0.000 HD 
HETATM   11  C   UNL     1     -11.294  10.969  69.230  1.00  0.00    -0.282 A  
HETATM   12  C   UNL     1     -11.363  12.364  69.116  1.00  0.00    -0.327 A  
ENDROOT
BRANCH  11  13
HETATM   13  O   UNL     1     -10.614  10.104  68.404  1.00  0.00    -0.193 OA 
BRANCH  13  14
HETATM   14  C   UNL     1     -10.311   8.809  68.925  1.00  0.00    -0.212 C  
BRANCH  14  15
HETATM   15  C   UNL     1     -10.183   7.770  67.785  1.00  0.00    -0.271 C  
BRANCH  15  16
HETATM   16  C   UNL     1     -10.843   6.458  68.231  1.00  0.00    -0.384 C  
BRANCH  16  17
HETATM   17  C   UNL     1     -11.334   6.340  69.678  1.00  0.00    -0.492 C  
BRANCH  17  18
HETATM   18  C   UNL     1     -10.651   5.312  70.508  1.00  0.00    -0.202 A  
HETATM   19  N   UNL     1     -10.005   4.289  69.972  1.00  0.00    -0.200 NA 
HETATM   20  N   UNL     1      -9.428   3.600  70.994  1.00  0.00    -0.152 NA 
HETATM   21  N   UNL     1      -9.718   4.158  72.152  1.00  0.00    -0.154 NA 
HETATM   22  N   UNL     1     -10.436   5.272  71.872  1.00  0.00    -0.217 NA 
BRANCH  22  23
HETATM   23  C   UNL     1     -10.886   6.077  73.005  1.00  0.00    -0.260 C  
HETATM   24  C   UNL     1      -9.944   5.948  74.234  1.00  0.00    -0.262 C  
HETATM   25  C   UNL     1      -8.593   6.616  73.970  1.00  0.00    -0.155 C  
HETATM   26  C   UNL     1      -8.770   8.100  73.666  1.00  0.00    -0.309 C  
HETATM   27  C   UNL     1      -9.795   8.350  72.559  1.00  0.00    -0.359 C  
HETATM   28  C   UNL     1     -11.101   7.584  72.784  1.00  0.00    -0.416 C  
ENDBRANCH  22  23
ENDBRANCH  17  18
ENDBRANCH  16  17
ENDBRANCH  15  16
ENDBRANCH  14  15
ENDBRANCH  13  14
ENDBRANCH  11  13
TORSDOF 7
ENDMDL
MODEL       59
REMARK 921   NORMALIZED FREE ENERGY PREDICTED BY IDOCK:   -6.05 KCAL/MOL
REMARK 922        TOTAL FREE ENERGY PREDICTED BY IDOCK:   -9.54 KCAL/MOL
REMARK 923 INTER-LIGAND FREE ENERGY PREDICTED BY IDOCK:   -8.75 KCAL/MOL
REMARK 924 INTRA-LIGAND FREE ENERGY PREDICTED BY IDOCK:   -0.79 KCAL/MOL
REMARK 927      BINDING AFFINITY PREDICTED BY RF-SCORE:    0.00 PKD
ROOT
HETATM    1  O   UNL     1     -11.404  16.486  63.827  1.00  0.00    -0.966 OA 
HETATM    2  C   UNL     1     -11.199  15.942  64.910  1.00  0.00    -0.337 C  
HETATM    3  C   UNL     1     -10.426  16.613  66.020  1.00  0.00    -0.306 C  
HETATM    4  C   UNL     1     -10.909  16.198  67.404  1.00  0.00    -0.265 C  
HETATM    5  C   UNL     1     -11.131  14.713  67.514  1.00  0.00    -0.319 A  
HETATM    6  C   UNL     1     -11.457  13.989  66.360  1.00  0.00    -0.352 A  
HETATM    7  N   UNL     1     -11.553  14.639  65.126  1.00  0.00    -0.362 N  
HETATM    8  C   UNL     1     -11.735  12.629  66.441  1.00  0.00    -0.466 A  
HETATM    9  C   UNL     1     -11.702  11.982  67.682  1.00  0.00    -0.365 A  
HETATM   10  H   UNL     1     -11.913  14.106  64.335  1.00  0.00     0.000 HD 
HETATM   11  C   UNL     1     -11.414  12.687  68.855  1.00  0.00    -0.306 A  
HETATM   12  C   UNL     1     -11.127  14.056  68.765  1.00  0.00    -0.287 A  
ENDROOT
BRANCH  11  13
HETATM   13  O   UNL     1     -11.461  11.925  70.000  1.00  0.00    -0.243 OA 
BRANCH  13  14
HETATM   14  C   UNL     1     -12.445  12.273  70.973  1.00  0.00    -0.263 C  
BRANCH  14  15
HETATM   15  C   UNL     1     -12.925  11.022  71.748  1.00  0.00    -0.544 C  
BRANCH  15  16
HETATM   16  C   UNL     1     -12.297   9.772  71.115  1.00  0.00    -0.451 C  
BRANCH  16  17
HETATM   17  C   UNL     1     -10.936   9.295  71.633  1.00  0.00    -0.433 C  
BRANCH  17  18
HETATM   18  C   UNL     1     -10.784   7.824  71.782  1.00  0.00    -0.223 A  
HETATM   19  N   UNL     1     -11.464   7.132  72.682  1.00  0.00    -0.265 NA 
HETATM   20  N   UNL     1     -11.160   5.819  72.493  1.00  0.00    -0.264 NA 
HETATM   21  N   UNL     1     -10.291   5.682  71.512  1.00  0.00    -0.214 NA 
HETATM   22  N   UNL     1     -10.083   6.921  71.006  1.00  0.00    -0.193 NA 
BRANCH  22  23
HETATM   23  C   UNL     1      -9.144   7.037  69.893  1.00  0.00    -0.141 C  
HETATM   24  C   UNL     1      -9.231   5.831  68.917  1.00  0.00    -0.127 C  
HETATM   25  C   UNL     1     -10.548   5.840  68.139  1.00  0.00    -0.286 C  
HETATM   26  C   UNL     1     -10.687   7.119  67.320  1.00  0.00    -0.399 C  
HETATM   27  C   UNL     1     -10.474   8.377  68.163  1.00  0.00    -0.228 C  
HETATM   28  C   UNL     1      -9.208   8.302  69.020  1.00  0.00    -0.147 C  
ENDBRANCH  22  23
ENDBRANCH  17  18
ENDBRANCH  16  17
ENDBRANCH  15  16
ENDBRANCH  14  15
ENDBRANCH  13  14
ENDBRANCH  11  13
TORSDOF 7
ENDMDL
MODEL       60
REMARK 921   NORMALIZED FREE ENERGY PREDICTED BY IDOCK:   -6.05 KCAL/MOL
REMARK 922        TOTAL FREE ENERGY PREDICTED BY IDOCK:   -9.54 KCAL/MOL
REMARK 923 INTER-LIGAND FREE ENERGY PREDICTED BY IDOCK:   -8.88 KCAL/MOL
REMARK 924 INTRA-LIGAND FREE ENERGY PREDICTED BY IDOCK:   -0.66 KCAL/MOL
REMARK 927      BINDING AFFINITY PREDICTED BY RF-SCORE:    0.00 PKD
ROOT
HETATM    1  O   UNL     1      -7.510  21.117  67.347  1.00  0.00    -0.406 OA 
HETATM    2  C   UNL     1      -8.271  20.175  67.141  1.00  0.00    -0.332 C  
HETATM    3  C   UNL     1      -9.774  20.327  67.162  1.00  0.00    -0.592 C  
HETATM    4  C   UNL     1     -10.473  19.378  66.197  1.00  0.00    -0.600 C  
HETATM    5  C   UNL     1      -9.918  17.980  66.261  1.00  0.00    -0.338 A  
HETATM    6  C   UNL     1      -8.587  17.798  66.658  1.00  0.00    -0.258 A  
HETATM    7  N   UNL     1      -7.799  18.899  67.005  1.00  0.00    -0.239 N  
HETATM    8  C   UNL     1      -8.024  16.525  66.662  1.00  0.00    -0.320 A  
HETATM    9  C   UNL     1      -8.788  15.424  66.257  1.00  0.00    -0.302 A  
HETATM   10  H   UNL     1      -6.805  18.741  67.166  1.00  0.00     0.000 HD 
HETATM   11  C   UNL     1     -10.108  15.582  65.822  1.00  0.00    -0.360 A  
HETATM   12  C   UNL     1     -10.670  16.866  65.829  1.00  0.00    -0.165 A  
ENDROOT
BRANCH  11  13
HETATM   13  O   UNL     1     -10.713  14.415  65.416  1.00  0.00    -0.308 OA 
BRANCH  13  14
HETATM   14  C   UNL     1     -12.026  14.156  65.913  1.00  0.00    -0.409 C  
BRANCH  14  15
HETATM   15  C   UNL     1     -11.981  13.744  67.404  1.00  0.00    -0.423 C  
BRANCH  15  16
HETATM   16  C   UNL     1     -10.897  12.673  67.594  1.00  0.00    -0.248 C  
BRANCH  16  17
HETATM   17  C   UNL     1     -11.322  11.201  67.635  1.00  0.00    -0.356 C  
BRANCH  17  18
HETATM   18  C   UNL     1     -11.475  10.613  68.991  1.00  0.00    -0.274 A  
HETATM   19  N   UNL     1     -12.402  11.028  69.840  1.00  0.00    -0.314 NA 
HETATM   20  N   UNL     1     -12.326  10.230  70.939  1.00  0.00    -0.342 NA 
HETATM   21  N   UNL     1     -11.361   9.343  70.802  1.00  0.00    -0.279 NA 
HETATM   22  N   UNL     1     -10.848   9.521  69.561  1.00  0.00    -0.233 NA 
BRANCH  22  23
HETATM   23  C   UNL     1      -9.747   8.648  69.163  1.00  0.00    -0.173 C  
HETATM   24  C   UNL     1      -9.855   7.234  69.798  1.00  0.00    -0.177 C  
HETATM   25  C   UNL     1     -11.028   6.447  69.206  1.00  0.00    -0.418 C  
HETATM   26  C   UNL     1     -10.863   6.277  67.700  1.00  0.00    -0.433 C  
HETATM   27  C   UNL     1     -10.604   7.605  66.988  1.00  0.00    -0.406 C  
HETATM   28  C   UNL     1      -9.503   8.427  67.661  1.00  0.00    -0.176 C  
ENDBRANCH  22  23
ENDBRANCH  17  18
ENDBRANCH  16  17
ENDBRANCH  15  16
ENDBRANCH  14  15
ENDBRANCH  13  14
ENDBRANCH  11  13
TORSDOF 7
ENDMDL
MODEL       61
REMARK 921   NORMALIZED FREE ENERGY PREDICTED BY IDOCK:   -6.04 KCAL/MOL
REMARK 922        TOTAL FREE ENERGY PREDICTED BY IDOCK:   -9.53 KCAL/MOL
REMARK 923 INTER-LIGAND FREE ENERGY PREDICTED BY IDOCK:   -8.54 KCAL/MOL
REMARK 924 INTRA-LIGAND FREE ENERGY PREDICTED BY IDOCK:   -0.99 KCAL/MOL
REMARK 927      BINDING AFFINITY PREDICTED BY RF-SCORE:    0.00 PKD
ROOT
HETATM    1  O   UNL     1     -13.401  14.162  73.231  1.00  0.00    -0.567 OA 
HETATM    2  C   UNL     1     -13.038  14.260  72.061  1.00  0.00    -0.372 C  
HETATM    3  C   UNL     1     -12.990  15.584  71.335  1.00  0.00    -0.553 C  
HETATM    4  C   UNL     1     -11.876  15.643  70.297  1.00  0.00    -0.386 C  
HETATM    5  C   UNL     1     -11.802  14.392  69.462  1.00  0.00    -0.376 A  
HETATM    6  C   UNL     1     -12.250  13.184  70.010  1.00  0.00    -0.253 A  
HETATM    7  N   UNL     1     -12.774  13.151  71.306  1.00  0.00    -0.352 N  
HETATM    8  C   UNL     1     -12.130  12.000  69.289  1.00  0.00    -0.249 A  
HETATM    9  C   UNL     1     -11.550  12.014  68.015  1.00  0.00    -0.407 A  
HETATM   10  H   UNL     1     -12.972  12.239  71.715  1.00  0.00     0.000 HD 
HETATM   11  C   UNL     1     -11.062  13.201  67.458  1.00  0.00    -0.271 A  
HETATM   12  C   UNL     1     -11.193  14.391  68.187  1.00  0.00    -0.300 A  
ENDROOT
BRANCH  11  13
HETATM   13  O   UNL     1     -10.481  13.048  66.220  1.00  0.00    -0.268 OA 
BRANCH  13  14
HETATM   14  C   UNL     1     -10.823  11.875  65.482  1.00  0.00    -0.295 C  
BRANCH  14  15
HETATM   15  C   UNL     1      -9.575  10.996  65.229  1.00  0.00    -0.270 C  
BRANCH  15  16
HETATM   16  C   UNL     1      -9.853   9.576  65.742  1.00  0.00    -0.363 C  
BRANCH  16  17
HETATM   17  C   UNL     1      -9.499   9.241  67.195  1.00  0.00    -0.191 C  
BRANCH  17  18
HETATM   18  C   UNL     1     -10.149   8.025  67.752  1.00  0.00    -0.195 A  
HETATM   19  N   UNL     1     -10.847   7.191  66.999  1.00  0.00    -0.362 NA 
HETATM   20  N   UNL     1     -11.223   6.152  67.793  1.00  0.00    -0.197 NA 
HETATM   21  N   UNL     1     -10.793   6.332  69.026  1.00  0.00    -0.302 NA 
HETATM   22  N   UNL     1     -10.062   7.472  69.015  1.00  0.00    -0.187 NA 
BRANCH  22  23
HETATM   23  C   UNL     1      -9.470   7.896  70.281  1.00  0.00    -0.163 C  
HETATM   24  C   UNL     1     -10.044   9.252  70.778  1.00  0.00    -0.358 C  
HETATM   25  C   UNL     1     -11.504   9.110  71.217  1.00  0.00    -0.405 C  
HETATM   26  C   UNL     1     -11.635   8.099  72.350  1.00  0.00    -0.463 C  
HETATM   27  C   UNL     1     -10.970   6.762  72.020  1.00  0.00    -0.269 C  
HETATM   28  C   UNL     1      -9.548   6.932  71.477  1.00  0.00    -0.162 C  
ENDBRANCH  22  23
ENDBRANCH  17  18
ENDBRANCH  16  17
ENDBRANCH  15  16
ENDBRANCH  14  15
ENDBRANCH  13  14
ENDBRANCH  11  13
TORSDOF 7
ENDMDL
MODEL       62
REMARK 921   NORMALIZED FREE ENERGY PREDICTED BY IDOCK:   -6.04 KCAL/MOL
REMARK 922        TOTAL FREE ENERGY PREDICTED BY IDOCK:   -9.53 KCAL/MOL
REMARK 923 INTER-LIGAND FREE ENERGY PREDICTED BY IDOCK:   -8.34 KCAL/MOL
REMARK 924 INTRA-LIGAND FREE ENERGY PREDICTED BY IDOCK:   -1.19 KCAL/MOL
REMARK 927      BINDING AFFINITY PREDICTED BY RF-SCORE:    0.00 PKD
ROOT
HETATM    1  O   UNL     1     -10.952  15.708  65.705  1.00  0.00    -0.314 OA 
HETATM    2  C   UNL     1     -11.290  14.769  66.423  1.00  0.00    -0.339 C  
HETATM    3  C   UNL     1     -11.583  13.393  65.874  1.00  0.00    -0.370 C  
HETATM    4  C   UNL     1     -11.226  12.283  66.854  1.00  0.00    -0.367 C  
HETATM    5  C   UNL     1     -11.688  12.582  68.256  1.00  0.00    -0.390 A  
HETATM    6  C   UNL     1     -11.820  13.918  68.654  1.00  0.00    -0.372 A  
HETATM    7  N   UNL     1     -11.543  14.951  67.755  1.00  0.00    -0.338 N  
HETATM    8  C   UNL     1     -12.178  14.227  69.963  1.00  0.00    -0.417 A  
HETATM    9  C   UNL     1     -12.397  13.199  70.888  1.00  0.00    -0.393 A  
HETATM   10  H   UNL     1     -11.528  15.905  68.115  1.00  0.00     0.000 HD 
HETATM   11  C   UNL     1     -12.238  11.858  70.526  1.00  0.00    -0.336 A  
HETATM   12  C   UNL     1     -11.885  11.553  69.204  1.00  0.00    -0.406 A  
ENDROOT
BRANCH  11  13
HETATM   13  O   UNL     1     -12.445  10.966  71.553  1.00  0.00    -0.358 OA 
BRANCH  13  14
HETATM   14  C   UNL     1     -13.218   9.802  71.258  1.00  0.00    -0.373 C  
BRANCH  14  15
HETATM   15  C   UNL     1     -13.088   8.751  72.386  1.00  0.00    -0.444 C  
BRANCH  15  16
HETATM   16  C   UNL     1     -12.879   7.367  71.756  1.00  0.00    -0.365 C  
BRANCH  16  17
HETATM   17  C   UNL     1     -11.631   6.567  72.146  1.00  0.00    -0.349 C  
BRANCH  17  18
HETATM   18  C   UNL     1     -10.483   7.368  72.646  1.00  0.00    -0.255 A  
HETATM   19  N   UNL     1      -9.968   7.186  73.851  1.00  0.00    -0.323 NA 
HETATM   20  N   UNL     1      -8.889   8.009  73.954  1.00  0.00    -0.259 NA 
HETATM   21  N   UNL     1      -8.735   8.712  72.851  1.00  0.00    -0.381 NA 
HETATM   22  N   UNL     1      -9.688   8.285  71.987  1.00  0.00    -0.225 NA 
BRANCH  22  23
HETATM   23  C   UNL     1      -9.729   8.922  70.673  1.00  0.00    -0.212 C  
HETATM   24  C   UNL     1      -8.345   9.481  70.243  1.00  0.00    -0.221 C  
HETATM   25  C   UNL     1      -7.357   8.350  69.945  1.00  0.00    -0.060 C  
HETATM   26  C   UNL     1      -7.875   7.458  68.822  1.00  0.00    -0.121 C  
HETATM   27  C   UNL     1      -9.299   6.966  69.078  1.00  0.00    -0.135 C  
HETATM   28  C   UNL     1     -10.248   8.097  69.484  1.00  0.00    -0.213 C  
ENDBRANCH  22  23
ENDBRANCH  17  18
ENDBRANCH  16  17
ENDBRANCH  15  16
ENDBRANCH  14  15
ENDBRANCH  13  14
ENDBRANCH  11  13
TORSDOF 7
ENDMDL
MODEL       63
REMARK 921   NORMALIZED FREE ENERGY PREDICTED BY IDOCK:   -6.04 KCAL/MOL
REMARK 922        TOTAL FREE ENERGY PREDICTED BY IDOCK:   -9.52 KCAL/MOL
REMARK 923 INTER-LIGAND FREE ENERGY PREDICTED BY IDOCK:   -8.04 KCAL/MOL
REMARK 924 INTRA-LIGAND FREE ENERGY PREDICTED BY IDOCK:   -1.48 KCAL/MOL
REMARK 927      BINDING AFFINITY PREDICTED BY RF-SCORE:    0.00 PKD
ROOT
HETATM    1  O   UNL     1     -10.848  12.865  63.584  1.00  0.00    -0.379 OA 
HETATM    2  C   UNL     1     -10.977  12.828  64.805  1.00  0.00    -0.305 C  
HETATM    3  C   UNL     1     -11.157  14.075  65.639  1.00  0.00    -0.302 C  
HETATM    4  C   UNL     1     -12.021  13.836  66.871  1.00  0.00    -0.460 C  
HETATM    5  C   UNL     1     -11.655  12.567  67.593  1.00  0.00    -0.416 A  
HETATM    6  C   UNL     1     -11.080  11.516  66.867  1.00  0.00    -0.307 A  
HETATM    7  N   UNL     1     -10.838  11.658  65.498  1.00  0.00    -0.287 N  
HETATM    8  C   UNL     1     -10.794  10.306  67.492  1.00  0.00    -0.355 A  
HETATM    9  C   UNL     1     -11.091  10.134  68.849  1.00  0.00    -0.251 A  
HETATM   10  H   UNL     1     -10.537  10.832  64.980  1.00  0.00     0.000 HD 
HETATM   11  C   UNL     1     -11.697  11.154  69.589  1.00  0.00    -0.339 A  
HETATM   12  C   UNL     1     -11.975  12.373  68.956  1.00  0.00    -0.291 A  
ENDROOT
BRANCH  11  13
HETATM   13  O   UNL     1     -11.966  10.821  70.897  1.00  0.00    -0.326 OA 
BRANCH  13  14
HETATM   14  C   UNL     1     -13.154  10.070  71.145  1.00  0.00    -0.386 C  
BRANCH  14  15
HETATM   15  C   UNL     1     -12.934   9.045  72.284  1.00  0.00    -0.490 C  
BRANCH  15  16
HETATM   16  C   UNL     1     -12.445   7.723  71.677  1.00  0.00    -0.352 C  
BRANCH  16  17
HETATM   17  C   UNL     1     -11.132   7.122  72.192  1.00  0.00    -0.282 C  
BRANCH  17  18
HETATM   18  C   UNL     1      -9.889   7.720  71.636  1.00  0.00    -0.163 A  
HETATM   19  N   UNL     1      -9.400   8.868  72.077  1.00  0.00    -0.370 NA 
HETATM   20  N   UNL     1      -8.223   9.078  71.427  1.00  0.00    -0.322 NA 
HETATM   21  N   UNL     1      -7.982   8.101  70.576  1.00  0.00    -0.093 NA 
HETATM   22  N   UNL     1      -8.983   7.202  70.731  1.00  0.00    -0.152 NA 
BRANCH  22  23
HETATM   23  C   UNL     1      -8.945   6.010  69.886  1.00  0.00    -0.141 C  
HETATM   24  C   UNL     1     -10.365   5.480  69.546  1.00  0.00    -0.357 C  
HETATM   25  C   UNL     1     -11.102   6.434  68.603  1.00  0.00    -0.393 C  
HETATM   26  C   UNL     1     -10.337   6.606  67.295  1.00  0.00    -0.296 C  
HETATM   27  C   UNL     1      -8.874   6.989  67.522  1.00  0.00    -0.119 C  
HETATM   28  C   UNL     1      -8.184   6.091  68.552  1.00  0.00    -0.110 C  
ENDBRANCH  22  23
ENDBRANCH  17  18
ENDBRANCH  16  17
ENDBRANCH  15  16
ENDBRANCH  14  15
ENDBRANCH  13  14
ENDBRANCH  11  13
TORSDOF 7
ENDMDL
MODEL       64
REMARK 921   NORMALIZED FREE ENERGY PREDICTED BY IDOCK:   -6.02 KCAL/MOL
REMARK 922        TOTAL FREE ENERGY PREDICTED BY IDOCK:   -9.50 KCAL/MOL
REMARK 923 INTER-LIGAND FREE ENERGY PREDICTED BY IDOCK:   -8.77 KCAL/MOL
REMARK 924 INTRA-LIGAND FREE ENERGY PREDICTED BY IDOCK:   -0.73 KCAL/MOL
REMARK 927      BINDING AFFINITY PREDICTED BY RF-SCORE:    0.00 PKD
ROOT
HETATM    1  O   UNL     1      -8.596   8.774  72.221  1.00  0.00    -0.377 OA 
HETATM    2  C   UNL     1      -9.402   9.210  71.402  1.00  0.00    -0.176 C  
HETATM    3  C   UNL     1     -10.885   8.937  71.497  1.00  0.00    -0.396 C  
HETATM    4  C   UNL     1     -11.728  10.083  70.954  1.00  0.00    -0.462 C  
HETATM    5  C   UNL     1     -11.204  10.613  69.645  1.00  0.00    -0.351 A  
HETATM    6  C   UNL     1      -9.838  10.490  69.363  1.00  0.00    -0.182 A  
HETATM    7  N   UNL     1      -8.984   9.869  70.279  1.00  0.00    -0.360 N  
HETATM    8  C   UNL     1      -9.312  11.031  68.194  1.00  0.00    -0.173 A  
HETATM    9  C   UNL     1     -10.149  11.709  67.300  1.00  0.00    -0.221 A  
HETATM   10  H   UNL     1      -7.981   9.910  70.097  1.00  0.00     0.000 HD 
HETATM   11  C   UNL     1     -11.511  11.877  67.574  1.00  0.00    -0.326 A  
HETATM   12  C   UNL     1     -12.035  11.323  68.750  1.00  0.00    -0.350 A  
ENDROOT
BRANCH  11  13
HETATM   13  O   UNL     1     -12.194  12.602  66.624  1.00  0.00    -0.517 OA 
BRANCH  13  14
HETATM   14  C   UNL     1     -11.938  14.005  66.570  1.00  0.00    -0.444 C  
BRANCH  14  15
HETATM   15  C   UNL     1     -11.605  14.451  65.126  1.00  0.00    -0.361 C  
BRANCH  15  16
HETATM   16  C   UNL     1     -10.432  15.441  65.168  1.00  0.00    -0.439 C  
BRANCH  16  17
HETATM   17  C   UNL     1     -10.322  16.395  66.362  1.00  0.00    -0.319 C  
BRANCH  17  18
HETATM   18  C   UNL     1      -9.578  17.657  66.111  1.00  0.00    -0.188 A  
HETATM   19  N   UNL     1     -10.194  18.808  65.890  1.00  0.00    -0.562 NA 
HETATM   20  N   UNL     1      -9.232  19.765  65.789  1.00  0.00    -0.346 NA 
HETATM   21  N   UNL     1      -8.034  19.233  65.921  1.00  0.00    -0.449 NA 
HETATM   22  N   UNL     1      -8.223  17.918  66.185  1.00  0.00    -0.484 NA 
BRANCH  22  23
HETATM   23  C   UNL     1      -7.030  17.098  66.373  1.00  0.00    -0.261 C  
HETATM   24  C   UNL     1      -5.820  17.923  66.894  1.00  0.00    -0.175 C  
HETATM   25  C   UNL     1      -6.042  18.382  68.338  1.00  0.00    -0.193 C  
HETATM   26  C   UNL     1      -6.231  17.186  69.265  1.00  0.00    -0.224 C  
HETATM   27  C   UNL     1      -7.309  16.225  68.764  1.00  0.00    -0.191 C  
HETATM   28  C   UNL     1      -7.134  15.864  67.287  1.00  0.00    -0.242 C  
ENDBRANCH  22  23
ENDBRANCH  17  18
ENDBRANCH  16  17
ENDBRANCH  15  16
ENDBRANCH  14  15
ENDBRANCH  13  14
ENDBRANCH  11  13
TORSDOF 7
ENDMDL
MODEL       65
REMARK 921   NORMALIZED FREE ENERGY PREDICTED BY IDOCK:   -6.01 KCAL/MOL
REMARK 922        TOTAL FREE ENERGY PREDICTED BY IDOCK:   -9.48 KCAL/MOL
REMARK 923 INTER-LIGAND FREE ENERGY PREDICTED BY IDOCK:   -8.56 KCAL/MOL
REMARK 924 INTRA-LIGAND FREE ENERGY PREDICTED BY IDOCK:   -0.92 KCAL/MOL
REMARK 927      BINDING AFFINITY PREDICTED BY RF-SCORE:    0.00 PKD
ROOT
HETATM    1  O   UNL     1     -11.597  15.166  64.766  1.00  0.00    -0.398 OA 
HETATM    2  C   UNL     1     -11.772  14.260  65.579  1.00  0.00    -0.353 C  
HETATM    3  C   UNL     1     -12.045  12.835  65.158  1.00  0.00    -0.498 C  
HETATM    4  C   UNL     1     -11.485  11.816  66.143  1.00  0.00    -0.288 C  
HETATM    5  C   UNL     1     -11.771  12.182  67.575  1.00  0.00    -0.385 A  
HETATM    6  C   UNL     1     -11.936  13.533  67.908  1.00  0.00    -0.337 A  
HETATM    7  N   UNL     1     -11.853  14.517  66.919  1.00  0.00    -0.395 N  
HETATM    8  C   UNL     1     -12.133  13.908  69.233  1.00  0.00    -0.383 A  
HETATM    9  C   UNL     1     -12.155  12.935  70.239  1.00  0.00    -0.377 A  
HETATM   10  H   UNL     1     -11.853  15.492  67.217  1.00  0.00     0.000 HD 
HETATM   11  C   UNL     1     -11.958  11.583  69.938  1.00  0.00    -0.351 A  
HETATM   12  C   UNL     1     -11.769  11.211  68.600  1.00  0.00    -0.389 A  
ENDROOT
BRANCH  11  13
HETATM   13  O   UNL     1     -11.964  10.753  71.035  1.00  0.00    -0.334 OA 
BRANCH  13  14
HETATM   14  C   UNL     1     -13.108  10.809  71.888  1.00  0.00    -0.451 C  
BRANCH  14  15
HETATM   15  C   UNL     1     -13.706   9.399  72.107  1.00  0.00    -0.490 C  
BRANCH  15  16
HETATM   16  C   UNL     1     -12.561   8.379  72.187  1.00  0.00    -0.412 C  
BRANCH  16  17
HETATM   17  C   UNL     1     -12.626   7.134  71.294  1.00  0.00    -0.421 C  
BRANCH  17  18
HETATM   18  C   UNL     1     -11.369   6.791  70.577  1.00  0.00    -0.343 A  
HETATM   19  N   UNL     1     -10.939   7.485  69.536  1.00  0.00    -0.169 NA 
HETATM   20  N   UNL     1      -9.732   6.967  69.180  1.00  0.00    -0.154 NA 
HETATM   21  N   UNL     1      -9.414   5.954  69.961  1.00  0.00    -0.156 NA 
HETATM   22  N   UNL     1     -10.397   5.860  70.887  1.00  0.00    -0.218 NA 
BRANCH  22  23
HETATM   23  C   UNL     1     -10.275   4.797  71.882  1.00  0.00    -0.193 C  
HETATM   24  C   UNL     1      -8.794   4.480  72.231  1.00  0.00    -0.133 C  
HETATM   25  C   UNL     1      -8.148   5.630  73.008  1.00  0.00    -0.118 C  
HETATM   26  C   UNL     1      -8.894   5.890  74.312  1.00  0.00    -0.123 C  
HETATM   27  C   UNL     1     -10.397   6.074  74.098  1.00  0.00    -0.301 C  
HETATM   28  C   UNL     1     -11.004   4.973  73.225  1.00  0.00    -0.384 C  
ENDBRANCH  22  23
ENDBRANCH  17  18
ENDBRANCH  16  17
ENDBRANCH  15  16
ENDBRANCH  14  15
ENDBRANCH  13  14
ENDBRANCH  11  13
TORSDOF 7
ENDMDL
MODEL       66
REMARK 921   NORMALIZED FREE ENERGY PREDICTED BY IDOCK:   -6.00 KCAL/MOL
REMARK 922        TOTAL FREE ENERGY PREDICTED BY IDOCK:   -9.47 KCAL/MOL
REMARK 923 INTER-LIGAND FREE ENERGY PREDICTED BY IDOCK:   -8.81 KCAL/MOL
REMARK 924 INTRA-LIGAND FREE ENERGY PREDICTED BY IDOCK:   -0.66 KCAL/MOL
REMARK 927      BINDING AFFINITY PREDICTED BY RF-SCORE:    0.00 PKD
ROOT
HETATM    1  O   UNL     1     -11.555  16.456  63.898  1.00  0.00    -1.100 OA 
HETATM    2  C   UNL     1     -11.325  15.868  64.952  1.00  0.00    -0.256 C  
HETATM    3  C   UNL     1     -10.530  16.494  66.074  1.00  0.00    -0.320 C  
HETATM    4  C   UNL     1     -10.983  16.018  67.449  1.00  0.00    -0.237 C  
HETATM    5  C   UNL     1     -11.199  14.529  67.500  1.00  0.00    -0.333 A  
HETATM    6  C   UNL     1     -11.548  13.855  66.324  1.00  0.00    -0.365 A  
HETATM    7  N   UNL     1     -11.673  14.556  65.121  1.00  0.00    -0.365 N  
HETATM    8  C   UNL     1     -11.822  12.491  66.353  1.00  0.00    -0.445 A  
HETATM    9  C   UNL     1     -11.760  11.792  67.564  1.00  0.00    -0.312 A  
HETATM   10  H   UNL     1     -12.048  14.056  64.316  1.00  0.00     0.000 HD 
HETATM   11  C   UNL     1     -11.449  12.448  68.760  1.00  0.00    -0.304 A  
HETATM   12  C   UNL     1     -11.166  13.820  68.722  1.00  0.00    -0.303 A  
ENDROOT
BRANCH  11  13
HETATM   13  O   UNL     1     -11.470  11.638  69.872  1.00  0.00    -0.277 OA 
BRANCH  13  14
HETATM   14  C   UNL     1     -12.518  11.856  70.816  1.00  0.00    -0.291 C  
BRANCH  14  15
HETATM   15  C   UNL     1     -12.745  10.600  71.691  1.00  0.00    -0.531 C  
BRANCH  15  16
HETATM   16  C   UNL     1     -12.021   9.407  71.049  1.00  0.00    -0.389 C  
BRANCH  16  17
HETATM   17  C   UNL     1     -12.468   7.991  71.427  1.00  0.00    -0.320 C  
BRANCH  17  18
HETATM   18  C   UNL     1     -11.718   6.884  70.777  1.00  0.00    -0.369 A  
HETATM   19  N   UNL     1     -11.713   6.710  69.465  1.00  0.00    -0.203 NA 
HETATM   20  N   UNL     1     -10.867   5.677  69.201  1.00  0.00    -0.266 NA 
HETATM   21  N   UNL     1     -10.364   5.192  70.318  1.00  0.00    -0.275 NA 
HETATM   22  N   UNL     1     -10.835   5.972  71.322  1.00  0.00    -0.262 NA 
BRANCH  22  23
HETATM   23  C   UNL     1     -10.417   5.634  72.680  1.00  0.00    -0.209 C  
HETATM   24  C   UNL     1      -9.060   4.877  72.710  1.00  0.00    -0.135 C  
HETATM   25  C   UNL     1      -7.903   5.796  72.311  1.00  0.00    -0.103 C  
HETATM   26  C   UNL     1      -7.801   6.985  73.260  1.00  0.00    -0.108 C  
HETATM   27  C   UNL     1      -9.131   7.721  73.418  1.00  0.00    -0.336 C  
HETATM   28  C   UNL     1     -10.297   6.772  73.707  1.00  0.00    -0.397 C  
ENDBRANCH  22  23
ENDBRANCH  17  18
ENDBRANCH  16  17
ENDBRANCH  15  16
ENDBRANCH  14  15
ENDBRANCH  13  14
ENDBRANCH  11  13
TORSDOF 7
ENDMDL
MODEL       67
REMARK 921   NORMALIZED FREE ENERGY PREDICTED BY IDOCK:   -6.00 KCAL/MOL
REMARK 922        TOTAL FREE ENERGY PREDICTED BY IDOCK:   -9.47 KCAL/MOL
REMARK 923 INTER-LIGAND FREE ENERGY PREDICTED BY IDOCK:   -8.40 KCAL/MOL
REMARK 924 INTRA-LIGAND FREE ENERGY PREDICTED BY IDOCK:   -1.07 KCAL/MOL
REMARK 927      BINDING AFFINITY PREDICTED BY RF-SCORE:    0.00 PKD
ROOT
HETATM    1  O   UNL     1      -6.331  19.284  65.662  1.00  0.00    -0.202 OA 
HETATM    2  C   UNL     1      -7.320  19.000  66.334  1.00  0.00    -0.245 C  
HETATM    3  C   UNL     1      -8.469  19.960  66.531  1.00  0.00    -0.379 C  
HETATM    4  C   UNL     1      -9.809  19.248  66.678  1.00  0.00    -0.442 C  
HETATM    5  C   UNL     1      -9.731  18.062  67.601  1.00  0.00    -0.291 A  
HETATM    6  C   UNL     1      -8.509  17.393  67.744  1.00  0.00    -0.223 A  
HETATM    7  N   UNL     1      -7.380  17.837  67.050  1.00  0.00    -0.187 N  
HETATM    8  C   UNL     1      -8.423  16.252  68.536  1.00  0.00    -0.206 A  
HETATM    9  C   UNL     1      -9.564  15.765  69.184  1.00  0.00    -0.255 A  
HETATM   10  H   UNL     1      -6.544  17.253  67.080  1.00  0.00     0.000 HD 
HETATM   11  C   UNL     1     -10.804  16.393  69.031  1.00  0.00    -0.331 A  
HETATM   12  C   UNL     1     -10.882  17.546  68.238  1.00  0.00    -0.223 A  
ENDROOT
BRANCH  11  13
HETATM   13  O   UNL     1     -11.838  15.773  69.695  1.00  0.00    -0.345 OA 
BRANCH  13  14
HETATM   14  C   UNL     1     -11.488  14.818  70.697  1.00  0.00    -0.234 C  
BRANCH  14  15
HETATM   15  C   UNL     1     -12.513  13.660  70.740  1.00  0.00    -0.432 C  
BRANCH  15  16
HETATM   16  C   UNL     1     -11.990  12.499  69.882  1.00  0.00    -0.371 C  
BRANCH  16  17
HETATM   17  C   UNL     1     -11.775  12.736  68.383  1.00  0.00    -0.380 C  
BRANCH  17  18
HETATM   18  C   UNL     1     -11.175  11.603  67.632  1.00  0.00    -0.281 A  
HETATM   19  N   UNL     1     -11.268  10.351  68.050  1.00  0.00    -0.298 NA 
HETATM   20  N   UNL     1     -10.696   9.566  67.097  1.00  0.00    -0.230 NA 
HETATM   21  N   UNL     1     -10.232  10.301  66.108  1.00  0.00    -0.234 NA 
HETATM   22  N   UNL     1     -10.573  11.582  66.389  1.00  0.00    -0.250 NA 
BRANCH  22  23
HETATM   23  C   UNL     1     -10.163  12.606  65.430  1.00  0.00    -0.284 C  
HETATM   24  C   UNL     1     -10.231  12.102  63.962  1.00  0.00    -0.396 C  
HETATM   25  C   UNL     1     -11.680  11.899  63.511  1.00  0.00    -0.550 C  
HETATM   26  C   UNL     1     -12.465  13.203  63.599  1.00  0.00    -0.374 C  
HETATM   27  C   UNL     1     -12.346  13.864  64.973  1.00  0.00    -0.452 C  
HETATM   28  C   UNL     1     -10.896  13.958  65.456  1.00  0.00    -0.306 C  
ENDBRANCH  22  23
ENDBRANCH  17  18
ENDBRANCH  16  17
ENDBRANCH  15  16
ENDBRANCH  14  15
ENDBRANCH  13  14
ENDBRANCH  11  13
TORSDOF 7
ENDMDL
MODEL       68
REMARK 921   NORMALIZED FREE ENERGY PREDICTED BY IDOCK:   -5.99 KCAL/MOL
REMARK 922        TOTAL FREE ENERGY PREDICTED BY IDOCK:   -9.46 KCAL/MOL
REMARK 923 INTER-LIGAND FREE ENERGY PREDICTED BY IDOCK:   -8.25 KCAL/MOL
REMARK 924 INTRA-LIGAND FREE ENERGY PREDICTED BY IDOCK:   -1.21 KCAL/MOL
REMARK 927      BINDING AFFINITY PREDICTED BY RF-SCORE:    0.00 PKD
ROOT
HETATM    1  O   UNL     1     -11.619  16.517  63.839  1.00  0.00    -1.175 OA 
HETATM    2  C   UNL     1     -11.333  15.906  64.867  1.00  0.00    -0.256 C  
HETATM    3  C   UNL     1     -10.423  16.482  65.926  1.00  0.00    -0.335 C  
HETATM    4  C   UNL     1     -10.785  16.010  67.329  1.00  0.00    -0.295 C  
HETATM    5  C   UNL     1     -11.064  14.532  67.384  1.00  0.00    -0.320 A  
HETATM    6  C   UNL     1     -11.535  13.887  66.233  1.00  0.00    -0.339 A  
HETATM    7  N   UNL     1     -11.724  14.609  65.051  1.00  0.00    -0.376 N  
HETATM    8  C   UNL     1     -11.867  12.537  66.272  1.00  0.00    -0.453 A  
HETATM    9  C   UNL     1     -11.740  11.821  67.468  1.00  0.00    -0.312 A  
HETATM   10  H   UNL     1     -12.185  14.136  64.274  1.00  0.00     0.000 HD 
HETATM   11  C   UNL     1     -11.306  12.447  68.641  1.00  0.00    -0.288 A  
HETATM   12  C   UNL     1     -10.966  13.806  68.593  1.00  0.00    -0.287 A  
ENDROOT
BRANCH  11  13
HETATM   13  O   UNL     1     -11.274  11.625  69.743  1.00  0.00    -0.223 OA 
BRANCH  13  14
HETATM   14  C   UNL     1     -12.410  10.790  69.965  1.00  0.00    -0.298 C  
BRANCH  14  15
HETATM   15  C   UNL     1     -12.007   9.488  70.697  1.00  0.00    -0.266 C  
BRANCH  15  16
HETATM   16  C   UNL     1     -10.519   9.565  71.067  1.00  0.00    -0.377 C  
BRANCH  16  17
HETATM   17  C   UNL     1      -9.531   8.662  70.319  1.00  0.00    -0.182 C  
BRANCH  17  18
HETATM   18  C   UNL     1      -9.597   8.727  68.835  1.00  0.00    -0.158 A  
HETATM   19  N   UNL     1      -8.959   9.655  68.140  1.00  0.00    -0.123 NA 
HETATM   20  N   UNL     1      -9.156   9.376  66.823  1.00  0.00    -0.137 NA 
HETATM   21  N   UNL     1      -9.918   8.310  66.684  1.00  0.00    -0.269 NA 
HETATM   22  N   UNL     1     -10.161   7.846  67.933  1.00  0.00    -0.182 NA 
BRANCH  22  23
HETATM   23  C   UNL     1     -10.997   6.654  68.050  1.00  0.00    -0.249 C  
HETATM   24  C   UNL     1     -10.689   5.604  66.946  1.00  0.00    -0.350 C  
HETATM   25  C   UNL     1      -9.312   4.968  67.155  1.00  0.00    -0.132 C  
HETATM   26  C   UNL     1      -9.236   4.267  68.507  1.00  0.00    -0.194 C  
HETATM   27  C   UNL     1      -9.664   5.176  69.660  1.00  0.00    -0.255 C  
HETATM   28  C   UNL     1     -10.990   5.890  69.384  1.00  0.00    -0.421 C  
ENDBRANCH  22  23
ENDBRANCH  17  18
ENDBRANCH  16  17
ENDBRANCH  15  16
ENDBRANCH  14  15
ENDBRANCH  13  14
ENDBRANCH  11  13
TORSDOF 7
ENDMDL
MODEL       69
REMARK 921   NORMALIZED FREE ENERGY PREDICTED BY IDOCK:   -5.99 KCAL/MOL
REMARK 922        TOTAL FREE ENERGY PREDICTED BY IDOCK:   -9.45 KCAL/MOL
REMARK 923 INTER-LIGAND FREE ENERGY PREDICTED BY IDOCK:   -8.85 KCAL/MOL
REMARK 924 INTRA-LIGAND FREE ENERGY PREDICTED BY IDOCK:   -0.61 KCAL/MOL
REMARK 927      BINDING AFFINITY PREDICTED BY RF-SCORE:    0.00 PKD
ROOT
HETATM    1  O   UNL     1      -8.164   3.347  67.110  1.00  0.00    -0.089 OA 
HETATM    2  C   UNL     1      -8.601   4.456  66.810  1.00  0.00    -0.107 C  
HETATM    3  C   UNL     1      -9.972   4.929  67.236  1.00  0.00    -0.220 C  
HETATM    4  C   UNL     1     -10.027   6.434  67.464  1.00  0.00    -0.165 C  
HETATM    5  C   UNL     1      -9.336   7.207  66.372  1.00  0.00    -0.190 A  
HETATM    6  C   UNL     1      -8.293   6.595  65.665  1.00  0.00    -0.144 A  
HETATM    7  N   UNL     1      -7.917   5.282  65.962  1.00  0.00    -0.103 N  
HETATM    8  C   UNL     1      -7.589   7.306  64.699  1.00  0.00    -0.106 A  
HETATM    9  C   UNL     1      -7.917   8.642  64.438  1.00  0.00    -0.146 A  
HETATM   10  H   UNL     1      -7.077   4.915  65.517  1.00  0.00     0.000 HD 
HETATM   11  C   UNL     1      -8.931   9.288  65.154  1.00  0.00    -0.209 A  
HETATM   12  C   UNL     1      -9.640   8.563  66.121  1.00  0.00    -0.276 A  
ENDROOT
BRANCH  11  13
HETATM   13  O   UNL     1      -9.107  10.611  64.816  1.00  0.00    -0.193 OA 
BRANCH  13  14
HETATM   14  C   UNL     1     -10.450  11.088  64.737  1.00  0.00    -0.316 C  
BRANCH  14  15
HETATM   15  C   UNL     1     -10.686  11.863  63.418  1.00  0.00    -0.476 C  
BRANCH  15  16
HETATM   16  C   UNL     1     -12.071  12.523  63.469  1.00  0.00    -0.653 C  
BRANCH  16  17
HETATM   17  C   UNL     1     -12.410  13.422  64.663  1.00  0.00    -0.433 C  
BRANCH  17  18
HETATM   18  C   UNL     1     -11.771  14.765  64.659  1.00  0.00    -0.422 A  
HETATM   19  N   UNL     1     -12.167  15.732  63.847  1.00  0.00    -0.670 NA 
HETATM   20  N   UNL     1     -11.443  16.840  64.160  1.00  0.00    -1.096 NA 
HETATM   21  N   UNL     1     -10.593  16.579  65.133  1.00  0.00    -0.674 NA 
HETATM   22  N   UNL     1     -10.820  15.297  65.507  1.00  0.00    -0.352 NA 
BRANCH  22  23
HETATM   23  C   UNL     1      -9.991  14.760  66.584  1.00  0.00    -0.264 C  
HETATM   24  C   UNL     1      -9.800  15.775  67.746  1.00  0.00    -0.224 C  
HETATM   25  C   UNL     1     -11.106  15.990  68.515  1.00  0.00    -0.347 C  
HETATM   26  C   UNL     1     -11.608  14.679  69.111  1.00  0.00    -0.331 C  
HETATM   27  C   UNL     1     -11.695  13.561  68.072  1.00  0.00    -0.394 C  
HETATM   28  C   UNL     1     -10.418  13.435  67.237  1.00  0.00    -0.248 C  
ENDBRANCH  22  23
ENDBRANCH  17  18
ENDBRANCH  16  17
ENDBRANCH  15  16
ENDBRANCH  14  15
ENDBRANCH  13  14
ENDBRANCH  11  13
TORSDOF 7
ENDMDL
MODEL       70
REMARK 921   NORMALIZED FREE ENERGY PREDICTED BY IDOCK:   -5.98 KCAL/MOL
REMARK 922        TOTAL FREE ENERGY PREDICTED BY IDOCK:   -9.45 KCAL/MOL
REMARK 923 INTER-LIGAND FREE ENERGY PREDICTED BY IDOCK:   -8.44 KCAL/MOL
REMARK 924 INTRA-LIGAND FREE ENERGY PREDICTED BY IDOCK:   -1.01 KCAL/MOL
REMARK 927      BINDING AFFINITY PREDICTED BY RF-SCORE:    0.00 PKD
ROOT
HETATM    1  O   UNL     1      -9.402  10.674  62.386  1.00  0.00    -0.269 OA 
HETATM    2  C   UNL     1      -9.851  10.956  63.494  1.00  0.00    -0.359 C  
HETATM    3  C   UNL     1      -9.732  10.026  64.678  1.00  0.00    -0.339 C  
HETATM    4  C   UNL     1      -9.617  10.773  66.001  1.00  0.00    -0.244 C  
HETATM    5  C   UNL     1     -10.601  11.907  66.108  1.00  0.00    -0.295 A  
HETATM    6  C   UNL     1     -11.050  12.528  64.936  1.00  0.00    -0.299 A  
HETATM    7  N   UNL     1     -10.602  12.083  63.689  1.00  0.00    -0.411 N  
HETATM    8  C   UNL     1     -11.906  13.622  65.005  1.00  0.00    -0.379 A  
HETATM    9  C   UNL     1     -12.311  14.114  66.252  1.00  0.00    -0.451 A  
HETATM   10  H   UNL     1     -10.851  12.635  62.869  1.00  0.00     0.000 HD 
HETATM   11  C   UNL     1     -11.850  13.536  67.439  1.00  0.00    -0.384 A  
HETATM   12  C   UNL     1     -10.994  12.428  67.362  1.00  0.00    -0.296 A  
ENDROOT
BRANCH  11  13
HETATM   13  O   UNL     1     -12.300  14.155  68.582  1.00  0.00    -0.257 OA 
BRANCH  13  14
HETATM   14  C   UNL     1     -11.681  15.391  68.940  1.00  0.00    -0.359 C  
BRANCH  14  15
HETATM   15  C   UNL     1     -10.567  15.169  69.990  1.00  0.00    -0.237 C  
BRANCH  15  16
HETATM   16  C   UNL     1      -9.203  15.416  69.329  1.00  0.00    -0.259 C  
BRANCH  16  17
HETATM   17  C   UNL     1      -9.166  16.130  67.973  1.00  0.00    -0.195 C  
BRANCH  17  18
HETATM   18  C   UNL     1      -7.846  16.686  67.574  1.00  0.00    -0.171 A  
HETATM   19  N   UNL     1      -6.914  15.945  66.996  1.00  0.00    -0.223 NA 
HETATM   20  N   UNL     1      -5.880  16.773  66.685  1.00  0.00    -0.327 NA 
HETATM   21  N   UNL     1      -6.138  18.004  67.075  1.00  0.00    -0.142 NA 
HETATM   22  N   UNL     1      -7.394  17.991  67.583  1.00  0.00    -0.206 NA 
BRANCH  22  23
HETATM   23  C   UNL     1      -7.919  19.255  68.093  1.00  0.00    -0.308 C  
HETATM   24  C   UNL     1      -7.934  20.369  67.010  1.00  0.00    -0.359 C  
HETATM   25  C   UNL     1      -8.978  20.079  65.929  1.00  0.00    -0.162 C  
HETATM   26  C   UNL     1     -10.376  19.990  66.533  1.00  0.00    -0.572 C  
HETATM   27  C   UNL     1     -10.440  19.019  67.712  1.00  0.00    -0.499 C  
HETATM   28  C   UNL     1      -9.320  19.255  68.729  1.00  0.00    -0.437 C  
ENDBRANCH  22  23
ENDBRANCH  17  18
ENDBRANCH  16  17
ENDBRANCH  15  16
ENDBRANCH  14  15
ENDBRANCH  13  14
ENDBRANCH  11  13
TORSDOF 7
ENDMDL
MODEL       71
REMARK 921   NORMALIZED FREE ENERGY PREDICTED BY IDOCK:   -5.98 KCAL/MOL
REMARK 922        TOTAL FREE ENERGY PREDICTED BY IDOCK:   -9.44 KCAL/MOL
REMARK 923 INTER-LIGAND FREE ENERGY PREDICTED BY IDOCK:   -8.75 KCAL/MOL
REMARK 924 INTRA-LIGAND FREE ENERGY PREDICTED BY IDOCK:   -0.69 KCAL/MOL
REMARK 927      BINDING AFFINITY PREDICTED BY RF-SCORE:    0.00 PKD
ROOT
HETATM    1  O   UNL     1      -7.815   6.735  65.131  1.00  0.00    -0.105 OA 
HETATM    2  C   UNL     1      -8.385   7.807  65.323  1.00  0.00    -0.122 C  
HETATM    3  C   UNL     1      -8.826   8.256  66.696  1.00  0.00    -0.166 C  
HETATM    4  C   UNL     1      -8.776   9.770  66.862  1.00  0.00    -0.143 C  
HETATM    5  C   UNL     1      -9.353  10.497  65.677  1.00  0.00    -0.242 A  
HETATM    6  C   UNL     1      -9.316   9.881  64.419  1.00  0.00    -0.265 A  
HETATM    7  N   UNL     1      -8.767   8.603  64.279  1.00  0.00    -0.407 N  
HETATM    8  C   UNL     1      -9.777  10.555  63.294  1.00  0.00    -0.361 A  
HETATM    9  C   UNL     1     -10.271  11.860  63.416  1.00  0.00    -0.478 A  
HETATM   10  H   UNL     1      -8.644   8.240  63.334  1.00  0.00     0.000 HD 
HETATM   11  C   UNL     1     -10.287  12.512  64.653  1.00  0.00    -0.317 A  
HETATM   12  C   UNL     1      -9.828  11.824  65.784  1.00  0.00    -0.267 A  
ENDROOT
BRANCH  11  13
HETATM   13  O   UNL     1     -10.760  13.803  64.605  1.00  0.00    -0.387 OA 
BRANCH  13  14
HETATM   14  C   UNL     1     -12.161  13.991  64.806  1.00  0.00    -0.437 C  
BRANCH  14  15
HETATM   15  C   UNL     1     -12.517  13.934  66.311  1.00  0.00    -0.454 C  
BRANCH  15  16
HETATM   16  C   UNL     1     -11.478  14.744  67.100  1.00  0.00    -0.375 C  
BRANCH  16  17
HETATM   17  C   UNL     1     -10.689  14.038  68.209  1.00  0.00    -0.262 C  
BRANCH  17  18
HETATM   18  C   UNL     1     -11.495  13.220  69.152  1.00  0.00    -0.305 A  
HETATM   19  N   UNL     1     -11.323  11.914  69.277  1.00  0.00    -0.268 NA 
HETATM   20  N   UNL     1     -12.147  11.495  70.276  1.00  0.00    -0.352 NA 
HETATM   21  N   UNL     1     -12.843  12.505  70.757  1.00  0.00    -0.097 NA 
HETATM   22  N   UNL     1     -12.409  13.613  70.111  1.00  0.00    -0.326 NA 
BRANCH  22  23
HETATM   23  C   UNL     1     -13.035  14.883  70.470  1.00  0.00    -0.292 C  
HETATM   24  C   UNL     1     -13.981  14.750  71.696  1.00  0.00    -0.559 C  
HETATM   25  C   UNL     1     -13.190  14.485  72.980  1.00  0.00    -0.575 C  
HETATM   26  C   UNL     1     -12.212  15.621  73.260  1.00  0.00    -0.616 C  
HETATM   27  C   UNL     1     -11.323  15.935  72.056  1.00  0.00    -0.277 C  
HETATM   28  C   UNL     1     -12.122  16.086  70.760  1.00  0.00    -0.296 C  
ENDBRANCH  22  23
ENDBRANCH  17  18
ENDBRANCH  16  17
ENDBRANCH  15  16
ENDBRANCH  14  15
ENDBRANCH  13  14
ENDBRANCH  11  13
TORSDOF 7
ENDMDL
MODEL       72
REMARK 921   NORMALIZED FREE ENERGY PREDICTED BY IDOCK:   -5.97 KCAL/MOL
REMARK 922        TOTAL FREE ENERGY PREDICTED BY IDOCK:   -9.43 KCAL/MOL
REMARK 923 INTER-LIGAND FREE ENERGY PREDICTED BY IDOCK:   -8.49 KCAL/MOL
REMARK 924 INTRA-LIGAND FREE ENERGY PREDICTED BY IDOCK:   -0.95 KCAL/MOL
REMARK 927      BINDING AFFINITY PREDICTED BY RF-SCORE:    0.00 PKD
ROOT
HETATM    1  O   UNL     1     -12.734  15.319  63.743  1.00  0.00    -0.687 OA 
HETATM    2  C   UNL     1     -12.155  14.410  64.333  1.00  0.00    -0.470 C  
HETATM    3  C   UNL     1     -11.986  14.395  65.834  1.00  0.00    -0.367 C  
HETATM    4  C   UNL     1     -11.981  12.984  66.410  1.00  0.00    -0.466 C  
HETATM    5  C   UNL     1     -11.127  12.039  65.608  1.00  0.00    -0.361 A  
HETATM    6  C   UNL     1     -10.935  12.291  64.243  1.00  0.00    -0.343 A  
HETATM    7  N   UNL     1     -11.516  13.415  63.647  1.00  0.00    -0.625 N  
HETATM    8  C   UNL     1     -10.209  11.399  63.461  1.00  0.00    -0.461 A  
HETATM    9  C   UNL     1      -9.676  10.239  64.037  1.00  0.00    -0.343 A  
HETATM   10  H   UNL     1     -11.459  13.497  62.633  1.00  0.00     0.000 HD 
HETATM   11  C   UNL     1      -9.882   9.945  65.388  1.00  0.00    -0.313 A  
HETATM   12  C   UNL     1     -10.609  10.852  66.172  1.00  0.00    -0.270 A  
ENDROOT
BRANCH  11  13
HETATM   13  O   UNL     1      -9.336   8.751  65.797  1.00  0.00    -0.225 OA 
BRANCH  13  14
HETATM   14  C   UNL     1      -7.917   8.619  65.704  1.00  0.00    -0.105 C  
BRANCH  14  15
HETATM   15  C   UNL     1      -7.218   9.276  66.917  1.00  0.00    -0.086 C  
BRANCH  15  16
HETATM   16  C   UNL     1      -8.100   9.091  68.161  1.00  0.00    -0.105 C  
BRANCH  16  17
HETATM   17  C   UNL     1      -7.928   7.817  68.996  1.00  0.00    -0.123 C  
BRANCH  17  18
HETATM   18  C   UNL     1      -9.157   7.003  69.186  1.00  0.00    -0.136 A  
HETATM   19  N   UNL     1      -9.567   6.123  68.287  1.00  0.00    -0.120 NA 
HETATM   20  N   UNL     1     -10.657   5.495  68.807  1.00  0.00    -0.197 NA 
HETATM   21  N   UNL     1     -10.946   5.979  69.998  1.00  0.00    -0.357 NA 
HETATM   22  N   UNL     1      -9.983   6.887  70.288  1.00  0.00    -0.179 NA 
BRANCH  22  23
HETATM   23  C   UNL     1     -10.082   7.575  71.572  1.00  0.00    -0.181 C  
HETATM   24  C   UNL     1      -9.738   9.086  71.462  1.00  0.00    -0.365 C  
HETATM   25  C   UNL     1     -10.817   9.845  70.685  1.00  0.00    -0.400 C  
HETATM   26  C   UNL     1     -12.172   9.719  71.372  1.00  0.00    -0.486 C  
HETATM   27  C   UNL     1     -12.546   8.265  71.662  1.00  0.00    -0.355 C  
HETATM   28  C   UNL     1     -11.411   7.491  72.340  1.00  0.00    -0.362 C  
ENDBRANCH  22  23
ENDBRANCH  17  18
ENDBRANCH  16  17
ENDBRANCH  15  16
ENDBRANCH  14  15
ENDBRANCH  13  14
ENDBRANCH  11  13
TORSDOF 7
ENDMDL
MODEL       73
REMARK 921   NORMALIZED FREE ENERGY PREDICTED BY IDOCK:   -5.97 KCAL/MOL
REMARK 922        TOTAL FREE ENERGY PREDICTED BY IDOCK:   -9.43 KCAL/MOL
REMARK 923 INTER-LIGAND FREE ENERGY PREDICTED BY IDOCK:   -8.60 KCAL/MOL
REMARK 924 INTRA-LIGAND FREE ENERGY PREDICTED BY IDOCK:   -0.84 KCAL/MOL
REMARK 927      BINDING AFFINITY PREDICTED BY RF-SCORE:    0.00 PKD
ROOT
HETATM    1  O   UNL     1     -12.615  14.795  64.144  1.00  0.00    -0.784 OA 
HETATM    2  C   UNL     1     -12.143  13.676  64.338  1.00  0.00    -0.427 C  
HETATM    3  C   UNL     1     -11.888  12.699  63.215  1.00  0.00    -0.504 C  
HETATM    4  C   UNL     1     -10.690  11.797  63.484  1.00  0.00    -0.501 C  
HETATM    5  C   UNL     1     -10.682  11.255  64.889  1.00  0.00    -0.337 A  
HETATM    6  C   UNL     1     -11.306  11.993  65.903  1.00  0.00    -0.337 A  
HETATM    7  N   UNL     1     -11.940  13.203  65.604  1.00  0.00    -0.390 N  
HETATM    8  C   UNL     1     -11.256  11.554  67.222  1.00  0.00    -0.365 A  
HETATM    9  C   UNL     1     -10.571  10.375  67.539  1.00  0.00    -0.312 A  
HETATM   10  H   UNL     1     -12.272  13.771  66.383  1.00  0.00     0.000 HD 
HETATM   11  C   UNL     1      -9.909   9.637  66.552  1.00  0.00    -0.235 A  
HETATM   12  C   UNL     1      -9.970  10.082  65.224  1.00  0.00    -0.368 A  
ENDROOT
BRANCH  11  13
HETATM   13  O   UNL     1      -9.245   8.529  67.024  1.00  0.00    -0.142 OA 
BRANCH  13  14
HETATM   14  C   UNL     1      -8.529   8.672  68.251  1.00  0.00    -0.131 C  
BRANCH  14  15
HETATM   15  C   UNL     1      -8.455   7.326  69.010  1.00  0.00    -0.129 C  
BRANCH  15  16
HETATM   16  C   UNL     1      -9.436   6.336  68.366  1.00  0.00    -0.118 C  
BRANCH  16  17
HETATM   17  C   UNL     1     -10.675   5.912  69.162  1.00  0.00    -0.394 C  
BRANCH  17  18
HETATM   18  C   UNL     1     -10.410   5.126  70.396  1.00  0.00    -0.256 A  
HETATM   19  N   UNL     1      -9.667   4.032  70.388  1.00  0.00    -0.198 NA 
HETATM   20  N   UNL     1      -9.553   3.615  71.679  1.00  0.00    -0.146 NA 
HETATM   21  N   UNL     1     -10.226   4.413  72.484  1.00  0.00    -0.177 NA 
HETATM   22  N   UNL     1     -10.726   5.407  71.711  1.00  0.00    -0.226 NA 
BRANCH  22  23
HETATM   23  C   UNL     1     -11.524   6.432  72.378  1.00  0.00    -0.282 C  
HETATM   24  C   UNL     1     -10.656   7.388  73.243  1.00  0.00    -0.442 C  
HETATM   25  C   UNL     1      -9.775   8.283  72.367  1.00  0.00    -0.373 C  
HETATM   26  C   UNL     1     -10.627   9.135  71.432  1.00  0.00    -0.412 C  
HETATM   27  C   UNL     1     -11.627   8.301  70.631  1.00  0.00    -0.199 C  
HETATM   28  C   UNL     1     -12.421   7.332  71.510  1.00  0.00    -0.408 C  
ENDBRANCH  22  23
ENDBRANCH  17  18
ENDBRANCH  16  17
ENDBRANCH  15  16
ENDBRANCH  14  15
ENDBRANCH  13  14
ENDBRANCH  11  13
TORSDOF 7
ENDMDL
MODEL       74
REMARK 921   NORMALIZED FREE ENERGY PREDICTED BY IDOCK:   -5.97 KCAL/MOL
REMARK 922        TOTAL FREE ENERGY PREDICTED BY IDOCK:   -9.42 KCAL/MOL
REMARK 923 INTER-LIGAND FREE ENERGY PREDICTED BY IDOCK:   -9.00 KCAL/MOL
REMARK 924 INTRA-LIGAND FREE ENERGY PREDICTED BY IDOCK:   -0.42 KCAL/MOL
REMARK 927      BINDING AFFINITY PREDICTED BY RF-SCORE:    0.00 PKD
ROOT
HETATM    1  O   UNL     1     -13.301   8.650  72.865  1.00  0.00    -0.231 OA 
HETATM    2  C   UNL     1     -12.754   9.485  72.148  1.00  0.00    -0.362 C  
HETATM    3  C   UNL     1     -11.574   9.149  71.268  1.00  0.00    -0.401 C  
HETATM    4  C   UNL     1     -11.542   9.977  69.989  1.00  0.00    -0.279 C  
HETATM    5  C   UNL     1     -11.827  11.434  70.240  1.00  0.00    -0.438 A  
HETATM    6  C   UNL     1     -12.613  11.790  71.343  1.00  0.00    -0.262 A  
HETATM    7  N   UNL     1     -13.107  10.805  72.202  1.00  0.00    -0.540 N  
HETATM    8  C   UNL     1     -12.951  13.122  71.562  1.00  0.00    -0.412 A  
HETATM    9  C   UNL     1     -12.512  14.109  70.671  1.00  0.00    -0.432 A  
HETATM   10  H   UNL     1     -13.776  11.090  72.917  1.00  0.00     0.000 HD 
HETATM   11  C   UNL     1     -11.755  13.777  69.543  1.00  0.00    -0.323 A  
HETATM   12  C   UNL     1     -11.412  12.435  69.333  1.00  0.00    -0.336 A  
ENDROOT
BRANCH  11  13
HETATM   13  O   UNL     1     -11.436  14.848  68.740  1.00  0.00    -0.277 OA 
BRANCH  13  14
HETATM   14  C   UNL     1     -11.624  14.686  67.334  1.00  0.00    -0.389 C  
BRANCH  14  15
HETATM   15  C   UNL     1     -10.288  14.346  66.632  1.00  0.00    -0.275 C  
BRANCH  15  16
HETATM   16  C   UNL     1      -9.929  15.484  65.665  1.00  0.00    -0.394 C  
BRANCH  16  17
HETATM   17  C   UNL     1      -8.858  16.495  66.091  1.00  0.00    -0.342 C  
BRANCH  17  18
HETATM   18  C   UNL     1      -9.360  17.708  66.787  1.00  0.00    -0.278 A  
HETATM   19  N   UNL     1     -10.587  18.170  66.605  1.00  0.00    -0.324 NA 
HETATM   20  N   UNL     1     -10.748  19.225  67.449  1.00  0.00    -0.485 NA 
HETATM   21  N   UNL     1      -9.644  19.442  68.135  1.00  0.00    -0.338 NA 
HETATM   22  N   UNL     1      -8.775  18.465  67.784  1.00  0.00    -0.264 NA 
BRANCH  22  23
HETATM   23  C   UNL     1      -7.457  18.487  68.415  1.00  0.00    -0.296 C  
HETATM   24  C   UNL     1      -6.348  17.917  67.488  1.00  0.00    -0.179 C  
HETATM   25  C   UNL     1      -6.077  18.851  66.306  1.00  0.00    -0.199 C  
HETATM   26  C   UNL     1      -5.627  20.225  66.791  1.00  0.00    -0.193 C  
HETATM   27  C   UNL     1      -6.582  20.820  67.826  1.00  0.00    -0.385 C  
HETATM   28  C   UNL     1      -6.928  19.831  68.942  1.00  0.00    -0.367 C  
ENDBRANCH  22  23
ENDBRANCH  17  18
ENDBRANCH  16  17
ENDBRANCH  15  16
ENDBRANCH  14  15
ENDBRANCH  13  14
ENDBRANCH  11  13
TORSDOF 7
ENDMDL
MODEL       75
REMARK 921   NORMALIZED FREE ENERGY PREDICTED BY IDOCK:   -5.97 KCAL/MOL
REMARK 922        TOTAL FREE ENERGY PREDICTED BY IDOCK:   -9.42 KCAL/MOL
REMARK 923 INTER-LIGAND FREE ENERGY PREDICTED BY IDOCK:   -8.44 KCAL/MOL
REMARK 924 INTRA-LIGAND FREE ENERGY PREDICTED BY IDOCK:   -0.98 KCAL/MOL
REMARK 927      BINDING AFFINITY PREDICTED BY RF-SCORE:    0.00 PKD
ROOT
HETATM    1  O   UNL     1     -10.305  17.291  65.282  1.00  0.00    -0.626 OA 
HETATM    2  C   UNL     1     -10.520  16.424  66.126  1.00  0.00    -0.314 C  
HETATM    3  C   UNL     1     -10.520  16.719  67.608  1.00  0.00    -0.328 C  
HETATM    4  C   UNL     1     -11.494  15.837  68.380  1.00  0.00    -0.367 C  
HETATM    5  C   UNL     1     -11.419  14.393  67.961  1.00  0.00    -0.336 A  
HETATM    6  C   UNL     1     -11.003  14.086  66.659  1.00  0.00    -0.300 A  
HETATM    7  N   UNL     1     -10.647  15.109  65.775  1.00  0.00    -0.330 N  
HETATM    8  C   UNL     1     -10.989  12.766  66.220  1.00  0.00    -0.307 A  
HETATM    9  C   UNL     1     -11.403  11.741  67.078  1.00  0.00    -0.387 A  
HETATM   10  H   UNL     1     -10.471  14.858  64.803  1.00  0.00     0.000 HD 
HETATM   11  C   UNL     1     -11.856  12.022  68.371  1.00  0.00    -0.300 A  
HETATM   12  C   UNL     1     -11.860  13.353  68.810  1.00  0.00    -0.386 A  
ENDROOT
BRANCH  11  13
HETATM   13  O   UNL     1     -12.270  10.917  69.079  1.00  0.00    -0.462 OA 
BRANCH  13  14
HETATM   14  C   UNL     1     -12.149  10.972  70.500  1.00  0.00    -0.377 C  
BRANCH  14  15
HETATM   15  C   UNL     1     -13.106   9.962  71.177  1.00  0.00    -0.453 C  
BRANCH  15  16
HETATM   16  C   UNL     1     -12.293   9.051  72.108  1.00  0.00    -0.442 C  
BRANCH  16  17
HETATM   17  C   UNL     1     -10.860   8.686  71.705  1.00  0.00    -0.395 C  
BRANCH  17  18
HETATM   18  C   UNL     1     -10.720   7.485  70.841  1.00  0.00    -0.235 A  
HETATM   19  N   UNL     1     -10.823   6.255  71.320  1.00  0.00    -0.254 NA 
HETATM   20  N   UNL     1     -10.736   5.404  70.262  1.00  0.00    -0.263 NA 
HETATM   21  N   UNL     1     -10.560   6.075  69.141  1.00  0.00    -0.261 NA 
HETATM   22  N   UNL     1     -10.607   7.388  69.467  1.00  0.00    -0.235 NA 
BRANCH  22  23
HETATM   23  C   UNL     1     -10.433   8.351  68.383  1.00  0.00    -0.164 C  
HETATM   24  C   UNL     1      -9.149   9.209  68.553  1.00  0.00    -0.132 C  
HETATM   25  C   UNL     1      -7.887   8.366  68.348  1.00  0.00    -0.113 C  
HETATM   26  C   UNL     1      -7.864   7.754  66.951  1.00  0.00    -0.107 C  
HETATM   27  C   UNL     1      -9.154   7.002  66.622  1.00  0.00    -0.175 C  
HETATM   28  C   UNL     1     -10.408   7.821  66.939  1.00  0.00    -0.396 C  
ENDBRANCH  22  23
ENDBRANCH  17  18
ENDBRANCH  16  17
ENDBRANCH  15  16
ENDBRANCH  14  15
ENDBRANCH  13  14
ENDBRANCH  11  13
TORSDOF 7
ENDMDL
MODEL       76
REMARK 921   NORMALIZED FREE ENERGY PREDICTED BY IDOCK:   -5.96 KCAL/MOL
REMARK 922        TOTAL FREE ENERGY PREDICTED BY IDOCK:   -9.41 KCAL/MOL
REMARK 923 INTER-LIGAND FREE ENERGY PREDICTED BY IDOCK:   -8.88 KCAL/MOL
REMARK 924 INTRA-LIGAND FREE ENERGY PREDICTED BY IDOCK:   -0.53 KCAL/MOL
REMARK 927      BINDING AFFINITY PREDICTED BY RF-SCORE:    0.00 PKD
ROOT
HETATM    1  O   UNL     1      -7.503  21.186  67.276  1.00  0.00    -0.412 OA 
HETATM    2  C   UNL     1      -8.224  20.198  67.147  1.00  0.00    -0.332 C  
HETATM    3  C   UNL     1      -9.727  20.300  67.045  1.00  0.00    -0.598 C  
HETATM    4  C   UNL     1     -10.331  19.208  66.170  1.00  0.00    -0.561 C  
HETATM    5  C   UNL     1      -9.746  17.851  66.460  1.00  0.00    -0.331 A  
HETATM    6  C   UNL     1      -8.443  17.769  66.967  1.00  0.00    -0.231 A  
HETATM    7  N   UNL     1      -7.710  18.933  67.216  1.00  0.00    -0.233 N  
HETATM    8  C   UNL     1      -7.851  16.528  67.180  1.00  0.00    -0.215 A  
HETATM    9  C   UNL     1      -8.555  15.357  66.876  1.00  0.00    -0.291 A  
HETATM   10  H   UNL     1      -6.727  18.832  67.464  1.00  0.00     0.000 HD 
HETATM   11  C   UNL     1      -9.844  15.411  66.335  1.00  0.00    -0.281 A  
HETATM   12  C   UNL     1     -10.437  16.664  66.131  1.00  0.00    -0.291 A  
ENDROOT
BRANCH  11  13
HETATM   13  O   UNL     1     -10.389  14.180  66.049  1.00  0.00    -0.290 OA 
BRANCH  13  14
HETATM   14  C   UNL     1     -11.708  13.925  66.531  1.00  0.00    -0.393 C  
BRANCH  14  15
HETATM   15  C   UNL     1     -11.760  14.013  68.075  1.00  0.00    -0.394 C  
BRANCH  15  16
HETATM   16  C   UNL     1     -10.963  12.843  68.669  1.00  0.00    -0.295 C  
BRANCH  16  17
HETATM   17  C   UNL     1     -11.652  11.480  68.800  1.00  0.00    -0.379 C  
BRANCH  17  18
HETATM   18  C   UNL     1     -12.220  11.173  70.139  1.00  0.00    -0.337 A  
HETATM   19  N   UNL     1     -12.900  12.067  70.839  1.00  0.00    -0.185 NA 
HETATM   20  N   UNL     1     -13.349  11.441  71.960  1.00  0.00    -0.413 NA 
HETATM   21  N   UNL     1     -12.946  10.186  71.984  1.00  0.00    -0.427 NA 
HETATM   22  N   UNL     1     -12.285   9.973  70.821  1.00  0.00    -0.308 NA 
BRANCH  22  23
HETATM   23  C   UNL     1     -11.731   8.639  70.604  1.00  0.00    -0.155 C  
HETATM   24  C   UNL     1     -10.403   8.674  69.798  1.00  0.00    -0.212 C  
HETATM   25  C   UNL     1      -9.269   9.289  70.622  1.00  0.00    -0.321 C  
HETATM   26  C   UNL     1      -9.026   8.486  71.896  1.00  0.00    -0.301 C  
HETATM   27  C   UNL     1     -10.307   8.266  72.700  1.00  0.00    -0.374 C  
HETATM   28  C   UNL     1     -11.463   7.756  71.835  1.00  0.00    -0.320 C  
ENDBRANCH  22  23
ENDBRANCH  17  18
ENDBRANCH  16  17
ENDBRANCH  15  16
ENDBRANCH  14  15
ENDBRANCH  13  14
ENDBRANCH  11  13
TORSDOF 7
ENDMDL
MODEL       77
REMARK 921   NORMALIZED FREE ENERGY PREDICTED BY IDOCK:   -5.95 KCAL/MOL
REMARK 922        TOTAL FREE ENERGY PREDICTED BY IDOCK:   -9.39 KCAL/MOL
REMARK 923 INTER-LIGAND FREE ENERGY PREDICTED BY IDOCK:   -8.21 KCAL/MOL
REMARK 924 INTRA-LIGAND FREE ENERGY PREDICTED BY IDOCK:   -1.18 KCAL/MOL
REMARK 927      BINDING AFFINITY PREDICTED BY RF-SCORE:    0.00 PKD
ROOT
HETATM    1  O   UNL     1     -11.236  15.238  65.160  1.00  0.00    -0.367 OA 
HETATM    2  C   UNL     1     -11.526  14.366  65.976  1.00  0.00    -0.349 C  
HETATM    3  C   UNL     1     -11.892  12.959  65.564  1.00  0.00    -0.455 C  
HETATM    4  C   UNL     1     -11.469  11.918  66.594  1.00  0.00    -0.382 C  
HETATM    5  C   UNL     1     -11.800  12.336  68.002  1.00  0.00    -0.368 A  
HETATM    6  C   UNL     1     -11.872  13.702  68.305  1.00  0.00    -0.369 A  
HETATM    7  N   UNL     1     -11.657  14.656  67.306  1.00  0.00    -0.379 N  
HETATM    8  C   UNL     1     -12.107  14.119  69.611  1.00  0.00    -0.400 A  
HETATM    9  C   UNL     1     -12.262  13.171  70.629  1.00  0.00    -0.402 A  
HETATM   10  H   UNL     1     -11.593  15.633  67.588  1.00  0.00     0.000 HD 
HETATM   11  C   UNL     1     -12.160  11.802  70.361  1.00  0.00    -0.352 A  
HETATM   12  C   UNL     1     -11.930  11.388  69.042  1.00  0.00    -0.387 A  
ENDROOT
BRANCH  11  13
HETATM   13  O   UNL     1     -12.291  10.997  71.470  1.00  0.00    -0.295 OA 
BRANCH  13  14
HETATM   14  C   UNL     1     -13.182   9.886  71.365  1.00  0.00    -0.400 C  
BRANCH  14  15
HETATM   15  C   UNL     1     -12.418   8.548  71.512  1.00  0.00    -0.353 C  
BRANCH  15  16
HETATM   16  C   UNL     1     -11.112   8.802  72.278  1.00  0.00    -0.340 C  
BRANCH  16  17
HETATM   17  C   UNL     1      -9.808   8.229  71.711  1.00  0.00    -0.284 C  
BRANCH  17  18
HETATM   18  C   UNL     1      -9.413   8.734  70.369  1.00  0.00    -0.179 A  
HETATM   19  N   UNL     1      -8.432   9.607  70.205  1.00  0.00    -0.197 NA 
HETATM   20  N   UNL     1      -8.275   9.785  68.865  1.00  0.00    -0.112 NA 
HETATM   21  N   UNL     1      -9.149   9.061  68.195  1.00  0.00    -0.133 NA 
HETATM   22  N   UNL     1      -9.838   8.343  69.114  1.00  0.00    -0.178 NA 
BRANCH  22  23
HETATM   23  C   UNL     1     -10.882   7.451  68.616  1.00  0.00    -0.034 C  
HETATM   24  C   UNL     1     -10.635   7.013  67.146  1.00  0.00    -0.412 C  
HETATM   25  C   UNL     1      -9.429   6.075  67.041  1.00  0.00    -0.137 C  
HETATM   26  C   UNL     1      -9.644   4.819  67.878  1.00  0.00    -0.198 C  
HETATM   27  C   UNL     1     -10.039   5.138  69.320  1.00  0.00    -0.283 C  
HETATM   28  C   UNL     1     -11.173   6.163  69.405  1.00  0.00    -0.466 C  
ENDBRANCH  22  23
ENDBRANCH  17  18
ENDBRANCH  16  17
ENDBRANCH  15  16
ENDBRANCH  14  15
ENDBRANCH  13  14
ENDBRANCH  11  13
TORSDOF 7
ENDMDL
MODEL       78
REMARK 921   NORMALIZED FREE ENERGY PREDICTED BY IDOCK:   -5.94 KCAL/MOL
REMARK 922        TOTAL FREE ENERGY PREDICTED BY IDOCK:   -9.38 KCAL/MOL
REMARK 923 INTER-LIGAND FREE ENERGY PREDICTED BY IDOCK:   -8.68 KCAL/MOL
REMARK 924 INTRA-LIGAND FREE ENERGY PREDICTED BY IDOCK:   -0.70 KCAL/MOL
REMARK 927      BINDING AFFINITY PREDICTED BY RF-SCORE:    0.00 PKD
ROOT
HETATM    1  O   UNL     1     -10.075  19.958  67.082  1.00  0.00    -0.383 OA 
HETATM    2  C   UNL     1     -10.211  18.740  67.170  1.00  0.00    -0.386 C  
HETATM    3  C   UNL     1      -9.938  17.985  68.450  1.00  0.00    -0.382 C  
HETATM    4  C   UNL     1     -10.833  16.761  68.610  1.00  0.00    -0.336 C  
HETATM    5  C   UNL     1     -10.941  15.958  67.341  1.00  0.00    -0.257 A  
HETATM    6  C   UNL     1     -10.776  16.608  66.112  1.00  0.00    -0.132 A  
HETATM    7  N   UNL     1     -10.497  17.977  66.072  1.00  0.00    -0.376 N  
HETATM    8  C   UNL     1     -10.938  15.908  64.921  1.00  0.00    -0.427 A  
HETATM    9  C   UNL     1     -11.279  14.550  64.951  1.00  0.00    -0.395 A  
HETATM   10  H   UNL     1     -10.507  18.438  65.163  1.00  0.00     0.000 HD 
HETATM   11  C   UNL     1     -11.484  13.885  66.164  1.00  0.00    -0.345 A  
HETATM   12  C   UNL     1     -11.311  14.595  67.360  1.00  0.00    -0.368 A  
ENDROOT
BRANCH  11  13
HETATM   13  O   UNL     1     -11.856  12.567  66.030  1.00  0.00    -0.407 OA 
BRANCH  13  14
HETATM   14  C   UNL     1     -11.369  11.866  64.886  1.00  0.00    -0.277 C  
BRANCH  14  15
HETATM   15  C   UNL     1     -10.221  10.903  65.273  1.00  0.00    -0.351 C  
BRANCH  15  16
HETATM   16  C   UNL     1      -9.998  10.978  66.791  1.00  0.00    -0.240 C  
BRANCH  16  17
HETATM   17  C   UNL     1     -10.639   9.905  67.678  1.00  0.00    -0.325 C  
BRANCH  17  18
HETATM   18  C   UNL     1     -11.185  10.385  68.975  1.00  0.00    -0.234 A  
HETATM   19  N   UNL     1     -12.142  11.296  69.044  1.00  0.00    -0.454 NA 
HETATM   20  N   UNL     1     -12.466  11.439  70.358  1.00  0.00    -0.285 NA 
HETATM   21  N   UNL     1     -11.718  10.655  71.108  1.00  0.00    -0.252 NA 
HETATM   22  N   UNL     1     -10.945   9.936  70.259  1.00  0.00    -0.285 NA 
BRANCH  22  23
HETATM   23  C   UNL     1     -10.013   8.981  70.854  1.00  0.00    -0.260 C  
HETATM   24  C   UNL     1     -10.553   8.374  72.179  1.00  0.00    -0.400 C  
HETATM   25  C   UNL     1     -11.739   7.441  71.919  1.00  0.00    -0.323 C  
HETATM   26  C   UNL     1     -11.335   6.291  71.003  1.00  0.00    -0.378 C  
HETATM   27  C   UNL     1     -10.655   6.776  69.722  1.00  0.00    -0.263 C  
HETATM   28  C   UNL     1      -9.545   7.794  69.996  1.00  0.00    -0.161 C  
ENDBRANCH  22  23
ENDBRANCH  17  18
ENDBRANCH  16  17
ENDBRANCH  15  16
ENDBRANCH  14  15
ENDBRANCH  13  14
ENDBRANCH  11  13
TORSDOF 7
ENDMDL
MODEL       79
REMARK 921   NORMALIZED FREE ENERGY PREDICTED BY IDOCK:   -5.93 KCAL/MOL
REMARK 922        TOTAL FREE ENERGY PREDICTED BY IDOCK:   -9.37 KCAL/MOL
REMARK 923 INTER-LIGAND FREE ENERGY PREDICTED BY IDOCK:   -9.11 KCAL/MOL
REMARK 924 INTRA-LIGAND FREE ENERGY PREDICTED BY IDOCK:   -0.26 KCAL/MOL
REMARK 927      BINDING AFFINITY PREDICTED BY RF-SCORE:    0.00 PKD
ROOT
HETATM    1  O   UNL     1      -9.886   4.139  72.347  1.00  0.00    -0.146 OA 
HETATM    2  C   UNL     1     -10.304   5.223  71.943  1.00  0.00    -0.215 C  
HETATM    3  C   UNL     1     -11.471   5.933  72.588  1.00  0.00    -0.319 C  
HETATM    4  C   UNL     1     -11.351   7.450  72.507  1.00  0.00    -0.358 C  
HETATM    5  C   UNL     1     -10.921   7.920  71.143  1.00  0.00    -0.262 A  
HETATM    6  C   UNL     1     -10.153   7.065  70.342  1.00  0.00    -0.187 A  
HETATM    7  N   UNL     1      -9.812   5.790  70.801  1.00  0.00    -0.177 N  
HETATM    8  C   UNL     1      -9.683   7.497  69.106  1.00  0.00    -0.166 A  
HETATM    9  C   UNL     1      -9.968   8.795  68.666  1.00  0.00    -0.197 A  
HETATM   10  H   UNL     1      -9.151   5.247  70.247  1.00  0.00     0.000 HD 
HETATM   11  C   UNL     1     -10.702   9.682  69.460  1.00  0.00    -0.232 A  
HETATM   12  C   UNL     1     -11.180   9.237  70.701  1.00  0.00    -0.333 A  
ENDROOT
BRANCH  11  13
HETATM   13  O   UNL     1     -10.864  10.933  68.912  1.00  0.00    -0.189 OA 
BRANCH  13  14
HETATM   14  C   UNL     1     -10.311  11.151  67.614  1.00  0.00    -0.192 C  
BRANCH  14  15
HETATM   15  C   UNL     1     -11.233  12.058  66.764  1.00  0.00    -0.376 C  
BRANCH  15  16
HETATM   16  C   UNL     1     -10.878  13.526  67.038  1.00  0.00    -0.287 C  
BRANCH  16  17
HETATM   17  C   UNL     1      -9.895  14.229  66.095  1.00  0.00    -0.335 C  
BRANCH  17  18
HETATM   18  C   UNL     1     -10.416  15.440  65.409  1.00  0.00    -0.402 A  
HETATM   19  N   UNL     1     -11.425  15.388  64.554  1.00  0.00    -0.368 NA 
HETATM   20  N   UNL     1     -11.703  16.667  64.184  1.00  0.00    -1.007 NA 
HETATM   21  N   UNL     1     -10.878  17.510  64.770  1.00  0.00    -0.632 NA 
HETATM   22  N   UNL     1     -10.096  16.772  65.594  1.00  0.00    -0.580 NA 
BRANCH  22  23
HETATM   23  C   UNL     1      -9.083  17.485  66.367  1.00  0.00    -0.240 C  
HETATM   24  C   UNL     1      -9.106  19.016  66.103  1.00  0.00    -0.204 C  
HETATM   25  C   UNL     1     -10.367  19.661  66.683  1.00  0.00    -0.598 C  
HETATM   26  C   UNL     1     -10.445  19.441  68.190  1.00  0.00    -0.476 C  
HETATM   27  C   UNL     1     -10.286  17.970  68.574  1.00  0.00    -0.392 C  
HETATM   28  C   UNL     1      -9.082  17.313  67.895  1.00  0.00    -0.239 C  
ENDBRANCH  22  23
ENDBRANCH  17  18
ENDBRANCH  16  17
ENDBRANCH  15  16
ENDBRANCH  14  15
ENDBRANCH  13  14
ENDBRANCH  11  13
TORSDOF 7
ENDMDL
MODEL       80
REMARK 921   NORMALIZED FREE ENERGY PREDICTED BY IDOCK:   -5.93 KCAL/MOL
REMARK 922        TOTAL FREE ENERGY PREDICTED BY IDOCK:   -9.37 KCAL/MOL
REMARK 923 INTER-LIGAND FREE ENERGY PREDICTED BY IDOCK:   -7.90 KCAL/MOL
REMARK 924 INTRA-LIGAND FREE ENERGY PREDICTED BY IDOCK:   -1.47 KCAL/MOL
REMARK 927      BINDING AFFINITY PREDICTED BY RF-SCORE:    0.00 PKD
ROOT
HETATM    1  O   UNL     1     -11.342  16.487  63.842  1.00  0.00    -1.057 OA 
HETATM    2  C   UNL     1     -11.110  15.916  64.906  1.00  0.00    -0.389 C  
HETATM    3  C   UNL     1     -10.126  16.454  65.917  1.00  0.00    -0.370 C  
HETATM    4  C   UNL     1     -10.517  16.119  67.351  1.00  0.00    -0.310 C  
HETATM    5  C   UNL     1     -10.958  14.688  67.508  1.00  0.00    -0.301 A  
HETATM    6  C   UNL     1     -11.516  14.027  66.406  1.00  0.00    -0.352 A  
HETATM    7  N   UNL     1     -11.641  14.686  65.180  1.00  0.00    -0.362 N  
HETATM    8  C   UNL     1     -11.996  12.728  66.538  1.00  0.00    -0.428 A  
HETATM    9  C   UNL     1     -11.932  12.082  67.779  1.00  0.00    -0.177 A  
HETATM   10  H   UNL     1     -12.163  14.218  64.440  1.00  0.00     0.000 HD 
HETATM   11  C   UNL     1     -11.413  12.732  68.903  1.00  0.00    -0.305 A  
HETATM   12  C   UNL     1     -10.923  14.038  68.762  1.00  0.00    -0.282 A  
ENDROOT
BRANCH  11  13
HETATM   13  O   UNL     1     -11.456  11.985  70.058  1.00  0.00    -0.227 OA 
BRANCH  13  14
HETATM   14  C   UNL     1     -12.068  10.698  69.978  1.00  0.00    -0.316 C  
BRANCH  14  15
HETATM   15  C   UNL     1     -11.354   9.687  70.907  1.00  0.00    -0.431 C  
BRANCH  15  16
HETATM   16  C   UNL     1      -9.896   9.535  70.452  1.00  0.00    -0.329 C  
BRANCH  16  17
HETATM   17  C   UNL     1      -9.369   8.129  70.142  1.00  0.00    -0.159 C  
BRANCH  17  18
HETATM   18  C   UNL     1      -9.884   7.511  68.891  1.00  0.00    -0.159 A  
HETATM   19  N   UNL     1     -11.015   6.824  68.857  1.00  0.00    -0.236 NA 
HETATM   20  N   UNL     1     -11.236   6.479  67.560  1.00  0.00    -0.297 NA 
HETATM   21  N   UNL     1     -10.258   6.915  66.791  1.00  0.00    -0.220 NA 
HETATM   22  N   UNL     1      -9.424   7.620  67.593  1.00  0.00    -0.141 NA 
BRANCH  22  23
HETATM   23  C   UNL     1      -8.244   8.213  66.970  1.00  0.00    -0.115 C  
HETATM   24  C   UNL     1      -8.438   8.456  65.447  1.00  0.00    -0.193 C  
HETATM   25  C   UNL     1      -9.450   9.575  65.188  1.00  0.00    -0.305 C  
HETATM   26  C   UNL     1      -8.987  10.884  65.819  1.00  0.00    -0.208 C  
HETATM   27  C   UNL     1      -8.627  10.724  67.297  1.00  0.00    -0.130 C  
HETATM   28  C   UNL     1      -7.702   9.530  67.550  1.00  0.00    -0.095 C  
ENDBRANCH  22  23
ENDBRANCH  17  18
ENDBRANCH  16  17
ENDBRANCH  15  16
ENDBRANCH  14  15
ENDBRANCH  13  14
ENDBRANCH  11  13
TORSDOF 7
ENDMDL
MODEL       81
REMARK 921   NORMALIZED FREE ENERGY PREDICTED BY IDOCK:   -5.91 KCAL/MOL
REMARK 922        TOTAL FREE ENERGY PREDICTED BY IDOCK:   -9.34 KCAL/MOL
REMARK 923 INTER-LIGAND FREE ENERGY PREDICTED BY IDOCK:   -8.27 KCAL/MOL
REMARK 924 INTRA-LIGAND FREE ENERGY PREDICTED BY IDOCK:   -1.08 KCAL/MOL
REMARK 927      BINDING AFFINITY PREDICTED BY RF-SCORE:    0.00 PKD
ROOT
HETATM    1  O   UNL     1     -11.430  16.343  63.806  1.00  0.00    -1.002 OA 
HETATM    2  C   UNL     1     -11.638  15.442  64.615  1.00  0.00    -0.311 C  
HETATM    3  C   UNL     1     -12.128  14.075  64.198  1.00  0.00    -0.456 C  
HETATM    4  C   UNL     1     -11.610  12.965  65.103  1.00  0.00    -0.367 C  
HETATM    5  C   UNL     1     -11.708  13.321  66.563  1.00  0.00    -0.423 A  
HETATM    6  C   UNL     1     -11.669  14.670  66.936  1.00  0.00    -0.350 A  
HETATM    7  N   UNL     1     -11.558  15.666  65.961  1.00  0.00     0.179 N  
HETATM    8  C   UNL     1     -11.688  15.027  68.280  1.00  0.00    -0.338 A  
HETATM    9  C   UNL     1     -11.736  14.033  69.266  1.00  0.00    -0.372 A  
HETATM   10  H   UNL     1     -11.406  16.624  66.276  1.00  0.00     0.000 HD 
HETATM   11  C   UNL     1     -11.741  12.677  68.923  1.00  0.00    -0.325 A  
HETATM   12  C   UNL     1     -11.729  12.325  67.566  1.00  0.00    -0.402 A  
ENDROOT
BRANCH  11  13
HETATM   13  O   UNL     1     -11.747  11.821  70.000  1.00  0.00    -0.320 OA 
BRANCH  13  14
HETATM   14  C   UNL     1     -12.672  12.102  71.049  1.00  0.00    -0.228 C  
BRANCH  14  15
HETATM   15  C   UNL     1     -12.947  10.837  71.898  1.00  0.00    -0.524 C  
BRANCH  15  16
HETATM   16  C   UNL     1     -13.198   9.650  70.957  1.00  0.00    -0.298 C  
BRANCH  16  17
HETATM   17  C   UNL     1     -12.557   8.300  71.297  1.00  0.00    -0.237 C  
BRANCH  17  18
HETATM   18  C   UNL     1     -11.212   8.366  71.927  1.00  0.00    -0.311 A  
HETATM   19  N   UNL     1     -10.987   7.935  73.157  1.00  0.00    -0.338 NA 
HETATM   20  N   UNL     1      -9.651   8.057  73.387  1.00  0.00    -0.261 NA 
HETATM   21  N   UNL     1      -9.046   8.573  72.337  1.00  0.00    -0.290 NA 
HETATM   22  N   UNL     1      -9.994   8.722  71.381  1.00  0.00    -0.255 NA 
BRANCH  22  23
HETATM   23  C   UNL     1      -9.568   9.286  70.103  1.00  0.00    -0.220 C  
HETATM   24  C   UNL     1      -8.102   8.911  69.749  1.00  0.00    -0.109 C  
HETATM   25  C   UNL     1      -7.974   7.420  69.422  1.00  0.00    -0.124 C  
HETATM   26  C   UNL     1      -8.857   7.047  68.236  1.00  0.00    -0.126 C  
HETATM   27  C   UNL     1     -10.304   7.504  68.419  1.00  0.00    -0.226 C  
HETATM   28  C   UNL     1     -10.407   8.968  68.854  1.00  0.00    -0.232 C  
ENDBRANCH  22  23
ENDBRANCH  17  18
ENDBRANCH  16  17
ENDBRANCH  15  16
ENDBRANCH  14  15
ENDBRANCH  13  14
ENDBRANCH  11  13
TORSDOF 7
ENDMDL
MODEL       82
REMARK 921   NORMALIZED FREE ENERGY PREDICTED BY IDOCK:   -5.88 KCAL/MOL
REMARK 922        TOTAL FREE ENERGY PREDICTED BY IDOCK:   -9.30 KCAL/MOL
REMARK 923 INTER-LIGAND FREE ENERGY PREDICTED BY IDOCK:   -8.84 KCAL/MOL
REMARK 924 INTRA-LIGAND FREE ENERGY PREDICTED BY IDOCK:   -0.46 KCAL/MOL
REMARK 927      BINDING AFFINITY PREDICTED BY RF-SCORE:    0.00 PKD
ROOT
HETATM    1  O   UNL     1     -10.498  17.914  65.364  1.00  0.00    -0.635 OA 
HETATM    2  C   UNL     1     -10.656  16.932  66.086  1.00  0.00    -0.194 C  
HETATM    3  C   UNL     1     -10.520  17.000  67.589  1.00  0.00    -0.343 C  
HETATM    4  C   UNL     1     -11.440  16.020  68.306  1.00  0.00    -0.291 C  
HETATM    5  C   UNL     1     -11.434  14.655  67.672  1.00  0.00    -0.364 A  
HETATM    6  C   UNL     1     -11.142  14.544  66.306  1.00  0.00    -0.332 A  
HETATM    7  N   UNL     1     -10.843  15.685  65.556  1.00  0.00    -0.350 N  
HETATM    8  C   UNL     1     -11.196  13.305  65.676  1.00  0.00    -0.304 A  
HETATM    9  C   UNL     1     -11.554  12.166  66.407  1.00  0.00    -0.429 A  
HETATM   10  H   UNL     1     -10.760  15.581  64.545  1.00  0.00     0.000 HD 
HETATM   11  C   UNL     1     -11.885  12.253  67.763  1.00  0.00    -0.273 A  
HETATM   12  C   UNL     1     -11.821  13.504  68.393  1.00  0.00    -0.408 A  
ENDROOT
BRANCH  11  13
HETATM   13  O   UNL     1     -12.259  11.058  68.332  1.00  0.00    -0.586 OA 
BRANCH  13  14
HETATM   14  C   UNL     1     -11.571  10.660  69.518  1.00  0.00    -0.288 C  
BRANCH  14  15
HETATM   15  C   UNL     1     -12.532  10.624  70.730  1.00  0.00    -0.480 C  
BRANCH  15  16
HETATM   16  C   UNL     1     -12.118   9.475  71.661  1.00  0.00    -0.474 C  
BRANCH  16  17
HETATM   17  C   UNL     1     -11.025   8.510  71.190  1.00  0.00    -0.306 C  
BRANCH  17  18
HETATM   18  C   UNL     1      -9.890   8.315  72.130  1.00  0.00    -0.272 A  
HETATM   19  N   UNL     1      -8.815   9.087  72.107  1.00  0.00    -0.327 NA 
HETATM   20  N   UNL     1      -8.021   8.700  73.142  1.00  0.00    -0.405 NA 
HETATM   21  N   UNL     1      -8.567   7.693  73.793  1.00  0.00    -0.202 NA 
HETATM   22  N   UNL     1      -9.772   7.469  73.216  1.00  0.00    -0.246 NA 
BRANCH  22  23
HETATM   23  C   UNL     1     -10.583   6.385  73.764  1.00  0.00    -0.253 C  
HETATM   24  C   UNL     1     -11.419   5.662  72.672  1.00  0.00    -0.339 C  
HETATM   25  C   UNL     1     -10.523   4.855  71.728  1.00  0.00    -0.214 C  
HETATM   26  C   UNL     1      -9.737   3.799  72.497  1.00  0.00    -0.205 C  
HETATM   27  C   UNL     1      -8.985   4.385  73.692  1.00  0.00    -0.099 C  
HETATM   28  C   UNL     1      -9.872   5.280  74.562  1.00  0.00    -0.223 C  
ENDBRANCH  22  23
ENDBRANCH  17  18
ENDBRANCH  16  17
ENDBRANCH  15  16
ENDBRANCH  14  15
ENDBRANCH  13  14
ENDBRANCH  11  13
TORSDOF 7
ENDMDL
MODEL       83
REMARK 921   NORMALIZED FREE ENERGY PREDICTED BY IDOCK:   -5.88 KCAL/MOL
REMARK 922        TOTAL FREE ENERGY PREDICTED BY IDOCK:   -9.30 KCAL/MOL
REMARK 923 INTER-LIGAND FREE ENERGY PREDICTED BY IDOCK:   -7.86 KCAL/MOL
REMARK 924 INTRA-LIGAND FREE ENERGY PREDICTED BY IDOCK:   -1.44 KCAL/MOL
REMARK 927      BINDING AFFINITY PREDICTED BY RF-SCORE:    0.00 PKD
ROOT
HETATM    1  O   UNL     1      -5.974  11.815  70.954  1.00  0.00    -0.360 OA 
HETATM    2  C   UNL     1      -6.406  11.711  69.808  1.00  0.00    -0.134 C  
HETATM    3  C   UNL     1      -5.743  12.383  68.628  1.00  0.00    -0.054 C  
HETATM    4  C   UNL     1      -5.895  11.585  67.339  1.00  0.00    -0.081 C  
HETATM    5  C   UNL     1      -7.294  11.066  67.145  1.00  0.00    -0.116 A  
HETATM    6  C   UNL     1      -8.089  10.823  68.272  1.00  0.00    -0.121 A  
HETATM    7  N   UNL     1      -7.591  11.079  69.553  1.00  0.00    -0.351 N  
HETATM    8  C   UNL     1      -9.361  10.278  68.129  1.00  0.00    -0.144 A  
HETATM    9  C   UNL     1      -9.845   9.961  66.854  1.00  0.00    -0.252 A  
HETATM   10  H   UNL     1      -8.149  10.774  70.350  1.00  0.00     0.000 HD 
HETATM   11  C   UNL     1      -9.059  10.160  65.714  1.00  0.00    -0.171 A  
HETATM   12  C   UNL     1      -7.782  10.716  65.865  1.00  0.00    -0.146 A  
ENDROOT
BRANCH  11  13
HETATM   13  O   UNL     1      -9.654   9.760  64.540  1.00  0.00    -0.273 OA 
BRANCH  13  14
HETATM   14  C   UNL     1      -9.701  10.712  63.477  1.00  0.00    -0.339 C  
BRANCH  14  15
HETATM   15  C   UNL     1     -11.031  11.503  63.502  1.00  0.00    -0.453 C  
BRANCH  15  16
HETATM   16  C   UNL     1     -10.724  12.986  63.753  1.00  0.00    -0.222 C  
BRANCH  16  17
HETATM   17  C   UNL     1     -11.795  13.851  64.430  1.00  0.00    -0.456 C  
BRANCH  17  18
HETATM   18  C   UNL     1     -11.386  15.242  64.758  1.00  0.00    -0.391 A  
HETATM   19  N   UNL     1     -11.569  16.248  63.917  1.00  0.00    -0.988 NA 
HETATM   20  N   UNL     1     -11.171  17.381  64.556  1.00  0.00    -0.789 NA 
HETATM   21  N   UNL     1     -10.726  17.101  65.764  1.00  0.00    -0.334 NA 
HETATM   22  N   UNL     1     -10.906  15.770  65.940  1.00  0.00    -0.303 NA 
BRANCH  22  23
HETATM   23  C   UNL     1     -10.483  15.205  67.219  1.00  0.00    -0.271 C  
HETATM   24  C   UNL     1      -9.157  14.403  67.102  1.00  0.00    -0.238 C  
HETATM   25  C   UNL     1      -7.970  15.330  66.830  1.00  0.00    -0.194 C  
HETATM   26  C   UNL     1      -7.807  16.349  67.954  1.00  0.00    -0.161 C  
HETATM   27  C   UNL     1      -9.105  17.099  68.253  1.00  0.00    -0.259 C  
HETATM   28  C   UNL     1     -10.304  16.160  68.411  1.00  0.00    -0.257 C  
ENDBRANCH  22  23
ENDBRANCH  17  18
ENDBRANCH  16  17
ENDBRANCH  15  16
ENDBRANCH  14  15
ENDBRANCH  13  14
ENDBRANCH  11  13
TORSDOF 7
ENDMDL
MODEL       84
REMARK 921   NORMALIZED FREE ENERGY PREDICTED BY IDOCK:   -5.87 KCAL/MOL
REMARK 922        TOTAL FREE ENERGY PREDICTED BY IDOCK:   -9.29 KCAL/MOL
REMARK 923 INTER-LIGAND FREE ENERGY PREDICTED BY IDOCK:   -8.23 KCAL/MOL
REMARK 924 INTRA-LIGAND FREE ENERGY PREDICTED BY IDOCK:   -1.06 KCAL/MOL
REMARK 927      BINDING AFFINITY PREDICTED BY RF-SCORE:    0.00 PKD
ROOT
HETATM    1  O   UNL     1     -12.036  15.163  63.917  1.00  0.00    -0.507 OA 
HETATM    2  C   UNL     1     -12.068  14.332  64.822  1.00  0.00    -0.446 C  
HETATM    3  C   UNL     1     -12.190  12.849  64.556  1.00  0.00    -0.489 C  
HETATM    4  C   UNL     1     -11.472  12.006  65.603  1.00  0.00    -0.372 C  
HETATM    5  C   UNL     1     -11.737  12.483  67.006  1.00  0.00    -0.437 A  
HETATM    6  C   UNL     1     -12.045  13.833  67.216  1.00  0.00    -0.357 A  
HETATM    7  N   UNL     1     -12.121  14.714  66.133  1.00  0.00    -0.268 N  
HETATM    8  C   UNL     1     -12.227  14.318  68.507  1.00  0.00    -0.194 A  
HETATM    9  C   UNL     1     -12.092  13.456  69.602  1.00  0.00    -0.349 A  
HETATM   10  H   UNL     1     -12.222  15.708  66.335  1.00  0.00     0.000 HD 
HETATM   11  C   UNL     1     -11.750  12.111  69.423  1.00  0.00    -0.329 A  
HETATM   12  C   UNL     1     -11.576  11.628  68.119  1.00  0.00    -0.389 A  
ENDROOT
BRANCH  11  13
HETATM   13  O   UNL     1     -11.611  11.402  70.594  1.00  0.00    -0.222 OA 
BRANCH  13  14
HETATM   14  C   UNL     1     -12.771  11.271  71.417  1.00  0.00    -0.396 C  
BRANCH  14  15
HETATM   15  C   UNL     1     -13.356   9.842  71.326  1.00  0.00    -0.413 C  
BRANCH  15  16
HETATM   16  C   UNL     1     -12.821   9.008  72.499  1.00  0.00    -0.408 C  
BRANCH  16  17
HETATM   17  C   UNL     1     -11.442   8.352  72.360  1.00  0.00    -0.451 C  
BRANCH  17  18
HETATM   18  C   UNL     1     -11.190   7.648  71.076  1.00  0.00    -0.267 A  
HETATM   19  N   UNL     1     -11.862   6.565  70.721  1.00  0.00    -0.371 NA 
HETATM   20  N   UNL     1     -11.454   6.231  69.467  1.00  0.00    -0.411 NA 
HETATM   21  N   UNL     1     -10.529   7.068  69.043  1.00  0.00    -0.201 NA 
HETATM   22  N   UNL     1     -10.387   8.006  70.010  1.00  0.00    -0.213 NA 
BRANCH  22  23
HETATM   23  C   UNL     1      -9.404   9.061  69.776  1.00  0.00    -0.171 C  
HETATM   24  C   UNL     1      -8.335   9.134  70.902  1.00  0.00    -0.231 C  
HETATM   25  C   UNL     1      -7.410   7.915  70.870  1.00  0.00    -0.057 C  
HETATM   26  C   UNL     1      -6.681   7.820  69.534  1.00  0.00    -0.043 C  
HETATM   27  C   UNL     1      -7.637   7.886  68.342  1.00  0.00    -0.108 C  
HETATM   28  C   UNL     1      -8.628   9.048  68.448  1.00  0.00    -0.130 C  
ENDBRANCH  22  23
ENDBRANCH  17  18
ENDBRANCH  16  17
ENDBRANCH  15  16
ENDBRANCH  14  15
ENDBRANCH  13  14
ENDBRANCH  11  13
TORSDOF 7
ENDMDL
MODEL       85
REMARK 921   NORMALIZED FREE ENERGY PREDICTED BY IDOCK:   -5.87 KCAL/MOL
REMARK 922        TOTAL FREE ENERGY PREDICTED BY IDOCK:   -9.28 KCAL/MOL
REMARK 923 INTER-LIGAND FREE ENERGY PREDICTED BY IDOCK:   -8.62 KCAL/MOL
REMARK 924 INTRA-LIGAND FREE ENERGY PREDICTED BY IDOCK:   -0.66 KCAL/MOL
REMARK 927      BINDING AFFINITY PREDICTED BY RF-SCORE:    0.00 PKD
ROOT
HETATM    1  O   UNL     1      -8.637   6.455  67.604  1.00  0.00    -0.116 OA 
HETATM    2  C   UNL     1      -9.219   7.447  67.172  1.00  0.00    -0.136 C  
HETATM    3  C   UNL     1     -10.461   8.007  67.826  1.00  0.00    -0.280 C  
HETATM    4  C   UNL     1     -10.566   9.521  67.682  1.00  0.00    -0.329 C  
HETATM    5  C   UNL     1     -10.245   9.990  66.288  1.00  0.00    -0.285 A  
HETATM    6  C   UNL     1      -9.381   9.222  65.497  1.00  0.00    -0.238 A  
HETATM    7  N   UNL     1      -8.844   8.031  65.994  1.00  0.00    -0.160 N  
HETATM    8  C   UNL     1      -9.011   9.664  64.231  1.00  0.00    -0.269 A  
HETATM    9  C   UNL     1      -9.494  10.887  63.750  1.00  0.00    -0.308 A  
HETATM   10  H   UNL     1      -8.125   7.566  65.441  1.00  0.00     0.000 HD 
HETATM   11  C   UNL     1     -10.330  11.690  64.532  1.00  0.00    -0.300 A  
HETATM   12  C   UNL     1     -10.705  11.235  65.803  1.00  0.00    -0.284 A  
ENDROOT
BRANCH  11  13
HETATM   13  O   UNL     1     -10.687  12.880  63.941  1.00  0.00    -0.406 OA 
BRANCH  13  14
HETATM   14  C   UNL     1     -12.079  13.190  63.891  1.00  0.00    -0.470 C  
BRANCH  14  15
HETATM   15  C   UNL     1     -12.469  14.172  65.022  1.00  0.00    -0.434 C  
BRANCH  15  16
HETATM   16  C   UNL     1     -11.256  15.049  65.360  1.00  0.00    -0.356 C  
BRANCH  16  17
HETATM   17  C   UNL     1     -10.443  14.720  66.618  1.00  0.00    -0.286 C  
BRANCH  17  18
HETATM   18  C   UNL     1     -10.829  15.463  67.846  1.00  0.00    -0.300 A  
HETATM   19  N   UNL     1     -11.798  15.048  68.646  1.00  0.00    -0.320 NA 
HETATM   20  N   UNL     1     -11.832  15.896  69.709  1.00  0.00    -0.324 NA 
HETATM   21  N   UNL     1     -10.921  16.839  69.578  1.00  0.00    -0.245 NA 
HETATM   22  N   UNL     1     -10.235  16.557  68.445  1.00  0.00    -0.253 NA 
BRANCH  22  23
HETATM   23  C   UNL     1      -9.157  17.470  68.074  1.00  0.00    -0.269 C  
HETATM   24  C   UNL     1      -9.143  17.780  66.551  1.00  0.00    -0.281 C  
HETATM   25  C   UNL     1     -10.348  18.633  66.147  1.00  0.00    -0.481 C  
HETATM   26  C   UNL     1     -10.351  19.960  66.898  1.00  0.00    -0.596 C  
HETATM   27  C   UNL     1     -10.221  19.774  68.410  1.00  0.00    -0.568 C  
HETATM   28  C   UNL     1      -9.078  18.829  68.790  1.00  0.00    -0.329 C  
ENDBRANCH  22  23
ENDBRANCH  17  18
ENDBRANCH  16  17
ENDBRANCH  15  16
ENDBRANCH  14  15
ENDBRANCH  13  14
ENDBRANCH  11  13
TORSDOF 7
ENDMDL
MODEL       86
REMARK 921   NORMALIZED FREE ENERGY PREDICTED BY IDOCK:   -5.86 KCAL/MOL
REMARK 922        TOTAL FREE ENERGY PREDICTED BY IDOCK:   -9.27 KCAL/MOL
REMARK 923 INTER-LIGAND FREE ENERGY PREDICTED BY IDOCK:   -7.67 KCAL/MOL
REMARK 924 INTRA-LIGAND FREE ENERGY PREDICTED BY IDOCK:   -1.60 KCAL/MOL
REMARK 927      BINDING AFFINITY PREDICTED BY RF-SCORE:    0.00 PKD
ROOT
HETATM    1  O   UNL     1     -13.133  11.682  62.840  1.00  0.00    -0.320 OA 
HETATM    2  C   UNL     1     -12.442  12.377  63.582  1.00  0.00    -0.508 C  
HETATM    3  C   UNL     1     -11.541  11.785  64.640  1.00  0.00    -0.270 C  
HETATM    4  C   UNL     1     -10.292  12.623  64.882  1.00  0.00    -0.330 C  
HETATM    5  C   UNL     1     -10.595  14.095  64.975  1.00  0.00    -0.436 A  
HETATM    6  C   UNL     1     -11.716  14.599  64.303  1.00  0.00    -0.275 A  
HETATM    7  N   UNL     1     -12.544  13.740  63.575  1.00  0.00    -0.947 N  
HETATM    8  C   UNL     1     -11.984  15.964  64.313  1.00  0.00     0.008 A  
HETATM    9  C   UNL     1     -11.124  16.839  64.989  1.00  0.00    -0.063 A  
HETATM   10  H   UNL     1     -13.274  14.159  62.999  1.00  0.00     0.000 HD 
HETATM   11  C   UNL     1      -9.980  16.367  65.638  1.00  0.00    -0.238 A  
HETATM   12  C   UNL     1      -9.720  14.989  65.631  1.00  0.00    -0.344 A  
ENDROOT
BRANCH  11  13
HETATM   13  O   UNL     1      -9.212  17.350  66.219  1.00  0.00    -0.350 OA 
BRANCH  13  14
HETATM   14  C   UNL     1      -9.881  18.277  67.075  1.00  0.00    -0.326 C  
BRANCH  14  15
HETATM   15  C   UNL     1     -10.072  17.683  68.491  1.00  0.00    -0.375 C  
BRANCH  15  16
HETATM   16  C   UNL     1      -8.900  16.741  68.800  1.00  0.00    -0.258 C  
BRANCH  16  17
HETATM   17  C   UNL     1      -9.155  15.528  69.702  1.00  0.00    -0.187 C  
BRANCH  17  18
HETATM   18  C   UNL     1      -8.855  14.203  69.097  1.00  0.00     0.238 A  
HETATM   19  N   UNL     1      -7.630  13.705  69.061  1.00  0.00    -0.012 NA 
HETATM   20  N   UNL     1      -7.720  12.456  68.530  1.00  0.00    -0.134 NA 
HETATM   21  N   UNL     1      -8.968  12.174  68.216  1.00  0.00    -0.193 NA 
HETATM   22  N   UNL     1      -9.713  13.232  68.618  1.00  0.00    -0.132 NA 
BRANCH  22  23
HETATM   23  C   UNL     1     -11.152  13.163  68.376  1.00  0.00    -0.268 C  
HETATM   24  C   UNL     1     -11.715  11.727  68.561  1.00  0.00    -0.390 C  
HETATM   25  C   UNL     1     -11.686  11.304  70.032  1.00  0.00    -0.428 C  
HETATM   26  C   UNL     1     -12.520  12.252  70.887  1.00  0.00    -0.371 C  
HETATM   27  C   UNL     1     -12.143  13.718  70.671  1.00  0.00    -0.405 C  
HETATM   28  C   UNL     1     -12.069  14.093  69.188  1.00  0.00    -0.362 C  
ENDBRANCH  22  23
ENDBRANCH  17  18
ENDBRANCH  16  17
ENDBRANCH  15  16
ENDBRANCH  14  15
ENDBRANCH  13  14
ENDBRANCH  11  13
TORSDOF 7
ENDMDL
MODEL       87
REMARK 921   NORMALIZED FREE ENERGY PREDICTED BY IDOCK:   -5.86 KCAL/MOL
REMARK 922        TOTAL FREE ENERGY PREDICTED BY IDOCK:   -9.27 KCAL/MOL
REMARK 923 INTER-LIGAND FREE ENERGY PREDICTED BY IDOCK:   -8.38 KCAL/MOL
REMARK 924 INTRA-LIGAND FREE ENERGY PREDICTED BY IDOCK:   -0.89 KCAL/MOL
REMARK 927      BINDING AFFINITY PREDICTED BY RF-SCORE:    0.00 PKD
ROOT
HETATM    1  O   UNL     1     -11.025  16.412  68.342  1.00  0.00    -0.326 OA 
HETATM    2  C   UNL     1     -11.405  15.633  69.214  1.00  0.00    -0.345 C  
HETATM    3  C   UNL     1     -11.744  16.087  70.614  1.00  0.00    -0.376 C  
HETATM    4  C   UNL     1     -12.846  15.249  71.250  1.00  0.00    -0.494 C  
HETATM    5  C   UNL     1     -12.648  13.773  71.029  1.00  0.00    -0.446 A  
HETATM    6  C   UNL     1     -11.944  13.347  69.895  1.00  0.00    -0.338 A  
HETATM    7  N   UNL     1     -11.422  14.283  68.998  1.00  0.00    -0.265 N  
HETATM    8  C   UNL     1     -11.804  11.989  69.627  1.00  0.00    -0.401 A  
HETATM    9  C   UNL     1     -12.378  11.045  70.487  1.00  0.00    -0.462 A  
HETATM   10  H   UNL     1     -11.027  13.936  68.125  1.00  0.00     0.000 HD 
HETATM   11  C   UNL     1     -13.116  11.443  71.606  1.00  0.00    -0.393 A  
HETATM   12  C   UNL     1     -13.246  12.812  71.875  1.00  0.00    -0.511 A  
ENDROOT
BRANCH  11  13
HETATM   13  O   UNL     1     -13.653  10.403  72.329  1.00  0.00    -0.299 OA 
BRANCH  13  14
HETATM   14  C   UNL     1     -13.023   9.128  72.201  1.00  0.00    -0.425 C  
BRANCH  14  15
HETATM   15  C   UNL     1     -14.028   8.062  71.703  1.00  0.00    -0.474 C  
BRANCH  15  16
HETATM   16  C   UNL     1     -13.265   6.766  71.391  1.00  0.00    -0.177 C  
BRANCH  16  17
HETATM   17  C   UNL     1     -11.808   6.646  71.852  1.00  0.00    -0.375 C  
BRANCH  17  18
HETATM   18  C   UNL     1     -10.956   5.723  71.057  1.00  0.00    -0.230 A  
HETATM   19  N   UNL     1     -10.382   4.656  71.590  1.00  0.00    -0.161 NA 
HETATM   20  N   UNL     1      -9.757   3.991  70.582  1.00  0.00    -0.196 NA 
HETATM   21  N   UNL     1      -9.910   4.629  69.440  1.00  0.00    -0.206 NA 
HETATM   22  N   UNL     1     -10.712   5.690  69.697  1.00  0.00    -0.335 NA 
BRANCH  22  23
HETATM   23  C   UNL     1     -11.034   6.569  68.576  1.00  0.00    -0.286 C  
HETATM   24  C   UNL     1     -10.645   8.048  68.853  1.00  0.00    -0.160 C  
HETATM   25  C   UNL     1      -9.125   8.226  68.884  1.00  0.00    -0.147 C  
HETATM   26  C   UNL     1      -8.503   7.816  67.554  1.00  0.00    -0.120 C  
HETATM   27  C   UNL     1      -8.939   6.419  67.112  1.00  0.00    -0.109 C  
HETATM   28  C   UNL     1     -10.456   6.224  67.194  1.00  0.00    -0.327 C  
ENDBRANCH  22  23
ENDBRANCH  17  18
ENDBRANCH  16  17
ENDBRANCH  15  16
ENDBRANCH  14  15
ENDBRANCH  13  14
ENDBRANCH  11  13
TORSDOF 7
ENDMDL
MODEL       88
REMARK 921   NORMALIZED FREE ENERGY PREDICTED BY IDOCK:   -5.86 KCAL/MOL
REMARK 922        TOTAL FREE ENERGY PREDICTED BY IDOCK:   -9.27 KCAL/MOL
REMARK 923 INTER-LIGAND FREE ENERGY PREDICTED BY IDOCK:   -8.05 KCAL/MOL
REMARK 924 INTRA-LIGAND FREE ENERGY PREDICTED BY IDOCK:   -1.22 KCAL/MOL
REMARK 927      BINDING AFFINITY PREDICTED BY RF-SCORE:    0.00 PKD
ROOT
HETATM    1  O   UNL     1     -13.098   8.661  72.819  1.00  0.00    -0.304 OA 
HETATM    2  C   UNL     1     -12.274   8.297  71.983  1.00  0.00    -0.348 C  
HETATM    3  C   UNL     1     -12.079   6.845  71.616  1.00  0.00    -0.394 C  
HETATM    4  C   UNL     1     -11.664   6.659  70.161  1.00  0.00    -0.412 C  
HETATM    5  C   UNL     1     -10.593   7.630  69.740  1.00  0.00    -0.245 A  
HETATM    6  C   UNL     1     -10.507   8.867  70.391  1.00  0.00    -0.210 A  
HETATM    7  N   UNL     1     -11.393   9.181  71.425  1.00  0.00    -0.315 N  
HETATM    8  C   UNL     1      -9.573   9.812  69.978  1.00  0.00    -0.282 A  
HETATM    9  C   UNL     1      -8.723   9.530  68.902  1.00  0.00    -0.133 A  
HETATM   10  H   UNL     1     -11.381  10.134  71.788  1.00  0.00     0.000 HD 
HETATM   11  C   UNL     1      -8.811   8.316  68.212  1.00  0.00    -0.140 A  
HETATM   12  C   UNL     1      -9.749   7.366  68.638  1.00  0.00    -0.152 A  
ENDROOT
BRANCH  11  13
HETATM   13  O   UNL     1      -7.941   8.203  67.153  1.00  0.00    -0.103 OA 
BRANCH  13  14
HETATM   14  C   UNL     1      -7.937   9.264  66.198  1.00  0.00    -0.107 C  
BRANCH  14  15
HETATM   15  C   UNL     1      -9.233   9.252  65.352  1.00  0.00    -0.284 C  
BRANCH  15  16
HETATM   16  C   UNL     1      -9.783  10.683  65.263  1.00  0.00    -0.315 C  
BRANCH  16  17
HETATM   17  C   UNL     1     -10.785  11.149  66.326  1.00  0.00    -0.298 C  
BRANCH  17  18
HETATM   18  C   UNL     1     -11.575  12.360  65.979  1.00  0.00    -0.401 A  
HETATM   19  N   UNL     1     -12.360  12.408  64.915  1.00  0.00    -0.496 NA 
HETATM   20  N   UNL     1     -12.997  13.610  64.941  1.00  0.00    -0.719 NA 
HETATM   21  N   UNL     1     -12.610  14.317  65.983  1.00  0.00    -0.403 NA 
HETATM   22  N   UNL     1     -11.761  13.531  66.687  1.00  0.00    -0.366 NA 
BRANCH  22  23
HETATM   23  C   UNL     1     -11.184  14.095  67.905  1.00  0.00    -0.279 C  
HETATM   24  C   UNL     1      -9.700  13.681  68.104  1.00  0.00    -0.229 C  
HETATM   25  C   UNL     1      -8.794  14.344  67.063  1.00  0.00    -0.256 C  
HETATM   26  C   UNL     1      -8.876  15.864  67.161  1.00  0.00    -0.228 C  
HETATM   27  C   UNL     1     -10.317  16.374  67.121  1.00  0.00    -0.290 C  
HETATM   28  C   UNL     1     -11.233  15.621  68.090  1.00  0.00    -0.345 C  
ENDBRANCH  22  23
ENDBRANCH  17  18
ENDBRANCH  16  17
ENDBRANCH  15  16
ENDBRANCH  14  15
ENDBRANCH  13  14
ENDBRANCH  11  13
TORSDOF 7
ENDMDL
MODEL       89
REMARK 921   NORMALIZED FREE ENERGY PREDICTED BY IDOCK:   -5.86 KCAL/MOL
REMARK 922        TOTAL FREE ENERGY PREDICTED BY IDOCK:   -9.27 KCAL/MOL
REMARK 923 INTER-LIGAND FREE ENERGY PREDICTED BY IDOCK:   -8.61 KCAL/MOL
REMARK 924 INTRA-LIGAND FREE ENERGY PREDICTED BY IDOCK:   -0.66 KCAL/MOL
REMARK 927      BINDING AFFINITY PREDICTED BY RF-SCORE:    0.00 PKD
ROOT
HETATM    1  O   UNL     1     -10.549   6.853  68.380  1.00  0.00    -0.193 OA 
HETATM    2  C   UNL     1     -10.374   7.933  67.820  1.00  0.00    -0.226 C  
HETATM    3  C   UNL     1      -9.307   8.138  66.771  1.00  0.00    -0.233 C  
HETATM    4  C   UNL     1      -9.710   9.163  65.718  1.00  0.00    -0.299 C  
HETATM    5  C   UNL     1     -10.333  10.393  66.322  1.00  0.00    -0.270 A  
HETATM    6  C   UNL     1     -10.995  10.283  67.551  1.00  0.00    -0.280 A  
HETATM    7  N   UNL     1     -11.057   9.051  68.210  1.00  0.00    -0.467 N  
HETATM    8  C   UNL     1     -11.640  11.386  68.101  1.00  0.00    -0.364 A  
HETATM    9  C   UNL     1     -11.637  12.609  67.419  1.00  0.00    -0.421 A  
HETATM   10  H   UNL     1     -11.651   8.983  69.035  1.00  0.00     0.000 HD 
HETATM   11  C   UNL     1     -11.013  12.738  66.174  1.00  0.00    -0.283 A  
HETATM   12  C   UNL     1     -10.359  11.624  65.629  1.00  0.00    -0.306 A  
ENDROOT
BRANCH  11  13
HETATM   13  O   UNL     1     -11.132  13.986  65.608  1.00  0.00    -0.296 OA 
BRANCH  13  14
HETATM   14  C   UNL     1     -10.104  14.933  65.900  1.00  0.00    -0.325 C  
BRANCH  14  15
HETATM   15  C   UNL     1     -10.695  16.215  66.533  1.00  0.00    -0.220 C  
BRANCH  15  16
HETATM   16  C   UNL     1     -11.094  15.915  67.985  1.00  0.00    -0.334 C  
BRANCH  16  17
HETATM   17  C   UNL     1     -10.521  16.799  69.099  1.00  0.00    -0.343 C  
BRANCH  17  18
HETATM   18  C   UNL     1      -9.060  17.061  69.024  1.00  0.00    -0.146 A  
HETATM   19  N   UNL     1      -8.165  16.088  69.077  1.00  0.00    -0.223 NA 
HETATM   20  N   UNL     1      -6.943  16.656  68.893  1.00  0.00    -0.187 NA 
HETATM   21  N   UNL     1      -7.055  17.961  68.750  1.00  0.00    -0.261 NA 
HETATM   22  N   UNL     1      -8.381  18.237  68.768  1.00  0.00    -0.271 NA 
BRANCH  22  23
HETATM   23  C   UNL     1      -8.773  19.637  68.627  1.00  0.00    -0.272 C  
HETATM   24  C   UNL     1      -8.082  20.325  67.417  1.00  0.00    -0.377 C  
HETATM   25  C   UNL     1      -8.613  19.779  66.089  1.00  0.00    -0.367 C  
HETATM   26  C   UNL     1     -10.116  20.011  65.969  1.00  0.00    -0.559 C  
HETATM   27  C   UNL     1     -10.885  19.496  67.186  1.00  0.00    -0.555 C  
HETATM   28  C   UNL     1     -10.271  19.963  68.508  1.00  0.00    -0.529 C  
ENDBRANCH  22  23
ENDBRANCH  17  18
ENDBRANCH  16  17
ENDBRANCH  15  16
ENDBRANCH  14  15
ENDBRANCH  13  14
ENDBRANCH  11  13
TORSDOF 7
ENDMDL
MODEL       90
REMARK 921   NORMALIZED FREE ENERGY PREDICTED BY IDOCK:   -5.86 KCAL/MOL
REMARK 922        TOTAL FREE ENERGY PREDICTED BY IDOCK:   -9.27 KCAL/MOL
REMARK 923 INTER-LIGAND FREE ENERGY PREDICTED BY IDOCK:   -8.30 KCAL/MOL
REMARK 924 INTRA-LIGAND FREE ENERGY PREDICTED BY IDOCK:   -0.96 KCAL/MOL
REMARK 927      BINDING AFFINITY PREDICTED BY RF-SCORE:    0.00 PKD
ROOT
HETATM    1  O   UNL     1      -5.467   5.908  68.551  1.00  0.00    -0.006 OA 
HETATM    2  C   UNL     1      -6.459   6.527  68.174  1.00  0.00    -0.049 C  
HETATM    3  C   UNL     1      -7.739   6.574  68.975  1.00  0.00    -0.109 C  
HETATM    4  C   UNL     1      -8.491   7.888  68.801  1.00  0.00    -0.128 C  
HETATM    5  C   UNL     1      -8.557   8.327  67.362  1.00  0.00    -0.125 A  
HETATM    6  C   UNL     1      -7.545   7.922  66.483  1.00  0.00    -0.092 A  
HETATM    7  N   UNL     1      -6.502   7.110  66.937  1.00  0.00    -0.052 N  
HETATM    8  C   UNL     1      -7.541   8.368  65.165  1.00  0.00    -0.088 A  
HETATM    9  C   UNL     1      -8.548   9.232  64.718  1.00  0.00    -0.207 A  
HETATM   10  H   UNL     1      -5.721   6.940  66.304  1.00  0.00     0.000 HD 
HETATM   11  C   UNL     1      -9.551   9.680  65.583  1.00  0.00    -0.271 A  
HETATM   12  C   UNL     1      -9.552   9.221  66.908  1.00  0.00    -0.229 A  
ENDROOT
BRANCH  11  13
HETATM   13  O   UNL     1     -10.442  10.558  65.011  1.00  0.00    -0.286 OA 
BRANCH  13  14
HETATM   14  C   UNL     1     -10.067  11.146  63.765  1.00  0.00    -0.361 C  
BRANCH  14  15
HETATM   15  C   UNL     1     -11.085  12.229  63.335  1.00  0.00    -0.487 C  
BRANCH  15  16
HETATM   16  C   UNL     1     -12.341  12.107  64.208  1.00  0.00    -0.466 C  
BRANCH  16  17
HETATM   17  C   UNL     1     -12.758  13.310  65.062  1.00  0.00    -0.438 C  
BRANCH  17  18
HETATM   18  C   UNL     1     -12.026  14.575  64.792  1.00  0.00    -0.442 A  
HETATM   19  N   UNL     1     -12.449  15.460  63.904  1.00  0.00    -0.624 NA 
HETATM   20  N   UNL     1     -11.609  16.528  63.969  1.00  0.00    -1.124 NA 
HETATM   21  N   UNL     1     -10.662  16.319  64.861  1.00  0.00    -0.685 NA 
HETATM   22  N   UNL     1     -10.934  15.124  65.438  1.00  0.00    -0.354 NA 
BRANCH  22  23
HETATM   23  C   UNL     1     -10.015  14.659  66.473  1.00  0.00    -0.281 C  
HETATM   24  C   UNL     1      -9.420  15.830  67.305  1.00  0.00    -0.217 C  
HETATM   25  C   UNL     1     -10.487  16.482  68.188  1.00  0.00    -0.313 C  
HETATM   26  C   UNL     1     -11.083  15.468  69.159  1.00  0.00    -0.272 C  
HETATM   27  C   UNL     1     -11.572  14.203  68.454  1.00  0.00    -0.353 C  
HETATM   28  C   UNL     1     -10.530  13.628  67.491  1.00  0.00    -0.241 C  
ENDBRANCH  22  23
ENDBRANCH  17  18
ENDBRANCH  16  17
ENDBRANCH  15  16
ENDBRANCH  14  15
ENDBRANCH  13  14
ENDBRANCH  11  13
TORSDOF 7
ENDMDL
MODEL       91
REMARK 921   NORMALIZED FREE ENERGY PREDICTED BY IDOCK:   -5.85 KCAL/MOL
REMARK 922        TOTAL FREE ENERGY PREDICTED BY IDOCK:   -9.26 KCAL/MOL
REMARK 923 INTER-LIGAND FREE ENERGY PREDICTED BY IDOCK:   -8.18 KCAL/MOL
REMARK 924 INTRA-LIGAND FREE ENERGY PREDICTED BY IDOCK:   -1.09 KCAL/MOL
REMARK 927      BINDING AFFINITY PREDICTED BY RF-SCORE:    0.00 PKD
ROOT
HETATM    1  O   UNL     1     -12.092   6.233  72.266  1.00  0.00    -0.304 OA 
HETATM    2  C   UNL     1     -11.701   6.869  71.290  1.00  0.00    -0.328 C  
HETATM    3  C   UNL     1     -11.588   8.375  71.296  1.00  0.00    -0.326 C  
HETATM    4  C   UNL     1     -10.452   8.882  70.416  1.00  0.00    -0.245 C  
HETATM    5  C   UNL     1     -10.406   8.189  69.080  1.00  0.00    -0.228 A  
HETATM    6  C   UNL     1     -10.910   6.886  68.975  1.00  0.00    -0.212 A  
HETATM    7  N   UNL     1     -11.462   6.253  70.092  1.00  0.00    -0.412 N  
HETATM    8  C   UNL     1     -10.819   6.194  67.771  1.00  0.00    -0.413 A  
HETATM    9  C   UNL     1     -10.212   6.798  66.664  1.00  0.00    -0.211 A  
HETATM   10  H   UNL     1     -11.703   5.266  70.009  1.00  0.00     0.000 HD 
HETATM   11  C   UNL     1      -9.669   8.084  66.751  1.00  0.00    -0.237 A  
HETATM   12  C   UNL     1      -9.771   8.778  67.964  1.00  0.00    -0.183 A  
ENDROOT
BRANCH  11  13
HETATM   13  O   UNL     1      -9.068   8.524  65.594  1.00  0.00    -0.187 OA 
BRANCH  13  14
HETATM   14  C   UNL     1      -8.927   9.935  65.430  1.00  0.00    -0.184 C  
BRANCH  14  15
HETATM   15  C   UNL     1     -10.070  10.509  64.560  1.00  0.00    -0.402 C  
BRANCH  15  16
HETATM   16  C   UNL     1     -10.131  12.030  64.757  1.00  0.00    -0.286 C  
BRANCH  16  17
HETATM   17  C   UNL     1     -11.454  12.656  65.214  1.00  0.00    -0.368 C  
BRANCH  17  18
HETATM   18  C   UNL     1     -11.684  12.673  66.682  1.00  0.00    -0.398 A  
HETATM   19  N   UNL     1     -11.910  11.568  67.374  1.00  0.00    -0.620 NA 
HETATM   20  N   UNL     1     -11.987  11.924  68.685  1.00  0.00    -0.376 NA 
HETATM   21  N   UNL     1     -11.836  13.226  68.821  1.00  0.00    -0.326 NA 
HETATM   22  N   UNL     1     -11.583  13.715  67.584  1.00  0.00    -0.325 NA 
BRANCH  22  23
HETATM   23  C   UNL     1     -11.377  15.157  67.466  1.00  0.00    -0.320 C  
HETATM   24  C   UNL     1     -10.572  15.739  68.661  1.00  0.00    -0.250 C  
HETATM   25  C   UNL     1      -9.115  15.272  68.629  1.00  0.00    -0.193 C  
HETATM   26  C   UNL     1      -8.431  15.714  67.340  1.00  0.00    -0.191 C  
HETATM   27  C   UNL     1      -9.222  15.315  66.094  1.00  0.00    -0.345 C  
HETATM   28  C   UNL     1     -10.702  15.692  66.192  1.00  0.00    -0.305 C  
ENDBRANCH  22  23
ENDBRANCH  17  18
ENDBRANCH  16  17
ENDBRANCH  15  16
ENDBRANCH  14  15
ENDBRANCH  13  14
ENDBRANCH  11  13
TORSDOF 7
ENDMDL
MODEL       92
REMARK 921   NORMALIZED FREE ENERGY PREDICTED BY IDOCK:   -5.82 KCAL/MOL
REMARK 922        TOTAL FREE ENERGY PREDICTED BY IDOCK:   -9.22 KCAL/MOL
REMARK 923 INTER-LIGAND FREE ENERGY PREDICTED BY IDOCK:   -7.45 KCAL/MOL
REMARK 924 INTRA-LIGAND FREE ENERGY PREDICTED BY IDOCK:   -1.77 KCAL/MOL
REMARK 927      BINDING AFFINITY PREDICTED BY RF-SCORE:    0.00 PKD
ROOT
HETATM    1  O   UNL     1     -12.661  14.845  63.809  1.00  0.00    -0.791 OA 
HETATM    2  C   UNL     1     -12.401  13.957  64.618  1.00  0.00    -0.388 C  
HETATM    3  C   UNL     1     -12.251  12.509  64.212  1.00  0.00    -0.535 C  
HETATM    4  C   UNL     1     -11.244  11.760  65.076  1.00  0.00    -0.318 C  
HETATM    5  C   UNL     1     -11.414  12.055  66.543  1.00  0.00    -0.413 A  
HETATM    6  C   UNL     1     -11.961  13.285  66.928  1.00  0.00    -0.375 A  
HETATM    7  N   UNL     1     -12.358  14.212  65.960  1.00  0.00    -0.457 N  
HETATM    8  C   UNL     1     -12.067  13.614  68.276  1.00  0.00    -0.306 A  
HETATM    9  C   UNL     1     -11.615  12.717  69.251  1.00  0.00    -0.372 A  
HETATM   10  H   UNL     1     -12.634  15.141  66.277  1.00  0.00     0.000 HD 
HETATM   11  C   UNL     1     -11.032  11.497  68.894  1.00  0.00    -0.229 A  
HETATM   12  C   UNL     1     -10.936  11.168  67.534  1.00  0.00    -0.331 A  
ENDROOT
BRANCH  11  13
HETATM   13  O   UNL     1     -10.598  10.744  69.960  1.00  0.00    -0.181 OA 
BRANCH  13  14
HETATM   14  C   UNL     1     -11.596  10.217  70.834  1.00  0.00    -0.372 C  
BRANCH  14  15
HETATM   15  C   UNL     1     -11.128   8.887  71.471  1.00  0.00    -0.397 C  
BRANCH  15  16
HETATM   16  C   UNL     1      -9.662   8.638  71.087  1.00  0.00    -0.287 C  
BRANCH  16  17
HETATM   17  C   UNL     1      -9.323   7.385  70.270  1.00  0.00    -0.162 C  
BRANCH  17  18
HETATM   18  C   UNL     1      -9.586   7.478  68.810  1.00  0.00    -0.149 A  
HETATM   19  N   UNL     1     -10.780   7.241  68.292  1.00  0.00    -0.163 NA 
HETATM   20  N   UNL     1     -10.698   7.499  66.959  1.00  0.00    -0.352 NA 
HETATM   21  N   UNL     1      -9.476   7.870  66.633  1.00  0.00    -0.197 NA 
HETATM   22  N   UNL     1      -8.770   7.924  67.788  1.00  0.00    -0.127 NA 
BRANCH  22  23
HETATM   23  C   UNL     1      -7.366   8.315  67.693  1.00  0.00    -0.093 C  
HETATM   24  C   UNL     1      -7.048   9.063  66.369  1.00  0.00    -0.080 C  
HETATM   25  C   UNL     1      -7.698  10.449  66.344  1.00  0.00    -0.125 C  
HETATM   26  C   UNL     1      -7.196  11.305  67.502  1.00  0.00    -0.100 C  
HETATM   27  C   UNL     1      -7.329  10.598  68.851  1.00  0.00    -0.099 C  
HETATM   28  C   UNL     1      -6.773   9.172  68.824  1.00  0.00    -0.053 C  
ENDBRANCH  22  23
ENDBRANCH  17  18
ENDBRANCH  16  17
ENDBRANCH  15  16
ENDBRANCH  14  15
ENDBRANCH  13  14
ENDBRANCH  11  13
TORSDOF 7
ENDMDL
MODEL       93
REMARK 921   NORMALIZED FREE ENERGY PREDICTED BY IDOCK:   -5.82 KCAL/MOL
REMARK 922        TOTAL FREE ENERGY PREDICTED BY IDOCK:   -9.22 KCAL/MOL
REMARK 923 INTER-LIGAND FREE ENERGY PREDICTED BY IDOCK:   -7.26 KCAL/MOL
REMARK 924 INTRA-LIGAND FREE ENERGY PREDICTED BY IDOCK:   -1.96 KCAL/MOL
REMARK 927      BINDING AFFINITY PREDICTED BY RF-SCORE:    0.00 PKD
ROOT
HETATM    1  O   UNL     1      -7.160   6.687  66.397  1.00  0.00    -0.064 OA 
HETATM    2  C   UNL     1      -8.189   6.797  67.061  1.00  0.00    -0.113 C  
HETATM    3  C   UNL     1      -9.529   7.103  66.434  1.00  0.00    -0.177 C  
HETATM    4  C   UNL     1     -10.689   6.468  67.191  1.00  0.00    -0.438 C  
HETATM    5  C   UNL     1     -10.566   6.640  68.682  1.00  0.00    -0.274 A  
HETATM    6  C   UNL     1      -9.291   6.778  69.245  1.00  0.00    -0.144 A  
HETATM    7  N   UNL     1      -8.157   6.773  68.427  1.00  0.00    -0.118 N  
HETATM    8  C   UNL     1      -9.140   6.870  70.624  1.00  0.00    -0.155 A  
HETATM    9  C   UNL     1     -10.265   6.814  71.455  1.00  0.00    -0.210 A  
HETATM   10  H   UNL     1      -7.244   6.750  68.881  1.00  0.00     0.000 HD 
HETATM   11  C   UNL     1     -11.547   6.641  70.922  1.00  0.00    -0.361 A  
HETATM   12  C   UNL     1     -11.692   6.557  69.530  1.00  0.00    -0.162 A  
ENDROOT
BRANCH  11  13
HETATM   13  O   UNL     1     -12.546   6.561  71.865  1.00  0.00    -0.341 OA 
BRANCH  13  14
HETATM   14  C   UNL     1     -13.703   7.370  71.656  1.00  0.00    -0.373 C  
BRANCH  14  15
HETATM   15  C   UNL     1     -13.537   8.757  72.322  1.00  0.00    -0.478 C  
BRANCH  15  16
HETATM   16  C   UNL     1     -13.496   9.833  71.229  1.00  0.00    -0.362 C  
BRANCH  16  17
HETATM   17  C   UNL     1     -12.145  10.467  70.877  1.00  0.00    -0.487 C  
BRANCH  17  18
HETATM   18  C   UNL     1     -12.208  11.829  70.284  1.00  0.00    -0.299 A  
HETATM   19  N   UNL     1     -12.520  12.897  71.000  1.00  0.00    -0.348 NA 
HETATM   20  N   UNL     1     -12.399  13.977  70.182  1.00  0.00    -0.345 NA 
HETATM   21  N   UNL     1     -12.041  13.604  68.970  1.00  0.00    -0.340 NA 
HETATM   22  N   UNL     1     -11.854  12.263  69.021  1.00  0.00    -0.315 NA 
BRANCH  22  23
HETATM   23  C   UNL     1     -11.449  11.599  67.784  1.00  0.00    -0.302 C  
HETATM   24  C   UNL     1     -10.474  12.466  66.940  1.00  0.00    -0.243 C  
HETATM   25  C   UNL     1      -9.108  12.586  67.621  1.00  0.00    -0.187 C  
HETATM   26  C   UNL     1      -8.473  11.213  67.813  1.00  0.00    -0.124 C  
HETATM   27  C   UNL     1      -9.412  10.230  68.512  1.00  0.00    -0.158 C  
HETATM   28  C   UNL     1     -10.809  10.205  67.885  1.00  0.00    -0.336 C  
ENDBRANCH  22  23
ENDBRANCH  17  18
ENDBRANCH  16  17
ENDBRANCH  15  16
ENDBRANCH  14  15
ENDBRANCH  13  14
ENDBRANCH  11  13
TORSDOF 7
ENDMDL
MODEL       94
REMARK 921   NORMALIZED FREE ENERGY PREDICTED BY IDOCK:   -5.81 KCAL/MOL
REMARK 922        TOTAL FREE ENERGY PREDICTED BY IDOCK:   -9.20 KCAL/MOL
REMARK 923 INTER-LIGAND FREE ENERGY PREDICTED BY IDOCK:   -8.56 KCAL/MOL
REMARK 924 INTRA-LIGAND FREE ENERGY PREDICTED BY IDOCK:   -0.65 KCAL/MOL
REMARK 927      BINDING AFFINITY PREDICTED BY RF-SCORE:    0.00 PKD
ROOT
HETATM    1  O   UNL     1     -11.340   8.142  72.862  1.00  0.00    -0.387 OA 
HETATM    2  C   UNL     1     -11.056   8.536  71.733  1.00  0.00    -0.307 C  
HETATM    3  C   UNL     1     -10.041   7.833  70.861  1.00  0.00    -0.195 C  
HETATM    4  C   UNL     1     -10.369   7.942  69.377  1.00  0.00    -0.220 C  
HETATM    5  C   UNL     1     -10.778   9.335  68.979  1.00  0.00    -0.189 A  
HETATM    6  C   UNL     1     -11.367  10.168  69.939  1.00  0.00    -0.275 A  
HETATM    7  N   UNL     1     -11.553   9.713  71.247  1.00  0.00    -0.365 N  
HETATM    8  C   UNL     1     -11.819  11.436  69.584  1.00  0.00    -0.431 A  
HETATM    9  C   UNL     1     -11.693  11.877  68.261  1.00  0.00    -0.385 A  
HETATM   10  H   UNL     1     -12.097  10.297  71.881  1.00  0.00     0.000 HD 
HETATM   11  C   UNL     1     -11.140  11.053  67.276  1.00  0.00    -0.294 A  
HETATM   12  C   UNL     1     -10.681   9.780  67.642  1.00  0.00    -0.334 A  
ENDROOT
BRANCH  11  13
HETATM   13  O   UNL     1     -11.124  11.608  66.017  1.00  0.00    -0.301 OA 
BRANCH  13  14
HETATM   14  C   UNL     1     -11.970  12.735  65.793  1.00  0.00    -0.449 C  
BRANCH  14  15
HETATM   15  C   UNL     1     -11.481  13.563  64.580  1.00  0.00    -0.381 C  
BRANCH  15  16
HETATM   16  C   UNL     1     -10.981  14.927  65.076  1.00  0.00    -0.432 C  
BRANCH  16  17
HETATM   17  C   UNL     1      -9.597  15.004  65.731  1.00  0.00    -0.327 C  
BRANCH  17  18
HETATM   18  C   UNL     1      -9.573  15.515  67.127  1.00  0.00    -0.222 A  
HETATM   19  N   UNL     1      -9.890  14.753  68.163  1.00  0.00    -0.217 NA 
HETATM   20  N   UNL     1      -9.680  15.494  69.284  1.00  0.00    -0.254 NA 
HETATM   21  N   UNL     1      -9.262  16.704  68.970  1.00  0.00    -0.252 NA 
HETATM   22  N   UNL     1      -9.128  16.725  67.622  1.00  0.00    -0.217 NA 
BRANCH  22  23
HETATM   23  C   UNL     1      -8.672  17.975  67.017  1.00  0.00    -0.247 C  
HETATM   24  C   UNL     1      -9.805  18.706  66.245  1.00  0.00    -0.364 C  
HETATM   25  C   UNL     1     -10.863  19.259  67.203  1.00  0.00    -0.543 C  
HETATM   26  C   UNL     1     -10.243  20.251  68.182  1.00  0.00    -0.399 C  
HETATM   27  C   UNL     1      -9.020  19.678  68.898  1.00  0.00    -0.264 C  
HETATM   28  C   UNL     1      -8.025  19.029  67.931  1.00  0.00    -0.307 C  
ENDBRANCH  22  23
ENDBRANCH  17  18
ENDBRANCH  16  17
ENDBRANCH  15  16
ENDBRANCH  14  15
ENDBRANCH  13  14
ENDBRANCH  11  13
TORSDOF 7
ENDMDL
MODEL       95
REMARK 921   NORMALIZED FREE ENERGY PREDICTED BY IDOCK:   -5.81 KCAL/MOL
REMARK 922        TOTAL FREE ENERGY PREDICTED BY IDOCK:   -9.20 KCAL/MOL
REMARK 923 INTER-LIGAND FREE ENERGY PREDICTED BY IDOCK:   -8.71 KCAL/MOL
REMARK 924 INTRA-LIGAND FREE ENERGY PREDICTED BY IDOCK:   -0.49 KCAL/MOL
REMARK 927      BINDING AFFINITY PREDICTED BY RF-SCORE:    0.00 PKD
ROOT
HETATM    1  O   UNL     1      -7.526  20.687  67.260  1.00  0.00    -0.325 OA 
HETATM    2  C   UNL     1      -8.389  19.866  67.563  1.00  0.00    -0.324 C  
HETATM    3  C   UNL     1      -9.856  20.218  67.627  1.00  0.00    -0.563 C  
HETATM    4  C   UNL     1     -10.757  19.047  67.253  1.00  0.00    -0.556 C  
HETATM    5  C   UNL     1     -10.325  17.759  67.903  1.00  0.00    -0.388 A  
HETATM    6  C   UNL     1      -8.975  17.589  68.236  1.00  0.00    -0.267 A  
HETATM    7  N   UNL     1      -8.054  18.609  67.984  1.00  0.00    -0.268 N  
HETATM    8  C   UNL     1      -8.533  16.384  68.774  1.00  0.00    -0.249 A  
HETATM    9  C   UNL     1      -9.438  15.334  68.972  1.00  0.00    -0.232 A  
HETATM   10  H   UNL     1      -7.065  18.402  68.124  1.00  0.00     0.000 HD 
HETATM   11  C   UNL     1     -10.783  15.465  68.615  1.00  0.00    -0.246 A  
HETATM   12  C   UNL     1     -11.224  16.684  68.081  1.00  0.00    -0.202 A  
ENDROOT
BRANCH  11  13
HETATM   13  O   UNL     1     -11.538  14.335  68.829  1.00  0.00    -0.283 OA 
BRANCH  13  14
HETATM   14  C   UNL     1     -12.072  14.148  70.140  1.00  0.00    -0.346 C  
BRANCH  14  15
HETATM   15  C   UNL     1     -12.282  12.645  70.443  1.00  0.00    -0.368 C  
BRANCH  15  16
HETATM   16  C   UNL     1     -11.473  11.815  69.436  1.00  0.00    -0.371 C  
BRANCH  16  17
HETATM   17  C   UNL     1     -11.408  10.295  69.626  1.00  0.00    -0.315 C  
BRANCH  17  18
HETATM   18  C   UNL     1     -10.188   9.783  70.304  1.00  0.00    -0.289 A  
HETATM   19  N   UNL     1      -8.969  10.089  69.890  1.00  0.00    -0.190 NA 
HETATM   20  N   UNL     1      -8.095   9.537  70.775  1.00  0.00    -0.289 NA 
HETATM   21  N   UNL     1      -8.741   8.877  71.715  1.00  0.00    -0.356 NA 
HETATM   22  N   UNL     1     -10.061   9.066  71.478  1.00  0.00    -0.329 NA 
BRANCH  22  23
HETATM   23  C   UNL     1     -11.000   8.424  72.395  1.00  0.00    -0.355 C  
HETATM   24  C   UNL     1     -12.164   7.715  71.648  1.00  0.00    -0.346 C  
HETATM   25  C   UNL     1     -11.668   6.481  70.890  1.00  0.00    -0.416 C  
HETATM   26  C   UNL     1     -11.037   5.474  71.845  1.00  0.00    -0.233 C  
HETATM   27  C   UNL     1      -9.969   6.106  72.738  1.00  0.00    -0.185 C  
HETATM   28  C   UNL     1     -10.448   7.400  73.400  1.00  0.00    -0.419 C  
ENDBRANCH  22  23
ENDBRANCH  17  18
ENDBRANCH  16  17
ENDBRANCH  15  16
ENDBRANCH  14  15
ENDBRANCH  13  14
ENDBRANCH  11  13
TORSDOF 7
ENDMDL
MODEL       96
REMARK 921   NORMALIZED FREE ENERGY PREDICTED BY IDOCK:   -5.80 KCAL/MOL
REMARK 922        TOTAL FREE ENERGY PREDICTED BY IDOCK:   -9.18 KCAL/MOL
REMARK 923 INTER-LIGAND FREE ENERGY PREDICTED BY IDOCK:   -8.52 KCAL/MOL
REMARK 924 INTRA-LIGAND FREE ENERGY PREDICTED BY IDOCK:   -0.66 KCAL/MOL
REMARK 927      BINDING AFFINITY PREDICTED BY RF-SCORE:    0.00 PKD
ROOT
HETATM    1  O   UNL     1     -14.304  12.614  72.565  1.00  0.00    -0.243 OA 
HETATM    2  C   UNL     1     -13.380  12.972  71.838  1.00  0.00    -0.446 C  
HETATM    3  C   UNL     1     -12.521  11.989  71.076  1.00  0.00    -0.376 C  
HETATM    4  C   UNL     1     -12.024  12.552  69.750  1.00  0.00    -0.359 C  
HETATM    5  C   UNL     1     -11.515  13.963  69.879  1.00  0.00    -0.252 A  
HETATM    6  C   UNL     1     -12.034  14.781  70.890  1.00  0.00    -0.324 A  
HETATM    7  N   UNL     1     -12.995  14.282  71.774  1.00  0.00    -0.336 N  
HETATM    8  C   UNL     1     -11.635  16.110  70.991  1.00  0.00    -0.434 A  
HETATM    9  C   UNL     1     -10.719  16.635  70.072  1.00  0.00    -0.157 A  
HETATM   10  H   UNL     1     -13.439  14.940  72.414  1.00  0.00     0.000 HD 
HETATM   11  C   UNL     1     -10.212  15.851  69.031  1.00  0.00    -0.227 A  
HETATM   12  C   UNL     1     -10.612  14.511  68.940  1.00  0.00    -0.249 A  
ENDROOT
BRANCH  11  13
HETATM   13  O   UNL     1      -9.357  16.518  68.184  1.00  0.00    -0.211 OA 
BRANCH  13  14
HETATM   14  C   UNL     1      -9.814  17.757  67.643  1.00  0.00    -0.299 C  
BRANCH  14  15
HETATM   15  C   UNL     1     -10.594  17.532  66.325  1.00  0.00    -0.198 C  
BRANCH  15  16
HETATM   16  C   UNL     1     -10.253  16.140  65.776  1.00  0.00    -0.397 C  
BRANCH  16  17
HETATM   17  C   UNL     1     -11.067  15.601  64.593  1.00  0.00    -0.387 C  
BRANCH  17  18
HETATM   18  C   UNL     1     -11.691  14.267  64.796  1.00  0.00    -0.415 A  
HETATM   19  N   UNL     1     -13.002  14.092  64.783  1.00  0.00    -0.636 NA 
HETATM   20  N   UNL     1     -13.230  12.757  64.907  1.00  0.00    -0.738 NA 
HETATM   21  N   UNL     1     -12.093  12.101  65.019  1.00  0.00    -0.377 NA 
HETATM   22  N   UNL     1     -11.106  13.019  64.891  1.00  0.00    -0.291 NA 
BRANCH  22  23
HETATM   23  C   UNL     1      -9.730  12.536  64.983  1.00  0.00     0.007 C  
HETATM   24  C   UNL     1      -9.236  12.431  66.452  1.00  0.00    -0.192 C  
HETATM   25  C   UNL     1      -9.951  11.303  67.200  1.00  0.00    -0.219 C  
HETATM   26  C   UNL     1      -9.702   9.960  66.522  1.00  0.00    -0.260 C  
HETATM   27  C   UNL     1     -10.022   9.992  65.027  1.00  0.00    -0.320 C  
HETATM   28  C   UNL     1      -9.388  11.192  64.318  1.00  0.00    -0.183 C  
ENDBRANCH  22  23
ENDBRANCH  17  18
ENDBRANCH  16  17
ENDBRANCH  15  16
ENDBRANCH  14  15
ENDBRANCH  13  14
ENDBRANCH  11  13
TORSDOF 7
ENDMDL
MODEL       97
REMARK 921   NORMALIZED FREE ENERGY PREDICTED BY IDOCK:   -5.77 KCAL/MOL
REMARK 922        TOTAL FREE ENERGY PREDICTED BY IDOCK:   -9.15 KCAL/MOL
REMARK 923 INTER-LIGAND FREE ENERGY PREDICTED BY IDOCK:   -8.66 KCAL/MOL
REMARK 924 INTRA-LIGAND FREE ENERGY PREDICTED BY IDOCK:   -0.49 KCAL/MOL
REMARK 927      BINDING AFFINITY PREDICTED BY RF-SCORE:    0.00 PKD
ROOT
HETATM    1  O   UNL     1     -10.046  20.076  69.208  1.00  0.00    -0.341 OA 
HETATM    2  C   UNL     1     -10.342  19.200  68.399  1.00  0.00    -0.327 C  
HETATM    3  C   UNL     1     -10.707  19.510  66.966  1.00  0.00    -0.592 C  
HETATM    4  C   UNL     1     -10.293  18.404  66.003  1.00  0.00    -0.397 C  
HETATM    5  C   UNL     1     -10.630  17.032  66.523  1.00  0.00    -0.172 A  
HETATM    6  C   UNL     1     -10.702  16.831  67.907  1.00  0.00    -0.347 A  
HETATM    7  N   UNL     1     -10.480  17.896  68.785  1.00  0.00    -0.376 N  
HETATM    8  C   UNL     1     -10.944  15.560  68.419  1.00  0.00    -0.297 A  
HETATM    9  C   UNL     1     -11.106  14.476  67.548  1.00  0.00    -0.316 A  
HETATM   10  H   UNL     1     -10.416  17.686  69.781  1.00  0.00     0.000 HD 
HETATM   11  C   UNL     1     -11.004  14.642  66.163  1.00  0.00    -0.329 A  
HETATM   12  C   UNL     1     -10.768  15.927  65.654  1.00  0.00    -0.350 A  
ENDROOT
BRANCH  11  13
HETATM   13  O   UNL     1     -11.143  13.479  65.442  1.00  0.00    -0.289 OA 
BRANCH  13  14
HETATM   14  C   UNL     1     -11.100  12.252  66.171  1.00  0.00    -0.311 C  
BRANCH  14  15
HETATM   15  C   UNL     1     -10.847  11.054  65.225  1.00  0.00    -0.172 C  
BRANCH  15  16
HETATM   16  C   UNL     1      -9.893  10.067  65.914  1.00  0.00    -0.330 C  
BRANCH  16  17
HETATM   17  C   UNL     1      -9.840  10.051  67.446  1.00  0.00    -0.226 C  
BRANCH  17  18
HETATM   18  C   UNL     1     -10.354   8.816  68.094  1.00  0.00    -0.216 A  
HETATM   19  N   UNL     1     -10.603   7.711  67.410  1.00  0.00    -0.289 NA 
HETATM   20  N   UNL     1     -10.969   6.757  68.308  1.00  0.00    -0.224 NA 
HETATM   21  N   UNL     1     -10.975   7.249  69.530  1.00  0.00    -0.205 NA 
HETATM   22  N   UNL     1     -10.533   8.525  69.433  1.00  0.00    -0.220 NA 
BRANCH  22  23
HETATM   23  C   UNL     1     -10.449   9.298  70.670  1.00  0.00    -0.262 C  
HETATM   24  C   UNL     1     -11.462  10.476  70.701  1.00  0.00    -0.418 C  
HETATM   25  C   UNL     1     -12.902   9.967  70.818  1.00  0.00    -0.341 C  
HETATM   26  C   UNL     1     -13.088   9.151  72.091  1.00  0.00    -0.516 C  
HETATM   27  C   UNL     1     -12.043   8.044  72.234  1.00  0.00    -0.392 C  
HETATM   28  C   UNL     1     -10.616   8.551  72.004  1.00  0.00    -0.408 C  
ENDBRANCH  22  23
ENDBRANCH  17  18
ENDBRANCH  16  17
ENDBRANCH  15  16
ENDBRANCH  14  15
ENDBRANCH  13  14
ENDBRANCH  11  13
TORSDOF 7
ENDMDL
MODEL       98
REMARK 921   NORMALIZED FREE ENERGY PREDICTED BY IDOCK:   -5.76 KCAL/MOL
REMARK 922        TOTAL FREE ENERGY PREDICTED BY IDOCK:   -9.14 KCAL/MOL
REMARK 923 INTER-LIGAND FREE ENERGY PREDICTED BY IDOCK:   -8.02 KCAL/MOL
REMARK 924 INTRA-LIGAND FREE ENERGY PREDICTED BY IDOCK:   -1.12 KCAL/MOL
REMARK 927      BINDING AFFINITY PREDICTED BY RF-SCORE:    0.00 PKD
ROOT
HETATM    1  O   UNL     1     -13.268  11.933  63.222  1.00  0.00    -0.602 OA 
HETATM    2  C   UNL     1     -12.359  12.252  63.986  1.00  0.00    -0.475 C  
HETATM    3  C   UNL     1     -12.292  13.611  64.642  1.00  0.00    -0.413 C  
HETATM    4  C   UNL     1     -11.646  13.564  66.022  1.00  0.00    -0.363 C  
HETATM    5  C   UNL     1     -10.399  12.721  66.045  1.00  0.00    -0.291 A  
HETATM    6  C   UNL     1     -10.273  11.673  65.124  1.00  0.00    -0.274 A  
HETATM    7  N   UNL     1     -11.284  11.432  64.189  1.00  0.00    -0.334 N  
HETATM    8  C   UNL     1      -9.165  10.833  65.165  1.00  0.00    -0.239 A  
HETATM    9  C   UNL     1      -8.176  11.029  66.138  1.00  0.00    -0.155 A  
HETATM   10  H   UNL     1     -11.215  10.589  63.621  1.00  0.00     0.000 HD 
HETATM   11  C   UNL     1      -8.295  12.045  67.092  1.00  0.00    -0.181 A  
HETATM   12  C   UNL     1      -9.410  12.892  67.039  1.00  0.00    -0.235 A  
ENDROOT
BRANCH  11  13
HETATM   13  O   UNL     1      -7.268  12.084  68.007  1.00  0.00    -0.082 OA 
BRANCH  13  14
HETATM   14  C   UNL     1      -6.221  13.025  67.769  1.00  0.00    -0.149 C  
BRANCH  14  15
HETATM   15  C   UNL     1      -5.842  13.772  69.070  1.00  0.00    -0.080 C  
BRANCH  15  16
HETATM   16  C   UNL     1      -7.091  14.469  69.627  1.00  0.00    -0.090 C  
BRANCH  16  17
HETATM   17  C   UNL     1      -7.527  15.799  69.002  1.00  0.00    -0.186 C  
BRANCH  17  18
HETATM   18  C   UNL     1      -8.994  15.999  68.872  1.00  0.00    -0.239 A  
HETATM   19  N   UNL     1      -9.850  15.548  69.775  1.00  0.00    -0.287 NA 
HETATM   20  N   UNL     1     -11.087  15.974  69.403  1.00  0.00    -0.306 NA 
HETATM   21  N   UNL     1     -11.023  16.661  68.280  1.00  0.00    -0.359 NA 
HETATM   22  N   UNL     1      -9.710  16.745  67.956  1.00  0.00    -0.238 NA 
BRANCH  22  23
HETATM   23  C   UNL     1      -9.371  17.467  66.732  1.00  0.00    -0.268 C  
HETATM   24  C   UNL     1     -10.494  18.448  66.294  1.00  0.00    -0.421 C  
HETATM   25  C   UNL     1     -10.607  19.629  67.261  1.00  0.00    -0.598 C  
HETATM   26  C   UNL     1      -9.298  20.408  67.324  1.00  0.00    -0.547 C  
HETATM   27  C   UNL     1      -8.096  19.507  67.608  1.00  0.00    -0.323 C  
HETATM   28  C   UNL     1      -8.061  18.272  66.704  1.00  0.00    -0.281 C  
ENDBRANCH  22  23
ENDBRANCH  17  18
ENDBRANCH  16  17
ENDBRANCH  15  16
ENDBRANCH  14  15
ENDBRANCH  13  14
ENDBRANCH  11  13
TORSDOF 7
ENDMDL
MODEL       99
REMARK 921   NORMALIZED FREE ENERGY PREDICTED BY IDOCK:   -5.76 KCAL/MOL
REMARK 922        TOTAL FREE ENERGY PREDICTED BY IDOCK:   -9.14 KCAL/MOL
REMARK 923 INTER-LIGAND FREE ENERGY PREDICTED BY IDOCK:   -8.16 KCAL/MOL
REMARK 924 INTRA-LIGAND FREE ENERGY PREDICTED BY IDOCK:   -0.98 KCAL/MOL
REMARK 927      BINDING AFFINITY PREDICTED BY RF-SCORE:    0.00 PKD
ROOT
HETATM    1  O   UNL     1     -13.088  15.862  70.962  1.00  0.00    -0.508 OA 
HETATM    2  C   UNL     1     -12.610  14.979  70.252  1.00  0.00    -0.317 C  
HETATM    3  C   UNL     1     -12.094  13.676  70.816  1.00  0.00    -0.374 C  
HETATM    4  C   UNL     1     -12.277  12.509  69.854  1.00  0.00    -0.233 C  
HETATM    5  C   UNL     1     -11.881  12.858  68.444  1.00  0.00    -0.357 A  
HETATM    6  C   UNL     1     -11.969  14.192  68.026  1.00  0.00    -0.337 A  
HETATM    7  N   UNL     1     -12.401  15.181  68.916  1.00  0.00    -0.603 N  
HETATM    8  C   UNL     1     -11.677  14.536  66.710  1.00  0.00    -0.393 A  
HETATM    9  C   UNL     1     -11.304  13.544  65.796  1.00  0.00    -0.318 A  
HETATM   10  H   UNL     1     -12.572  16.114  68.543  1.00  0.00     0.000 HD 
HETATM   11  C   UNL     1     -11.242  12.199  66.177  1.00  0.00    -0.338 A  
HETATM   12  C   UNL     1     -11.530  11.861  67.506  1.00  0.00    -0.396 A  
ENDROOT
BRANCH  11  13
HETATM   13  O   UNL     1     -10.904  11.338  65.159  1.00  0.00    -0.270 OA 
BRANCH  13  14
HETATM   14  C   UNL     1      -9.576  10.814  65.164  1.00  0.00    -0.245 C  
BRANCH  14  15
HETATM   15  C   UNL     1      -9.580   9.298  65.471  1.00  0.00    -0.291 C  
BRANCH  15  16
HETATM   16  C   UNL     1      -9.187   9.086  66.941  1.00  0.00    -0.179 C  
BRANCH  16  17
HETATM   17  C   UNL     1     -10.133   8.284  67.842  1.00  0.00    -0.252 C  
BRANCH  17  18
HETATM   18  C   UNL     1     -10.103   8.641  69.285  1.00  0.00    -0.202 A  
HETATM   19  N   UNL     1      -9.464   9.709  69.734  1.00  0.00    -0.206 NA 
HETATM   20  N   UNL     1      -9.709   9.791  71.070  1.00  0.00    -0.012 NA 
HETATM   21  N   UNL     1     -10.467   8.787  71.465  1.00  0.00    -0.274 NA 
HETATM   22  N   UNL     1     -10.780   8.082  70.351  1.00  0.00    -0.229 NA 
BRANCH  22  23
HETATM   23  C   UNL     1     -11.623   6.901  70.526  1.00  0.00    -0.346 C  
HETATM   24  C   UNL     1     -11.009   5.634  69.869  1.00  0.00    -0.309 C  
HETATM   25  C   UNL     1      -9.761   5.167  70.623  1.00  0.00    -0.257 C  
HETATM   26  C   UNL     1     -10.094   4.833  72.073  1.00  0.00    -0.258 C  
HETATM   27  C   UNL     1     -10.837   5.968  72.777  1.00  0.00    -0.284 C  
HETATM   28  C   UNL     1     -12.017   6.497  71.957  1.00  0.00    -0.372 C  
ENDBRANCH  22  23
ENDBRANCH  17  18
ENDBRANCH  16  17
ENDBRANCH  15  16
ENDBRANCH  14  15
ENDBRANCH  13  14
ENDBRANCH  11  13
TORSDOF 7
ENDMDL
MODEL      100
REMARK 921   NORMALIZED FREE ENERGY PREDICTED BY IDOCK:   -5.75 KCAL/MOL
REMARK 922        TOTAL FREE ENERGY PREDICTED BY IDOCK:   -9.12 KCAL/MOL
REMARK 923 INTER-LIGAND FREE ENERGY PREDICTED BY IDOCK:   -8.14 KCAL/MOL
REMARK 924 INTRA-LIGAND FREE ENERGY PREDICTED BY IDOCK:   -0.98 KCAL/MOL
REMARK 927      BINDING AFFINITY PREDICTED BY RF-SCORE:    0.00 PKD
ROOT
HETATM    1  O   UNL     1     -14.283  13.825  72.926  1.00  0.00    -0.514 OA 
HETATM    2  C   UNL     1     -13.691  13.139  72.094  1.00  0.00    -0.495 C  
HETATM    3  C   UNL     1     -13.340  13.657  70.719  1.00  0.00     0.067 C  
HETATM    4  C   UNL     1     -12.049  13.055  70.179  1.00  0.00    -0.377 C  
HETATM    5  C   UNL     1     -11.970  11.568  70.400  1.00  0.00    -0.459 A  
HETATM    6  C   UNL     1     -12.662  11.007  71.481  1.00  0.00    -0.415 A  
HETATM    7  N   UNL     1     -13.426  11.818  72.325  1.00  0.00    -0.547 N  
HETATM    8  C   UNL     1     -12.554   9.647  71.753  1.00  0.00    -0.497 A  
HETATM    9  C   UNL     1     -11.741   8.837  70.950  1.00  0.00    -0.299 A  
HETATM   10  H   UNL     1     -13.811  11.396  73.169  1.00  0.00     0.000 HD 
HETATM   11  C   UNL     1     -11.012   9.377  69.886  1.00  0.00    -0.229 A  
HETATM   12  C   UNL     1     -11.132  10.747  69.613  1.00  0.00    -0.339 A  
ENDROOT
BRANCH  11  13
HETATM   13  O   UNL     1     -10.227   8.466  69.218  1.00  0.00    -0.198 OA 
BRANCH  13  14
HETATM   14  C   UNL     1      -8.996   8.944  68.673  1.00  0.00    -0.137 C  
BRANCH  14  15
HETATM   15  C   UNL     1      -8.156   9.666  69.753  1.00  0.00    -0.160 C  
BRANCH  15  16
HETATM   16  C   UNL     1      -7.418  10.846  69.104  1.00  0.00    -0.130 C  
BRANCH  16  17
HETATM   17  C   UNL     1      -7.609  11.092  67.603  1.00  0.00    -0.104 C  
BRANCH  17  18
HETATM   18  C   UNL     1      -8.419  12.286  67.245  1.00  0.00    -0.181 A  
HETATM   19  N   UNL     1      -8.002  13.519  67.486  1.00  0.00    -0.171 NA 
HETATM   20  N   UNL     1      -8.928  14.365  66.960  1.00  0.00    -0.230 NA 
HETATM   21  N   UNL     1      -9.920  13.688  66.417  1.00  0.00    -0.289 NA 
HETATM   22  N   UNL     1      -9.596  12.377  66.528  1.00  0.00    -0.236 NA 
BRANCH  22  23
HETATM   23  C   UNL     1     -10.550  11.408  65.995  1.00  0.00    -0.266 C  
HETATM   24  C   UNL     1     -11.391  11.988  64.824  1.00  0.00    -0.369 C  
HETATM   25  C   UNL     1     -10.529  12.207  63.577  1.00  0.00    -0.490 C  
HETATM   26  C   UNL     1      -9.909  10.896  63.108  1.00  0.00    -0.392 C  
HETATM   27  C   UNL     1      -9.173  10.164  64.231  1.00  0.00    -0.312 C  
HETATM   28  C   UNL     1     -10.011  10.053  65.507  1.00  0.00    -0.367 C  
ENDBRANCH  22  23
ENDBRANCH  17  18
ENDBRANCH  16  17
ENDBRANCH  15  16
ENDBRANCH  14  15
ENDBRANCH  13  14
ENDBRANCH  11  13
TORSDOF 7
ENDMDL
MODEL      101
REMARK 921   NORMALIZED FREE ENERGY PREDICTED BY IDOCK:   -5.75 KCAL/MOL
REMARK 922        TOTAL FREE ENERGY PREDICTED BY IDOCK:   -9.11 KCAL/MOL
REMARK 923 INTER-LIGAND FREE ENERGY PREDICTED BY IDOCK:   -8.36 KCAL/MOL
REMARK 924 INTRA-LIGAND FREE ENERGY PREDICTED BY IDOCK:   -0.76 KCAL/MOL
REMARK 927      BINDING AFFINITY PREDICTED BY RF-SCORE:    0.00 PKD
ROOT
HETATM    1  O   UNL     1     -10.900   7.516  73.349  1.00  0.00    -0.394 OA 
HETATM    2  C   UNL     1     -11.218   8.259  72.423  1.00  0.00    -0.381 C  
HETATM    3  C   UNL     1     -12.658   8.566  72.087  1.00  0.00    -0.431 C  
HETATM    4  C   UNL     1     -12.842   9.968  71.519  1.00  0.00    -0.537 C  
HETATM    5  C   UNL     1     -11.802  10.310  70.486  1.00  0.00    -0.419 A  
HETATM    6  C   UNL     1     -10.548   9.689  70.554  1.00  0.00    -0.306 A  
HETATM    7  N   UNL     1     -10.281   8.753  71.558  1.00  0.00    -0.271 N  
HETATM    8  C   UNL     1      -9.544  10.035  69.656  1.00  0.00    -0.251 A  
HETATM    9  C   UNL     1      -9.783  11.016  68.686  1.00  0.00    -0.198 A  
HETATM   10  H   UNL     1      -9.323   8.417  71.652  1.00  0.00     0.000 HD 
HETATM   11  C   UNL     1     -11.014  11.677  68.617  1.00  0.00    -0.220 A  
HETATM   12  C   UNL     1     -12.023  11.318  69.520  1.00  0.00    -0.421 A  
ENDROOT
BRANCH  11  13
HETATM   13  O   UNL     1     -11.083  12.645  67.641  1.00  0.00    -0.241 OA 
BRANCH  13  14
HETATM   14  C   UNL     1     -12.035  13.691  67.828  1.00  0.00    -0.352 C  
BRANCH  14  15
HETATM   15  C   UNL     1     -11.501  14.757  68.814  1.00  0.00    -0.324 C  
BRANCH  15  16
HETATM   16  C   UNL     1     -11.095  16.009  68.022  1.00  0.00    -0.334 C  
BRANCH  16  17
HETATM   17  C   UNL     1     -10.281  15.829  66.736  1.00  0.00    -0.284 C  
BRANCH  17  18
HETATM   18  C   UNL     1      -8.813  15.685  66.918  1.00  0.00    -0.250 A  
HETATM   19  N   UNL     1      -8.253  14.530  67.242  1.00  0.00    -0.204 NA 
HETATM   20  N   UNL     1      -6.906  14.724  67.240  1.00  0.00    -0.256 NA 
HETATM   21  N   UNL     1      -6.618  15.975  66.945  1.00  0.00    -0.280 NA 
HETATM   22  N   UNL     1      -7.796  16.588  66.677  1.00  0.00    -0.256 NA 
BRANCH  22  23
HETATM   23  C   UNL     1      -7.745  18.003  66.320  1.00  0.00    -0.258 C  
HETATM   24  C   UNL     1      -8.809  18.844  67.080  1.00  0.00    -0.306 C  
HETATM   25  C   UNL     1      -8.474  18.947  68.570  1.00  0.00    -0.384 C  
HETATM   26  C   UNL     1      -7.116  19.607  68.778  1.00  0.00    -0.381 C  
HETATM   27  C   UNL     1      -6.012  18.942  67.955  1.00  0.00    -0.208 C  
HETATM   28  C   UNL     1      -6.409  18.746  66.489  1.00  0.00    -0.211 C  
ENDBRANCH  22  23
ENDBRANCH  17  18
ENDBRANCH  16  17
ENDBRANCH  15  16
ENDBRANCH  14  15
ENDBRANCH  13  14
ENDBRANCH  11  13
TORSDOF 7
ENDMDL
MODEL      102
REMARK 921   NORMALIZED FREE ENERGY PREDICTED BY IDOCK:   -5.74 KCAL/MOL
REMARK 922        TOTAL FREE ENERGY PREDICTED BY IDOCK:   -9.10 KCAL/MOL
REMARK 923 INTER-LIGAND FREE ENERGY PREDICTED BY IDOCK:   -8.62 KCAL/MOL
REMARK 924 INTRA-LIGAND FREE ENERGY PREDICTED BY IDOCK:   -0.48 KCAL/MOL
REMARK 927      BINDING AFFINITY PREDICTED BY RF-SCORE:    0.00 PKD
ROOT
HETATM    1  O   UNL     1      -7.195  20.854  66.958  1.00  0.00    -0.321 OA 
HETATM    2  C   UNL     1      -8.075  20.077  67.322  1.00  0.00    -0.320 C  
HETATM    3  C   UNL     1      -9.537  20.460  67.341  1.00  0.00    -0.584 C  
HETATM    4  C   UNL     1     -10.456  19.277  67.060  1.00  0.00    -0.556 C  
HETATM    5  C   UNL     1     -10.053  18.043  67.821  1.00  0.00    -0.359 A  
HETATM    6  C   UNL     1      -8.709  17.877  68.182  1.00  0.00    -0.268 A  
HETATM    7  N   UNL     1      -7.767  18.856  67.852  1.00  0.00    -0.256 N  
HETATM    8  C   UNL     1      -8.294  16.716  68.825  1.00  0.00    -0.252 A  
HETATM    9  C   UNL     1      -9.220  15.703  69.103  1.00  0.00    -0.254 A  
HETATM   10  H   UNL     1      -6.784  18.644  68.019  1.00  0.00     0.000 HD 
HETATM   11  C   UNL     1     -10.560  15.827  68.723  1.00  0.00    -0.239 A  
HETATM   12  C   UNL     1     -10.973  17.003  68.083  1.00  0.00    -0.263 A  
ENDROOT
BRANCH  11  13
HETATM   13  O   UNL     1     -11.338  14.733  69.026  1.00  0.00    -0.247 OA 
BRANCH  13  14
HETATM   14  C   UNL     1     -11.782  14.604  70.376  1.00  0.00    -0.295 C  
BRANCH  14  15
HETATM   15  C   UNL     1     -12.249  13.159  70.671  1.00  0.00    -0.402 C  
BRANCH  15  16
HETATM   16  C   UNL     1     -11.547  12.200  69.699  1.00  0.00    -0.361 C  
BRANCH  16  17
HETATM   17  C   UNL     1     -12.118  10.788  69.523  1.00  0.00    -0.344 C  
BRANCH  17  18
HETATM   18  C   UNL     1     -12.252   9.989  70.770  1.00  0.00    -0.315 A  
HETATM   19  N   UNL     1     -13.321  10.067  71.546  1.00  0.00    -0.377 NA 
HETATM   20  N   UNL     1     -13.162   9.151  72.540  1.00  0.00    -0.441 NA 
HETATM   21  N   UNL     1     -12.011   8.522  72.412  1.00  0.00    -0.380 NA 
HETATM   22  N   UNL     1     -11.445   8.986  71.272  1.00  0.00    -0.294 NA 
BRANCH  22  23
HETATM   23  C   UNL     1     -10.142   8.438  70.904  1.00  0.00    -0.194 C  
HETATM   24  C   UNL     1      -9.914   7.014  71.485  1.00  0.00    -0.187 C  
HETATM   25  C   UNL     1     -10.822   5.986  70.806  1.00  0.00    -0.358 C  
HETATM   26  C   UNL     1     -10.555   5.932  69.305  1.00  0.00    -0.379 C  
HETATM   27  C   UNL     1     -10.612   7.313  68.653  1.00  0.00    -0.194 C  
HETATM   28  C   UNL     1      -9.785   8.355  69.410  1.00  0.00    -0.177 C  
ENDBRANCH  22  23
ENDBRANCH  17  18
ENDBRANCH  16  17
ENDBRANCH  15  16
ENDBRANCH  14  15
ENDBRANCH  13  14
ENDBRANCH  11  13
TORSDOF 7
ENDMDL
MODEL      103
REMARK 921   NORMALIZED FREE ENERGY PREDICTED BY IDOCK:   -5.73 KCAL/MOL
REMARK 922        TOTAL FREE ENERGY PREDICTED BY IDOCK:   -9.08 KCAL/MOL
REMARK 923 INTER-LIGAND FREE ENERGY PREDICTED BY IDOCK:   -8.22 KCAL/MOL
REMARK 924 INTRA-LIGAND FREE ENERGY PREDICTED BY IDOCK:   -0.87 KCAL/MOL
REMARK 927      BINDING AFFINITY PREDICTED BY RF-SCORE:    0.00 PKD
ROOT
HETATM    1  O   UNL     1      -9.920  19.062  68.134  1.00  0.00    -0.341 OA 
HETATM    2  C   UNL     1     -10.321  17.960  67.768  1.00  0.00    -0.387 C  
HETATM    3  C   UNL     1     -10.492  17.603  66.310  1.00  0.00    -0.292 C  
HETATM    4  C   UNL     1     -10.234  16.127  66.033  1.00  0.00    -0.374 C  
HETATM    5  C   UNL     1     -10.890  15.229  67.048  1.00  0.00    -0.321 A  
HETATM    6  C   UNL     1     -11.119  15.719  68.340  1.00  0.00    -0.341 A  
HETATM    7  N   UNL     1     -10.757  17.029  68.669  1.00  0.00    -0.349 N  
HETATM    8  C   UNL     1     -11.660  14.892  69.318  1.00  0.00    -0.330 A  
HETATM    9  C   UNL     1     -11.967  13.560  69.014  1.00  0.00    -0.376 A  
HETATM   10  H   UNL     1     -10.822  17.308  69.647  1.00  0.00     0.000 HD 
HETATM   11  C   UNL     1     -11.717  13.035  67.742  1.00  0.00    -0.359 A  
HETATM   12  C   UNL     1     -11.179  13.876  66.759  1.00  0.00    -0.328 A  
ENDROOT
BRANCH  11  13
HETATM   13  O   UNL     1     -12.031  11.702  67.609  1.00  0.00    -0.618 OA 
BRANCH  13  14
HETATM   14  C   UNL     1     -11.203  10.766  68.298  1.00  0.00    -0.297 C  
BRANCH  14  15
HETATM   15  C   UNL     1     -10.078  10.238  67.377  1.00  0.00    -0.246 C  
BRANCH  15  16
HETATM   16  C   UNL     1      -8.760  10.208  68.165  1.00  0.00    -0.122 C  
BRANCH  16  17
HETATM   17  C   UNL     1      -8.310   8.881  68.787  1.00  0.00    -0.123 C  
BRANCH  17  18
HETATM   18  C   UNL     1      -8.215   8.865  70.270  1.00  0.00    -0.129 A  
HETATM   19  N   UNL     1      -7.073   9.071  70.906  1.00  0.00    -0.088 NA 
HETATM   20  N   UNL     1      -7.351   9.079  72.238  1.00  0.00    -0.328 NA 
HETATM   21  N   UNL     1      -8.635   8.862  72.445  1.00  0.00    -0.363 NA 
HETATM   22  N   UNL     1      -9.213   8.784  71.222  1.00  0.00    -0.218 NA 
BRANCH  22  23
HETATM   23  C   UNL     1     -10.653   8.543  71.180  1.00  0.00    -0.220 C  
HETATM   24  C   UNL     1     -11.031   7.389  70.210  1.00  0.00    -0.272 C  
HETATM   25  C   UNL     1     -10.563   6.035  70.748  1.00  0.00    -0.316 C  
HETATM   26  C   UNL     1     -11.198   5.739  72.103  1.00  0.00    -0.327 C  
HETATM   27  C   UNL     1     -11.008   6.884  73.098  1.00  0.00    -0.297 C  
HETATM   28  C   UNL     1     -11.377   8.246  72.504  1.00  0.00    -0.455 C  
ENDBRANCH  22  23
ENDBRANCH  17  18
ENDBRANCH  16  17
ENDBRANCH  15  16
ENDBRANCH  14  15
ENDBRANCH  13  14
ENDBRANCH  11  13
TORSDOF 7
ENDMDL
MODEL      104
REMARK 921   NORMALIZED FREE ENERGY PREDICTED BY IDOCK:   -5.73 KCAL/MOL
REMARK 922        TOTAL FREE ENERGY PREDICTED BY IDOCK:   -9.08 KCAL/MOL
REMARK 923 INTER-LIGAND FREE ENERGY PREDICTED BY IDOCK:   -7.19 KCAL/MOL
REMARK 924 INTRA-LIGAND FREE ENERGY PREDICTED BY IDOCK:   -1.89 KCAL/MOL
REMARK 927      BINDING AFFINITY PREDICTED BY RF-SCORE:    0.00 PKD
ROOT
HETATM    1  O   UNL     1      -6.152  12.345  70.878  1.00  0.00    -0.247 OA 
HETATM    2  C   UNL     1      -6.421  12.008  69.727  1.00  0.00    -0.066 C  
HETATM    3  C   UNL     1      -6.021  12.834  68.527  1.00  0.00    -0.062 C  
HETATM    4  C   UNL     1      -5.734  11.980  67.298  1.00  0.00    -0.139 C  
HETATM    5  C   UNL     1      -6.771  10.909  67.087  1.00  0.00    -0.088 A  
HETATM    6  C   UNL     1      -7.468  10.413  68.196  1.00  0.00    -0.090 A  
HETATM    7  N   UNL     1      -7.212  10.923  69.473  1.00  0.00    -0.211 N  
HETATM    8  C   UNL     1      -8.381   9.376  68.044  1.00  0.00    -0.119 A  
HETATM    9  C   UNL     1      -8.598   8.817  66.778  1.00  0.00    -0.122 A  
HETATM   10  H   UNL     1      -7.645  10.453  70.267  1.00  0.00     0.000 HD 
HETATM   11  C   UNL     1      -7.890   9.269  65.660  1.00  0.00    -0.099 A  
HETATM   12  C   UNL     1      -6.977  10.320  65.820  1.00  0.00    -0.128 A  
ENDROOT
BRANCH  11  13
HETATM   13  O   UNL     1      -8.180   8.594  64.496  1.00  0.00    -0.154 OA 
BRANCH  13  14
HETATM   14  C   UNL     1      -7.915   9.271  63.268  1.00  0.00    -0.145 C  
BRANCH  14  15
HETATM   15  C   UNL     1      -9.230   9.728  62.592  1.00  0.00    -0.268 C  
BRANCH  15  16
HETATM   16  C   UNL     1      -9.617  11.110  63.139  1.00  0.00    -0.388 C  
BRANCH  16  17
HETATM   17  C   UNL     1     -10.669  11.188  64.252  1.00  0.00    -0.403 C  
BRANCH  17  18
HETATM   18  C   UNL     1     -11.454  12.449  64.307  1.00  0.00    -0.363 A  
HETATM   19  N   UNL     1     -11.917  13.040  63.218  1.00  0.00    -0.535 NA 
HETATM   20  N   UNL     1     -12.658  14.106  63.624  1.00  0.00    -0.778 NA 
HETATM   21  N   UNL     1     -12.649  14.203  64.938  1.00  0.00    -0.645 NA 
HETATM   22  N   UNL     1     -11.950  13.138  65.397  1.00  0.00    -0.380 NA 
BRANCH  22  23
HETATM   23  C   UNL     1     -11.793  13.017  66.845  1.00  0.00    -0.380 C  
HETATM   24  C   UNL     1     -10.392  12.478  67.245  1.00  0.00    -0.228 C  
HETATM   25  C   UNL     1      -9.297  13.508  66.957  1.00  0.00    -0.247 C  
HETATM   26  C   UNL     1      -9.545  14.797  67.733  1.00  0.00    -0.209 C  
HETATM   27  C   UNL     1     -10.958  15.341  67.523  1.00  0.00    -0.315 C  
HETATM   28  C   UNL     1     -12.034  14.268  67.707  1.00  0.00    -0.384 C  
ENDBRANCH  22  23
ENDBRANCH  17  18
ENDBRANCH  16  17
ENDBRANCH  15  16
ENDBRANCH  14  15
ENDBRANCH  13  14
ENDBRANCH  11  13
TORSDOF 7
ENDMDL
MODEL      105
REMARK 921   NORMALIZED FREE ENERGY PREDICTED BY IDOCK:   -5.72 KCAL/MOL
REMARK 922        TOTAL FREE ENERGY PREDICTED BY IDOCK:   -9.08 KCAL/MOL
REMARK 923 INTER-LIGAND FREE ENERGY PREDICTED BY IDOCK:   -7.99 KCAL/MOL
REMARK 924 INTRA-LIGAND FREE ENERGY PREDICTED BY IDOCK:   -1.09 KCAL/MOL
REMARK 927      BINDING AFFINITY PREDICTED BY RF-SCORE:    0.00 PKD
ROOT
HETATM    1  O   UNL     1     -10.818  12.336  63.110  1.00  0.00    -0.377 OA 
HETATM    2  C   UNL     1     -10.929  12.388  64.334  1.00  0.00    -0.334 C  
HETATM    3  C   UNL     1     -11.234  13.673  65.066  1.00  0.00    -0.329 C  
HETATM    4  C   UNL     1     -12.054  13.447  66.331  1.00  0.00    -0.464 C  
HETATM    5  C   UNL     1     -11.544  12.289  67.146  1.00  0.00    -0.423 A  
HETATM    6  C   UNL     1     -10.868  11.248  66.497  1.00  0.00    -0.265 A  
HETATM    7  N   UNL     1     -10.657  11.300  65.116  1.00  0.00    -0.292 N  
HETATM    8  C   UNL     1     -10.446  10.132  67.212  1.00  0.00    -0.313 A  
HETATM    9  C   UNL     1     -10.708  10.043  68.585  1.00  0.00    -0.256 A  
HETATM   10  H   UNL     1     -10.275  10.471  64.662  1.00  0.00     0.000 HD 
HETATM   11  C   UNL     1     -11.412  11.051  69.252  1.00  0.00    -0.300 A  
HETATM   12  C   UNL     1     -11.827  12.176  68.526  1.00  0.00    -0.365 A  
ENDROOT
BRANCH  11  13
HETATM   13  O   UNL     1     -11.629  10.801  70.587  1.00  0.00    -0.322 OA 
BRANCH  13  14
HETATM   14  C   UNL     1     -12.986  10.765  71.030  1.00  0.00    -0.332 C  
BRANCH  14  15
HETATM   15  C   UNL     1     -13.182   9.690  72.125  1.00  0.00    -0.535 C  
BRANCH  15  16
HETATM   16  C   UNL     1     -13.558   8.360  71.457  1.00  0.00    -0.332 C  
BRANCH  16  17
HETATM   17  C   UNL     1     -12.728   7.114  71.790  1.00  0.00    -0.374 C  
BRANCH  17  18
HETATM   18  C   UNL     1     -11.492   6.930  70.986  1.00  0.00    -0.314 A  
HETATM   19  N   UNL     1     -11.501   6.332  69.805  1.00  0.00    -0.440 NA 
HETATM   20  N   UNL     1     -10.237   6.410  69.306  1.00  0.00    -0.181 NA 
HETATM   21  N   UNL     1      -9.440   7.023  70.158  1.00  0.00    -0.162 NA 
HETATM   22  N   UNL     1     -10.216   7.415  71.197  1.00  0.00    -0.194 NA 
BRANCH  22  23
HETATM   23  C   UNL     1      -9.556   8.126  72.290  1.00  0.00    -0.251 C  
HETATM   24  C   UNL     1      -9.732   7.404  73.655  1.00  0.00    -0.349 C  
HETATM   25  C   UNL     1      -8.945   6.092  73.695  1.00  0.00    -0.128 C  
HETATM   26  C   UNL     1      -7.456   6.345  73.483  1.00  0.00    -0.089 C  
HETATM   27  C   UNL     1      -7.178   7.179  72.232  1.00  0.00    -0.072 C  
HETATM   28  C   UNL     1      -8.055   8.431  72.155  1.00  0.00    -0.192 C  
ENDBRANCH  22  23
ENDBRANCH  17  18
ENDBRANCH  16  17
ENDBRANCH  15  16
ENDBRANCH  14  15
ENDBRANCH  13  14
ENDBRANCH  11  13
TORSDOF 7
ENDMDL
MODEL      106
REMARK 921   NORMALIZED FREE ENERGY PREDICTED BY IDOCK:   -5.72 KCAL/MOL
REMARK 922        TOTAL FREE ENERGY PREDICTED BY IDOCK:   -9.08 KCAL/MOL
REMARK 923 INTER-LIGAND FREE ENERGY PREDICTED BY IDOCK:   -8.13 KCAL/MOL
REMARK 924 INTRA-LIGAND FREE ENERGY PREDICTED BY IDOCK:   -0.95 KCAL/MOL
REMARK 927      BINDING AFFINITY PREDICTED BY RF-SCORE:    0.00 PKD
ROOT
HETATM    1  O   UNL     1      -8.965   3.173  67.635  1.00  0.00    -0.123 OA 
HETATM    2  C   UNL     1      -9.444   4.156  68.196  1.00  0.00    -0.158 C  
HETATM    3  C   UNL     1      -9.788   5.426  67.454  1.00  0.00    -0.175 C  
HETATM    4  C   UNL     1     -10.984   6.152  68.058  1.00  0.00    -0.399 C  
HETATM    5  C   UNL     1     -10.914   6.224  69.560  1.00  0.00    -0.445 A  
HETATM    6  C   UNL     1     -10.215   5.229  70.255  1.00  0.00    -0.275 A  
HETATM    7  N   UNL     1      -9.578   4.199  69.556  1.00  0.00    -0.196 N  
HETATM    8  C   UNL     1     -10.191   5.230  71.646  1.00  0.00    -0.274 A  
HETATM    9  C   UNL     1     -10.878   6.223  72.355  1.00  0.00    -0.277 A  
HETATM   10  H   UNL     1      -9.188   3.429  70.098  1.00  0.00     0.000 HD 
HETATM   11  C   UNL     1     -11.613   7.208  71.687  1.00  0.00    -0.276 A  
HETATM   12  C   UNL     1     -11.626   7.206  70.286  1.00  0.00    -0.260 A  
ENDROOT
BRANCH  11  13
HETATM   13  O   UNL     1     -12.268   8.087  72.519  1.00  0.00    -0.318 OA 
BRANCH  13  14
HETATM   14  C   UNL     1     -13.369   8.808  71.967  1.00  0.00    -0.413 C  
BRANCH  14  15
HETATM   15  C   UNL     1     -13.037  10.314  71.841  1.00  0.00    -0.568 C  
BRANCH  15  16
HETATM   16  C   UNL     1     -12.736  10.638  70.371  1.00  0.00    -0.340 C  
BRANCH  16  17
HETATM   17  C   UNL     1     -11.272  10.745  69.930  1.00  0.00    -0.371 C  
BRANCH  17  18
HETATM   18  C   UNL     1     -11.046  10.824  68.463  1.00  0.00    -0.262 A  
HETATM   19  N   UNL     1     -10.518   9.824  67.775  1.00  0.00    -0.229 NA 
HETATM   20  N   UNL     1     -10.533  10.186  66.464  1.00  0.00    -0.199 NA 
HETATM   21  N   UNL     1     -11.038  11.396  66.323  1.00  0.00    -0.264 NA 
HETATM   22  N   UNL     1     -11.425  11.797  67.558  1.00  0.00    -0.404 NA 
BRANCH  22  23
HETATM   23  C   UNL     1     -12.023  13.125  67.670  1.00  0.00    -0.315 C  
HETATM   24  C   UNL     1     -11.217  14.058  68.616  1.00  0.00    -0.294 C  
HETATM   25  C   UNL     1      -9.867  14.439  68.002  1.00  0.00    -0.221 C  
HETATM   26  C   UNL     1     -10.059  15.165  66.675  1.00  0.00    -0.271 C  
HETATM   27  C   UNL     1     -10.964  14.393  65.714  1.00  0.00    -0.314 C  
HETATM   28  C   UNL     1     -12.261  13.924  66.378  1.00  0.00    -0.487 C  
ENDBRANCH  22  23
ENDBRANCH  17  18
ENDBRANCH  16  17
ENDBRANCH  15  16
ENDBRANCH  14  15
ENDBRANCH  13  14
ENDBRANCH  11  13
TORSDOF 7
ENDMDL
MODEL      107
REMARK 921   NORMALIZED FREE ENERGY PREDICTED BY IDOCK:   -5.72 KCAL/MOL
REMARK 922        TOTAL FREE ENERGY PREDICTED BY IDOCK:   -9.07 KCAL/MOL
REMARK 923 INTER-LIGAND FREE ENERGY PREDICTED BY IDOCK:   -8.27 KCAL/MOL
REMARK 924 INTRA-LIGAND FREE ENERGY PREDICTED BY IDOCK:   -0.80 KCAL/MOL
REMARK 927      BINDING AFFINITY PREDICTED BY RF-SCORE:    0.00 PKD
ROOT
HETATM    1  O   UNL     1     -12.426  15.013  63.857  1.00  0.00    -0.790 OA 
HETATM    2  C   UNL     1     -12.312  14.131  64.705  1.00  0.00    -0.410 C  
HETATM    3  C   UNL     1     -12.358  12.661  64.357  1.00  0.00    -0.523 C  
HETATM    4  C   UNL     1     -11.486  11.814  65.275  1.00  0.00    -0.250 C  
HETATM    5  C   UNL     1     -11.644  12.188  66.725  1.00  0.00    -0.412 A  
HETATM    6  C   UNL     1     -12.021  13.497  67.049  1.00  0.00    -0.394 A  
HETATM    7  N   UNL     1     -12.262  14.431  66.037  1.00  0.00    -0.373 N  
HETATM    8  C   UNL     1     -12.108  13.892  68.380  1.00  0.00    -0.327 A  
HETATM    9  C   UNL     1     -11.808  12.981  69.400  1.00  0.00    -0.380 A  
HETATM   10  H   UNL     1     -12.411  15.402  66.312  1.00  0.00     0.000 HD 
HETATM   11  C   UNL     1     -11.395  11.678  69.104  1.00  0.00    -0.283 A  
HETATM   12  C   UNL     1     -11.317  11.284  67.760  1.00  0.00    -0.354 A  
ENDROOT
BRANCH  11  13
HETATM   13  O   UNL     1     -11.095  10.914  70.208  1.00  0.00    -0.248 OA 
BRANCH  13  14
HETATM   14  C   UNL     1     -12.102  10.015  70.671  1.00  0.00    -0.292 C  
BRANCH  14  15
HETATM   15  C   UNL     1     -11.564   9.120  71.813  1.00  0.00    -0.457 C  
BRANCH  15  16
HETATM   16  C   UNL     1     -10.055   8.915  71.617  1.00  0.00    -0.411 C  
BRANCH  16  17
HETATM   17  C   UNL     1      -9.411   7.641  72.176  1.00  0.00    -0.188 C  
BRANCH  17  18
HETATM   18  C   UNL     1      -8.461   6.948  71.267  1.00  0.00    -0.120 A  
HETATM   19  N   UNL     1      -7.183   7.282  71.193  1.00  0.00    -0.071 NA 
HETATM   20  N   UNL     1      -6.587   6.402  70.344  1.00  0.00    -0.047 NA 
HETATM   21  N   UNL     1      -7.468   5.543  69.872  1.00  0.00    -0.068 NA 
HETATM   22  N   UNL     1      -8.644   5.825  70.483  1.00  0.00    -0.136 NA 
BRANCH  22  23
HETATM   23  C   UNL     1      -9.795   5.002  70.123  1.00  0.00    -0.233 C  
HETATM   24  C   UNL     1     -11.034   5.855  69.732  1.00  0.00    -0.452 C  
HETATM   25  C   UNL     1     -10.813   6.577  68.401  1.00  0.00    -0.357 C  
HETATM   26  C   UNL     1     -10.555   5.579  67.277  1.00  0.00    -0.294 C  
HETATM   27  C   UNL     1      -9.441   4.589  67.621  1.00  0.00    -0.196 C  
HETATM   28  C   UNL     1      -9.621   3.960  69.005  1.00  0.00    -0.209 C  
ENDBRANCH  22  23
ENDBRANCH  17  18
ENDBRANCH  16  17
ENDBRANCH  15  16
ENDBRANCH  14  15
ENDBRANCH  13  14
ENDBRANCH  11  13
TORSDOF 7
ENDMDL
MODEL      108
REMARK 921   NORMALIZED FREE ENERGY PREDICTED BY IDOCK:   -5.72 KCAL/MOL
REMARK 922        TOTAL FREE ENERGY PREDICTED BY IDOCK:   -9.07 KCAL/MOL
REMARK 923 INTER-LIGAND FREE ENERGY PREDICTED BY IDOCK:   -8.62 KCAL/MOL
REMARK 924 INTRA-LIGAND FREE ENERGY PREDICTED BY IDOCK:   -0.44 KCAL/MOL
REMARK 927      BINDING AFFINITY PREDICTED BY RF-SCORE:    0.00 PKD
ROOT
HETATM    1  O   UNL     1     -11.431  15.237  65.024  1.00  0.00    -0.353 OA 
HETATM    2  C   UNL     1     -11.654  14.337  65.832  1.00  0.00    -0.358 C  
HETATM    3  C   UNL     1     -11.961  12.921  65.403  1.00  0.00    -0.470 C  
HETATM    4  C   UNL     1     -11.458  11.885  66.402  1.00  0.00    -0.371 C  
HETATM    5  C   UNL     1     -11.769  12.261  67.826  1.00  0.00    -0.403 A  
HETATM    6  C   UNL     1     -11.900  13.616  68.156  1.00  0.00    -0.372 A  
HETATM    7  N   UNL     1     -11.761  14.597  67.170  1.00  0.00    -0.385 N  
HETATM    8  C   UNL     1     -12.118  13.998  69.476  1.00  0.00    -0.397 A  
HETATM    9  C   UNL     1     -12.196  13.026  70.480  1.00  0.00    -0.392 A  
HETATM   10  H   UNL     1     -11.738  15.571  67.468  1.00  0.00     0.000 HD 
HETATM   11  C   UNL     1     -12.034  11.668  70.184  1.00  0.00    -0.359 A  
HETATM   12  C   UNL     1     -11.822  11.290  68.851  1.00  0.00    -0.413 A  
ENDROOT
BRANCH  11  13
HETATM   13  O   UNL     1     -12.094  10.839  71.280  1.00  0.00    -0.330 OA 
BRANCH  13  14
HETATM   14  C   UNL     1     -13.377  10.327  71.639  1.00  0.00    -0.353 C  
BRANCH  14  15
HETATM   15  C   UNL     1     -13.255   8.915  72.261  1.00  0.00    -0.498 C  
BRANCH  15  16
HETATM   16  C   UNL     1     -11.843   8.374  71.998  1.00  0.00    -0.417 C  
BRANCH  16  17
HETATM   17  C   UNL     1     -11.543   6.912  72.348  1.00  0.00    -0.278 C  
BRANCH  17  18
HETATM   18  C   UNL     1     -11.065   6.066  71.222  1.00  0.00    -0.274 A  
HETATM   19  N   UNL     1     -11.418   6.297  69.968  1.00  0.00    -0.426 NA 
HETATM   20  N   UNL     1     -10.743   5.406  69.191  1.00  0.00    -0.180 NA 
HETATM   21  N   UNL     1      -9.997   4.615  69.935  1.00  0.00    -0.226 NA 
HETATM   22  N   UNL     1     -10.133   5.047  71.212  1.00  0.00    -0.199 NA 
BRANCH  22  23
HETATM   23  C   UNL     1      -9.396   4.321  72.243  1.00  0.00    -0.124 C  
HETATM   24  C   UNL     1     -10.167   4.262  73.591  1.00  0.00    -0.214 C  
HETATM   25  C   UNL     1     -11.403   3.365  73.485  1.00  0.00    -0.228 C  
HETATM   26  C   UNL     1     -11.011   1.942  73.104  1.00  0.00    -0.261 C  
HETATM   27  C   UNL     1     -10.121   1.895  71.861  1.00  0.00    -0.210 C  
HETATM   28  C   UNL     1      -8.952   2.880  71.939  1.00  0.00    -0.134 C  
ENDBRANCH  22  23
ENDBRANCH  17  18
ENDBRANCH  16  17
ENDBRANCH  15  16
ENDBRANCH  14  15
ENDBRANCH  13  14
ENDBRANCH  11  13
TORSDOF 7
ENDMDL
MODEL      109
REMARK 921   NORMALIZED FREE ENERGY PREDICTED BY IDOCK:   -5.71 KCAL/MOL
REMARK 922        TOTAL FREE ENERGY PREDICTED BY IDOCK:   -9.07 KCAL/MOL
REMARK 923 INTER-LIGAND FREE ENERGY PREDICTED BY IDOCK:   -8.05 KCAL/MOL
REMARK 924 INTRA-LIGAND FREE ENERGY PREDICTED BY IDOCK:   -1.02 KCAL/MOL
REMARK 927      BINDING AFFINITY PREDICTED BY RF-SCORE:    0.00 PKD
ROOT
HETATM    1  O   UNL     1      -8.526  10.656  62.573  1.00  0.00    -0.181 OA 
HETATM    2  C   UNL     1      -9.217  10.883  63.564  1.00  0.00    -0.245 C  
HETATM    3  C   UNL     1      -9.469   9.844  64.631  1.00  0.00    -0.343 C  
HETATM    4  C   UNL     1      -9.633  10.455  66.017  1.00  0.00    -0.251 C  
HETATM    5  C   UNL     1     -10.523  11.670  66.009  1.00  0.00    -0.294 A  
HETATM    6  C   UNL     1     -10.615  12.433  64.838  1.00  0.00    -0.294 A  
HETATM    7  N   UNL     1      -9.904  12.058  63.695  1.00  0.00    -0.553 N  
HETATM    8  C   UNL     1     -11.374  13.599  64.820  1.00  0.00    -0.365 A  
HETATM    9  C   UNL     1     -12.040  14.016  65.979  1.00  0.00    -0.461 A  
HETATM   10  H   UNL     1      -9.896  12.703  62.906  1.00  0.00     0.000 HD 
HETATM   11  C   UNL     1     -11.937  13.292  67.171  1.00  0.00    -0.348 A  
HETATM   12  C   UNL     1     -11.176  12.114  67.180  1.00  0.00    -0.372 A  
ENDROOT
BRANCH  11  13
HETATM   13  O   UNL     1     -12.611  13.850  68.232  1.00  0.00     0.096 OA 
BRANCH  13  14
HETATM   14  C   UNL     1     -11.870  14.717  69.090  1.00  0.00    -0.305 C  
BRANCH  14  15
HETATM   15  C   UNL     1     -11.570  14.034  70.445  1.00  0.00    -0.206 C  
BRANCH  15  16
HETATM   16  C   UNL     1     -12.540  12.858  70.635  1.00  0.00    -0.256 C  
BRANCH  16  17
HETATM   17  C   UNL     1     -12.012  11.434  70.425  1.00  0.00    -0.465 C  
BRANCH  17  18
HETATM   18  C   UNL     1     -12.515  10.414  71.382  1.00  0.00    -0.415 A  
HETATM   19  N   UNL     1     -13.725  10.479  71.912  1.00  0.00    -0.106 NA 
HETATM   20  N   UNL     1     -13.895   9.358  72.664  1.00  0.00    -0.353 NA 
HETATM   21  N   UNL     1     -12.812   8.609  72.631  1.00  0.00    -0.301 NA 
HETATM   22  N   UNL     1     -11.949   9.219  71.783  1.00  0.00    -0.371 NA 
BRANCH  22  23
HETATM   23  C   UNL     1     -10.654   8.577  71.575  1.00  0.00    -0.263 C  
HETATM   24  C   UNL     1     -10.753   7.026  71.588  1.00  0.00    -0.244 C  
HETATM   25  C   UNL     1     -11.495   6.506  70.354  1.00  0.00    -0.465 C  
HETATM   26  C   UNL     1     -10.777   6.922  69.074  1.00  0.00    -0.259 C  
HETATM   27  C   UNL     1     -10.497   8.424  69.024  1.00  0.00    -0.216 C  
HETATM   28  C   UNL     1      -9.856   8.945  70.313  1.00  0.00    -0.211 C  
ENDBRANCH  22  23
ENDBRANCH  17  18
ENDBRANCH  16  17
ENDBRANCH  15  16
ENDBRANCH  14  15
ENDBRANCH  13  14
ENDBRANCH  11  13
TORSDOF 7
ENDMDL
MODEL      110
REMARK 921   NORMALIZED FREE ENERGY PREDICTED BY IDOCK:   -5.71 KCAL/MOL
REMARK 922        TOTAL FREE ENERGY PREDICTED BY IDOCK:   -9.06 KCAL/MOL
REMARK 923 INTER-LIGAND FREE ENERGY PREDICTED BY IDOCK:   -8.24 KCAL/MOL
REMARK 924 INTRA-LIGAND FREE ENERGY PREDICTED BY IDOCK:   -0.82 KCAL/MOL
REMARK 927      BINDING AFFINITY PREDICTED BY RF-SCORE:    0.00 PKD
ROOT
HETATM    1  O   UNL     1     -13.132   9.875  72.211  1.00  0.00    -0.418 OA 
HETATM    2  C   UNL     1     -12.448  10.401  71.336  1.00  0.00    -0.415 C  
HETATM    3  C   UNL     1     -11.254   9.713  70.718  1.00  0.00    -0.403 C  
HETATM    4  C   UNL     1     -11.042  10.105  69.260  1.00  0.00    -0.270 C  
HETATM    5  C   UNL     1     -11.180  11.587  69.037  1.00  0.00    -0.324 A  
HETATM    6  C   UNL     1     -11.996  12.329  69.901  1.00  0.00    -0.306 A  
HETATM    7  N   UNL     1     -12.655  11.699  70.961  1.00  0.00    -0.372 N  
HETATM    8  C   UNL     1     -12.198  13.688  69.679  1.00  0.00    -0.326 A  
HETATM    9  C   UNL     1     -11.592  14.314  68.583  1.00  0.00    -0.352 A  
HETATM   10  H   UNL     1     -13.335  12.245  71.488  1.00  0.00     0.000 HD 
HETATM   11  C   UNL     1     -10.800  13.590  67.686  1.00  0.00    -0.260 A  
HETATM   12  C   UNL     1     -10.595  12.223  67.919  1.00  0.00    -0.232 A  
ENDROOT
BRANCH  11  13
HETATM   13  O   UNL     1     -10.310  14.333  66.637  1.00  0.00    -0.272 OA 
BRANCH  13  14
HETATM   14  C   UNL     1      -9.524  15.479  66.963  1.00  0.00    -0.225 C  
BRANCH  14  15
HETATM   15  C   UNL     1      -8.114  15.065  67.449  1.00  0.00    -0.216 C  
BRANCH  15  16
HETATM   16  C   UNL     1      -7.766  15.866  68.711  1.00  0.00    -0.181 C  
BRANCH  16  17
HETATM   17  C   UNL     1      -6.791  17.043  68.585  1.00  0.00    -0.187 C  
BRANCH  17  18
HETATM   18  C   UNL     1      -6.763  17.715  67.259  1.00  0.00    -0.161 A  
HETATM   19  N   UNL     1      -6.177  17.171  66.205  1.00  0.00    -0.213 NA 
HETATM   20  N   UNL     1      -6.410  17.995  65.147  1.00  0.00    -0.211 NA 
HETATM   21  N   UNL     1      -7.107  19.047  65.524  1.00  0.00    -0.479 NA 
HETATM   22  N   UNL     1      -7.396  18.868  66.835  1.00  0.00    -0.211 NA 
BRANCH  22  23
HETATM   23  C   UNL     1      -8.171  19.914  67.497  1.00  0.00    -0.322 C  
HETATM   24  C   UNL     1      -9.304  20.473  66.591  1.00  0.00    -0.328 C  
HETATM   25  C   UNL     1     -10.409  19.434  66.380  1.00  0.00    -0.575 C  
HETATM   26  C   UNL     1     -11.029  19.022  67.710  1.00  0.00    -0.263 C  
HETATM   27  C   UNL     1      -9.979  18.589  68.734  1.00  0.00    -0.417 C  
HETATM   28  C   UNL     1      -8.825  19.587  68.850  1.00  0.00    -0.297 C  
ENDBRANCH  22  23
ENDBRANCH  17  18
ENDBRANCH  16  17
ENDBRANCH  15  16
ENDBRANCH  14  15
ENDBRANCH  13  14
ENDBRANCH  11  13
TORSDOF 7
ENDMDL
MODEL      111
REMARK 921   NORMALIZED FREE ENERGY PREDICTED BY IDOCK:   -5.69 KCAL/MOL
REMARK 922        TOTAL FREE ENERGY PREDICTED BY IDOCK:   -9.03 KCAL/MOL
REMARK 923 INTER-LIGAND FREE ENERGY PREDICTED BY IDOCK:   -8.55 KCAL/MOL
REMARK 924 INTRA-LIGAND FREE ENERGY PREDICTED BY IDOCK:   -0.48 KCAL/MOL
REMARK 927      BINDING AFFINITY PREDICTED BY RF-SCORE:    0.00 PKD
ROOT
HETATM    1  O   UNL     1     -12.361  15.829  63.879  1.00  0.00    -0.728 OA 
HETATM    2  C   UNL     1     -11.891  14.849  64.453  1.00  0.00    -0.360 C  
HETATM    3  C   UNL     1     -11.729  14.790  65.954  1.00  0.00    -0.248 C  
HETATM    4  C   UNL     1     -11.887  13.378  66.505  1.00  0.00    -0.443 C  
HETATM    5  C   UNL     1     -11.144  12.355  65.687  1.00  0.00    -0.343 A  
HETATM    6  C   UNL     1     -10.921  12.607  64.327  1.00  0.00    -0.366 A  
HETATM    7  N   UNL     1     -11.368  13.799  63.751  1.00  0.00    -0.539 N  
HETATM    8  C   UNL     1     -10.299  11.652  63.530  1.00  0.00    -0.488 A  
HETATM    9  C   UNL     1      -9.904  10.429  64.086  1.00  0.00    -0.379 A  
HETATM   10  H   UNL     1     -11.300  13.892  62.738  1.00  0.00     0.000 HD 
HETATM   11  C   UNL     1     -10.145  10.137  65.432  1.00  0.00    -0.272 A  
HETATM   12  C   UNL     1     -10.766  11.107  66.231  1.00  0.00    -0.298 A  
ENDROOT
BRANCH  11  13
HETATM   13  O   UNL     1      -9.739   8.881  65.820  1.00  0.00    -0.240 OA 
BRANCH  13  14
HETATM   14  C   UNL     1     -10.297   8.362  67.027  1.00  0.00    -0.315 C  
BRANCH  14  15
HETATM   15  C   UNL     1     -10.363   6.816  66.987  1.00  0.00    -0.338 C  
BRANCH  15  16
HETATM   16  C   UNL     1     -11.098   6.316  68.239  1.00  0.00    -0.364 C  
BRANCH  16  17
HETATM   17  C   UNL     1     -10.344   5.405  69.215  1.00  0.00    -0.322 C  
BRANCH  17  18
HETATM   18  C   UNL     1      -9.332   6.078  70.072  1.00  0.00    -0.153 A  
HETATM   19  N   UNL     1      -8.058   6.161  69.727  1.00  0.00    -0.116 NA 
HETATM   20  N   UNL     1      -7.432   6.907  70.677  1.00  0.00    -0.081 NA 
HETATM   21  N   UNL     1      -8.284   7.272  71.614  1.00  0.00    -0.104 NA 
HETATM   22  N   UNL     1      -9.499   6.816  71.228  1.00  0.00    -0.166 NA 
BRANCH  22  23
HETATM   23  C   UNL     1     -10.627   7.094  72.113  1.00  0.00    -0.210 C  
HETATM   24  C   UNL     1     -11.583   5.876  72.254  1.00  0.00    -0.338 C  
HETATM   25  C   UNL     1     -10.922   4.739  73.036  1.00  0.00    -0.346 C  
HETATM   26  C   UNL     1     -10.533   5.197  74.438  1.00  0.00    -0.294 C  
HETATM   27  C   UNL     1      -9.704   6.482  74.422  1.00  0.00    -0.328 C  
HETATM   28  C   UNL     1     -10.326   7.571  73.544  1.00  0.00    -0.373 C  
ENDBRANCH  22  23
ENDBRANCH  17  18
ENDBRANCH  16  17
ENDBRANCH  15  16
ENDBRANCH  14  15
ENDBRANCH  13  14
ENDBRANCH  11  13
TORSDOF 7
ENDMDL
MODEL      112
REMARK 921   NORMALIZED FREE ENERGY PREDICTED BY IDOCK:   -5.66 KCAL/MOL
REMARK 922        TOTAL FREE ENERGY PREDICTED BY IDOCK:   -8.99 KCAL/MOL
REMARK 923 INTER-LIGAND FREE ENERGY PREDICTED BY IDOCK:   -8.13 KCAL/MOL
REMARK 924 INTRA-LIGAND FREE ENERGY PREDICTED BY IDOCK:   -0.86 KCAL/MOL
REMARK 927      BINDING AFFINITY PREDICTED BY RF-SCORE:    0.00 PKD
ROOT
HETATM    1  O   UNL     1     -11.114   9.502  67.491  1.00  0.00    -0.173 OA 
HETATM    2  C   UNL     1     -10.845  10.555  66.916  1.00  0.00    -0.187 C  
HETATM    3  C   UNL     1     -10.031  10.599  65.644  1.00  0.00    -0.327 C  
HETATM    4  C   UNL     1     -10.437  11.746  64.727  1.00  0.00    -0.341 C  
HETATM    5  C   UNL     1     -10.626  13.039  65.474  1.00  0.00    -0.297 A  
HETATM    6  C   UNL     1     -10.995  12.995  66.824  1.00  0.00    -0.276 A  
HETATM    7  N   UNL     1     -11.165  11.765  67.467  1.00  0.00    -0.270 N  
HETATM    8  C   UNL     1     -11.244  14.172  67.522  1.00  0.00    -0.323 A  
HETATM    9  C   UNL     1     -11.137  15.406  66.870  1.00  0.00    -0.256 A  
HETATM   10  H   UNL     1     -11.553  11.770  68.409  1.00  0.00     0.000 HD 
HETATM   11  C   UNL     1     -10.805  15.478  65.513  1.00  0.00    -0.361 A  
HETATM   12  C   UNL     1     -10.548  14.289  64.818  1.00  0.00    -0.434 A  
ENDROOT
BRANCH  11  13
HETATM   13  O   UNL     1     -10.781  16.756  65.004  1.00  0.00    -0.692 OA 
BRANCH  13  14
HETATM   14  C   UNL     1      -9.926  17.699  65.651  1.00  0.00     0.133 C  
BRANCH  14  15
HETATM   15  C   UNL     1     -10.650  19.050  65.860  1.00  0.00    -0.466 C  
BRANCH  15  16
HETATM   16  C   UNL     1     -10.910  19.250  67.359  1.00  0.00    -0.554 C  
BRANCH  16  17
HETATM   17  C   UNL     1      -9.733  19.639  68.261  1.00  0.00    -0.500 C  
BRANCH  17  18
HETATM   18  C   UNL     1      -8.743  18.562  68.527  1.00  0.00    -0.326 A  
HETATM   19  N   UNL     1      -9.107  17.351  68.920  1.00  0.00    -0.214 NA 
HETATM   20  N   UNL     1      -7.978  16.595  68.985  1.00  0.00    -0.235 NA 
HETATM   21  N   UNL     1      -6.920  17.312  68.663  1.00  0.00    -0.209 NA 
HETATM   22  N   UNL     1      -7.379  18.537  68.311  1.00  0.00    -0.268 NA 
BRANCH  22  23
HETATM   23  C   UNL     1      -6.386  19.530  67.909  1.00  0.00    -0.215 C  
HETATM   24  C   UNL     1      -5.135  18.883  67.253  1.00  0.00    -0.152 C  
HETATM   25  C   UNL     1      -5.470  18.291  65.882  1.00  0.00    -0.215 C  
HETATM   26  C   UNL     1      -5.993  19.368  64.938  1.00  0.00    -0.296 C  
HETATM   27  C   UNL     1      -7.143  20.170  65.549  1.00  0.00    -0.315 C  
HETATM   28  C   UNL     1      -6.831  20.660  66.965  1.00  0.00    -0.358 C  
ENDBRANCH  22  23
ENDBRANCH  17  18
ENDBRANCH  16  17
ENDBRANCH  15  16
ENDBRANCH  14  15
ENDBRANCH  13  14
ENDBRANCH  11  13
TORSDOF 7
ENDMDL
MODEL      113
REMARK 921   NORMALIZED FREE ENERGY PREDICTED BY IDOCK:   -5.65 KCAL/MOL
REMARK 922        TOTAL FREE ENERGY PREDICTED BY IDOCK:   -8.97 KCAL/MOL
REMARK 923 INTER-LIGAND FREE ENERGY PREDICTED BY IDOCK:   -8.45 KCAL/MOL
REMARK 924 INTRA-LIGAND FREE ENERGY PREDICTED BY IDOCK:   -0.52 KCAL/MOL
REMARK 927      BINDING AFFINITY PREDICTED BY RF-SCORE:    0.00 PKD
ROOT
HETATM    1  O   UNL     1     -10.491   4.475  71.016  1.00  0.00    -0.085 OA 
HETATM    2  C   UNL     1     -10.614   5.685  71.192  1.00  0.00    -0.245 C  
HETATM    3  C   UNL     1      -9.429   6.600  71.389  1.00  0.00    -0.161 C  
HETATM    4  C   UNL     1      -9.670   7.999  70.835  1.00  0.00    -0.183 C  
HETATM    5  C   UNL     1     -11.028   8.536  71.202  1.00  0.00    -0.306 A  
HETATM    6  C   UNL     1     -12.073   7.633  71.435  1.00  0.00    -0.316 A  
HETATM    7  N   UNL     1     -11.847   6.257  71.345  1.00  0.00    -0.271 N  
HETATM    8  C   UNL     1     -13.355   8.100  71.708  1.00  0.00    -0.370 A  
HETATM    9  C   UNL     1     -13.605   9.477  71.738  1.00  0.00    -0.447 A  
HETATM   10  H   UNL     1     -12.655   5.638  71.398  1.00  0.00     0.000 HD 
HETATM   11  C   UNL     1     -12.588  10.400  71.474  1.00  0.00    -0.439 A  
HETATM   12  C   UNL     1     -11.297   9.923  71.208  1.00  0.00    -0.404 A  
ENDROOT
BRANCH  11  13
HETATM   13  O   UNL     1     -12.996  11.714  71.498  1.00  0.00    -0.424 OA 
BRANCH  13  14
HETATM   14  C   UNL     1     -12.602  12.538  70.401  1.00  0.00    -0.023 C  
BRANCH  14  15
HETATM   15  C   UNL     1     -12.345  13.992  70.863  1.00  0.00    -0.443 C  
BRANCH  15  16
HETATM   16  C   UNL     1     -12.105  14.873  69.629  1.00  0.00    -0.334 C  
BRANCH  16  17
HETATM   17  C   UNL     1     -10.773  14.737  68.882  1.00  0.00    -0.253 C  
BRANCH  17  18
HETATM   18  C   UNL     1     -10.811  15.073  67.434  1.00  0.00    -0.305 A  
HETATM   19  N   UNL     1     -11.665  14.502  66.599  1.00  0.00    -0.380 NA 
HETATM   20  N   UNL     1     -11.496  15.094  65.386  1.00  0.00    -0.289 NA 
HETATM   21  N   UNL     1     -10.543  16.002  65.442  1.00  0.00    -0.426 NA 
HETATM   22  N   UNL     1     -10.136  16.053  66.733  1.00  0.00    -0.260 NA 
BRANCH  22  23
HETATM   23  C   UNL     1      -9.069  16.996  67.058  1.00  0.00    -0.221 C  
HETATM   24  C   UNL     1      -9.075  18.240  66.127  1.00  0.00    -0.122 C  
HETATM   25  C   UNL     1     -10.290  19.130  66.397  1.00  0.00    -0.536 C  
HETATM   26  C   UNL     1     -10.294  19.622  67.840  1.00  0.00    -0.583 C  
HETATM   27  C   UNL     1     -10.145  18.480  68.846  1.00  0.00    -0.348 C  
HETATM   28  C   UNL     1      -8.992  17.536  68.496  1.00  0.00    -0.279 C  
ENDBRANCH  22  23
ENDBRANCH  17  18
ENDBRANCH  16  17
ENDBRANCH  15  16
ENDBRANCH  14  15
ENDBRANCH  13  14
ENDBRANCH  11  13
TORSDOF 7
ENDMDL
MODEL      114
REMARK 921   NORMALIZED FREE ENERGY PREDICTED BY IDOCK:   -5.64 KCAL/MOL
REMARK 922        TOTAL FREE ENERGY PREDICTED BY IDOCK:   -8.97 KCAL/MOL
REMARK 923 INTER-LIGAND FREE ENERGY PREDICTED BY IDOCK:   -7.91 KCAL/MOL
REMARK 924 INTRA-LIGAND FREE ENERGY PREDICTED BY IDOCK:   -1.05 KCAL/MOL
REMARK 927      BINDING AFFINITY PREDICTED BY RF-SCORE:    0.00 PKD
ROOT
HETATM    1  O   UNL     1      -7.677   4.693  67.093  1.00  0.00    -0.089 OA 
HETATM    2  C   UNL     1      -8.383   5.665  67.352  1.00  0.00    -0.100 C  
HETATM    3  C   UNL     1      -9.889   5.577  67.426  1.00  0.00    -0.167 C  
HETATM    4  C   UNL     1     -10.483   6.548  68.440  1.00  0.00    -0.258 C  
HETATM    5  C   UNL     1      -9.873   7.921  68.346  1.00  0.00    -0.185 A  
HETATM    6  C   UNL     1      -8.564   8.050  67.865  1.00  0.00    -0.129 A  
HETATM    7  N   UNL     1      -7.848   6.919  67.463  1.00  0.00    -0.110 N  
HETATM    8  C   UNL     1      -7.949   9.297  67.832  1.00  0.00    -0.100 A  
HETATM    9  C   UNL     1      -8.636  10.427  68.291  1.00  0.00    -0.128 A  
HETATM   10  H   UNL     1      -6.860   7.036  67.239  1.00  0.00     0.000 HD 
HETATM   11  C   UNL     1      -9.931  10.322  68.808  1.00  0.00    -0.179 A  
HETATM   12  C   UNL     1     -10.548   9.064  68.832  1.00  0.00    -0.203 A  
ENDROOT
BRANCH  11  13
HETATM   13  O   UNL     1     -10.458  11.511  69.259  1.00  0.00    -0.153 OA 
BRANCH  13  14
HETATM   14  C   UNL     1      -9.870  12.713  68.764  1.00  0.00     0.029 C  
BRANCH  14  15
HETATM   15  C   UNL     1     -10.879  13.885  68.811  1.00  0.00    -0.282 C  
BRANCH  15  16
HETATM   16  C   UNL     1     -10.359  15.027  67.927  1.00  0.00    -0.241 C  
BRANCH  16  17
HETATM   17  C   UNL     1      -9.918  14.702  66.495  1.00  0.00    -0.292 C  
BRANCH  17  18
HETATM   18  C   UNL     1     -10.892  15.050  65.427  1.00  0.00    -0.364 A  
HETATM   19  N   UNL     1     -10.883  16.227  64.821  1.00  0.00    -0.699 NA 
HETATM   20  N   UNL     1     -11.833  16.183  63.848  1.00  0.00    -0.860 NA 
HETATM   21  N   UNL     1     -12.447  15.017  63.850  1.00  0.00    -0.744 NA 
HETATM   22  N   UNL     1     -11.834  14.263  64.794  1.00  0.00    -0.406 NA 
BRANCH  22  23
HETATM   23  C   UNL     1     -12.339  12.907  64.994  1.00  0.00    -0.485 C  
HETATM   24  C   UNL     1     -12.527  12.141  63.655  1.00  0.00    -0.658 C  
HETATM   25  C   UNL     1     -11.178  11.816  63.008  1.00  0.00    -0.037 C  
HETATM   26  C   UNL     1     -10.328  10.950  63.931  1.00  0.00    -0.397 C  
HETATM   27  C   UNL     1     -10.198  11.545  65.334  1.00  0.00    -0.311 C  
HETATM   28  C   UNL     1     -11.548  11.967  65.920  1.00  0.00    -0.364 C  
ENDBRANCH  22  23
ENDBRANCH  17  18
ENDBRANCH  16  17
ENDBRANCH  15  16
ENDBRANCH  14  15
ENDBRANCH  13  14
ENDBRANCH  11  13
TORSDOF 7
ENDMDL
MODEL      115
REMARK 921   NORMALIZED FREE ENERGY PREDICTED BY IDOCK:   -5.63 KCAL/MOL
REMARK 922        TOTAL FREE ENERGY PREDICTED BY IDOCK:   -8.95 KCAL/MOL
REMARK 923 INTER-LIGAND FREE ENERGY PREDICTED BY IDOCK:   -8.32 KCAL/MOL
REMARK 924 INTRA-LIGAND FREE ENERGY PREDICTED BY IDOCK:   -0.63 KCAL/MOL
REMARK 927      BINDING AFFINITY PREDICTED BY RF-SCORE:    0.00 PKD
ROOT
HETATM    1  O   UNL     1      -8.017   8.202  62.522  1.00  0.00    -0.142 OA 
HETATM    2  C   UNL     1      -8.547   9.143  63.108  1.00  0.00    -0.181 C  
HETATM    3  C   UNL     1      -8.545  10.548  62.553  1.00  0.00    -0.247 C  
HETATM    4  C   UNL     1      -9.794  11.332  62.939  1.00  0.00    -0.317 C  
HETATM    5  C   UNL     1     -10.155  11.160  64.390  1.00  0.00    -0.377 A  
HETATM    6  C   UNL     1      -9.778   9.982  65.048  1.00  0.00    -0.317 A  
HETATM    7  N   UNL     1      -9.063   8.994  64.365  1.00  0.00    -0.420 N  
HETATM    8  C   UNL     1     -10.157   9.765  66.368  1.00  0.00    -0.313 A  
HETATM    9  C   UNL     1     -10.927  10.722  67.040  1.00  0.00    -0.292 A  
HETATM   10  H   UNL     1      -8.917   8.102  64.837  1.00  0.00     0.000 HD 
HETATM   11  C   UNL     1     -11.346  11.891  66.397  1.00  0.00    -0.339 A  
HETATM   12  C   UNL     1     -10.955  12.107  65.069  1.00  0.00    -0.355 A  
ENDROOT
BRANCH  11  13
HETATM   13  O   UNL     1     -12.131  12.713  67.172  1.00  0.00    -0.466 OA 
BRANCH  13  14
HETATM   14  C   UNL     1     -12.095  14.110  66.882  1.00  0.00    -0.432 C  
BRANCH  14  15
HETATM   15  C   UNL     1     -10.934  14.803  67.635  1.00  0.00    -0.292 C  
BRANCH  15  16
HETATM   16  C   UNL     1     -11.511  15.897  68.544  1.00  0.00    -0.377 C  
BRANCH  16  17
HETATM   17  C   UNL     1     -10.551  16.931  69.143  1.00  0.00    -0.330 C  
BRANCH  17  18
HETATM   18  C   UNL     1     -10.132  18.026  68.229  1.00  0.00    -0.385 A  
HETATM   19  N   UNL     1     -10.999  18.693  67.483  1.00  0.00    -0.311 NA 
HETATM   20  N   UNL     1     -10.306  19.673  66.842  1.00  0.00    -0.432 NA 
HETATM   21  N   UNL     1      -9.027  19.616  67.154  1.00  0.00    -0.304 NA 
HETATM   22  N   UNL     1      -8.898  18.628  68.071  1.00  0.00    -0.298 NA 
BRANCH  22  23
HETATM   23  C   UNL     1      -7.556  18.363  68.581  1.00  0.00    -0.302 C  
HETATM   24  C   UNL     1      -7.137  16.877  68.400  1.00  0.00    -0.187 C  
HETATM   25  C   UNL     1      -6.918  16.538  66.924  1.00  0.00    -0.258 C  
HETATM   26  C   UNL     1      -5.825  17.413  66.321  1.00  0.00    -0.224 C  
HETATM   27  C   UNL     1      -6.065  18.902  66.570  1.00  0.00    -0.185 C  
HETATM   28  C   UNL     1      -6.392  19.207  68.035  1.00  0.00    -0.234 C  
ENDBRANCH  22  23
ENDBRANCH  17  18
ENDBRANCH  16  17
ENDBRANCH  15  16
ENDBRANCH  14  15
ENDBRANCH  13  14
ENDBRANCH  11  13
TORSDOF 7
ENDMDL
MODEL      116
REMARK 921   NORMALIZED FREE ENERGY PREDICTED BY IDOCK:   -5.63 KCAL/MOL
REMARK 922        TOTAL FREE ENERGY PREDICTED BY IDOCK:   -8.95 KCAL/MOL
REMARK 923 INTER-LIGAND FREE ENERGY PREDICTED BY IDOCK:   -8.26 KCAL/MOL
REMARK 924 INTRA-LIGAND FREE ENERGY PREDICTED BY IDOCK:   -0.69 KCAL/MOL
REMARK 927      BINDING AFFINITY PREDICTED BY RF-SCORE:    0.00 PKD
ROOT
HETATM    1  O   UNL     1     -12.602  14.879  63.815  1.00  0.00    -0.791 OA 
HETATM    2  C   UNL     1     -12.335  13.890  64.494  1.00  0.00    -0.372 C  
HETATM    3  C   UNL     1     -12.170  12.514  63.892  1.00  0.00    -0.590 C  
HETATM    4  C   UNL     1     -11.156  11.662  64.647  1.00  0.00    -0.342 C  
HETATM    5  C   UNL     1     -11.330  11.749  66.140  1.00  0.00    -0.342 A  
HETATM    6  C   UNL     1     -11.889  12.909  66.690  1.00  0.00    -0.395 A  
HETATM    7  N   UNL     1     -12.295  13.957  65.859  1.00  0.00    -0.466 N  
HETATM    8  C   UNL     1     -11.999  13.048  68.070  1.00  0.00    -0.335 A  
HETATM    9  C   UNL     1     -11.538  12.029  68.913  1.00  0.00    -0.377 A  
HETATM   10  H   UNL     1     -12.579  14.831  66.300  1.00  0.00     0.000 HD 
HETATM   11  C   UNL     1     -10.943  10.876  68.391  1.00  0.00    -0.237 A  
HETATM   12  C   UNL     1     -10.843  10.740  67.000  1.00  0.00    -0.311 A  
ENDROOT
BRANCH  11  13
HETATM   13  O   UNL     1     -10.502   9.987  69.344  1.00  0.00    -0.202 OA 
BRANCH  13  14
HETATM   14  C   UNL     1     -11.076  10.091  70.647  1.00  0.00    -0.335 C  
BRANCH  14  15
HETATM   15  C   UNL     1     -11.982   8.874  70.951  1.00  0.00    -0.254 C  
BRANCH  15  16
HETATM   16  C   UNL     1     -11.809   8.479  72.425  1.00  0.00    -0.437 C  
BRANCH  16  17
HETATM   17  C   UNL     1     -10.420   8.049  72.909  1.00  0.00    -0.402 C  
BRANCH  17  18
HETATM   18  C   UNL     1     -10.287   6.620  73.295  1.00  0.00    -0.253 A  
HETATM   19  N   UNL     1     -10.266   6.230  74.560  1.00  0.00    -0.329 NA 
HETATM   20  N   UNL     1     -10.226   4.870  74.560  1.00  0.00    -0.247 NA 
HETATM   21  N   UNL     1     -10.199   4.408  73.326  1.00  0.00    -0.153 NA 
HETATM   22  N   UNL     1     -10.297   5.484  72.510  1.00  0.00    -0.196 NA 
BRANCH  22  23
HETATM   23  C   UNL     1     -10.288   5.232  71.071  1.00  0.00    -0.228 C  
HETATM   24  C   UNL     1      -9.486   6.308  70.287  1.00  0.00    -0.173 C  
HETATM   25  C   UNL     1      -7.986   6.200  70.573  1.00  0.00    -0.111 C  
HETATM   26  C   UNL     1      -7.453   4.829  70.171  1.00  0.00    -0.054 C  
HETATM   27  C   UNL     1      -8.268   3.686  70.777  1.00  0.00    -0.080 C  
HETATM   28  C   UNL     1      -9.775   3.868  70.577  1.00  0.00    -0.247 C  
ENDBRANCH  22  23
ENDBRANCH  17  18
ENDBRANCH  16  17
ENDBRANCH  15  16
ENDBRANCH  14  15
ENDBRANCH  13  14
ENDBRANCH  11  13
TORSDOF 7
ENDMDL
MODEL      117
REMARK 921   NORMALIZED FREE ENERGY PREDICTED BY IDOCK:   -5.63 KCAL/MOL
REMARK 922        TOTAL FREE ENERGY PREDICTED BY IDOCK:   -8.95 KCAL/MOL
REMARK 923 INTER-LIGAND FREE ENERGY PREDICTED BY IDOCK:   -7.74 KCAL/MOL
REMARK 924 INTRA-LIGAND FREE ENERGY PREDICTED BY IDOCK:   -1.21 KCAL/MOL
REMARK 927      BINDING AFFINITY PREDICTED BY RF-SCORE:    0.00 PKD
ROOT
HETATM    1  O   UNL     1     -14.157  15.739  72.946  1.00  0.00    -0.542 OA 
HETATM    2  C   UNL     1     -13.653  14.987  72.115  1.00  0.00    -0.427 C  
HETATM    3  C   UNL     1     -13.142  15.480  70.781  1.00  0.00    -0.446 C  
HETATM    4  C   UNL     1     -11.951  14.674  70.277  1.00  0.00    -0.370 C  
HETATM    5  C   UNL     1     -12.151  13.191  70.437  1.00  0.00    -0.392 A  
HETATM    6  C   UNL     1     -12.990  12.726  71.458  1.00  0.00    -0.292 A  
HETATM    7  N   UNL     1     -13.641  13.633  72.300  1.00  0.00    -0.525 N  
HETATM    8  C   UNL     1     -13.140  11.361  71.676  1.00  0.00    -0.498 A  
HETATM    9  C   UNL     1     -12.443  10.446  70.877  1.00  0.00    -0.478 A  
HETATM   10  H   UNL     1     -14.140  13.259  73.106  1.00  0.00     0.000 HD 
HETATM   11  C   UNL     1     -11.572  10.882  69.873  1.00  0.00    -0.331 A  
HETATM   12  C   UNL     1     -11.431  12.259  69.655  1.00  0.00    -0.285 A  
ENDROOT
BRANCH  11  13
HETATM   13  O   UNL     1     -10.927   9.868  69.204  1.00  0.00    -0.224 OA 
BRANCH  13  14
HETATM   14  C   UNL     1     -11.037   9.856  67.780  1.00  0.00    -0.129 C  
BRANCH  14  15
HETATM   15  C   UNL     1      -9.714   9.390  67.127  1.00  0.00    -0.225 C  
BRANCH  15  16
HETATM   16  C   UNL     1      -8.647  10.475  67.332  1.00  0.00    -0.122 C  
BRANCH  16  17
HETATM   17  C   UNL     1      -8.948  11.897  66.846  1.00  0.00    -0.196 C  
BRANCH  17  18
HETATM   18  C   UNL     1      -8.304  12.991  67.620  1.00  0.00    -0.181 A  
HETATM   19  N   UNL     1      -7.575  12.758  68.700  1.00  0.00    -0.115 NA 
HETATM   20  N   UNL     1      -7.067  13.952  69.107  1.00  0.00    -0.099 NA 
HETATM   21  N   UNL     1      -7.479  14.924  68.319  1.00  0.00    -0.106 NA 
HETATM   22  N   UNL     1      -8.210  14.341  67.339  1.00  0.00    -0.191 NA 
BRANCH  22  23
HETATM   23  C   UNL     1      -8.788  15.220  66.326  1.00  0.00    -0.227 C  
HETATM   24  C   UNL     1     -10.290  14.916  66.066  1.00  0.00    -0.313 C  
HETATM   25  C   UNL     1     -11.152  15.313  67.267  1.00  0.00    -0.325 C  
HETATM   26  C   UNL     1     -11.017  16.802  67.565  1.00  0.00    -0.134 C  
HETATM   27  C   UNL     1      -9.558  17.241  67.696  1.00  0.00    -0.256 C  
HETATM   28  C   UNL     1      -8.687  16.739  66.541  1.00  0.00    -0.310 C  
ENDBRANCH  22  23
ENDBRANCH  17  18
ENDBRANCH  16  17
ENDBRANCH  15  16
ENDBRANCH  14  15
ENDBRANCH  13  14
ENDBRANCH  11  13
TORSDOF 7
ENDMDL
MODEL      118
REMARK 921   NORMALIZED FREE ENERGY PREDICTED BY IDOCK:   -5.63 KCAL/MOL
REMARK 922        TOTAL FREE ENERGY PREDICTED BY IDOCK:   -8.94 KCAL/MOL
REMARK 923 INTER-LIGAND FREE ENERGY PREDICTED BY IDOCK:   -7.95 KCAL/MOL
REMARK 924 INTRA-LIGAND FREE ENERGY PREDICTED BY IDOCK:   -0.99 KCAL/MOL
REMARK 927      BINDING AFFINITY PREDICTED BY RF-SCORE:    0.00 PKD
ROOT
HETATM    1  O   UNL     1     -12.224  15.476  69.910  1.00  0.00    -0.355 OA 
HETATM    2  C   UNL     1     -12.338  14.392  70.478  1.00  0.00    -0.345 C  
HETATM    3  C   UNL     1     -12.890  14.264  71.878  1.00  0.00    -0.429 C  
HETATM    4  C   UNL     1     -13.641  12.956  72.094  1.00  0.00    -0.589 C  
HETATM    5  C   UNL     1     -12.906  11.771  71.528  1.00  0.00    -0.450 A  
HETATM    6  C   UNL     1     -12.039  11.965  70.446  1.00  0.00    -0.333 A  
HETATM    7  N   UNL     1     -11.849  13.245  69.917  1.00  0.00    -0.401 N  
HETATM    8  C   UNL     1     -11.399  10.879  69.857  1.00  0.00    -0.381 A  
HETATM    9  C   UNL     1     -11.631   9.586  70.341  1.00  0.00    -0.268 A  
HETATM   10  H   UNL     1     -11.311  13.328  69.056  1.00  0.00     0.000 HD 
HETATM   11  C   UNL     1     -12.519   9.359  71.397  1.00  0.00    -0.352 A  
HETATM   12  C   UNL     1     -13.154  10.459  71.990  1.00  0.00    -0.521 A  
ENDROOT
BRANCH  11  13
HETATM   13  O   UNL     1     -12.675   8.034  71.731  1.00  0.00    -0.312 OA 
BRANCH  13  14
HETATM   14  C   UNL     1     -11.647   7.436  72.520  1.00  0.00    -0.275 C  
BRANCH  14  15
HETATM   15  C   UNL     1     -11.626   5.900  72.332  1.00  0.00    -0.341 C  
BRANCH  15  16
HETATM   16  C   UNL     1     -10.411   5.519  71.475  1.00  0.00    -0.298 C  
BRANCH  16  17
HETATM   17  C   UNL     1     -10.402   5.925  69.996  1.00  0.00    -0.309 C  
BRANCH  17  18
HETATM   18  C   UNL     1      -9.423   6.980  69.625  1.00  0.00    -0.147 A  
HETATM   19  N   UNL     1      -8.448   7.355  70.437  1.00  0.00    -0.140 NA 
HETATM   20  N   UNL     1      -7.691   8.262  69.763  1.00  0.00    -0.096 NA 
HETATM   21  N   UNL     1      -8.185   8.476  68.560  1.00  0.00    -0.122 NA 
HETATM   22  N   UNL     1      -9.240   7.637  68.424  1.00  0.00    -0.140 NA 
BRANCH  22  23
HETATM   23  C   UNL     1      -9.969   7.684  67.159  1.00  0.00    -0.229 C  
HETATM   24  C   UNL     1      -9.020   7.779  65.932  1.00  0.00    -0.155 C  
HETATM   25  C   UNL     1      -8.245   6.475  65.728  1.00  0.00    -0.135 C  
HETATM   26  C   UNL     1      -9.197   5.306  65.499  1.00  0.00    -0.122 C  
HETATM   27  C   UNL     1     -10.271   5.208  66.582  1.00  0.00    -0.297 C  
HETATM   28  C   UNL     1     -10.960   6.549  66.850  1.00  0.00    -0.408 C  
ENDBRANCH  22  23
ENDBRANCH  17  18
ENDBRANCH  16  17
ENDBRANCH  15  16
ENDBRANCH  14  15
ENDBRANCH  13  14
ENDBRANCH  11  13
TORSDOF 7
ENDMDL
MODEL      119
REMARK 921   NORMALIZED FREE ENERGY PREDICTED BY IDOCK:   -5.62 KCAL/MOL
REMARK 922        TOTAL FREE ENERGY PREDICTED BY IDOCK:   -8.94 KCAL/MOL
REMARK 923 INTER-LIGAND FREE ENERGY PREDICTED BY IDOCK:   -8.16 KCAL/MOL
REMARK 924 INTRA-LIGAND FREE ENERGY PREDICTED BY IDOCK:   -0.78 KCAL/MOL
REMARK 927      BINDING AFFINITY PREDICTED BY RF-SCORE:    0.00 PKD
ROOT
HETATM    1  O   UNL     1     -12.210   8.660  72.245  1.00  0.00    -0.362 OA 
HETATM    2  C   UNL     1     -11.535   9.327  71.464  1.00  0.00    -0.384 C  
HETATM    3  C   UNL     1     -10.040   9.154  71.333  1.00  0.00    -0.392 C  
HETATM    4  C   UNL     1      -9.540   9.431  69.920  1.00  0.00    -0.234 C  
HETATM    5  C   UNL     1     -10.149  10.674  69.328  1.00  0.00    -0.227 A  
HETATM    6  C   UNL     1     -11.413  11.085  69.768  1.00  0.00    -0.311 A  
HETATM    7  N   UNL     1     -12.086  10.358  70.754  1.00  0.00    -0.332 N  
HETATM    8  C   UNL     1     -12.032  12.189  69.190  1.00  0.00    -0.311 A  
HETATM    9  C   UNL     1     -11.392  12.887  68.158  1.00  0.00    -0.327 A  
HETATM   10  H   UNL     1     -13.051  10.613  70.958  1.00  0.00     0.000 HD 
HETATM   11  C   UNL     1     -10.145  12.477  67.676  1.00  0.00    -0.217 A  
HETATM   12  C   UNL     1      -9.525  11.368  68.267  1.00  0.00    -0.187 A  
ENDROOT
BRANCH  11  13
HETATM   13  O   UNL     1      -9.665  13.235  66.632  1.00  0.00    -0.255 OA 
BRANCH  13  14
HETATM   14  C   UNL     1     -10.245  14.526  66.446  1.00  0.00    -0.287 C  
BRANCH  14  15
HETATM   15  C   UNL     1      -9.319  15.634  67.003  1.00  0.00    -0.241 C  
BRANCH  15  16
HETATM   16  C   UNL     1      -9.797  16.023  68.409  1.00  0.00    -0.213 C  
BRANCH  16  17
HETATM   17  C   UNL     1      -9.819  17.508  68.790  1.00  0.00    -0.326 C  
BRANCH  17  18
HETATM   18  C   UNL     1      -9.775  18.464  67.653  1.00  0.00    -0.293 A  
HETATM   19  N   UNL     1     -10.858  19.085  67.211  1.00  0.00    -0.468 NA 
HETATM   20  N   UNL     1     -10.457  19.944  66.235  1.00  0.00    -0.485 NA 
HETATM   21  N   UNL     1      -9.156  19.856  66.045  1.00  0.00    -0.335 NA 
HETATM   22  N   UNL     1      -8.692  18.977  66.965  1.00  0.00    -0.286 NA 
BRANCH  22  23
HETATM   23  C   UNL     1      -7.258  18.701  66.959  1.00  0.00    -0.206 C  
HETATM   24  C   UNL     1      -6.412  19.972  66.667  1.00  0.00    -0.215 C  
HETATM   25  C   UNL     1      -6.475  20.961  67.833  1.00  0.00    -0.382 C  
HETATM   26  C   UNL     1      -5.944  20.326  69.114  1.00  0.00    -0.361 C  
HETATM   27  C   UNL     1      -6.612  18.986  69.421  1.00  0.00    -0.320 C  
HETATM   28  C   UNL     1      -6.639  18.051  68.208  1.00  0.00    -0.201 C  
ENDBRANCH  22  23
ENDBRANCH  17  18
ENDBRANCH  16  17
ENDBRANCH  15  16
ENDBRANCH  14  15
ENDBRANCH  13  14
ENDBRANCH  11  13
TORSDOF 7
ENDMDL
MODEL      120
REMARK 921   NORMALIZED FREE ENERGY PREDICTED BY IDOCK:   -5.62 KCAL/MOL
REMARK 922        TOTAL FREE ENERGY PREDICTED BY IDOCK:   -8.94 KCAL/MOL
REMARK 923 INTER-LIGAND FREE ENERGY PREDICTED BY IDOCK:   -7.64 KCAL/MOL
REMARK 924 INTRA-LIGAND FREE ENERGY PREDICTED BY IDOCK:   -1.29 KCAL/MOL
REMARK 927      BINDING AFFINITY PREDICTED BY RF-SCORE:    0.00 PKD
ROOT
HETATM    1  O   UNL     1      -9.010   2.849  68.012  1.00  0.00    -0.118 OA 
HETATM    2  C   UNL     1      -9.462   3.885  68.497  1.00  0.00    -0.148 C  
HETATM    3  C   UNL     1      -9.637   5.149  67.690  1.00  0.00    -0.164 C  
HETATM    4  C   UNL     1     -10.824   5.983  68.157  1.00  0.00    -0.365 C  
HETATM    5  C   UNL     1     -10.887   6.104  69.656  1.00  0.00    -0.424 A  
HETATM    6  C   UNL     1     -10.332   5.086  70.442  1.00  0.00    -0.227 A  
HETATM    7  N   UNL     1      -9.716   3.987  69.837  1.00  0.00    -0.210 N  
HETATM    8  C   UNL     1     -10.436   5.136  71.828  1.00  0.00    -0.268 A  
HETATM    9  C   UNL     1     -11.106   6.202  72.441  1.00  0.00    -0.316 A  
HETATM   10  H   UNL     1      -9.437   3.210  70.435  1.00  0.00     0.000 HD 
HETATM   11  C   UNL     1     -11.699   7.213  71.679  1.00  0.00    -0.291 A  
HETATM   12  C   UNL     1     -11.585   7.161  70.283  1.00  0.00    -0.260 A  
ENDROOT
BRANCH  11  13
HETATM   13  O   UNL     1     -12.358   8.168  72.420  1.00  0.00    -0.337 OA 
BRANCH  13  14
HETATM   14  C   UNL     1     -13.286   9.002  71.728  1.00  0.00    -0.397 C  
BRANCH  14  15
HETATM   15  C   UNL     1     -12.994  10.498  71.995  1.00  0.00    -0.490 C  
BRANCH  15  16
HETATM   16  C   UNL     1     -12.777  11.211  70.653  1.00  0.00    -0.350 C  
BRANCH  16  17
HETATM   17  C   UNL     1     -11.483  10.936  69.879  1.00  0.00    -0.402 C  
BRANCH  17  18
HETATM   18  C   UNL     1     -11.528  11.235  68.423  1.00  0.00    -0.307 A  
HETATM   19  N   UNL     1     -12.112  12.322  67.944  1.00  0.00    -0.434 NA 
HETATM   20  N   UNL     1     -11.897  12.333  66.601  1.00  0.00    -0.594 NA 
HETATM   21  N   UNL     1     -11.213  11.269  66.232  1.00  0.00    -0.210 NA 
HETATM   22  N   UNL     1     -10.915  10.592  67.366  1.00  0.00    -0.301 NA 
BRANCH  22  23
HETATM   23  C   UNL     1     -10.151   9.355  67.222  1.00  0.00    -0.226 C  
HETATM   24  C   UNL     1      -9.525   9.208  65.807  1.00  0.00    -0.322 C  
HETATM   25  C   UNL     1      -8.402  10.225  65.588  1.00  0.00    -0.159 C  
HETATM   26  C   UNL     1      -7.292  10.039  66.617  1.00  0.00    -0.103 C  
HETATM   27  C   UNL     1      -7.823  10.022  68.051  1.00  0.00    -0.089 C  
HETATM   28  C   UNL     1      -9.017   9.081  68.224  1.00  0.00    -0.133 C  
ENDBRANCH  22  23
ENDBRANCH  17  18
ENDBRANCH  16  17
ENDBRANCH  15  16
ENDBRANCH  14  15
ENDBRANCH  13  14
ENDBRANCH  11  13
TORSDOF 7
ENDMDL
MODEL      121
REMARK 921   NORMALIZED FREE ENERGY PREDICTED BY IDOCK:   -5.62 KCAL/MOL
REMARK 922        TOTAL FREE ENERGY PREDICTED BY IDOCK:   -8.93 KCAL/MOL
REMARK 923 INTER-LIGAND FREE ENERGY PREDICTED BY IDOCK:   -8.27 KCAL/MOL
REMARK 924 INTRA-LIGAND FREE ENERGY PREDICTED BY IDOCK:   -0.65 KCAL/MOL
REMARK 927      BINDING AFFINITY PREDICTED BY RF-SCORE:    0.00 PKD
ROOT
HETATM    1  O   UNL     1     -12.771  13.923  63.128  1.00  0.00    -0.718 OA 
HETATM    2  C   UNL     1     -12.006  13.197  63.759  1.00  0.00    -0.508 C  
HETATM    3  C   UNL     1     -11.767  13.364  65.241  1.00  0.00    -0.346 C  
HETATM    4  C   UNL     1     -11.473  12.042  65.940  1.00  0.00    -0.392 C  
HETATM    5  C   UNL     1     -10.496  11.191  65.172  1.00  0.00    -0.341 A  
HETATM    6  C   UNL     1     -10.419  11.335  63.781  1.00  0.00    -0.399 A  
HETATM    7  N   UNL     1     -11.226  12.270  63.125  1.00  0.00    -0.690 N  
HETATM    8  C   UNL     1      -9.577  10.515  63.037  1.00  0.00    -0.369 A  
HETATM    9  C   UNL     1      -8.812   9.534  63.679  1.00  0.00    -0.236 A  
HETATM   10  H   UNL     1     -11.233  12.258  62.106  1.00  0.00     0.000 HD 
HETATM   11  C   UNL     1      -8.895   9.345  65.062  1.00  0.00    -0.196 A  
HETATM   12  C   UNL     1      -9.740  10.180  65.807  1.00  0.00    -0.307 A  
ENDROOT
BRANCH  11  13
HETATM   13  O   UNL     1      -8.117   8.316  65.541  1.00  0.00    -0.112 OA 
BRANCH  13  14
HETATM   14  C   UNL     1      -8.271   7.971  66.917  1.00  0.00    -0.115 C  
BRANCH  14  15
HETATM   15  C   UNL     1      -9.440   6.976  67.111  1.00  0.00    -0.176 C  
BRANCH  15  16
HETATM   16  C   UNL     1     -10.309   7.450  68.285  1.00  0.00    -0.231 C  
BRANCH  16  17
HETATM   17  C   UNL     1     -11.279   6.452  68.928  1.00  0.00    -0.385 C  
BRANCH  17  18
HETATM   18  C   UNL     1     -10.660   5.435  69.818  1.00  0.00    -0.277 A  
HETATM   19  N   UNL     1      -9.961   4.415  69.346  1.00  0.00    -0.165 NA 
HETATM   20  N   UNL     1      -9.467   3.737  70.417  1.00  0.00    -0.170 NA 
HETATM   21  N   UNL     1      -9.859   4.299  71.542  1.00  0.00    -0.184 NA 
HETATM   22  N   UNL     1     -10.561   5.404  71.196  1.00  0.00    -0.230 NA 
BRANCH  22  23
HETATM   23  C   UNL     1     -11.113   6.210  72.282  1.00  0.00    -0.277 C  
HETATM   24  C   UNL     1     -10.302   6.063  73.599  1.00  0.00    -0.265 C  
HETATM   25  C   UNL     1      -8.922   6.713  73.478  1.00  0.00    -0.143 C  
HETATM   26  C   UNL     1      -9.048   8.201  73.166  1.00  0.00    -0.335 C  
HETATM   27  C   UNL     1      -9.951   8.470  71.962  1.00  0.00    -0.383 C  
HETATM   28  C   UNL     1     -11.284   7.721  72.049  1.00  0.00    -0.327 C  
ENDBRANCH  22  23
ENDBRANCH  17  18
ENDBRANCH  16  17
ENDBRANCH  15  16
ENDBRANCH  14  15
ENDBRANCH  13  14
ENDBRANCH  11  13
TORSDOF 7
ENDMDL
MODEL      122
REMARK 921   NORMALIZED FREE ENERGY PREDICTED BY IDOCK:   -5.61 KCAL/MOL
REMARK 922        TOTAL FREE ENERGY PREDICTED BY IDOCK:   -8.92 KCAL/MOL
REMARK 923 INTER-LIGAND FREE ENERGY PREDICTED BY IDOCK:   -8.58 KCAL/MOL
REMARK 924 INTRA-LIGAND FREE ENERGY PREDICTED BY IDOCK:   -0.34 KCAL/MOL
REMARK 927      BINDING AFFINITY PREDICTED BY RF-SCORE:    0.00 PKD
ROOT
HETATM    1  O   UNL     1     -12.119   6.284  71.616  1.00  0.00    -0.306 OA 
HETATM    2  C   UNL     1     -11.831   7.436  71.298  1.00  0.00    -0.301 C  
HETATM    3  C   UNL     1     -10.573   7.775  70.532  1.00  0.00    -0.226 C  
HETATM    4  C   UNL     1     -10.753   8.978  69.613  1.00  0.00    -0.228 C  
HETATM    5  C   UNL     1     -11.482  10.111  70.286  1.00  0.00    -0.381 A  
HETATM    6  C   UNL     1     -12.378   9.820  71.322  1.00  0.00    -0.371 A  
HETATM    7  N   UNL     1     -12.574   8.498  71.732  1.00  0.00    -0.329 N  
HETATM    8  C   UNL     1     -13.117  10.837  71.916  1.00  0.00    -0.557 A  
HETATM    9  C   UNL     1     -12.973  12.157  71.470  1.00  0.00    -0.398 A  
HETATM   10  H   UNL     1     -13.323   8.313  72.399  1.00  0.00     0.000 HD 
HETATM   11  C   UNL     1     -12.111  12.471  70.414  1.00  0.00    -0.297 A  
HETATM   12  C   UNL     1     -11.364  11.441  69.825  1.00  0.00    -0.332 A  
ENDROOT
BRANCH  11  13
HETATM   13  O   UNL     1     -12.109  13.800  70.061  1.00  0.00    -0.313 OA 
BRANCH  13  14
HETATM   14  C   UNL     1     -11.820  14.111  68.698  1.00  0.00    -0.348 C  
BRANCH  14  15
HETATM   15  C   UNL     1     -10.574  15.022  68.591  1.00  0.00    -0.237 C  
BRANCH  15  16
HETATM   16  C   UNL     1     -10.987  16.470  68.892  1.00  0.00    -0.325 C  
BRANCH  16  17
HETATM   17  C   UNL     1      -9.902  17.554  68.899  1.00  0.00    -0.289 C  
BRANCH  17  18
HETATM   18  C   UNL     1      -9.881  18.450  67.713  1.00  0.00    -0.319 A  
HETATM   19  N   UNL     1     -10.894  18.521  66.864  1.00  0.00    -0.264 NA 
HETATM   20  N   UNL     1     -10.591  19.489  65.957  1.00  0.00    -0.501 NA 
HETATM   21  N   UNL     1      -9.405  20.005  66.209  1.00  0.00    -0.378 NA 
HETATM   22  N   UNL     1      -8.962  19.412  67.344  1.00  0.00    -0.294 NA 
BRANCH  22  23
HETATM   23  C   UNL     1      -7.648  19.818  67.838  1.00  0.00    -0.296 C  
HETATM   24  C   UNL     1      -6.668  18.619  67.966  1.00  0.00    -0.230 C  
HETATM   25  C   UNL     1      -6.265  18.082  66.591  1.00  0.00    -0.208 C  
HETATM   26  C   UNL     1      -5.581  19.164  65.763  1.00  0.00    -0.185 C  
HETATM   27  C   UNL     1      -6.403  20.452  65.693  1.00  0.00    -0.267 C  
HETATM   28  C   UNL     1      -6.890  20.913  67.069  1.00  0.00    -0.398 C  
ENDBRANCH  22  23
ENDBRANCH  17  18
ENDBRANCH  16  17
ENDBRANCH  15  16
ENDBRANCH  14  15
ENDBRANCH  13  14
ENDBRANCH  11  13
TORSDOF 7
ENDMDL
MODEL      123
REMARK 921   NORMALIZED FREE ENERGY PREDICTED BY IDOCK:   -5.61 KCAL/MOL
REMARK 922        TOTAL FREE ENERGY PREDICTED BY IDOCK:   -8.91 KCAL/MOL
REMARK 923 INTER-LIGAND FREE ENERGY PREDICTED BY IDOCK:   -8.11 KCAL/MOL
REMARK 924 INTRA-LIGAND FREE ENERGY PREDICTED BY IDOCK:   -0.80 KCAL/MOL
REMARK 927      BINDING AFFINITY PREDICTED BY RF-SCORE:    0.00 PKD
ROOT
HETATM    1  O   UNL     1     -10.562   6.590  69.538  1.00  0.00    -0.206 OA 
HETATM    2  C   UNL     1     -10.606   7.780  69.235  1.00  0.00    -0.192 C  
HETATM    3  C   UNL     1      -9.896   8.335  68.022  1.00  0.00    -0.201 C  
HETATM    4  C   UNL     1     -10.633   9.515  67.401  1.00  0.00    -0.337 C  
HETATM    5  C   UNL     1     -11.115  10.500  68.433  1.00  0.00    -0.335 A  
HETATM    6  C   UNL     1     -11.390  10.044  69.728  1.00  0.00    -0.228 A  
HETATM    7  N   UNL     1     -11.201   8.698  70.055  1.00  0.00    -0.424 N  
HETATM    8  C   UNL     1     -11.902  10.915  70.684  1.00  0.00    -0.453 A  
HETATM    9  C   UNL     1     -12.154  12.251  70.348  1.00  0.00    -0.385 A  
HETATM   10  H   UNL     1     -11.530   8.379  70.966  1.00  0.00     0.000 HD 
HETATM   11  C   UNL     1     -11.921  12.724  69.053  1.00  0.00    -0.242 A  
HETATM   12  C   UNL     1     -11.398  11.843  68.097  1.00  0.00    -0.350 A  
ENDROOT
BRANCH  11  13
HETATM   13  O   UNL     1     -12.257  14.045  68.864  1.00  0.00    -0.345 OA 
BRANCH  13  14
HETATM   14  C   UNL     1     -12.227  14.894  70.012  1.00  0.00    -0.333 C  
BRANCH  14  15
HETATM   15  C   UNL     1     -11.171  16.013  69.845  1.00  0.00    -0.361 C  
BRANCH  15  16
HETATM   16  C   UNL     1      -9.773  15.380  69.821  1.00  0.00    -0.219 C  
BRANCH  16  17
HETATM   17  C   UNL     1      -8.921  15.536  68.556  1.00  0.00    -0.191 C  
BRANCH  17  18
HETATM   18  C   UNL     1      -7.893  16.610  68.602  1.00  0.00    -0.234 A  
HETATM   19  N   UNL     1      -6.960  16.655  69.539  1.00  0.00    -0.187 NA 
HETATM   20  N   UNL     1      -6.140  17.697  69.239  1.00  0.00    -0.222 NA 
HETATM   21  N   UNL     1      -6.553  18.314  68.151  1.00  0.00    -0.201 NA 
HETATM   22  N   UNL     1      -7.619  17.615  67.694  1.00  0.00    -0.201 NA 
BRANCH  22  23
HETATM   23  C   UNL     1      -8.267  18.105  66.480  1.00  0.00    -0.267 C  
HETATM   24  C   UNL     1      -9.798  17.836  66.477  1.00  0.00    -0.331 C  
HETATM   25  C   UNL     1     -10.516  18.702  67.515  1.00  0.00    -0.473 C  
HETATM   26  C   UNL     1     -10.297  20.184  67.231  1.00  0.00    -0.494 C  
HETATM   27  C   UNL     1      -8.818  20.535  67.070  1.00  0.00    -0.357 C  
HETATM   28  C   UNL     1      -8.091  19.588  66.112  1.00  0.00    -0.342 C  
ENDBRANCH  22  23
ENDBRANCH  17  18
ENDBRANCH  16  17
ENDBRANCH  15  16
ENDBRANCH  14  15
ENDBRANCH  13  14
ENDBRANCH  11  13
TORSDOF 7
ENDMDL
MODEL      124
REMARK 921   NORMALIZED FREE ENERGY PREDICTED BY IDOCK:   -5.58 KCAL/MOL
REMARK 922        TOTAL FREE ENERGY PREDICTED BY IDOCK:   -8.88 KCAL/MOL
REMARK 923 INTER-LIGAND FREE ENERGY PREDICTED BY IDOCK:   -7.99 KCAL/MOL
REMARK 924 INTRA-LIGAND FREE ENERGY PREDICTED BY IDOCK:   -0.89 KCAL/MOL
REMARK 927      BINDING AFFINITY PREDICTED BY RF-SCORE:    0.00 PKD
ROOT
HETATM    1  O   UNL     1     -13.161  14.635  64.965  1.00  0.00    -0.426 OA 
HETATM    2  C   UNL     1     -12.338  13.758  65.219  1.00  0.00    -0.464 C  
HETATM    3  C   UNL     1     -11.797  13.533  66.611  1.00  0.00    -0.450 C  
HETATM    4  C   UNL     1     -11.463  12.070  66.880  1.00  0.00    -0.402 C  
HETATM    5  C   UNL     1     -10.721  11.431  65.736  1.00  0.00    -0.309 A  
HETATM    6  C   UNL     1     -10.913  11.928  64.441  1.00  0.00    -0.337 A  
HETATM    7  N   UNL     1     -11.767  13.014  64.224  1.00  0.00    -0.365 N  
HETATM    8  C   UNL     1     -10.296  11.315  63.356  1.00  0.00    -0.449 A  
HETATM    9  C   UNL     1      -9.488  10.189  63.557  1.00  0.00    -0.310 A  
HETATM   10  H   UNL     1     -11.978  13.267  63.260  1.00  0.00     0.000 HD 
HETATM   11  C   UNL     1      -9.307   9.650  64.835  1.00  0.00    -0.242 A  
HETATM   12  C   UNL     1      -9.926  10.278  65.925  1.00  0.00    -0.321 A  
ENDROOT
BRANCH  11  13
HETATM   13  O   UNL     1      -8.523   8.520  64.866  1.00  0.00    -0.173 OA 
BRANCH  13  14
HETATM   14  C   UNL     1      -8.237   7.963  66.149  1.00  0.00    -0.117 C  
BRANCH  14  15
HETATM   15  C   UNL     1      -9.171   6.767  66.454  1.00  0.00    -0.185 C  
BRANCH  15  16
HETATM   16  C   UNL     1      -9.573   6.813  67.935  1.00  0.00    -0.125 C  
BRANCH  16  17
HETATM   17  C   UNL     1      -8.495   6.550  68.994  1.00  0.00    -0.125 C  
BRANCH  17  18
HETATM   18  C   UNL     1      -8.348   7.600  70.036  1.00  0.00    -0.134 A  
HETATM   19  N   UNL     1      -7.679   8.721  69.819  1.00  0.00    -0.081 NA 
HETATM   20  N   UNL     1      -7.814   9.490  70.933  1.00  0.00    -0.322 NA 
HETATM   21  N   UNL     1      -8.532   8.865  71.844  1.00  0.00    -0.370 NA 
HETATM   22  N   UNL     1      -8.933   7.699  71.284  1.00  0.00    -0.133 NA 
BRANCH  22  23
HETATM   23  C   UNL     1      -9.752   6.812  72.106  1.00  0.00    -0.149 C  
HETATM   24  C   UNL     1     -10.710   7.595  73.047  1.00  0.00    -0.449 C  
HETATM   25  C   UNL     1     -11.815   8.299  72.254  1.00  0.00    -0.451 C  
HETATM   26  C   UNL     1     -12.646   7.290  71.468  1.00  0.00    -0.415 C  
HETATM   27  C   UNL     1     -11.782   6.364  70.611  1.00  0.00    -0.377 C  
HETATM   28  C   UNL     1     -10.616   5.757  71.395  1.00  0.00    -0.313 C  
ENDBRANCH  22  23
ENDBRANCH  17  18
ENDBRANCH  16  17
ENDBRANCH  15  16
ENDBRANCH  14  15
ENDBRANCH  13  14
ENDBRANCH  11  13
TORSDOF 7
ENDMDL
MODEL      125
REMARK 921   NORMALIZED FREE ENERGY PREDICTED BY IDOCK:   -5.57 KCAL/MOL
REMARK 922        TOTAL FREE ENERGY PREDICTED BY IDOCK:   -8.87 KCAL/MOL
REMARK 923 INTER-LIGAND FREE ENERGY PREDICTED BY IDOCK:   -7.93 KCAL/MOL
REMARK 924 INTRA-LIGAND FREE ENERGY PREDICTED BY IDOCK:   -0.94 KCAL/MOL
REMARK 927      BINDING AFFINITY PREDICTED BY RF-SCORE:    0.00 PKD
ROOT
HETATM    1  O   UNL     1      -6.221  19.040  64.525  1.00  0.00    -0.459 OA 
HETATM    2  C   UNL     1      -6.969  18.927  65.494  1.00  0.00    -0.183 C  
HETATM    3  C   UNL     1      -7.490  20.121  66.259  1.00  0.00    -0.304 C  
HETATM    4  C   UNL     1      -8.880  19.886  66.836  1.00  0.00    -0.419 C  
HETATM    5  C   UNL     1      -9.013  18.535  67.486  1.00  0.00    -0.286 A  
HETATM    6  C   UNL     1      -8.202  17.485  67.037  1.00  0.00    -0.218 A  
HETATM    7  N   UNL     1      -7.274  17.701  66.014  1.00  0.00    -0.309 N  
HETATM    8  C   UNL     1      -8.349  16.208  67.570  1.00  0.00    -0.175 A  
HETATM    9  C   UNL     1      -9.318  15.969  68.552  1.00  0.00    -0.213 A  
HETATM   10  H   UNL     1      -6.793  16.888  65.629  1.00  0.00     0.000 HD 
HETATM   11  C   UNL     1     -10.165  16.991  68.993  1.00  0.00    -0.313 A  
HETATM   12  C   UNL     1     -10.006  18.277  68.457  1.00  0.00    -0.413 A  
ENDROOT
BRANCH  11  13
HETATM   13  O   UNL     1     -11.093  16.593  69.928  1.00  0.00    -0.305 OA 
BRANCH  13  14
HETATM   14  C   UNL     1     -10.838  15.370  70.617  1.00  0.00    -0.284 C  
BRANCH  14  15
HETATM   15  C   UNL     1     -11.894  15.126  71.722  1.00  0.00    -0.471 C  
BRANCH  15  16
HETATM   16  C   UNL     1     -12.522  13.741  71.516  1.00  0.00    -0.364 C  
BRANCH  16  17
HETATM   17  C   UNL     1     -12.190  12.971  70.232  1.00  0.00    -0.368 C  
BRANCH  17  18
HETATM   18  C   UNL     1     -11.889  11.526  70.407  1.00  0.00    -0.320 A  
HETATM   19  N   UNL     1     -12.695  10.713  71.069  1.00  0.00    -0.384 NA 
HETATM   20  N   UNL     1     -12.175   9.460  70.965  1.00  0.00    -0.295 NA 
HETATM   21  N   UNL     1     -11.053   9.480  70.273  1.00  0.00    -0.257 NA 
HETATM   22  N   UNL     1     -10.881  10.757  69.858  1.00  0.00    -0.242 NA 
BRANCH  22  23
HETATM   23  C   UNL     1      -9.690  11.044  69.062  1.00  0.00    -0.134 C  
HETATM   24  C   UNL     1      -9.324   9.877  68.103  1.00  0.00    -0.138 C  
HETATM   25  C   UNL     1     -10.353   9.739  66.978  1.00  0.00    -0.305 C  
HETATM   26  C   UNL     1     -10.432  11.020  66.154  1.00  0.00    -0.301 C  
HETATM   27  C   UNL     1     -10.647  12.260  67.022  1.00  0.00    -0.248 C  
HETATM   28  C   UNL     1      -9.680  12.322  68.207  1.00  0.00    -0.219 C  
ENDBRANCH  22  23
ENDBRANCH  17  18
ENDBRANCH  16  17
ENDBRANCH  15  16
ENDBRANCH  14  15
ENDBRANCH  13  14
ENDBRANCH  11  13
TORSDOF 7
ENDMDL
MODEL      126
REMARK 921   NORMALIZED FREE ENERGY PREDICTED BY IDOCK:   -5.55 KCAL/MOL
REMARK 922        TOTAL FREE ENERGY PREDICTED BY IDOCK:   -8.84 KCAL/MOL
REMARK 923 INTER-LIGAND FREE ENERGY PREDICTED BY IDOCK:   -8.36 KCAL/MOL
REMARK 924 INTRA-LIGAND FREE ENERGY PREDICTED BY IDOCK:   -0.48 KCAL/MOL
REMARK 927      BINDING AFFINITY PREDICTED BY RF-SCORE:    0.00 PKD
ROOT
HETATM    1  O   UNL     1     -11.518   3.641  73.689  1.00  0.00    -0.200 OA 
HETATM    2  C   UNL     1     -11.113   4.516  72.927  1.00  0.00    -0.153 C  
HETATM    3  C   UNL     1     -10.018   4.268  71.916  1.00  0.00    -0.255 C  
HETATM    4  C   UNL     1     -10.187   5.103  70.653  1.00  0.00    -0.326 C  
HETATM    5  C   UNL     1     -10.540   6.536  70.954  1.00  0.00    -0.275 A  
HETATM    6  C   UNL     1     -11.220   6.830  72.142  1.00  0.00    -0.259 A  
HETATM    7  N   UNL     1     -11.546   5.808  73.038  1.00  0.00    -0.519 N  
HETATM    8  C   UNL     1     -11.621   8.134  72.415  1.00  0.00    -0.463 A  
HETATM    9  C   UNL     1     -11.353   9.154  71.494  1.00  0.00    -0.439 A  
HETATM   10  H   UNL     1     -12.148   6.042  73.827  1.00  0.00     0.000 HD 
HETATM   11  C   UNL     1     -10.707   8.882  70.285  1.00  0.00    -0.221 A  
HETATM   12  C   UNL     1     -10.299   7.568  70.019  1.00  0.00    -0.222 A  
ENDROOT
BRANCH  11  13
HETATM   13  O   UNL     1     -10.554   9.977  69.466  1.00  0.00    -0.211 OA 
BRANCH  13  14
HETATM   14  C   UNL     1     -11.731  10.714  69.138  1.00  0.00    -0.253 C  
BRANCH  14  15
HETATM   15  C   UNL     1     -11.379  12.005  68.361  1.00  0.00    -0.332 C  
BRANCH  15  16
HETATM   16  C   UNL     1     -11.852  13.220  69.172  1.00  0.00    -0.378 C  
BRANCH  16  17
HETATM   17  C   UNL     1     -12.213  14.506  68.420  1.00  0.00    -0.154 C  
BRANCH  17  18
HETATM   18  C   UNL     1     -11.805  14.551  66.991  1.00  0.00    -0.385 A  
HETATM   19  N   UNL     1     -12.615  14.176  66.014  1.00  0.00    -0.449 NA 
HETATM   20  N   UNL     1     -11.972  14.425  64.841  1.00  0.00    -0.406 NA 
HETATM   21  N   UNL     1     -10.774  14.927  65.067  1.00  0.00    -0.409 NA 
HETATM   22  N   UNL     1     -10.666  15.074  66.409  1.00  0.00    -0.315 NA 
BRANCH  22  23
HETATM   23  C   UNL     1      -9.411  15.618  66.920  1.00  0.00    -0.234 C  
HETATM   24  C   UNL     1      -8.916  16.839  66.097  1.00  0.00    -0.295 C  
HETATM   25  C   UNL     1      -9.823  18.055  66.308  1.00  0.00    -0.310 C  
HETATM   26  C   UNL     1      -9.857  18.459  67.778  1.00  0.00    -0.336 C  
HETATM   27  C   UNL     1     -10.194  17.286  68.698  1.00  0.00    -0.351 C  
HETATM   28  C   UNL     1      -9.352  16.043  68.397  1.00  0.00    -0.207 C  
ENDBRANCH  22  23
ENDBRANCH  17  18
ENDBRANCH  16  17
ENDBRANCH  15  16
ENDBRANCH  14  15
ENDBRANCH  13  14
ENDBRANCH  11  13
TORSDOF 7
ENDMDL
MODEL      127
REMARK 921   NORMALIZED FREE ENERGY PREDICTED BY IDOCK:   -5.53 KCAL/MOL
REMARK 922        TOTAL FREE ENERGY PREDICTED BY IDOCK:   -8.81 KCAL/MOL
REMARK 923 INTER-LIGAND FREE ENERGY PREDICTED BY IDOCK:   -7.64 KCAL/MOL
REMARK 924 INTRA-LIGAND FREE ENERGY PREDICTED BY IDOCK:   -1.17 KCAL/MOL
REMARK 927      BINDING AFFINITY PREDICTED BY RF-SCORE:    0.00 PKD
ROOT
HETATM    1  O   UNL     1     -14.005  13.488  72.694  1.00  0.00    -0.752 OA 
HETATM    2  C   UNL     1     -13.282  13.236  71.732  1.00  0.00    -0.405 C  
HETATM    3  C   UNL     1     -12.673  11.871  71.512  1.00  0.00    -0.379 C  
HETATM    4  C   UNL     1     -12.506  11.536  70.035  1.00  0.00    -0.192 C  
HETATM    5  C   UNL     1     -11.937  12.684  69.245  1.00  0.00    -0.301 A  
HETATM    6  C   UNL     1     -12.159  13.992  69.695  1.00  0.00    -0.355 A  
HETATM    7  N   UNL     1     -12.884  14.218  70.869  1.00  0.00    -0.343 N  
HETATM    8  C   UNL     1     -11.706  15.076  68.950  1.00  0.00    -0.354 A  
HETATM    9  C   UNL     1     -11.034  14.860  67.741  1.00  0.00    -0.294 A  
HETATM   10  H   UNL     1     -13.132  15.180  71.096  1.00  0.00     0.000 HD 
HETATM   11  C   UNL     1     -10.828  13.567  67.251  1.00  0.00    -0.276 A  
HETATM   12  C   UNL     1     -11.281  12.479  68.011  1.00  0.00    -0.316 A  
ENDROOT
BRANCH  11  13
HETATM   13  O   UNL     1     -10.192  13.517  66.032  1.00  0.00    -0.292 OA 
BRANCH  13  14
HETATM   14  C   UNL     1     -11.003  13.678  64.869  1.00  0.00    -0.367 C  
BRANCH  14  15
HETATM   15  C   UNL     1     -11.350  12.307  64.241  1.00  0.00    -0.415 C  
BRANCH  15  16
HETATM   16  C   UNL     1     -10.260  11.932  63.227  1.00  0.00    -0.428 C  
BRANCH  16  17
HETATM   17  C   UNL     1      -9.756  10.484  63.196  1.00  0.00    -0.351 C  
BRANCH  17  18
HETATM   18  C   UNL     1      -8.449  10.244  63.861  1.00  0.00    -0.179 A  
HETATM   19  N   UNL     1      -7.330  10.073  63.176  1.00  0.00    -0.132 NA 
HETATM   20  N   UNL     1      -6.318   9.967  64.079  1.00  0.00    -0.127 NA 
HETATM   21  N   UNL     1      -6.785  10.047  65.309  1.00  0.00    -0.111 NA 
HETATM   22  N   UNL     1      -8.115  10.282  65.201  1.00  0.00    -0.149 NA 
BRANCH  22  23
HETATM   23  C   UNL     1      -8.872  10.410  66.443  1.00  0.00    -0.147 C  
HETATM   24  C   UNL     1     -10.110   9.472  66.481  1.00  0.00    -0.326 C  
HETATM   25  C   UNL     1      -9.690   8.004  66.591  1.00  0.00    -0.313 C  
HETATM   26  C   UNL     1      -8.878   7.764  67.859  1.00  0.00    -0.123 C  
HETATM   27  C   UNL     1      -7.708   8.739  67.996  1.00  0.00    -0.101 C  
HETATM   28  C   UNL     1      -8.128  10.194  67.772  1.00  0.00    -0.109 C  
ENDBRANCH  22  23
ENDBRANCH  17  18
ENDBRANCH  16  17
ENDBRANCH  15  16
ENDBRANCH  14  15
ENDBRANCH  13  14
ENDBRANCH  11  13
TORSDOF 7
ENDMDL
MODEL      128
REMARK 921   NORMALIZED FREE ENERGY PREDICTED BY IDOCK:   -5.53 KCAL/MOL
REMARK 922        TOTAL FREE ENERGY PREDICTED BY IDOCK:   -8.80 KCAL/MOL
REMARK 923 INTER-LIGAND FREE ENERGY PREDICTED BY IDOCK:   -8.45 KCAL/MOL
REMARK 924 INTRA-LIGAND FREE ENERGY PREDICTED BY IDOCK:   -0.35 KCAL/MOL
REMARK 927      BINDING AFFINITY PREDICTED BY RF-SCORE:    0.00 PKD
ROOT
HETATM    1  O   UNL     1     -11.693   6.254  70.657  1.00  0.00    -0.343 OA 
HETATM    2  C   UNL     1     -11.189   6.865  69.717  1.00  0.00    -0.267 C  
HETATM    3  C   UNL     1     -10.681   6.169  68.477  1.00  0.00    -0.365 C  
HETATM    4  C   UNL     1     -10.828   7.024  67.224  1.00  0.00    -0.403 C  
HETATM    5  C   UNL     1     -10.395   8.449  67.446  1.00  0.00    -0.355 A  
HETATM    6  C   UNL     1     -10.481   8.990  68.734  1.00  0.00    -0.206 A  
HETATM    7  N   UNL     1     -10.944   8.208  69.796  1.00  0.00    -0.400 N  
HETATM    8  C   UNL     1     -10.154  10.324  68.958  1.00  0.00    -0.225 A  
HETATM    9  C   UNL     1      -9.748  11.131  67.889  1.00  0.00    -0.184 A  
HETATM   10  H   UNL     1     -11.111   8.670  70.690  1.00  0.00     0.000 HD 
HETATM   11  C   UNL     1      -9.688  10.626  66.586  1.00  0.00    -0.184 A  
HETATM   12  C   UNL     1     -10.011   9.280  66.369  1.00  0.00    -0.356 A  
ENDROOT
BRANCH  11  13
HETATM   13  O   UNL     1      -9.314  11.551  65.638  1.00  0.00    -0.224 OA 
BRANCH  13  14
HETATM   14  C   UNL     1     -10.140  11.663  64.479  1.00  0.00    -0.278 C  
BRANCH  14  15
HETATM   15  C   UNL     1     -10.316  13.144  64.065  1.00  0.00    -0.173 C  
BRANCH  15  16
HETATM   16  C   UNL     1     -11.184  13.854  65.114  1.00  0.00    -0.326 C  
BRANCH  16  17
HETATM   17  C   UNL     1     -10.503  14.812  66.099  1.00  0.00    -0.311 C  
BRANCH  17  18
HETATM   18  C   UNL     1     -10.482  16.242  65.695  1.00  0.00    -0.368 A  
HETATM   19  N   UNL     1     -11.223  16.706  64.702  1.00  0.00    -0.843 NA 
HETATM   20  N   UNL     1     -11.035  18.053  64.656  1.00  0.00    -0.086 NA 
HETATM   21  N   UNL     1     -10.178  18.433  65.582  1.00  0.00    -0.538 NA 
HETATM   22  N   UNL     1      -9.860  17.323  66.290  1.00  0.00    -0.348 NA 
BRANCH  22  23
HETATM   23  C   UNL     1      -8.911  17.483  67.389  1.00  0.00    -0.230 C  
HETATM   24  C   UNL     1      -7.455  17.144  66.967  1.00  0.00    -0.223 C  
HETATM   25  C   UNL     1      -6.899  18.191  65.998  1.00  0.00    -0.318 C  
HETATM   26  C   UNL     1      -6.894  19.575  66.638  1.00  0.00    -0.204 C  
HETATM   27  C   UNL     1      -8.256  19.953  67.222  1.00  0.00    -0.350 C  
HETATM   28  C   UNL     1      -8.846  18.846  68.099  1.00  0.00    -0.341 C  
ENDBRANCH  22  23
ENDBRANCH  17  18
ENDBRANCH  16  17
ENDBRANCH  15  16
ENDBRANCH  14  15
ENDBRANCH  13  14
ENDBRANCH  11  13
TORSDOF 7
ENDMDL
MODEL      129
REMARK 921   NORMALIZED FREE ENERGY PREDICTED BY IDOCK:   -5.51 KCAL/MOL
REMARK 922        TOTAL FREE ENERGY PREDICTED BY IDOCK:   -8.78 KCAL/MOL
REMARK 923 INTER-LIGAND FREE ENERGY PREDICTED BY IDOCK:   -8.47 KCAL/MOL
REMARK 924 INTRA-LIGAND FREE ENERGY PREDICTED BY IDOCK:   -0.31 KCAL/MOL
REMARK 927      BINDING AFFINITY PREDICTED BY RF-SCORE:    0.00 PKD
ROOT
HETATM    1  O   UNL     1     -14.284  12.868  72.764  1.00  0.00    -0.446 OA 
HETATM    2  C   UNL     1     -13.650  13.802  72.279  1.00  0.00    -0.559 C  
HETATM    3  C   UNL     1     -13.363  15.072  73.047  1.00  0.00    -0.568 C  
HETATM    4  C   UNL     1     -12.033  15.705  72.655  1.00  0.00    -0.578 C  
HETATM    5  C   UNL     1     -11.829  15.736  71.164  1.00  0.00    -0.471 A  
HETATM    6  C   UNL     1     -12.456  14.765  70.373  1.00  0.00    -0.349 A  
HETATM    7  N   UNL     1     -13.273  13.797  70.965  1.00  0.00    -0.211 N  
HETATM    8  C   UNL     1     -12.231  14.725  69.001  1.00  0.00    -0.180 A  
HETATM    9  C   UNL     1     -11.366  15.653  68.409  1.00  0.00    -0.365 A  
HETATM   10  H   UNL     1     -13.610  13.035  70.377  1.00  0.00     0.000 HD 
HETATM   11  C   UNL     1     -10.699  16.611  69.179  1.00  0.00    -0.342 A  
HETATM   12  C   UNL     1     -10.936  16.650  70.560  1.00  0.00     0.053 A  
ENDROOT
BRANCH  11  13
HETATM   13  O   UNL     1      -9.850  17.422  68.462  1.00  0.00    -0.287 OA 
BRANCH  13  14
HETATM   14  C   UNL     1      -8.938  16.783  67.569  1.00  0.00    -0.205 C  
BRANCH  14  15
HETATM   15  C   UNL     1      -9.538  16.677  66.147  1.00  0.00    -0.323 C  
BRANCH  15  16
HETATM   16  C   UNL     1      -9.434  15.221  65.669  1.00  0.00    -0.240 C  
BRANCH  16  17
HETATM   17  C   UNL     1     -10.608  14.623  64.885  1.00  0.00    -0.446 C  
BRANCH  17  18
HETATM   18  C   UNL     1     -10.586  13.145  64.723  1.00  0.00    -0.372 A  
HETATM   19  N   UNL     1     -10.411  12.567  63.545  1.00  0.00    -0.374 NA 
HETATM   20  N   UNL     1     -10.354  11.225  63.761  1.00  0.00    -0.361 NA 
HETATM   21  N   UNL     1     -10.510  10.955  65.041  1.00  0.00    -0.286 NA 
HETATM   22  N   UNL     1     -10.598  12.147  65.678  1.00  0.00    -0.253 NA 
BRANCH  22  23
HETATM   23  C   UNL     1     -10.779  12.117  67.127  1.00  0.00    -0.232 C  
HETATM   24  C   UNL     1     -11.314  10.746  67.628  1.00  0.00    -0.328 C  
HETATM   25  C   UNL     1     -10.254   9.651  67.483  1.00  0.00    -0.274 C  
HETATM   26  C   UNL     1      -9.005   9.993  68.288  1.00  0.00    -0.119 C  
HETATM   27  C   UNL     1      -8.475  11.392  67.976  1.00  0.00    -0.145 C  
HETATM   28  C   UNL     1      -9.573  12.459  68.017  1.00  0.00    -0.211 C  
ENDBRANCH  22  23
ENDBRANCH  17  18
ENDBRANCH  16  17
ENDBRANCH  15  16
ENDBRANCH  14  15
ENDBRANCH  13  14
ENDBRANCH  11  13
TORSDOF 7
ENDMDL
MODEL      130
REMARK 921   NORMALIZED FREE ENERGY PREDICTED BY IDOCK:   -5.51 KCAL/MOL
REMARK 922        TOTAL FREE ENERGY PREDICTED BY IDOCK:   -8.78 KCAL/MOL
REMARK 923 INTER-LIGAND FREE ENERGY PREDICTED BY IDOCK:   -7.78 KCAL/MOL
REMARK 924 INTRA-LIGAND FREE ENERGY PREDICTED BY IDOCK:   -1.00 KCAL/MOL
REMARK 927      BINDING AFFINITY PREDICTED BY RF-SCORE:    0.00 PKD
ROOT
HETATM    1  O   UNL     1      -7.503  19.520  69.156  1.00  0.00    -0.366 OA 
HETATM    2  C   UNL     1      -8.337  18.995  68.422  1.00  0.00    -0.348 C  
HETATM    3  C   UNL     1      -9.322  19.802  67.607  1.00  0.00    -0.445 C  
HETATM    4  C   UNL     1      -9.687  19.125  66.292  1.00  0.00    -0.412 C  
HETATM    5  C   UNL     1      -9.966  17.655  66.459  1.00  0.00    -0.332 A  
HETATM    6  C   UNL     1      -9.350  16.964  67.511  1.00  0.00    -0.232 A  
HETATM    7  N   UNL     1      -8.506  17.639  68.397  1.00  0.00    -0.280 N  
HETATM    8  C   UNL     1      -9.533  15.592  67.650  1.00  0.00    -0.211 A  
HETATM    9  C   UNL     1     -10.328  14.897  66.730  1.00  0.00    -0.269 A  
HETATM   10  H   UNL     1      -7.979  17.082  69.069  1.00  0.00     0.000 HD 
HETATM   11  C   UNL     1     -10.926  15.556  65.651  1.00  0.00    -0.303 A  
HETATM   12  C   UNL     1     -10.743  16.939  65.521  1.00  0.00    -0.171 A  
ENDROOT
BRANCH  11  13
HETATM   13  O   UNL     1     -11.639  14.733  64.811  1.00  0.00    -0.392 OA 
BRANCH  13  14
HETATM   14  C   UNL     1     -12.517  13.785  65.418  1.00  0.00    -0.500 C  
BRANCH  14  15
HETATM   15  C   UNL     1     -12.583  12.480  64.590  1.00  0.00    -0.507 C  
BRANCH  15  16
HETATM   16  C   UNL     1     -11.554  12.559  63.453  1.00  0.00    -0.547 C  
BRANCH  16  17
HETATM   17  C   UNL     1     -10.072  12.361  63.793  1.00  0.00    -0.334 C  
BRANCH  17  18
HETATM   18  C   UNL     1      -9.585  10.957  63.753  1.00  0.00    -0.292 A  
HETATM   19  N   UNL     1      -8.926  10.467  62.715  1.00  0.00    -0.234 NA 
HETATM   20  N   UNL     1      -8.553   9.200  63.039  1.00  0.00    -0.209 NA 
HETATM   21  N   UNL     1      -8.983   8.883  64.243  1.00  0.00     0.017 NA 
HETATM   22  N   UNL     1      -9.583   9.990  64.741  1.00  0.00    -0.303 NA 
BRANCH  22  23
HETATM   23  C   UNL     1     -10.153   9.894  66.082  1.00  0.00    -0.245 C  
HETATM   24  C   UNL     1      -9.458   8.802  66.943  1.00  0.00    -0.231 C  
HETATM   25  C   UNL     1      -8.026   9.208  67.304  1.00  0.00    -0.102 C  
HETATM   26  C   UNL     1      -8.014  10.511  68.096  1.00  0.00    -0.111 C  
HETATM   27  C   UNL     1      -8.801  11.623  67.401  1.00  0.00    -0.160 C  
HETATM   28  C   UNL     1     -10.190  11.165  66.948  1.00  0.00    -0.260 C  
ENDBRANCH  22  23
ENDBRANCH  17  18
ENDBRANCH  16  17
ENDBRANCH  15  16
ENDBRANCH  14  15
ENDBRANCH  13  14
ENDBRANCH  11  13
TORSDOF 7
ENDMDL
MODEL      131
REMARK 921   NORMALIZED FREE ENERGY PREDICTED BY IDOCK:   -5.50 KCAL/MOL
REMARK 922        TOTAL FREE ENERGY PREDICTED BY IDOCK:   -8.76 KCAL/MOL
REMARK 923 INTER-LIGAND FREE ENERGY PREDICTED BY IDOCK:   -8.21 KCAL/MOL
REMARK 924 INTRA-LIGAND FREE ENERGY PREDICTED BY IDOCK:   -0.55 KCAL/MOL
REMARK 927      BINDING AFFINITY PREDICTED BY RF-SCORE:    0.00 PKD
ROOT
HETATM    1  O   UNL     1      -8.880   2.209  69.138  1.00  0.00    -0.073 OA 
HETATM    2  C   UNL     1      -9.349   3.075  69.873  1.00  0.00    -0.151 C  
HETATM    3  C   UNL     1      -9.538   2.864  71.357  1.00  0.00    -0.223 C  
HETATM    4  C   UNL     1      -9.374   4.150  72.157  1.00  0.00    -0.178 C  
HETATM    5  C   UNL     1     -10.090   5.315  71.526  1.00  0.00    -0.254 A  
HETATM    6  C   UNL     1     -10.291   5.316  70.140  1.00  0.00    -0.284 A  
HETATM    7  N   UNL     1      -9.847   4.242  69.364  1.00  0.00    -0.186 N  
HETATM    8  C   UNL     1     -10.887   6.409  69.519  1.00  0.00    -0.381 A  
HETATM    9  C   UNL     1     -11.279   7.517  70.281  1.00  0.00    -0.253 A  
HETATM   10  H   UNL     1      -9.898   4.335  68.350  1.00  0.00     0.000 HD 
HETATM   11  C   UNL     1     -11.058   7.557  71.661  1.00  0.00    -0.239 A  
HETATM   12  C   UNL     1     -10.464   6.449  72.281  1.00  0.00    -0.222 A  
ENDROOT
BRANCH  11  13
HETATM   13  O   UNL     1     -11.457   8.727  72.265  1.00  0.00    -0.362 OA 
BRANCH  13  14
HETATM   14  C   UNL     1     -12.819   9.117  72.092  1.00  0.00    -0.412 C  
BRANCH  14  15
HETATM   15  C   UNL     1     -12.926  10.623  71.752  1.00  0.00    -0.577 C  
BRANCH  15  16
HETATM   16  C   UNL     1     -12.871  10.794  70.227  1.00  0.00    -0.226 C  
BRANCH  16  17
HETATM   17  C   UNL     1     -11.942  11.866  69.644  1.00  0.00    -0.365 C  
BRANCH  17  18
HETATM   18  C   UNL     1     -11.504  11.644  68.241  1.00  0.00    -0.303 A  
HETATM   19  N   UNL     1     -10.920  10.521  67.854  1.00  0.00    -0.276 NA 
HETATM   20  N   UNL     1     -10.733  10.610  66.509  1.00  0.00    -0.194 NA 
HETATM   21  N   UNL     1     -11.167  11.768  66.056  1.00  0.00    -0.318 NA 
HETATM   22  N   UNL     1     -11.713  12.415  67.114  1.00  0.00    -0.458 NA 
BRANCH  22  23
HETATM   23  C   UNL     1     -12.271  13.742  66.868  1.00  0.00    -0.366 C  
HETATM   24  C   UNL     1     -11.473  14.862  67.591  1.00  0.00    -0.366 C  
HETATM   25  C   UNL     1     -10.089  15.050  66.965  1.00  0.00    -0.244 C  
HETATM   26  C   UNL     1     -10.206  15.429  65.492  1.00  0.00    -0.411 C  
HETATM   27  C   UNL     1     -11.097  14.464  64.710  1.00  0.00    -0.402 C  
HETATM   28  C   UNL     1     -12.434  14.202  65.410  1.00  0.00    -0.488 C  
ENDBRANCH  22  23
ENDBRANCH  17  18
ENDBRANCH  16  17
ENDBRANCH  15  16
ENDBRANCH  14  15
ENDBRANCH  13  14
ENDBRANCH  11  13
TORSDOF 7
ENDMDL
MODEL      132
REMARK 921   NORMALIZED FREE ENERGY PREDICTED BY IDOCK:   -5.49 KCAL/MOL
REMARK 922        TOTAL FREE ENERGY PREDICTED BY IDOCK:   -8.75 KCAL/MOL
REMARK 923 INTER-LIGAND FREE ENERGY PREDICTED BY IDOCK:   -7.75 KCAL/MOL
REMARK 924 INTRA-LIGAND FREE ENERGY PREDICTED BY IDOCK:   -1.00 KCAL/MOL
REMARK 927      BINDING AFFINITY PREDICTED BY RF-SCORE:    0.00 PKD
ROOT
HETATM    1  O   UNL     1      -8.812   6.050  68.912  1.00  0.00    -0.120 OA 
HETATM    2  C   UNL     1      -9.273   7.038  68.345  1.00  0.00    -0.129 C  
HETATM    3  C   UNL     1     -10.461   7.801  68.883  1.00  0.00    -0.208 C  
HETATM    4  C   UNL     1     -10.398   9.288  68.558  1.00  0.00    -0.237 C  
HETATM    5  C   UNL     1      -9.997   9.548  67.131  1.00  0.00    -0.261 A  
HETATM    6  C   UNL     1      -9.204   8.604  66.467  1.00  0.00    -0.187 A  
HETATM    7  N   UNL     1      -8.811   7.432  67.120  1.00  0.00    -0.124 N  
HETATM    8  C   UNL     1      -8.759   8.848  65.172  1.00  0.00    -0.213 A  
HETATM    9  C   UNL     1      -9.096  10.047  64.532  1.00  0.00    -0.285 A  
HETATM   10  H   UNL     1      -8.134   6.830  66.651  1.00  0.00     0.000 HD 
HETATM   11  C   UNL     1      -9.857  11.022  65.184  1.00  0.00    -0.268 A  
HETATM   12  C   UNL     1     -10.308  10.767  66.486  1.00  0.00    -0.300 A  
ENDROOT
BRANCH  11  13
HETATM   13  O   UNL     1     -10.070  12.163  64.444  1.00  0.00    -0.290 OA 
BRANCH  13  14
HETATM   14  C   UNL     1     -10.999  12.073  63.364  1.00  0.00    -0.403 C  
BRANCH  14  15
HETATM   15  C   UNL     1     -12.371  12.666  63.763  1.00  0.00    -0.568 C  
BRANCH  15  16
HETATM   16  C   UNL     1     -12.152  14.047  64.396  1.00  0.00    -0.486 C  
BRANCH  16  17
HETATM   17  C   UNL     1     -12.720  14.308  65.796  1.00  0.00    -0.365 C  
BRANCH  17  18
HETATM   18  C   UNL     1     -11.734  14.272  66.908  1.00  0.00    -0.408 A  
HETATM   19  N   UNL     1     -11.908  13.519  67.982  1.00  0.00    -0.360 NA 
HETATM   20  N   UNL     1     -10.793  13.650  68.750  1.00  0.00    -0.253 NA 
HETATM   21  N   UNL     1      -9.940  14.484  68.189  1.00  0.00    -0.215 NA 
HETATM   22  N   UNL     1     -10.479  14.843  67.000  1.00  0.00    -0.268 NA 
BRANCH  22  23
HETATM   23  C   UNL     1      -9.715  15.778  66.177  1.00  0.00    -0.322 C  
HETATM   24  C   UNL     1     -10.373  17.184  66.112  1.00  0.00    -0.327 C  
HETATM   25  C   UNL     1     -10.282  17.902  67.461  1.00  0.00    -0.366 C  
HETATM   26  C   UNL     1      -8.828  18.081  67.884  1.00  0.00    -0.269 C  
HETATM   27  C   UNL     1      -8.043  16.770  67.843  1.00  0.00    -0.189 C  
HETATM   28  C   UNL     1      -8.236  16.011  66.528  1.00  0.00    -0.334 C  
ENDBRANCH  22  23
ENDBRANCH  17  18
ENDBRANCH  16  17
ENDBRANCH  15  16
ENDBRANCH  14  15
ENDBRANCH  13  14
ENDBRANCH  11  13
TORSDOF 7
ENDMDL
MODEL      133
REMARK 921   NORMALIZED FREE ENERGY PREDICTED BY IDOCK:   -5.49 KCAL/MOL
REMARK 922        TOTAL FREE ENERGY PREDICTED BY IDOCK:   -8.75 KCAL/MOL
REMARK 923 INTER-LIGAND FREE ENERGY PREDICTED BY IDOCK:   -8.54 KCAL/MOL
REMARK 924 INTRA-LIGAND FREE ENERGY PREDICTED BY IDOCK:   -0.21 KCAL/MOL
REMARK 927      BINDING AFFINITY PREDICTED BY RF-SCORE:    0.00 PKD
ROOT
HETATM    1  O   UNL     1      -9.902  19.694  66.001  1.00  0.00    -0.402 OA 
HETATM    2  C   UNL     1     -10.085  18.588  66.506  1.00  0.00    -0.400 C  
HETATM    3  C   UNL     1      -9.800  18.304  67.962  1.00  0.00    -0.343 C  
HETATM    4  C   UNL     1     -10.739  17.257  68.549  1.00  0.00    -0.305 C  
HETATM    5  C   UNL     1     -10.924  16.075  67.636  1.00  0.00    -0.284 A  
HETATM    6  C   UNL     1     -10.774  16.255  66.255  1.00  0.00    -0.185 A  
HETATM    7  N   UNL     1     -10.440  17.511  65.742  1.00  0.00    -0.294 N  
HETATM    8  C   UNL     1     -11.006  15.198  65.381  1.00  0.00    -0.381 A  
HETATM    9  C   UNL     1     -11.402  13.952  65.882  1.00  0.00    -0.314 A  
HETATM   10  H   UNL     1     -10.462  17.633  64.730  1.00  0.00     0.000 HD 
HETATM   11  C   UNL     1     -11.594  13.754  67.253  1.00  0.00    -0.361 A  
HETATM   12  C   UNL     1     -11.350  14.821  68.129  1.00  0.00    -0.324 A  
ENDROOT
BRANCH  11  13
HETATM   13  O   UNL     1     -12.024  12.490  67.588  1.00  0.00    -0.414 OA 
BRANCH  13  14
HETATM   14  C   UNL     1     -11.327  11.823  68.639  1.00  0.00    -0.270 C  
BRANCH  14  15
HETATM   15  C   UNL     1     -11.817  12.309  70.024  1.00  0.00    -0.372 C  
BRANCH  15  16
HETATM   16  C   UNL     1     -12.611  11.179  70.696  1.00  0.00    -0.408 C  
BRANCH  16  17
HETATM   17  C   UNL     1     -11.839  10.090  71.450  1.00  0.00    -0.447 C  
BRANCH  17  18
HETATM   18  C   UNL     1     -12.539   8.787  71.594  1.00  0.00    -0.345 A  
HETATM   19  N   UNL     1     -13.854   8.677  71.487  1.00  0.00    -0.361 NA 
HETATM   20  N   UNL     1     -14.154   7.353  71.580  1.00  0.00    -0.434 NA 
HETATM   21  N   UNL     1     -13.061   6.641  71.763  1.00  0.00    -0.212 NA 
HETATM   22  N   UNL     1     -12.023   7.511  71.716  1.00  0.00    -0.290 NA 
BRANCH  22  23
HETATM   23  C   UNL     1     -10.683   6.960  71.897  1.00  0.00    -0.218 C  
HETATM   24  C   UNL     1     -10.520   5.567  71.228  1.00  0.00    -0.306 C  
HETATM   25  C   UNL     1     -10.544   5.678  69.702  1.00  0.00    -0.401 C  
HETATM   26  C   UNL     1      -9.415   6.574  69.205  1.00  0.00    -0.136 C  
HETATM   27  C   UNL     1      -9.393   7.931  69.910  1.00  0.00    -0.156 C  
HETATM   28  C   UNL     1      -9.483   7.803  71.432  1.00  0.00    -0.173 C  
ENDBRANCH  22  23
ENDBRANCH  17  18
ENDBRANCH  16  17
ENDBRANCH  15  16
ENDBRANCH  14  15
ENDBRANCH  13  14
ENDBRANCH  11  13
TORSDOF 7
ENDMDL
MODEL      134
REMARK 921   NORMALIZED FREE ENERGY PREDICTED BY IDOCK:   -5.45 KCAL/MOL
REMARK 922        TOTAL FREE ENERGY PREDICTED BY IDOCK:   -8.70 KCAL/MOL
REMARK 923 INTER-LIGAND FREE ENERGY PREDICTED BY IDOCK:   -7.90 KCAL/MOL
REMARK 924 INTRA-LIGAND FREE ENERGY PREDICTED BY IDOCK:   -0.80 KCAL/MOL
REMARK 927      BINDING AFFINITY PREDICTED BY RF-SCORE:    0.00 PKD
ROOT
HETATM    1  O   UNL     1      -7.160   6.047  67.570  1.00  0.00    -0.070 OA 
HETATM    2  C   UNL     1      -8.174   6.476  68.115  1.00  0.00    -0.117 C  
HETATM    3  C   UNL     1      -9.505   6.555  67.405  1.00  0.00    -0.135 C  
HETATM    4  C   UNL     1     -10.685   6.355  68.348  1.00  0.00    -0.349 C  
HETATM    5  C   UNL     1     -10.536   7.132  69.629  1.00  0.00    -0.241 A  
HETATM    6  C   UNL     1      -9.249   7.430  70.094  1.00  0.00    -0.151 A  
HETATM    7  N   UNL     1      -8.126   7.026  69.366  1.00  0.00    -0.128 N  
HETATM    8  C   UNL     1      -9.078   8.086  71.309  1.00  0.00    -0.168 A  
HETATM    9  C   UNL     1     -10.195   8.439  72.076  1.00  0.00    -0.364 A  
HETATM   10  H   UNL     1      -7.211   7.150  69.796  1.00  0.00     0.000 HD 
HETATM   11  C   UNL     1     -11.489   8.122  71.652  1.00  0.00    -0.274 A  
HETATM   12  C   UNL     1     -11.655   7.468  70.423  1.00  0.00    -0.172 A  
ENDROOT
BRANCH  11  13
HETATM   13  O   UNL     1     -12.480   8.494  72.531  1.00  0.00    -0.383 OA 
BRANCH  13  14
HETATM   14  C   UNL     1     -13.397   9.496  72.091  1.00  0.00    -0.461 C  
BRANCH  14  15
HETATM   15  C   UNL     1     -12.670  10.836  71.827  1.00  0.00    -0.464 C  
BRANCH  15  16
HETATM   16  C   UNL     1     -13.011  11.318  70.410  1.00  0.00     0.003 C  
BRANCH  16  17
HETATM   17  C   UNL     1     -11.863  11.736  69.484  1.00  0.00    -0.402 C  
BRANCH  17  18
HETATM   18  C   UNL     1     -11.828  13.176  69.113  1.00  0.00    -0.314 A  
HETATM   19  N   UNL     1     -12.276  14.123  69.921  1.00  0.00    -0.346 NA 
HETATM   20  N   UNL     1     -12.016  15.317  69.322  1.00  0.00    -0.317 NA 
HETATM   21  N   UNL     1     -11.438  15.132  68.152  1.00  0.00    -0.333 NA 
HETATM   22  N   UNL     1     -11.252  13.797  68.022  1.00  0.00    -0.256 NA 
BRANCH  22  23
HETATM   23  C   UNL     1     -10.620  13.329  66.791  1.00  0.00    -0.276 C  
HETATM   24  C   UNL     1     -11.581  12.471  65.922  1.00  0.00    -0.454 C  
HETATM   25  C   UNL     1     -12.701  13.325  65.323  1.00  0.00    -0.474 C  
HETATM   26  C   UNL     1     -12.129  14.430  64.442  1.00  0.00    -0.491 C  
HETATM   27  C   UNL     1     -11.058  15.253  65.159  1.00  0.00    -0.412 C  
HETATM   28  C   UNL     1     -10.008  14.377  65.846  1.00  0.00    -0.350 C  
ENDBRANCH  22  23
ENDBRANCH  17  18
ENDBRANCH  16  17
ENDBRANCH  15  16
ENDBRANCH  14  15
ENDBRANCH  13  14
ENDBRANCH  11  13
TORSDOF 7
ENDMDL
MODEL      135
REMARK 921   NORMALIZED FREE ENERGY PREDICTED BY IDOCK:   -5.45 KCAL/MOL
REMARK 922        TOTAL FREE ENERGY PREDICTED BY IDOCK:   -8.69 KCAL/MOL
REMARK 923 INTER-LIGAND FREE ENERGY PREDICTED BY IDOCK:   -6.75 KCAL/MOL
REMARK 924 INTRA-LIGAND FREE ENERGY PREDICTED BY IDOCK:   -1.94 KCAL/MOL
REMARK 927      BINDING AFFINITY PREDICTED BY RF-SCORE:    0.00 PKD
ROOT
HETATM    1  O   UNL     1      -8.512   9.338  64.344  1.00  0.00    -0.168 OA 
HETATM    2  C   UNL     1      -8.505   8.594  65.323  1.00  0.00    -0.179 C  
HETATM    3  C   UNL     1      -7.228   8.051  65.919  1.00  0.00    -0.065 C  
HETATM    4  C   UNL     1      -7.326   7.846  67.426  1.00  0.00    -0.092 C  
HETATM    5  C   UNL     1      -8.616   7.187  67.834  1.00  0.00    -0.123 A  
HETATM    6  C   UNL     1      -9.749   7.357  67.027  1.00  0.00    -0.191 A  
HETATM    7  N   UNL     1      -9.669   8.112  65.854  1.00  0.00    -0.447 N  
HETATM    8  C   UNL     1     -10.972   6.819  67.414  1.00  0.00    -0.407 A  
HETATM    9  C   UNL     1     -11.075   6.114  68.619  1.00  0.00    -0.378 A  
HETATM   10  H   UNL     1     -10.538   8.317  65.361  1.00  0.00     0.000 HD 
HETATM   11  C   UNL     1      -9.968   5.959  69.461  1.00  0.00    -0.185 A  
HETATM   12  C   UNL     1      -8.737   6.498  69.061  1.00  0.00    -0.128 A  
ENDROOT
BRANCH  11  13
HETATM   13  O   UNL     1     -10.235   5.281  70.628  1.00  0.00    -0.226 OA 
BRANCH  13  14
HETATM   14  C   UNL     1     -10.191   6.032  71.841  1.00  0.00    -0.200 C  
BRANCH  14  15
HETATM   15  C   UNL     1     -11.596   6.561  72.216  1.00  0.00    -0.330 C  
BRANCH  15  16
HETATM   16  C   UNL     1     -11.533   8.089  72.356  1.00  0.00    -0.449 C  
BRANCH  16  17
HETATM   17  C   UNL     1     -11.554   8.942  71.082  1.00  0.00    -0.360 C  
BRANCH  17  18
HETATM   18  C   UNL     1     -10.235   9.456  70.630  1.00  0.00    -0.288 A  
HETATM   19  N   UNL     1      -9.120   9.228  71.305  1.00  0.00    -0.292 NA 
HETATM   20  N   UNL     1      -8.097   9.754  70.578  1.00  0.00    -0.249 NA 
HETATM   21  N   UNL     1      -8.552  10.322  69.480  1.00  0.00    -0.164 NA 
HETATM   22  N   UNL     1      -9.887  10.096  69.456  1.00  0.00    -0.227 NA 
BRANCH  22  23
HETATM   23  C   UNL     1     -10.634  10.635  68.322  1.00  0.00    -0.194 C  
HETATM   24  C   UNL     1     -11.929  11.373  68.763  1.00  0.00    -0.353 C  
HETATM   25  C   UNL     1     -11.603  12.678  69.494  1.00  0.00    -0.348 C  
HETATM   26  C   UNL     1     -10.806  13.619  68.598  1.00  0.00    -0.283 C  
HETATM   27  C   UNL     1      -9.577  12.943  67.989  1.00  0.00    -0.221 C  
HETATM   28  C   UNL     1      -9.904  11.587  67.359  1.00  0.00    -0.202 C  
ENDBRANCH  22  23
ENDBRANCH  17  18
ENDBRANCH  16  17
ENDBRANCH  15  16
ENDBRANCH  14  15
ENDBRANCH  13  14
ENDBRANCH  11  13
TORSDOF 7
ENDMDL
MODEL      136
REMARK 921   NORMALIZED FREE ENERGY PREDICTED BY IDOCK:   -5.44 KCAL/MOL
REMARK 922        TOTAL FREE ENERGY PREDICTED BY IDOCK:   -8.69 KCAL/MOL
REMARK 923 INTER-LIGAND FREE ENERGY PREDICTED BY IDOCK:   -7.77 KCAL/MOL
REMARK 924 INTRA-LIGAND FREE ENERGY PREDICTED BY IDOCK:   -0.92 KCAL/MOL
REMARK 927      BINDING AFFINITY PREDICTED BY RF-SCORE:    0.00 PKD
ROOT
HETATM    1  O   UNL     1      -8.957   4.541  64.584  1.00  0.00    -0.145 OA 
HETATM    2  C   UNL     1      -9.374   5.064  65.615  1.00  0.00    -0.154 C  
HETATM    3  C   UNL     1      -9.898   4.255  66.779  1.00  0.00    -0.230 C  
HETATM    4  C   UNL     1      -9.635   4.925  68.123  1.00  0.00    -0.191 C  
HETATM    5  C   UNL     1      -9.950   6.397  68.103  1.00  0.00    -0.143 A  
HETATM    6  C   UNL     1      -9.861   7.093  66.891  1.00  0.00    -0.208 A  
HETATM    7  N   UNL     1      -9.504   6.421  65.719  1.00  0.00    -0.380 N  
HETATM    8  C   UNL     1     -10.079   8.466  66.854  1.00  0.00    -0.364 A  
HETATM    9  C   UNL     1     -10.376   9.158  68.034  1.00  0.00    -0.272 A  
HETATM   10  H   UNL     1      -9.328   6.980  64.885  1.00  0.00     0.000 HD 
HETATM   11  C   UNL     1     -10.436   8.494  69.264  1.00  0.00    -0.215 A  
HETATM   12  C   UNL     1     -10.224   7.109  69.293  1.00  0.00    -0.193 A  
ENDROOT
BRANCH  11  13
HETATM   13  O   UNL     1     -10.696   9.314  70.338  1.00  0.00    -0.218 OA 
BRANCH  13  14
HETATM   14  C   UNL     1     -11.974   9.186  70.960  1.00  0.00    -0.282 C  
BRANCH  14  15
HETATM   15  C   UNL     1     -12.766  10.512  70.877  1.00  0.00    -0.495 C  
BRANCH  15  16
HETATM   16  C   UNL     1     -11.840  11.614  70.343  1.00  0.00    -0.385 C  
BRANCH  16  17
HETATM   17  C   UNL     1     -12.009  12.069  68.888  1.00  0.00    -0.303 C  
BRANCH  17  18
HETATM   18  C   UNL     1     -11.862  13.529  68.650  1.00  0.00    -0.369 A  
HETATM   19  N   UNL     1     -11.458  14.361  69.597  1.00  0.00    -0.271 NA 
HETATM   20  N   UNL     1     -11.348  15.592  69.029  1.00  0.00    -0.306 NA 
HETATM   21  N   UNL     1     -11.694  15.549  67.758  1.00  0.00    -0.191 NA 
HETATM   22  N   UNL     1     -11.964  14.252  67.477  1.00  0.00    -0.393 NA 
BRANCH  22  23
HETATM   23  C   UNL     1     -12.378  13.937  66.112  1.00  0.00    -0.465 C  
HETATM   24  C   UNL     1     -11.626  14.791  65.054  1.00  0.00    -0.378 C  
HETATM   25  C   UNL     1     -10.150  14.393  64.968  1.00  0.00    -0.322 C  
HETATM   26  C   UNL     1     -10.004  12.926  64.580  1.00  0.00    -0.153 C  
HETATM   27  C   UNL     1     -10.828  12.001  65.477  1.00  0.00    -0.336 C  
HETATM   28  C   UNL     1     -12.274  12.477  65.640  1.00  0.00    -0.403 C  
ENDBRANCH  22  23
ENDBRANCH  17  18
ENDBRANCH  16  17
ENDBRANCH  15  16
ENDBRANCH  14  15
ENDBRANCH  13  14
ENDBRANCH  11  13
TORSDOF 7
ENDMDL
MODEL      137
REMARK 921   NORMALIZED FREE ENERGY PREDICTED BY IDOCK:   -5.44 KCAL/MOL
REMARK 922        TOTAL FREE ENERGY PREDICTED BY IDOCK:   -8.68 KCAL/MOL
REMARK 923 INTER-LIGAND FREE ENERGY PREDICTED BY IDOCK:   -8.17 KCAL/MOL
REMARK 924 INTRA-LIGAND FREE ENERGY PREDICTED BY IDOCK:   -0.50 KCAL/MOL
REMARK 927      BINDING AFFINITY PREDICTED BY RF-SCORE:    0.00 PKD
ROOT
HETATM    1  O   UNL     1     -10.002  17.727  65.802  1.00  0.00    -0.545 OA 
HETATM    2  C   UNL     1     -10.452  16.634  66.142  1.00  0.00    -0.285 C  
HETATM    3  C   UNL     1     -10.751  15.536  65.148  1.00  0.00    -0.460 C  
HETATM    4  C   UNL     1     -10.543  14.145  65.733  1.00  0.00    -0.306 C  
HETATM    5  C   UNL     1     -11.128  14.008  67.113  1.00  0.00    -0.313 A  
HETATM    6  C   UNL     1     -11.239  15.149  67.918  1.00  0.00    -0.329 A  
HETATM    7  N   UNL     1     -10.828  16.394  67.434  1.00  0.00    -0.269 N  
HETATM    8  C   UNL     1     -11.711  15.043  69.223  1.00  0.00    -0.349 A  
HETATM    9  C   UNL     1     -12.067  13.790  69.737  1.00  0.00    -0.400 A  
HETATM   10  H   UNL     1     -10.806  17.175  68.089  1.00  0.00     0.000 HD 
HETATM   11  C   UNL     1     -11.933  12.630  68.967  1.00  0.00    -0.236 A  
HETATM   12  C   UNL     1     -11.464  12.745  67.651  1.00  0.00    -0.387 A  
ENDROOT
BRANCH  11  13
HETATM   13  O   UNL     1     -12.281  11.472  69.624  1.00  0.00    -0.286 OA 
BRANCH  13  14
HETATM   14  C   UNL     1     -12.219  11.489  71.050  1.00  0.00    -0.263 C  
BRANCH  14  15
HETATM   15  C   UNL     1     -13.063  10.342  71.654  1.00  0.00    -0.553 C  
BRANCH  15  16
HETATM   16  C   UNL     1     -12.406   9.000  71.301  1.00  0.00    -0.361 C  
BRANCH  16  17
HETATM   17  C   UNL     1     -11.392   8.401  72.282  1.00  0.00    -0.448 C  
BRANCH  17  18
HETATM   18  C   UNL     1      -9.969   8.463  71.855  1.00  0.00    -0.261 A  
HETATM   19  N   UNL     1      -9.011   8.901  72.656  1.00  0.00    -0.245 NA 
HETATM   20  N   UNL     1      -7.833   8.743  71.994  1.00  0.00    -0.340 NA 
HETATM   21  N   UNL     1      -8.038   8.238  70.794  1.00  0.00    -0.102 NA 
HETATM   22  N   UNL     1      -9.368   7.995  70.703  1.00  0.00    -0.157 NA 
BRANCH  22  23
HETATM   23  C   UNL     1      -9.856   7.427  69.449  1.00  0.00    -0.168 C  
HETATM   24  C   UNL     1      -8.700   7.024  68.492  1.00  0.00    -0.122 C  
HETATM   25  C   UNL     1      -7.928   5.817  69.032  1.00  0.00    -0.098 C  
HETATM   26  C   UNL     1      -8.848   4.612  69.195  1.00  0.00    -0.126 C  
HETATM   27  C   UNL     1     -10.102   4.940  70.006  1.00  0.00    -0.337 C  
HETATM   28  C   UNL     1     -10.799   6.214  69.520  1.00  0.00    -0.428 C  
ENDBRANCH  22  23
ENDBRANCH  17  18
ENDBRANCH  16  17
ENDBRANCH  15  16
ENDBRANCH  14  15
ENDBRANCH  13  14
ENDBRANCH  11  13
TORSDOF 7
ENDMDL
MODEL      138
REMARK 921   NORMALIZED FREE ENERGY PREDICTED BY IDOCK:   -5.43 KCAL/MOL
REMARK 922        TOTAL FREE ENERGY PREDICTED BY IDOCK:   -8.67 KCAL/MOL
REMARK 923 INTER-LIGAND FREE ENERGY PREDICTED BY IDOCK:   -8.18 KCAL/MOL
REMARK 924 INTRA-LIGAND FREE ENERGY PREDICTED BY IDOCK:   -0.49 KCAL/MOL
REMARK 927      BINDING AFFINITY PREDICTED BY RF-SCORE:    0.00 PKD
ROOT
HETATM    1  O   UNL     1     -11.045   5.743  69.437  1.00  0.00    -0.346 OA 
HETATM    2  C   UNL     1     -10.836   6.864  68.978  1.00  0.00    -0.212 C  
HETATM    3  C   UNL     1     -10.046   7.086  67.710  1.00  0.00    -0.205 C  
HETATM    4  C   UNL     1     -10.522   8.306  66.929  1.00  0.00    -0.365 C  
HETATM    5  C   UNL     1     -10.760   9.499  67.815  1.00  0.00    -0.302 A  
HETATM    6  C   UNL     1     -11.103   9.289  69.157  1.00  0.00     0.024 A  
HETATM    7  N   UNL     1     -11.204   7.989  69.662  1.00  0.00    -0.447 N  
HETATM    8  C   UNL     1     -11.397  10.369  69.983  1.00  0.00    -0.384 A  
HETATM    9  C   UNL     1     -11.359  11.671  69.469  1.00  0.00    -0.328 A  
HETATM   10  H   UNL     1     -11.576   7.873  70.604  1.00  0.00     0.000 HD 
HETATM   11  C   UNL     1     -11.054  11.907  68.125  1.00  0.00    -0.242 A  
HETATM   12  C   UNL     1     -10.752  10.815  67.300  1.00  0.00    -0.325 A  
ENDROOT
BRANCH  11  13
HETATM   13  O   UNL     1     -11.099  13.233  67.759  1.00  0.00    -0.250 OA 
BRANCH  13  14
HETATM   14  C   UNL     1     -11.916  13.570  66.638  1.00  0.00    -0.404 C  
BRANCH  14  15
HETATM   15  C   UNL     1     -11.381  14.834  65.923  1.00  0.00    -0.331 C  
BRANCH  15  16
HETATM   16  C   UNL     1     -10.414  15.567  66.863  1.00  0.00    -0.301 C  
BRANCH  16  17
HETATM   17  C   UNL     1      -9.484  16.632  66.271  1.00  0.00    -0.321 C  
BRANCH  17  18
HETATM   18  C   UNL     1      -9.770  18.034  66.677  1.00  0.00    -0.332 A  
HETATM   19  N   UNL     1     -10.863  18.366  67.344  1.00  0.00    -0.355 NA 
HETATM   20  N   UNL     1     -10.770  19.692  67.631  1.00  0.00    -0.425 NA 
HETATM   21  N   UNL     1      -9.657  20.196  67.138  1.00  0.00    -0.393 NA 
HETATM   22  N   UNL     1      -8.979  19.162  66.585  1.00  0.00    -0.315 NA 
BRANCH  22  23
HETATM   23  C   UNL     1      -7.694  19.466  65.961  1.00  0.00    -0.296 C  
HETATM   24  C   UNL     1      -7.015  20.718  66.584  1.00  0.00    -0.311 C  
HETATM   25  C   UNL     1      -6.543  20.441  68.013  1.00  0.00    -0.340 C  
HETATM   26  C   UNL     1      -5.536  19.296  68.041  1.00  0.00    -0.202 C  
HETATM   27  C   UNL     1      -6.051  18.049  67.321  1.00  0.00    -0.168 C  
HETATM   28  C   UNL     1      -6.621  18.364  65.936  1.00  0.00    -0.306 C  
ENDBRANCH  22  23
ENDBRANCH  17  18
ENDBRANCH  16  17
ENDBRANCH  15  16
ENDBRANCH  14  15
ENDBRANCH  13  14
ENDBRANCH  11  13
TORSDOF 7
ENDMDL
MODEL      139
REMARK 921   NORMALIZED FREE ENERGY PREDICTED BY IDOCK:   -5.42 KCAL/MOL
REMARK 922        TOTAL FREE ENERGY PREDICTED BY IDOCK:   -8.65 KCAL/MOL
REMARK 923 INTER-LIGAND FREE ENERGY PREDICTED BY IDOCK:   -7.80 KCAL/MOL
REMARK 924 INTRA-LIGAND FREE ENERGY PREDICTED BY IDOCK:   -0.85 KCAL/MOL
REMARK 927      BINDING AFFINITY PREDICTED BY RF-SCORE:    0.00 PKD
ROOT
HETATM    1  O   UNL     1     -13.885   8.931  72.742  1.00  0.00    -0.407 OA 
HETATM    2  C   UNL     1     -12.938   8.424  72.144  1.00  0.00    -0.337 C  
HETATM    3  C   UNL     1     -12.882   6.951  71.816  1.00  0.00    -0.349 C  
HETATM    4  C   UNL     1     -12.136   6.668  70.518  1.00  0.00    -0.302 C  
HETATM    5  C   UNL     1     -10.855   7.452  70.408  1.00  0.00    -0.258 A  
HETATM    6  C   UNL     1     -10.750   8.676  71.080  1.00  0.00    -0.228 A  
HETATM    7  N   UNL     1     -11.816   9.148  71.852  1.00  0.00    -0.370 N  
HETATM    8  C   UNL     1      -9.606   9.456  70.942  1.00  0.00    -0.301 A  
HETATM    9  C   UNL     1      -8.559   9.020  70.121  1.00  0.00    -0.169 A  
HETATM   10  H   UNL     1     -11.752  10.096  72.221  1.00  0.00     0.000 HD 
HETATM   11  C   UNL     1      -8.652   7.818  69.412  1.00  0.00    -0.135 A  
HETATM   12  C   UNL     1      -9.804   7.034  69.561  1.00  0.00    -0.161 A  
ENDROOT
BRANCH  11  13
HETATM   13  O   UNL     1      -7.564   7.546  68.615  1.00  0.00    -0.104 OA 
BRANCH  13  14
HETATM   14  C   UNL     1      -7.216   8.523  67.633  1.00  0.00    -0.084 C  
BRANCH  14  15
HETATM   15  C   UNL     1      -8.372   8.732  66.626  1.00  0.00    -0.108 C  
BRANCH  15  16
HETATM   16  C   UNL     1      -9.049  10.079  66.916  1.00  0.00    -0.157 C  
BRANCH  16  17
HETATM   17  C   UNL     1     -10.562  10.099  67.165  1.00  0.00    -0.308 C  
BRANCH  17  18
HETATM   18  C   UNL     1     -11.136  11.419  67.535  1.00  0.00    -0.281 A  
HETATM   19  N   UNL     1     -11.867  11.590  68.625  1.00  0.00    -0.432 NA 
HETATM   20  N   UNL     1     -12.154  12.917  68.711  1.00  0.00    -0.226 NA 
HETATM   21  N   UNL     1     -11.637  13.570  67.691  1.00  0.00    -0.318 NA 
HETATM   22  N   UNL     1     -10.939  12.663  66.967  1.00  0.00    -0.257 NA 
BRANCH  22  23
HETATM   23  C   UNL     1     -10.264  13.146  65.765  1.00  0.00    -0.289 C  
HETATM   24  C   UNL     1     -10.346  12.130  64.592  1.00  0.00    -0.328 C  
HETATM   25  C   UNL     1     -11.774  12.019  64.052  1.00  0.00    -0.498 C  
HETATM   26  C   UNL     1     -12.270  13.368  63.543  1.00  0.00    -0.468 C  
HETATM   27  C   UNL     1     -12.099  14.480  64.578  1.00  0.00    -0.501 C  
HETATM   28  C   UNL     1     -10.695  14.505  65.188  1.00  0.00    -0.422 C  
ENDBRANCH  22  23
ENDBRANCH  17  18
ENDBRANCH  16  17
ENDBRANCH  15  16
ENDBRANCH  14  15
ENDBRANCH  13  14
ENDBRANCH  11  13
TORSDOF 7
ENDMDL
MODEL      140
REMARK 921   NORMALIZED FREE ENERGY PREDICTED BY IDOCK:   -5.42 KCAL/MOL
REMARK 922        TOTAL FREE ENERGY PREDICTED BY IDOCK:   -8.65 KCAL/MOL
REMARK 923 INTER-LIGAND FREE ENERGY PREDICTED BY IDOCK:   -7.82 KCAL/MOL
REMARK 924 INTRA-LIGAND FREE ENERGY PREDICTED BY IDOCK:   -0.83 KCAL/MOL
REMARK 927      BINDING AFFINITY PREDICTED BY RF-SCORE:    0.00 PKD
ROOT
HETATM    1  O   UNL     1      -8.077   6.886  64.747  1.00  0.00    -0.125 OA 
HETATM    2  C   UNL     1      -8.516   8.017  64.942  1.00  0.00    -0.048 C  
HETATM    3  C   UNL     1      -8.141   9.194  64.071  1.00  0.00    -0.151 C  
HETATM    4  C   UNL     1      -9.266  10.215  63.950  1.00  0.00    -0.322 C  
HETATM    5  C   UNL     1      -9.917  10.513  65.275  1.00  0.00    -0.364 A  
HETATM    6  C   UNL     1      -9.903   9.530  66.273  1.00  0.00    -0.266 A  
HETATM    7  N   UNL     1      -9.276   8.302  66.042  1.00  0.00    -0.298 N  
HETATM    8  C   UNL     1     -10.556   9.750  67.482  1.00  0.00    -0.335 A  
HETATM    9  C   UNL     1     -11.239  10.952  67.698  1.00  0.00    -0.379 A  
HETATM   10  H   UNL     1      -9.395   7.570  66.741  1.00  0.00     0.000 HD 
HETATM   11  C   UNL     1     -11.299  11.936  66.705  1.00  0.00    -0.330 A  
HETATM   12  C   UNL     1     -10.633  11.711  65.493  1.00  0.00    -0.329 A  
ENDROOT
BRANCH  11  13
HETATM   13  O   UNL     1     -12.042  13.042  67.049  1.00  0.00    -0.362 OA 
BRANCH  13  14
HETATM   14  C   UNL     1     -11.904  13.530  68.383  1.00  0.00    -0.373 C  
BRANCH  14  15
HETATM   15  C   UNL     1     -11.340  14.970  68.391  1.00  0.00    -0.323 C  
BRANCH  15  16
HETATM   16  C   UNL     1      -9.912  14.944  68.953  1.00  0.00    -0.233 C  
BRANCH  16  17
HETATM   17  C   UNL     1      -8.742  15.168  67.989  1.00  0.00    -0.165 C  
BRANCH  17  18
HETATM   18  C   UNL     1      -7.869  16.332  68.296  1.00  0.00    -0.164 A  
HETATM   19  N   UNL     1      -7.013  16.324  69.305  1.00  0.00    -0.210 NA 
HETATM   20  N   UNL     1      -6.318  17.493  69.250  1.00  0.00    -0.235 NA 
HETATM   21  N   UNL     1      -6.736  18.234  68.244  1.00  0.00    -0.211 NA 
HETATM   22  N   UNL     1      -7.670  17.502  67.590  1.00  0.00    -0.197 NA 
BRANCH  22  23
HETATM   23  C   UNL     1      -8.296  18.114  66.421  1.00  0.00    -0.245 C  
HETATM   24  C   UNL     1      -9.798  17.737  66.289  1.00  0.00    -0.301 C  
HETATM   25  C   UNL     1     -10.633  18.390  67.394  1.00  0.00    -0.445 C  
HETATM   26  C   UNL     1     -10.521  19.910  67.333  1.00  0.00    -0.542 C  
HETATM   27  C   UNL     1      -9.069  20.387  67.310  1.00  0.00    -0.500 C  
HETATM   28  C   UNL     1      -8.222  19.643  66.274  1.00  0.00    -0.363 C  
ENDBRANCH  22  23
ENDBRANCH  17  18
ENDBRANCH  16  17
ENDBRANCH  15  16
ENDBRANCH  14  15
ENDBRANCH  13  14
ENDBRANCH  11  13
TORSDOF 7
ENDMDL
MODEL      141
REMARK 921   NORMALIZED FREE ENERGY PREDICTED BY IDOCK:   -5.41 KCAL/MOL
REMARK 922        TOTAL FREE ENERGY PREDICTED BY IDOCK:   -8.64 KCAL/MOL
REMARK 923 INTER-LIGAND FREE ENERGY PREDICTED BY IDOCK:   -7.60 KCAL/MOL
REMARK 924 INTRA-LIGAND FREE ENERGY PREDICTED BY IDOCK:   -1.04 KCAL/MOL
REMARK 927      BINDING AFFINITY PREDICTED BY RF-SCORE:    0.00 PKD
ROOT
HETATM    1  O   UNL     1     -12.507  15.836  70.395  1.00  0.00    -0.399 OA 
HETATM    2  C   UNL     1     -12.542  14.691  70.840  1.00  0.00    -0.342 C  
HETATM    3  C   UNL     1     -12.977  14.383  72.254  1.00  0.00    -0.455 C  
HETATM    4  C   UNL     1     -13.669  13.031  72.372  1.00  0.00    -0.593 C  
HETATM    5  C   UNL     1     -12.946  11.947  71.619  1.00  0.00    -0.447 A  
HETATM    6  C   UNL     1     -12.173  12.296  70.504  1.00  0.00    -0.300 A  
HETATM    7  N   UNL     1     -12.065  13.634  70.115  1.00  0.00    -0.347 N  
HETATM    8  C   UNL     1     -11.549  11.310  69.747  1.00  0.00    -0.408 A  
HETATM    9  C   UNL     1     -11.702   9.962  70.093  1.00  0.00    -0.239 A  
HETATM   10  H   UNL     1     -11.599  13.836  69.231  1.00  0.00     0.000 HD 
HETATM   11  C   UNL     1     -12.497   9.583  71.180  1.00  0.00    -0.315 A  
HETATM   12  C   UNL     1     -13.116  10.582  71.943  1.00  0.00    -0.567 A  
ENDROOT
BRANCH  11  13
HETATM   13  O   UNL     1     -12.586   8.223  71.368  1.00  0.00    -0.305 OA 
BRANCH  13  14
HETATM   14  C   UNL     1     -11.911   7.678  72.502  1.00  0.00    -0.263 C  
BRANCH  14  15
HETATM   15  C   UNL     1     -11.354   6.268  72.190  1.00  0.00    -0.343 C  
BRANCH  15  16
HETATM   16  C   UNL     1      -9.832   6.362  72.013  1.00  0.00    -0.169 C  
BRANCH  16  17
HETATM   17  C   UNL     1      -9.239   7.657  71.447  1.00  0.00    -0.152 C  
BRANCH  17  18
HETATM   18  C   UNL     1      -8.172   8.289  72.268  1.00  0.00    -0.155 A  
HETATM   19  N   UNL     1      -8.268   8.402  73.583  1.00  0.00    -0.377 NA 
HETATM   20  N   UNL     1      -7.098   8.937  74.025  1.00  0.00    -0.385 NA 
HETATM   21  N   UNL     1      -6.288   9.180  73.015  1.00  0.00    -0.310 NA 
HETATM   22  N   UNL     1      -6.914   8.726  71.903  1.00  0.00    -0.226 NA 
BRANCH  22  23
HETATM   23  C   UNL     1      -6.212   8.883  70.631  1.00  0.00    -0.042 C  
HETATM   24  C   UNL     1      -7.187   9.030  69.431  1.00  0.00    -0.057 C  
HETATM   25  C   UNL     1      -7.929  10.368  69.478  1.00  0.00    -0.152 C  
HETATM   26  C   UNL     1      -6.948  11.535  69.433  1.00  0.00    -0.071 C  
HETATM   27  C   UNL     1      -5.849  11.414  70.490  1.00  0.00    -0.131 C  
HETATM   28  C   UNL     1      -5.195  10.030  70.501  1.00  0.00    -0.047 C  
ENDBRANCH  22  23
ENDBRANCH  17  18
ENDBRANCH  16  17
ENDBRANCH  15  16
ENDBRANCH  14  15
ENDBRANCH  13  14
ENDBRANCH  11  13
TORSDOF 7
ENDMDL
MODEL      142
REMARK 921   NORMALIZED FREE ENERGY PREDICTED BY IDOCK:   -5.40 KCAL/MOL
REMARK 922        TOTAL FREE ENERGY PREDICTED BY IDOCK:   -8.63 KCAL/MOL
REMARK 923 INTER-LIGAND FREE ENERGY PREDICTED BY IDOCK:   -7.48 KCAL/MOL
REMARK 924 INTRA-LIGAND FREE ENERGY PREDICTED BY IDOCK:   -1.15 KCAL/MOL
REMARK 927      BINDING AFFINITY PREDICTED BY RF-SCORE:    0.00 PKD
ROOT
HETATM    1  O   UNL     1     -12.412  15.558  70.446  1.00  0.00    -0.400 OA 
HETATM    2  C   UNL     1     -12.496  14.408  70.872  1.00  0.00    -0.354 C  
HETATM    3  C   UNL     1     -13.082  14.086  72.227  1.00  0.00    -0.516 C  
HETATM    4  C   UNL     1     -13.785  12.734  72.254  1.00  0.00    -0.495 C  
HETATM    5  C   UNL     1     -12.987  11.656  71.571  1.00  0.00    -0.463 A  
HETATM    6  C   UNL     1     -12.098  12.016  70.550  1.00  0.00    -0.311 A  
HETATM    7  N   UNL     1     -11.946  13.358  70.190  1.00  0.00    -0.416 N  
HETATM    8  C   UNL     1     -11.398  11.037  69.853  1.00  0.00    -0.364 A  
HETATM    9  C   UNL     1     -11.590   9.686  70.165  1.00  0.00    -0.193 A  
HETATM   10  H   UNL     1     -11.387  13.569  69.363  1.00  0.00     0.000 HD 
HETATM   11  C   UNL     1     -12.498   9.296  71.155  1.00  0.00    -0.272 A  
HETATM   12  C   UNL     1     -13.194  10.289  71.859  1.00  0.00    -0.550 A  
ENDROOT
BRANCH  11  13
HETATM   13  O   UNL     1     -12.609   7.935  71.317  1.00  0.00    -0.304 OA 
BRANCH  13  14
HETATM   14  C   UNL     1     -11.925   7.354  72.427  1.00  0.00    -0.193 C  
BRANCH  14  15
HETATM   15  C   UNL     1     -11.510   5.895  72.120  1.00  0.00    -0.333 C  
BRANCH  15  16
HETATM   16  C   UNL     1     -10.212   5.908  71.299  1.00  0.00    -0.262 C  
BRANCH  16  17
HETATM   17  C   UNL     1     -10.200   5.200  69.939  1.00  0.00    -0.361 C  
BRANCH  17  18
HETATM   18  C   UNL     1     -10.135   6.090  68.750  1.00  0.00    -0.168 A  
HETATM   19  N   UNL     1     -11.185   6.310  67.976  1.00  0.00    -0.261 NA 
HETATM   20  N   UNL     1     -10.812   7.230  67.045  1.00  0.00    -0.354 NA 
HETATM   21  N   UNL     1      -9.549   7.570  67.210  1.00  0.00    -0.147 NA 
HETATM   22  N   UNL     1      -9.116   6.914  68.313  1.00  0.00    -0.127 NA 
BRANCH  22  23
HETATM   23  C   UNL     1      -7.726   7.125  68.711  1.00  0.00    -0.116 C  
HETATM   24  C   UNL     1      -7.053   8.279  67.918  1.00  0.00    -0.083 C  
HETATM   25  C   UNL     1      -7.638   9.638  68.311  1.00  0.00    -0.078 C  
HETATM   26  C   UNL     1      -7.435   9.907  69.798  1.00  0.00    -0.140 C  
HETATM   27  C   UNL     1      -7.936   8.757  70.672  1.00  0.00    -0.130 C  
HETATM   28  C   UNL     1      -7.429   7.393  70.196  1.00  0.00    -0.087 C  
ENDBRANCH  22  23
ENDBRANCH  17  18
ENDBRANCH  16  17
ENDBRANCH  15  16
ENDBRANCH  14  15
ENDBRANCH  13  14
ENDBRANCH  11  13
TORSDOF 7
ENDMDL
MODEL      143
REMARK 921   NORMALIZED FREE ENERGY PREDICTED BY IDOCK:   -5.40 KCAL/MOL
REMARK 922        TOTAL FREE ENERGY PREDICTED BY IDOCK:   -8.62 KCAL/MOL
REMARK 923 INTER-LIGAND FREE ENERGY PREDICTED BY IDOCK:   -7.80 KCAL/MOL
REMARK 924 INTRA-LIGAND FREE ENERGY PREDICTED BY IDOCK:   -0.82 KCAL/MOL
REMARK 927      BINDING AFFINITY PREDICTED BY RF-SCORE:    0.00 PKD
ROOT
HETATM    1  O   UNL     1     -10.330   9.968  66.074  1.00  0.00    -0.231 OA 
HETATM    2  C   UNL     1     -10.330  11.195  66.139  1.00  0.00    -0.250 C  
HETATM    3  C   UNL     1      -9.554  11.951  67.192  1.00  0.00    -0.192 C  
HETATM    4  C   UNL     1      -9.054  13.302  66.695  1.00  0.00    -0.181 C  
HETATM    5  C   UNL     1     -10.107  14.060  65.932  1.00  0.00    -0.336 A  
HETATM    6  C   UNL     1     -11.111  13.343  65.268  1.00  0.00    -0.291 A  
HETATM    7  N   UNL     1     -11.138  11.947  65.332  1.00  0.00    -0.313 N  
HETATM    8  C   UNL     1     -12.058  14.012  64.499  1.00  0.00    -0.484 A  
HETATM    9  C   UNL     1     -12.001  15.406  64.378  1.00  0.00    -0.235 A  
HETATM   10  H   UNL     1     -11.804  11.457  64.737  1.00  0.00     0.000 HD 
HETATM   11  C   UNL     1     -10.990  16.143  65.002  1.00  0.00    -0.344 A  
HETATM   12  C   UNL     1     -10.044  15.464  65.782  1.00  0.00    -0.391 A  
ENDROOT
BRANCH  11  13
HETATM   13  O   UNL     1     -11.041  17.496  64.756  1.00  0.00    -0.959 OA 
BRANCH  13  14
HETATM   14  C   UNL     1     -10.261  18.341  65.601  1.00  0.00     0.067 C  
BRANCH  14  15
HETATM   15  C   UNL     1     -11.138  19.437  66.251  1.00  0.00    -0.080 C  
BRANCH  15  16
HETATM   16  C   UNL     1     -10.741  19.583  67.727  1.00  0.00    -0.487 C  
BRANCH  16  17
HETATM   17  C   UNL     1      -9.410  18.979  68.190  1.00  0.00    -0.385 C  
BRANCH  17  18
HETATM   18  C   UNL     1      -9.498  17.632  68.812  1.00  0.00    -0.250 A  
HETATM   19  N   UNL     1     -10.654  17.086  69.153  1.00  0.00    -0.328 NA 
HETATM   20  N   UNL     1     -10.387  15.831  69.605  1.00  0.00    -0.271 NA 
HETATM   21  N   UNL     1      -9.091  15.593  69.574  1.00  0.00    -0.272 NA 
HETATM   22  N   UNL     1      -8.513  16.686  69.023  1.00  0.00    -0.215 NA 
BRANCH  22  23
HETATM   23  C   UNL     1      -7.059  16.670  68.878  1.00  0.00    -0.205 C  
HETATM   24  C   UNL     1      -6.608  16.116  67.498  1.00  0.00    -0.200 C  
HETATM   25  C   UNL     1      -6.964  17.085  66.368  1.00  0.00    -0.267 C  
HETATM   26  C   UNL     1      -6.288  18.436  66.578  1.00  0.00    -0.215 C  
HETATM   27  C   UNL     1      -6.550  19.009  67.971  1.00  0.00    -0.244 C  
HETATM   28  C   UNL     1      -6.295  17.988  69.083  1.00  0.00    -0.246 C  
ENDBRANCH  22  23
ENDBRANCH  17  18
ENDBRANCH  16  17
ENDBRANCH  15  16
ENDBRANCH  14  15
ENDBRANCH  13  14
ENDBRANCH  11  13
TORSDOF 7
ENDMDL
MODEL      144
REMARK 921   NORMALIZED FREE ENERGY PREDICTED BY IDOCK:   -5.37 KCAL/MOL
REMARK 922        TOTAL FREE ENERGY PREDICTED BY IDOCK:   -8.58 KCAL/MOL
REMARK 923 INTER-LIGAND FREE ENERGY PREDICTED BY IDOCK:   -8.32 KCAL/MOL
REMARK 924 INTRA-LIGAND FREE ENERGY PREDICTED BY IDOCK:   -0.26 KCAL/MOL
REMARK 927      BINDING AFFINITY PREDICTED BY RF-SCORE:    0.00 PKD
ROOT
HETATM    1  O   UNL     1      -7.376   8.736  72.528  1.00  0.00    -0.323 OA 
HETATM    2  C   UNL     1      -7.890   8.965  71.436  1.00  0.00    -0.097 C  
HETATM    3  C   UNL     1      -9.356   8.722  71.163  1.00  0.00    -0.297 C  
HETATM    4  C   UNL     1      -9.935   9.707  70.154  1.00  0.00    -0.309 C  
HETATM    5  C   UNL     1      -9.033   9.909  68.965  1.00  0.00    -0.160 A  
HETATM    6  C   UNL     1      -7.654   9.723  69.122  1.00  0.00    -0.085 A  
HETATM    7  N   UNL     1      -7.132   9.338  70.360  1.00  0.00    -0.077 N  
HETATM    8  C   UNL     1      -6.788   9.970  68.061  1.00  0.00    -0.068 A  
HETATM    9  C   UNL     1      -7.296  10.417  66.835  1.00  0.00    -0.106 A  
HETATM   10  H   UNL     1      -6.119   9.334  70.469  1.00  0.00     0.000 HD 
HETATM   11  C   UNL     1      -8.665  10.645  66.662  1.00  0.00    -0.140 A  
HETATM   12  C   UNL     1      -9.532  10.386  67.733  1.00  0.00    -0.159 A  
ENDROOT
BRANCH  11  13
HETATM   13  O   UNL     1      -9.006  11.123  65.418  1.00  0.00    -0.195 OA 
BRANCH  13  14
HETATM   14  C   UNL     1     -10.248  10.681  64.869  1.00  0.00    -0.324 C  
BRANCH  14  15
HETATM   15  C   UNL     1     -10.683  11.582  63.689  1.00  0.00    -0.491 C  
BRANCH  15  16
HETATM   16  C   UNL     1     -12.182  11.887  63.820  1.00  0.00    -0.549 C  
BRANCH  16  17
HETATM   17  C   UNL     1     -12.633  12.893  64.885  1.00  0.00    -0.525 C  
BRANCH  17  18
HETATM   18  C   UNL     1     -12.100  14.273  64.734  1.00  0.00    -0.446 A  
HETATM   19  N   UNL     1     -12.580  15.119  63.836  1.00  0.00    -0.695 NA 
HETATM   20  N   UNL     1     -11.940  16.305  64.023  1.00  0.00    -0.878 NA 
HETATM   21  N   UNL     1     -11.060  16.210  64.999  1.00  0.00    -0.389 NA 
HETATM   22  N   UNL     1     -11.183  14.959  65.505  1.00  0.00    -0.342 NA 
BRANCH  22  23
HETATM   23  C   UNL     1     -10.301  14.600  66.613  1.00  0.00    -0.273 C  
HETATM   24  C   UNL     1      -8.821  14.987  66.341  1.00  0.00    -0.238 C  
HETATM   25  C   UNL     1      -8.634  16.506  66.351  1.00  0.00    -0.347 C  
HETATM   26  C   UNL     1      -9.035  17.094  67.700  1.00  0.00    -0.226 C  
HETATM   27  C   UNL     1     -10.432  16.654  68.136  1.00  0.00    -0.321 C  
HETATM   28  C   UNL     1     -10.637  15.141  68.012  1.00  0.00    -0.258 C  
ENDBRANCH  22  23
ENDBRANCH  17  18
ENDBRANCH  16  17
ENDBRANCH  15  16
ENDBRANCH  14  15
ENDBRANCH  13  14
ENDBRANCH  11  13
TORSDOF 7
ENDMDL
MODEL      145
REMARK 921   NORMALIZED FREE ENERGY PREDICTED BY IDOCK:   -5.36 KCAL/MOL
REMARK 922        TOTAL FREE ENERGY PREDICTED BY IDOCK:   -8.57 KCAL/MOL
REMARK 923 INTER-LIGAND FREE ENERGY PREDICTED BY IDOCK:   -7.70 KCAL/MOL
REMARK 924 INTRA-LIGAND FREE ENERGY PREDICTED BY IDOCK:   -0.87 KCAL/MOL
REMARK 927      BINDING AFFINITY PREDICTED BY RF-SCORE:    0.00 PKD
ROOT
HETATM    1  O   UNL     1     -11.485   5.586  72.623  1.00  0.00    -0.296 OA 
HETATM    2  C   UNL     1     -11.447   6.581  71.902  1.00  0.00    -0.301 C  
HETATM    3  C   UNL     1     -12.590   7.566  71.819  1.00  0.00    -0.363 C  
HETATM    4  C   UNL     1     -12.119   8.990  71.555  1.00  0.00    -0.410 C  
HETATM    5  C   UNL     1     -11.067   9.058  70.481  1.00  0.00    -0.297 A  
HETATM    6  C   UNL     1     -10.242   7.945  70.268  1.00  0.00    -0.200 A  
HETATM    7  N   UNL     1     -10.412   6.788  71.034  1.00  0.00    -0.210 N  
HETATM    8  C   UNL     1      -9.216   8.002  69.330  1.00  0.00    -0.152 A  
HETATM    9  C   UNL     1      -9.000   9.178  68.603  1.00  0.00    -0.136 A  
HETATM   10  H   UNL     1      -9.716   6.049  70.938  1.00  0.00     0.000 HD 
HETATM   11  C   UNL     1      -9.785  10.315  68.819  1.00  0.00    -0.177 A  
HETATM   12  C   UNL     1     -10.822  10.249  69.761  1.00  0.00    -0.332 A  
ENDROOT
BRANCH  11  13
HETATM   13  O   UNL     1      -9.424  11.405  68.061  1.00  0.00    -0.168 OA 
BRANCH  13  14
HETATM   14  C   UNL     1      -9.737  11.362  66.669  1.00  0.00    -0.200 C  
BRANCH  14  15
HETATM   15  C   UNL     1     -10.483  12.644  66.229  1.00  0.00    -0.270 C  
BRANCH  15  16
HETATM   16  C   UNL     1     -11.569  12.970  67.264  1.00  0.00    -0.409 C  
BRANCH  16  17
HETATM   17  C   UNL     1     -12.143  14.391  67.300  1.00  0.00    -0.358 C  
BRANCH  17  18
HETATM   18  C   UNL     1     -11.754  15.212  68.477  1.00  0.00    -0.325 A  
HETATM   19  N   UNL     1     -12.035  14.846  69.717  1.00  0.00    -0.306 NA 
HETATM   20  N   UNL     1     -11.466  15.764  70.545  1.00  0.00    -0.348 NA 
HETATM   21  N   UNL     1     -10.858  16.702  69.848  1.00  0.00    -0.295 NA 
HETATM   22  N   UNL     1     -10.971  16.348  68.545  1.00  0.00    -0.337 NA 
BRANCH  22  23
HETATM   23  C   UNL     1     -10.371  17.241  67.558  1.00  0.00    -0.346 C  
HETATM   24  C   UNL     1      -9.162  18.032  68.132  1.00  0.00    -0.283 C  
HETATM   25  C   UNL     1      -7.970  17.109  68.395  1.00  0.00    -0.250 C  
HETATM   26  C   UNL     1      -7.518  16.424  67.110  1.00  0.00    -0.227 C  
HETATM   27  C   UNL     1      -8.670  15.731  66.382  1.00  0.00    -0.372 C  
HETATM   28  C   UNL     1      -9.895  16.636  66.226  1.00  0.00    -0.329 C  
ENDBRANCH  22  23
ENDBRANCH  17  18
ENDBRANCH  16  17
ENDBRANCH  15  16
ENDBRANCH  14  15
ENDBRANCH  13  14
ENDBRANCH  11  13
TORSDOF 7
ENDMDL
MODEL      146
REMARK 921   NORMALIZED FREE ENERGY PREDICTED BY IDOCK:   -5.36 KCAL/MOL
REMARK 922        TOTAL FREE ENERGY PREDICTED BY IDOCK:   -8.56 KCAL/MOL
REMARK 923 INTER-LIGAND FREE ENERGY PREDICTED BY IDOCK:   -7.87 KCAL/MOL
REMARK 924 INTRA-LIGAND FREE ENERGY PREDICTED BY IDOCK:   -0.69 KCAL/MOL
REMARK 927      BINDING AFFINITY PREDICTED BY RF-SCORE:    0.00 PKD
ROOT
HETATM    1  O   UNL     1      -7.493   7.650  64.916  1.00  0.00    -0.080 OA 
HETATM    2  C   UNL     1      -8.223   8.441  65.510  1.00  0.00    -0.140 C  
HETATM    3  C   UNL     1      -8.667   9.750  64.900  1.00  0.00    -0.207 C  
HETATM    4  C   UNL     1     -10.053  10.174  65.369  1.00  0.00    -0.342 C  
HETATM    5  C   UNL     1     -10.234  10.005  66.854  1.00  0.00    -0.299 A  
HETATM    6  C   UNL     1      -9.485   9.028  67.521  1.00  0.00    -0.137 A  
HETATM    7  N   UNL     1      -8.573   8.237  66.816  1.00  0.00    -0.124 N  
HETATM    8  C   UNL     1      -9.680   8.801  68.880  1.00  0.00    -0.174 A  
HETATM    9  C   UNL     1     -10.636   9.546  69.582  1.00  0.00    -0.245 A  
HETATM   10  H   UNL     1      -8.141   7.456  67.308  1.00  0.00     0.000 HD 
HETATM   11  C   UNL     1     -11.422  10.504  68.933  1.00  0.00    -0.226 A  
HETATM   12  C   UNL     1     -11.215  10.732  67.566  1.00  0.00    -0.346 A  
ENDROOT
BRANCH  11  13
HETATM   13  O   UNL     1     -12.346  11.121  69.745  1.00  0.00    -0.303 OA 
BRANCH  13  14
HETATM   14  C   UNL     1     -11.955  12.350  70.357  1.00  0.00    -0.257 C  
BRANCH  14  15
HETATM   15  C   UNL     1     -12.406  13.561  69.505  1.00  0.00    -0.198 C  
BRANCH  15  16
HETATM   16  C   UNL     1     -11.194  14.468  69.248  1.00  0.00    -0.309 C  
BRANCH  16  17
HETATM   17  C   UNL     1     -11.421  15.807  68.536  1.00  0.00    -0.381 C  
BRANCH  17  18
HETATM   18  C   UNL     1     -10.776  15.945  67.204  1.00  0.00    -0.301 A  
HETATM   19  N   UNL     1     -11.251  15.343  66.125  1.00  0.00    -0.229 NA 
HETATM   20  N   UNL     1     -10.489  15.747  65.072  1.00  0.00    -0.517 NA 
HETATM   21  N   UNL     1      -9.540  16.567  65.475  1.00  0.00    -0.472 NA 
HETATM   22  N   UNL     1      -9.734  16.758  66.802  1.00  0.00    -0.252 NA 
BRANCH  22  23
HETATM   23  C   UNL     1      -8.796  17.639  67.493  1.00  0.00    -0.231 C  
HETATM   24  C   UNL     1      -8.084  18.623  66.523  1.00  0.00    -0.301 C  
HETATM   25  C   UNL     1      -9.060  19.669  65.978  1.00  0.00    -0.288 C  
HETATM   26  C   UNL     1      -9.671  20.484  67.113  1.00  0.00    -0.581 C  
HETATM   27  C   UNL     1     -10.277  19.602  68.205  1.00  0.00    -0.580 C  
HETATM   28  C   UNL     1      -9.326  18.492  68.658  1.00  0.00    -0.352 C  
ENDBRANCH  22  23
ENDBRANCH  17  18
ENDBRANCH  16  17
ENDBRANCH  15  16
ENDBRANCH  14  15
ENDBRANCH  13  14
ENDBRANCH  11  13
TORSDOF 7
ENDMDL
MODEL      147
REMARK 921   NORMALIZED FREE ENERGY PREDICTED BY IDOCK:   -5.34 KCAL/MOL
REMARK 922        TOTAL FREE ENERGY PREDICTED BY IDOCK:   -8.54 KCAL/MOL
REMARK 923 INTER-LIGAND FREE ENERGY PREDICTED BY IDOCK:   -7.23 KCAL/MOL
REMARK 924 INTRA-LIGAND FREE ENERGY PREDICTED BY IDOCK:   -1.30 KCAL/MOL
REMARK 927      BINDING AFFINITY PREDICTED BY RF-SCORE:    0.00 PKD
ROOT
HETATM    1  O   UNL     1     -10.013   9.569  65.975  1.00  0.00    -0.278 OA 
HETATM    2  C   UNL     1     -10.168  10.785  66.061  1.00  0.00    -0.251 C  
HETATM    3  C   UNL     1      -9.678  11.583  67.246  1.00  0.00    -0.197 C  
HETATM    4  C   UNL     1      -9.263  13.000  66.868  1.00  0.00    -0.236 C  
HETATM    5  C   UNL     1     -10.254  13.663  65.948  1.00  0.00    -0.318 A  
HETATM    6  C   UNL     1     -11.038  12.863  65.107  1.00  0.00    -0.292 A  
HETATM    7  N   UNL     1     -10.910  11.471  65.140  1.00  0.00    -0.285 N  
HETATM    8  C   UNL     1     -11.912  13.449  64.197  1.00  0.00    -0.505 A  
HETATM    9  C   UNL     1     -12.001  14.844  64.114  1.00  0.00    -0.256 A  
HETATM   10  H   UNL     1     -11.403  10.932  64.429  1.00  0.00     0.000 HD 
HETATM   11  C   UNL     1     -11.204  15.666  64.917  1.00  0.00    -0.369 A  
HETATM   12  C   UNL     1     -10.331  15.069  65.837  1.00  0.00    -0.329 A  
ENDROOT
BRANCH  11  13
HETATM   13  O   UNL     1     -11.373  17.013  64.690  1.00  0.00    -0.889 OA 
BRANCH  13  14
HETATM   14  C   UNL     1     -10.374  17.890  65.211  1.00  0.00     0.511 C  
BRANCH  14  15
HETATM   15  C   UNL     1     -10.974  18.847  66.269  1.00  0.00    -0.024 C  
BRANCH  15  16
HETATM   16  C   UNL     1      -9.878  19.809  66.750  1.00  0.00    -0.528 C  
BRANCH  16  17
HETATM   17  C   UNL     1      -8.565  19.875  65.961  1.00  0.00    -0.283 C  
BRANCH  17  18
HETATM   18  C   UNL     1      -7.345  20.146  66.766  1.00  0.00    -0.268 A  
HETATM   19  N   UNL     1      -7.097  21.333  67.294  1.00  0.00    -0.536 NA 
HETATM   20  N   UNL     1      -5.961  21.215  68.033  1.00  0.00    -0.345 NA 
HETATM   21  N   UNL     1      -5.485  19.988  67.957  1.00  0.00    -0.194 NA 
HETATM   22  N   UNL     1      -6.368  19.278  67.216  1.00  0.00    -0.188 NA 
BRANCH  22  23
HETATM   23  C   UNL     1      -6.061  17.869  66.982  1.00  0.00    -0.151 C  
HETATM   24  C   UNL     1      -5.169  17.265  68.102  1.00  0.00    -0.121 C  
HETATM   25  C   UNL     1      -5.938  17.141  69.419  1.00  0.00    -0.222 C  
HETATM   26  C   UNL     1      -7.159  16.242  69.253  1.00  0.00    -0.222 C  
HETATM   27  C   UNL     1      -8.038  16.665  68.076  1.00  0.00    -0.181 C  
HETATM   28  C   UNL     1      -7.234  16.893  66.793  1.00  0.00    -0.278 C  
ENDBRANCH  22  23
ENDBRANCH  17  18
ENDBRANCH  16  17
ENDBRANCH  15  16
ENDBRANCH  14  15
ENDBRANCH  13  14
ENDBRANCH  11  13
TORSDOF 7
ENDMDL
MODEL      148
REMARK 921   NORMALIZED FREE ENERGY PREDICTED BY IDOCK:   -5.33 KCAL/MOL
REMARK 922        TOTAL FREE ENERGY PREDICTED BY IDOCK:   -8.53 KCAL/MOL
REMARK 923 INTER-LIGAND FREE ENERGY PREDICTED BY IDOCK:   -7.99 KCAL/MOL
REMARK 924 INTRA-LIGAND FREE ENERGY PREDICTED BY IDOCK:   -0.54 KCAL/MOL
REMARK 927      BINDING AFFINITY PREDICTED BY RF-SCORE:    0.00 PKD
ROOT
HETATM    1  O   UNL     1     -10.143  19.088  66.021  1.00  0.00    -0.424 OA 
HETATM    2  C   UNL     1     -10.309  17.943  66.435  1.00  0.00    -0.365 C  
HETATM    3  C   UNL     1     -10.267  17.598  67.905  1.00  0.00    -0.357 C  
HETATM    4  C   UNL     1     -11.193  16.442  68.262  1.00  0.00    -0.300 C  
HETATM    5  C   UNL     1     -11.097  15.304  67.281  1.00  0.00    -0.325 A  
HETATM    6  C   UNL     1     -10.717  15.578  65.961  1.00  0.00    -0.326 A  
HETATM    7  N   UNL     1     -10.416  16.887  65.573  1.00  0.00    -0.279 N  
HETATM    8  C   UNL     1     -10.687  14.559  65.015  1.00  0.00    -0.444 A  
HETATM    9  C   UNL     1     -11.047  13.256  65.380  1.00  0.00    -0.300 A  
HETATM   10  H   UNL     1     -10.267  17.066  64.581  1.00  0.00     0.000 HD 
HETATM   11  C   UNL     1     -11.464  12.961  66.682  1.00  0.00    -0.343 A  
HETATM   12  C   UNL     1     -11.485  13.991  67.632  1.00  0.00    -0.362 A  
ENDROOT
BRANCH  11  13
HETATM   13  O   UNL     1     -11.827  11.648  66.876  1.00  0.00    -0.577 OA 
BRANCH  13  14
HETATM   14  C   UNL     1     -11.737  11.139  68.207  1.00  0.00    -0.252 C  
BRANCH  14  15
HETATM   15  C   UNL     1     -10.780   9.925  68.272  1.00  0.00    -0.276 C  
BRANCH  15  16
HETATM   16  C   UNL     1      -9.737  10.171  69.372  1.00  0.00    -0.247 C  
BRANCH  16  17
HETATM   17  C   UNL     1      -9.964   9.536  70.749  1.00  0.00    -0.334 C  
BRANCH  17  18
HETATM   18  C   UNL     1      -8.927   8.565  71.188  1.00  0.00    -0.186 A  
HETATM   19  N   UNL     1      -7.806   8.949  71.778  1.00  0.00    -0.335 NA 
HETATM   20  N   UNL     1      -7.130   7.821  72.126  1.00  0.00    -0.066 NA 
HETATM   21  N   UNL     1      -7.793   6.747  71.747  1.00  0.00    -0.100 NA 
HETATM   22  N   UNL     1      -8.956   7.184  71.208  1.00  0.00    -0.146 NA 
BRANCH  22  23
HETATM   23  C   UNL     1      -9.879   6.171  70.704  1.00  0.00    -0.179 C  
HETATM   24  C   UNL     1      -9.686   4.795  71.401  1.00  0.00    -0.240 C  
HETATM   25  C   UNL     1     -10.139   4.845  72.862  1.00  0.00    -0.208 C  
HETATM   26  C   UNL     1     -11.614   5.221  72.961  1.00  0.00    -0.290 C  
HETATM   27  C   UNL     1     -11.945   6.494  72.181  1.00  0.00    -0.334 C  
HETATM   28  C   UNL     1     -11.386   6.471  70.756  1.00  0.00    -0.399 C  
ENDBRANCH  22  23
ENDBRANCH  17  18
ENDBRANCH  16  17
ENDBRANCH  15  16
ENDBRANCH  14  15
ENDBRANCH  13  14
ENDBRANCH  11  13
TORSDOF 7
ENDMDL
MODEL      149
REMARK 921   NORMALIZED FREE ENERGY PREDICTED BY IDOCK:   -5.32 KCAL/MOL
REMARK 922        TOTAL FREE ENERGY PREDICTED BY IDOCK:   -8.52 KCAL/MOL
REMARK 923 INTER-LIGAND FREE ENERGY PREDICTED BY IDOCK:   -6.77 KCAL/MOL
REMARK 924 INTRA-LIGAND FREE ENERGY PREDICTED BY IDOCK:   -1.74 KCAL/MOL
REMARK 927      BINDING AFFINITY PREDICTED BY RF-SCORE:    0.00 PKD
ROOT
HETATM    1  O   UNL     1      -6.683   5.496  69.779  1.00  0.00    -0.047 OA 
HETATM    2  C   UNL     1      -7.462   6.099  70.514  1.00  0.00    -0.090 C  
HETATM    3  C   UNL     1      -6.989   7.033  71.602  1.00  0.00    -0.069 C  
HETATM    4  C   UNL     1      -7.956   8.187  71.844  1.00  0.00    -0.153 C  
HETATM    5  C   UNL     1      -9.391   7.734  71.894  1.00  0.00    -0.195 A  
HETATM    6  C   UNL     1      -9.762   6.581  71.190  1.00  0.00    -0.174 A  
HETATM    7  N   UNL     1      -8.807   5.859  70.469  1.00  0.00    -0.142 N  
HETATM    8  C   UNL     1     -11.093   6.177  71.160  1.00  0.00    -0.360 A  
HETATM    9  C   UNL     1     -12.067   6.930  71.827  1.00  0.00    -0.385 A  
HETATM   10  H   UNL     1      -9.136   5.102  69.870  1.00  0.00     0.000 HD 
HETATM   11  C   UNL     1     -11.729   8.103  72.509  1.00  0.00    -0.394 A  
HETATM   12  C   UNL     1     -10.385   8.501  72.541  1.00  0.00    -0.315 A  
ENDROOT
BRANCH  11  13
HETATM   13  O   UNL     1     -12.799   8.755  73.077  1.00  0.00    -0.272 OA 
BRANCH  13  14
HETATM   14  C   UNL     1     -13.669   9.467  72.198  1.00  0.00    -0.420 C  
BRANCH  14  15
HETATM   15  C   UNL     1     -13.089  10.859  71.851  1.00  0.00    -0.537 C  
BRANCH  15  16
HETATM   16  C   UNL     1     -12.895  10.954  70.331  1.00  0.00    -0.257 C  
BRANCH  16  17
HETATM   17  C   UNL     1     -11.480  10.797  69.763  1.00  0.00    -0.386 C  
BRANCH  17  18
HETATM   18  C   UNL     1     -11.331  11.097  68.314  1.00  0.00    -0.297 A  
HETATM   19  N   UNL     1     -12.283  11.695  67.616  1.00  0.00    -0.342 NA 
HETATM   20  N   UNL     1     -11.795  11.898  66.363  1.00  0.00    -0.547 NA 
HETATM   21  N   UNL     1     -10.571  11.421  66.260  1.00  0.00    -0.256 NA 
HETATM   22  N   UNL     1     -10.231  10.966  67.490  1.00  0.00    -0.184 NA 
BRANCH  22  23
HETATM   23  C   UNL     1      -8.902  10.379  67.639  1.00  0.00    -0.124 C  
HETATM   24  C   UNL     1      -8.913   9.110  68.536  1.00  0.00    -0.133 C  
HETATM   25  C   UNL     1      -9.628   7.947  67.844  1.00  0.00    -0.169 C  
HETATM   26  C   UNL     1      -8.939   7.590  66.531  1.00  0.00    -0.189 C  
HETATM   27  C   UNL     1      -8.744   8.806  65.625  1.00  0.00    -0.215 C  
HETATM   28  C   UNL     1      -8.130   9.997  66.364  1.00  0.00    -0.120 C  
ENDBRANCH  22  23
ENDBRANCH  17  18
ENDBRANCH  16  17
ENDBRANCH  15  16
ENDBRANCH  14  15
ENDBRANCH  13  14
ENDBRANCH  11  13
TORSDOF 7
ENDMDL
MODEL      150
REMARK 921   NORMALIZED FREE ENERGY PREDICTED BY IDOCK:   -5.32 KCAL/MOL
REMARK 922        TOTAL FREE ENERGY PREDICTED BY IDOCK:   -8.51 KCAL/MOL
REMARK 923 INTER-LIGAND FREE ENERGY PREDICTED BY IDOCK:   -7.79 KCAL/MOL
REMARK 924 INTRA-LIGAND FREE ENERGY PREDICTED BY IDOCK:   -0.72 KCAL/MOL
REMARK 927      BINDING AFFINITY PREDICTED BY RF-SCORE:    0.00 PKD
ROOT
HETATM    1  O   UNL     1      -7.614   5.219  68.927  1.00  0.00    -0.079 OA 
HETATM    2  C   UNL     1      -7.851   6.424  68.972  1.00  0.00    -0.110 C  
HETATM    3  C   UNL     1      -6.801   7.468  68.671  1.00  0.00    -0.066 C  
HETATM    4  C   UNL     1      -7.388   8.725  68.042  1.00  0.00    -0.088 C  
HETATM    5  C   UNL     1      -8.643   9.184  68.736  1.00  0.00    -0.131 A  
HETATM    6  C   UNL     1      -9.437   8.237  69.396  1.00  0.00    -0.159 A  
HETATM    7  N   UNL     1      -9.053   6.893  69.422  1.00  0.00    -0.141 N  
HETATM    8  C   UNL     1     -10.637   8.618  69.988  1.00  0.00    -0.233 A  
HETATM    9  C   UNL     1     -11.059   9.951  69.913  1.00  0.00    -0.318 A  
HETATM   10  H   UNL     1      -9.715   6.217  69.802  1.00  0.00     0.000 HD 
HETATM   11  C   UNL     1     -10.304  10.910  69.230  1.00  0.00    -0.187 A  
HETATM   12  C   UNL     1      -9.092  10.520  68.643  1.00  0.00    -0.158 A  
ENDROOT
BRANCH  11  13
HETATM   13  O   UNL     1     -10.869  12.164  69.206  1.00  0.00    -0.169 OA 
BRANCH  13  14
HETATM   14  C   UNL     1     -12.148  12.290  68.584  1.00  0.00    -0.088 C  
BRANCH  14  15
HETATM   15  C   UNL     1     -12.083  13.255  67.376  1.00  0.00    -0.327 C  
BRANCH  15  16
HETATM   16  C   UNL     1     -11.417  12.533  66.196  1.00  0.00    -0.426 C  
BRANCH  16  17
HETATM   17  C   UNL     1     -10.417  13.311  65.333  1.00  0.00    -0.306 C  
BRANCH  17  18
HETATM   18  C   UNL     1     -10.893  14.623  64.821  1.00  0.00    -0.385 A  
HETATM   19  N   UNL     1     -11.924  14.727  63.998  1.00  0.00    -0.406 NA 
HETATM   20  N   UNL     1     -12.146  16.055  63.800  1.00  0.00    -0.735 NA 
HETATM   21  N   UNL     1     -11.264  16.776  64.462  1.00  0.00    -1.039 NA 
HETATM   22  N   UNL     1     -10.501  15.903  65.162  1.00  0.00    -0.532 NA 
BRANCH  22  23
HETATM   23  C   UNL     1      -9.433  16.463  65.986  1.00  0.00    -0.310 C  
HETATM   24  C   UNL     1      -9.967  17.477  67.037  1.00  0.00    -0.311 C  
HETATM   25  C   UNL     1     -10.782  16.772  68.124  1.00  0.00    -0.361 C  
HETATM   26  C   UNL     1      -9.934  15.738  68.855  1.00  0.00    -0.223 C  
HETATM   27  C   UNL     1      -9.239  14.770  67.897  1.00  0.00    -0.191 C  
HETATM   28  C   UNL     1      -8.521  15.490  66.752  1.00  0.00    -0.314 C  
ENDBRANCH  22  23
ENDBRANCH  17  18
ENDBRANCH  16  17
ENDBRANCH  15  16
ENDBRANCH  14  15
ENDBRANCH  13  14
ENDBRANCH  11  13
TORSDOF 7
ENDMDL
MODEL      151
REMARK 921   NORMALIZED FREE ENERGY PREDICTED BY IDOCK:   -5.30 KCAL/MOL
REMARK 922        TOTAL FREE ENERGY PREDICTED BY IDOCK:   -8.48 KCAL/MOL
REMARK 923 INTER-LIGAND FREE ENERGY PREDICTED BY IDOCK:   -7.48 KCAL/MOL
REMARK 924 INTRA-LIGAND FREE ENERGY PREDICTED BY IDOCK:   -1.00 KCAL/MOL
REMARK 927      BINDING AFFINITY PREDICTED BY RF-SCORE:    0.00 PKD
ROOT
HETATM    1  O   UNL     1     -12.529  15.469  63.861  1.00  0.00    -0.656 OA 
HETATM    2  C   UNL     1     -11.985  14.413  64.176  1.00  0.00    -0.346 C  
HETATM    3  C   UNL     1     -12.389  13.084  63.582  1.00  0.00    -0.499 C  
HETATM    4  C   UNL     1     -11.220  12.114  63.469  1.00  0.00    -0.536 C  
HETATM    5  C   UNL     1     -10.372  12.087  64.713  1.00  0.00    -0.318 A  
HETATM    6  C   UNL     1     -10.321  13.230  65.523  1.00  0.00    -0.291 A  
HETATM    7  N   UNL     1     -11.062  14.365  65.184  1.00  0.00    -0.342 N  
HETATM    8  C   UNL     1      -9.494  13.260  66.641  1.00  0.00    -0.262 A  
HETATM    9  C   UNL     1      -8.701  12.149  66.953  1.00  0.00    -0.194 A  
HETATM   10  H   UNL     1     -10.903  15.215  65.724  1.00  0.00     0.000 HD 
HETATM   11  C   UNL     1      -8.706  11.009  66.142  1.00  0.00    -0.184 A  
HETATM   12  C   UNL     1      -9.548  10.982  65.022  1.00  0.00    -0.291 A  
ENDROOT
BRANCH  11  13
HETATM   13  O   UNL     1      -7.843  10.019  66.553  1.00  0.00    -0.109 OA 
BRANCH  13  14
HETATM   14  C   UNL     1      -7.560   9.941  67.950  1.00  0.00    -0.090 C  
BRANCH  14  15
HETATM   15  C   UNL     1      -7.942   8.552  68.516  1.00  0.00    -0.117 C  
BRANCH  15  16
HETATM   16  C   UNL     1      -9.035   7.937  67.631  1.00  0.00    -0.133 C  
BRANCH  16  17
HETATM   17  C   UNL     1     -10.494   8.328  67.892  1.00  0.00    -0.259 C  
BRANCH  17  18
HETATM   18  C   UNL     1     -10.801   8.783  69.274  1.00  0.00    -0.077 A  
HETATM   19  N   UNL     1     -10.749  10.058  69.625  1.00  0.00    -0.237 NA 
HETATM   20  N   UNL     1     -11.170  10.135  70.916  1.00  0.00    -0.341 NA 
HETATM   21  N   UNL     1     -11.460   8.937  71.382  1.00  0.00    -0.286 NA 
HETATM   22  N   UNL     1     -11.296   8.074  70.352  1.00  0.00    -0.233 NA 
BRANCH  22  23
HETATM   23  C   UNL     1     -11.558   6.662  70.617  1.00  0.00    -0.382 C  
HETATM   24  C   UNL     1     -10.424   5.740  70.088  1.00  0.00    -0.348 C  
HETATM   25  C   UNL     1      -9.140   5.916  70.903  1.00  0.00    -0.159 C  
HETATM   26  C   UNL     1      -9.376   5.578  72.371  1.00  0.00    -0.156 C  
HETATM   27  C   UNL     1     -10.572   6.329  72.957  1.00  0.00    -0.263 C  
HETATM   28  C   UNL     1     -11.817   6.233  72.071  1.00  0.00    -0.370 C  
ENDBRANCH  22  23
ENDBRANCH  17  18
ENDBRANCH  16  17
ENDBRANCH  15  16
ENDBRANCH  14  15
ENDBRANCH  13  14
ENDBRANCH  11  13
TORSDOF 7
ENDMDL
MODEL      152
REMARK 921   NORMALIZED FREE ENERGY PREDICTED BY IDOCK:   -5.30 KCAL/MOL
REMARK 922        TOTAL FREE ENERGY PREDICTED BY IDOCK:   -8.48 KCAL/MOL
REMARK 923 INTER-LIGAND FREE ENERGY PREDICTED BY IDOCK:   -7.68 KCAL/MOL
REMARK 924 INTRA-LIGAND FREE ENERGY PREDICTED BY IDOCK:   -0.80 KCAL/MOL
REMARK 927      BINDING AFFINITY PREDICTED BY RF-SCORE:    0.00 PKD
ROOT
HETATM    1  O   UNL     1      -5.932  17.951  69.909  1.00  0.00    -0.242 OA 
HETATM    2  C   UNL     1      -6.536  17.435  68.971  1.00  0.00    -0.232 C  
HETATM    3  C   UNL     1      -5.987  16.254  68.206  1.00  0.00    -0.110 C  
HETATM    4  C   UNL     1      -7.083  15.331  67.686  1.00  0.00    -0.206 C  
HETATM    5  C   UNL     1      -8.226  16.089  67.065  1.00  0.00    -0.255 A  
HETATM    6  C   UNL     1      -8.490  17.394  67.500  1.00  0.00    -0.214 A  
HETATM    7  N   UNL     1      -7.690  17.983  68.484  1.00  0.00    -0.295 N  
HETATM    8  C   UNL     1      -9.581  18.094  66.995  1.00  0.00    -0.287 A  
HETATM    9  C   UNL     1     -10.424  17.490  66.055  1.00  0.00    -0.274 A  
HETATM   10  H   UNL     1      -7.987  18.881  68.864  1.00  0.00     0.000 HD 
HETATM   11  C   UNL     1     -10.204  16.176  65.629  1.00  0.00    -0.364 A  
HETATM   12  C   UNL     1      -9.099  15.479  66.136  1.00  0.00    -0.359 A  
ENDROOT
BRANCH  11  13
HETATM   13  O   UNL     1     -11.141  15.706  64.737  1.00  0.00    -0.441 OA 
BRANCH  13  14
HETATM   14  C   UNL     1     -11.318  14.291  64.666  1.00  0.00    -0.373 C  
BRANCH  14  15
HETATM   15  C   UNL     1     -12.489  13.834  65.569  1.00  0.00    -0.548 C  
BRANCH  15  16
HETATM   16  C   UNL     1     -11.928  13.403  66.932  1.00  0.00    -0.437 C  
BRANCH  16  17
HETATM   17  C   UNL     1     -11.359  11.986  67.073  1.00  0.00    -0.396 C  
BRANCH  17  18
HETATM   18  C   UNL     1     -11.353  11.430  68.452  1.00  0.00    -0.281 A  
HETATM   19  N   UNL     1     -12.264  11.764  69.351  1.00  0.00    -0.214 NA 
HETATM   20  N   UNL     1     -12.024  11.017  70.463  1.00  0.00    -0.354 NA 
HETATM   21  N   UNL     1     -10.973  10.243  70.282  1.00  0.00    -0.303 NA 
HETATM   22  N   UNL     1     -10.567  10.437  69.005  1.00  0.00    -0.207 NA 
BRANCH  22  23
HETATM   23  C   UNL     1      -9.400   9.683  68.554  1.00  0.00    -0.137 C  
HETATM   24  C   UNL     1      -9.282   8.301  69.255  1.00  0.00    -0.151 C  
HETATM   25  C   UNL     1     -10.390   7.350  68.796  1.00  0.00    -0.209 C  
HETATM   26  C   UNL     1     -10.322   7.122  67.290  1.00  0.00    -0.342 C  
HETATM   27  C   UNL     1     -10.286   8.433  66.503  1.00  0.00    -0.277 C  
HETATM   28  C   UNL     1      -9.246   9.416  67.047  1.00  0.00    -0.171 C  
ENDBRANCH  22  23
ENDBRANCH  17  18
ENDBRANCH  16  17
ENDBRANCH  15  16
ENDBRANCH  14  15
ENDBRANCH  13  14
ENDBRANCH  11  13
TORSDOF 7
ENDMDL
MODEL      153
REMARK 921   NORMALIZED FREE ENERGY PREDICTED BY IDOCK:   -5.27 KCAL/MOL
REMARK 922        TOTAL FREE ENERGY PREDICTED BY IDOCK:   -8.44 KCAL/MOL
REMARK 923 INTER-LIGAND FREE ENERGY PREDICTED BY IDOCK:   -7.15 KCAL/MOL
REMARK 924 INTRA-LIGAND FREE ENERGY PREDICTED BY IDOCK:   -1.29 KCAL/MOL
REMARK 927      BINDING AFFINITY PREDICTED BY RF-SCORE:    0.00 PKD
ROOT
HETATM    1  O   UNL     1      -6.729  10.019  71.152  1.00  0.00    -0.338 OA 
HETATM    2  C   UNL     1      -7.491   9.884  70.197  1.00  0.00    -0.170 C  
HETATM    3  C   UNL     1      -8.878   9.302  70.343  1.00  0.00    -0.271 C  
HETATM    4  C   UNL     1      -9.869   9.894  69.348  1.00  0.00    -0.231 C  
HETATM    5  C   UNL     1      -9.300   9.990  67.957  1.00  0.00    -0.139 A  
HETATM    6  C   UNL     1      -7.914  10.119  67.800  1.00  0.00    -0.102 A  
HETATM    7  N   UNL     1      -7.078  10.140  68.920  1.00  0.00    -0.066 N  
HETATM    8  C   UNL     1      -7.364  10.280  66.532  1.00  0.00    -0.113 A  
HETATM    9  C   UNL     1      -8.200  10.323  65.409  1.00  0.00    -0.156 A  
HETATM   10  H   UNL     1      -6.093  10.361  68.774  1.00  0.00     0.000 HD 
HETATM   11  C   UNL     1      -9.589  10.231  65.541  1.00  0.00    -0.242 A  
HETATM   12  C   UNL     1     -10.136  10.062  66.820  1.00  0.00    -0.286 A  
ENDROOT
BRANCH  11  13
HETATM   13  O   UNL     1     -10.278  10.332  64.354  1.00  0.00    -0.298 OA 
BRANCH  13  14
HETATM   14  C   UNL     1     -11.254  11.370  64.255  1.00  0.00    -0.232 C  
BRANCH  14  15
HETATM   15  C   UNL     1     -10.594  12.717  63.876  1.00  0.00    -0.460 C  
BRANCH  15  16
HETATM   16  C   UNL     1     -10.456  13.577  65.141  1.00  0.00    -0.375 C  
BRANCH  16  17
HETATM   17  C   UNL     1     -11.709  14.257  65.703  1.00  0.00    -0.358 C  
BRANCH  17  18
HETATM   18  C   UNL     1     -11.773  14.365  67.185  1.00  0.00    -0.400 A  
HETATM   19  N   UNL     1     -12.133  13.347  67.951  1.00  0.00    -0.311 NA 
HETATM   20  N   UNL     1     -11.999  13.751  69.243  1.00  0.00    -0.340 NA 
HETATM   21  N   UNL     1     -11.586  15.001  69.298  1.00  0.00    -0.297 NA 
HETATM   22  N   UNL     1     -11.377  15.393  68.018  1.00  0.00    -0.339 NA 
BRANCH  22  23
HETATM   23  C   UNL     1     -10.910  16.761  67.808  1.00  0.00    -0.285 C  
HETATM   24  C   UNL     1     -10.037  17.276  68.985  1.00  0.00    -0.302 C  
HETATM   25  C   UNL     1      -8.688  16.553  69.033  1.00  0.00    -0.215 C  
HETATM   26  C   UNL     1      -7.910  16.768  67.740  1.00  0.00    -0.187 C  
HETATM   27  C   UNL     1      -8.735  16.427  66.499  1.00  0.00    -0.324 C  
HETATM   28  C   UNL     1     -10.124  17.070  66.522  1.00  0.00    -0.318 C  
ENDBRANCH  22  23
ENDBRANCH  17  18
ENDBRANCH  16  17
ENDBRANCH  15  16
ENDBRANCH  14  15
ENDBRANCH  13  14
ENDBRANCH  11  13
TORSDOF 7
ENDMDL
MODEL      154
REMARK 921   NORMALIZED FREE ENERGY PREDICTED BY IDOCK:   -5.27 KCAL/MOL
REMARK 922        TOTAL FREE ENERGY PREDICTED BY IDOCK:   -8.44 KCAL/MOL
REMARK 923 INTER-LIGAND FREE ENERGY PREDICTED BY IDOCK:   -8.32 KCAL/MOL
REMARK 924 INTRA-LIGAND FREE ENERGY PREDICTED BY IDOCK:   -0.12 KCAL/MOL
REMARK 927      BINDING AFFINITY PREDICTED BY RF-SCORE:    0.00 PKD
ROOT
HETATM    1  O   UNL     1      -8.140   3.687  69.365  1.00  0.00    -0.054 OA 
HETATM    2  C   UNL     1      -8.764   4.688  69.020  1.00  0.00    -0.085 C  
HETATM    3  C   UNL     1     -10.042   5.121  69.699  1.00  0.00    -0.332 C  
HETATM    4  C   UNL     1     -10.221   6.634  69.701  1.00  0.00    -0.213 C  
HETATM    5  C   UNL     1      -9.903   7.253  68.366  1.00  0.00    -0.161 A  
HETATM    6  C   UNL     1      -8.990   6.609  67.521  1.00  0.00    -0.114 A  
HETATM    7  N   UNL     1      -8.402   5.402  67.911  1.00  0.00    -0.099 N  
HETATM    8  C   UNL     1      -8.623   7.190  66.312  1.00  0.00    -0.143 A  
HETATM    9  C   UNL     1      -9.160   8.429  65.942  1.00  0.00    -0.225 A  
HETATM   10  H   UNL     1      -7.652   5.029  67.329  1.00  0.00     0.000 HD 
HETATM   11  C   UNL     1     -10.046   9.111  66.782  1.00  0.00    -0.271 A  
HETATM   12  C   UNL     1     -10.417   8.515  67.996  1.00  0.00    -0.249 A  
ENDROOT
BRANCH  11  13
HETATM   13  O   UNL     1     -10.454  10.334  66.302  1.00  0.00    -0.215 OA 
BRANCH  13  14
HETATM   14  C   UNL     1      -9.847  10.794  65.094  1.00  0.00    -0.277 C  
BRANCH  14  15
HETATM   15  C   UNL     1     -10.428  12.163  64.669  1.00  0.00    -0.336 C  
BRANCH  15  16
HETATM   16  C   UNL     1     -11.215  12.758  65.846  1.00  0.00    -0.334 C  
BRANCH  16  17
HETATM   17  C   UNL     1     -10.732  14.080  66.454  1.00  0.00    -0.278 C  
BRANCH  17  18
HETATM   18  C   UNL     1     -10.893  15.282  65.594  1.00  0.00    -0.363 A  
HETATM   19  N   UNL     1     -11.295  15.199  64.336  1.00  0.00    -0.261 NA 
HETATM   20  N   UNL     1     -11.422  16.472  63.871  1.00  0.00    -1.052 NA 
HETATM   21  N   UNL     1     -11.087  17.341  64.803  1.00  0.00    -0.920 NA 
HETATM   22  N   UNL     1     -10.809  16.622  65.917  1.00  0.00    -0.144 NA 
BRANCH  22  23
HETATM   23  C   UNL     1     -10.405  17.367  67.107  1.00  0.00    -0.325 C  
HETATM   24  C   UNL     1      -8.911  17.139  67.468  1.00  0.00    -0.218 C  
HETATM   25  C   UNL     1      -7.985  17.788  66.436  1.00  0.00    -0.306 C  
HETATM   26  C   UNL     1      -8.227  19.292  66.359  1.00  0.00    -0.329 C  
HETATM   27  C   UNL     1      -9.702  19.635  66.149  1.00  0.00    -0.489 C  
HETATM   28  C   UNL     1     -10.622  18.889  67.118  1.00  0.00    -0.531 C  
ENDBRANCH  22  23
ENDBRANCH  17  18
ENDBRANCH  16  17
ENDBRANCH  15  16
ENDBRANCH  14  15
ENDBRANCH  13  14
ENDBRANCH  11  13
TORSDOF 7
ENDMDL
MODEL      155
REMARK 921   NORMALIZED FREE ENERGY PREDICTED BY IDOCK:   -5.27 KCAL/MOL
REMARK 922        TOTAL FREE ENERGY PREDICTED BY IDOCK:   -8.44 KCAL/MOL
REMARK 923 INTER-LIGAND FREE ENERGY PREDICTED BY IDOCK:   -7.94 KCAL/MOL
REMARK 924 INTRA-LIGAND FREE ENERGY PREDICTED BY IDOCK:   -0.50 KCAL/MOL
REMARK 927      BINDING AFFINITY PREDICTED BY RF-SCORE:    0.00 PKD
ROOT
HETATM    1  O   UNL     1      -7.507   3.394  70.938  1.00  0.00    -0.037 OA 
HETATM    2  C   UNL     1      -8.329   4.304  70.854  1.00  0.00    -0.079 C  
HETATM    3  C   UNL     1      -9.150   4.542  69.608  1.00  0.00    -0.166 C  
HETATM    4  C   UNL     1     -10.530   5.110  69.916  1.00  0.00    -0.296 C  
HETATM    5  C   UNL     1     -10.482   6.216  70.936  1.00  0.00    -0.282 A  
HETATM    6  C   UNL     1      -9.441   6.228  71.874  1.00  0.00    -0.153 A  
HETATM    7  N   UNL     1      -8.457   5.236  71.845  1.00  0.00    -0.125 N  
HETATM    8  C   UNL     1      -9.408   7.197  72.872  1.00  0.00    -0.179 A  
HETATM    9  C   UNL     1     -10.423   8.158  72.946  1.00  0.00    -0.338 A  
HETATM   10  H   UNL     1      -7.791   5.205  72.616  1.00  0.00     0.000 HD 
HETATM   11  C   UNL     1     -11.492   8.149  72.044  1.00  0.00    -0.320 A  
HETATM   12  C   UNL     1     -11.516   7.174  71.037  1.00  0.00    -0.331 A  
ENDROOT
BRANCH  11  13
HETATM   13  O   UNL     1     -12.432   9.127  72.270  1.00  0.00    -0.368 OA 
BRANCH  13  14
HETATM   14  C   UNL     1     -12.809   9.937  71.157  1.00  0.00    -0.368 C  
BRANCH  14  15
HETATM   15  C   UNL     1     -11.578  10.652  70.550  1.00  0.00    -0.444 C  
BRANCH  15  16
HETATM   16  C   UNL     1     -12.034  11.500  69.353  1.00  0.00    -0.392 C  
BRANCH  16  17
HETATM   17  C   UNL     1     -11.171  11.499  68.086  1.00  0.00    -0.335 C  
BRANCH  17  18
HETATM   18  C   UNL     1     -11.558  12.486  67.044  1.00  0.00    -0.368 A  
HETATM   19  N   UNL     1     -12.231  12.139  65.959  1.00  0.00    -0.525 NA 
HETATM   20  N   UNL     1     -12.497  13.281  65.269  1.00  0.00    -0.473 NA 
HETATM   21  N   UNL     1     -11.987  14.326  65.888  1.00  0.00    -0.387 NA 
HETATM   22  N   UNL     1     -11.443  13.863  67.039  1.00  0.00    -0.329 NA 
BRANCH  22  23
HETATM   23  C   UNL     1     -10.803  14.841  67.915  1.00  0.00    -0.269 C  
HETATM   24  C   UNL     1      -9.432  14.346  68.453  1.00  0.00    -0.207 C  
HETATM   25  C   UNL     1      -8.386  14.283  67.337  1.00  0.00    -0.212 C  
HETATM   26  C   UNL     1      -8.178  15.657  66.710  1.00  0.00    -0.300 C  
HETATM   27  C   UNL     1      -9.492  16.305  66.273  1.00  0.00    -0.347 C  
HETATM   28  C   UNL     1     -10.562  16.258  67.366  1.00  0.00    -0.307 C  
ENDBRANCH  22  23
ENDBRANCH  17  18
ENDBRANCH  16  17
ENDBRANCH  15  16
ENDBRANCH  14  15
ENDBRANCH  13  14
ENDBRANCH  11  13
TORSDOF 7
ENDMDL
MODEL      156
REMARK 921   NORMALIZED FREE ENERGY PREDICTED BY IDOCK:   -5.26 KCAL/MOL
REMARK 922        TOTAL FREE ENERGY PREDICTED BY IDOCK:   -8.43 KCAL/MOL
REMARK 923 INTER-LIGAND FREE ENERGY PREDICTED BY IDOCK:   -8.23 KCAL/MOL
REMARK 924 INTRA-LIGAND FREE ENERGY PREDICTED BY IDOCK:   -0.20 KCAL/MOL
REMARK 927      BINDING AFFINITY PREDICTED BY RF-SCORE:    0.00 PKD
ROOT
HETATM    1  O   UNL     1      -6.740   5.982  71.900  1.00  0.00    -0.060 OA 
HETATM    2  C   UNL     1      -7.778   6.627  71.775  1.00  0.00    -0.097 C  
HETATM    3  C   UNL     1      -8.839   6.672  72.849  1.00  0.00    -0.134 C  
HETATM    4  C   UNL     1      -9.583   8.002  72.883  1.00  0.00    -0.348 C  
HETATM    5  C   UNL     1      -9.968   8.480  71.509  1.00  0.00    -0.314 A  
HETATM    6  C   UNL     1      -9.192   8.085  70.411  1.00  0.00    -0.155 A  
HETATM    7  N   UNL     1      -8.091   7.244  70.595  1.00  0.00    -0.107 N  
HETATM    8  C   UNL     1      -9.481   8.566  69.139  1.00  0.00    -0.154 A  
HETATM    9  C   UNL     1     -10.545   9.458  68.955  1.00  0.00    -0.231 A  
HETATM   10  H   UNL     1      -7.480   7.079  69.796  1.00  0.00     0.000 HD 
HETATM   11  C   UNL     1     -11.313   9.897  70.037  1.00  0.00    -0.249 A  
HETATM   12  C   UNL     1     -11.021   9.402  71.316  1.00  0.00    -0.440 A  
ENDROOT
BRANCH  11  13
HETATM   13  O   UNL     1     -12.293  10.804  69.705  1.00  0.00    -0.327 OA 
BRANCH  13  14
HETATM   14  C   UNL     1     -12.128  12.141  70.177  1.00  0.00    -0.290 C  
BRANCH  14  15
HETATM   15  C   UNL     1     -11.976  13.131  68.997  1.00  0.00    -0.329 C  
BRANCH  15  16
HETATM   16  C   UNL     1     -11.287  14.407  69.502  1.00  0.00    -0.318 C  
BRANCH  16  17
HETATM   17  C   UNL     1     -11.692  15.750  68.884  1.00  0.00    -0.404 C  
BRANCH  17  18
HETATM   18  C   UNL     1     -10.997  16.112  67.620  1.00  0.00    -0.268 A  
HETATM   19  N   UNL     1     -10.697  15.212  66.697  1.00  0.00    -0.306 NA 
HETATM   20  N   UNL     1     -10.156  15.882  65.645  1.00  0.00    -0.350 NA 
HETATM   21  N   UNL     1     -10.092  17.173  65.900  1.00  0.00    -0.532 NA 
HETATM   22  N   UNL     1     -10.670  17.354  67.112  1.00  0.00    -0.250 NA 
BRANCH  22  23
HETATM   23  C   UNL     1     -10.723  18.719  67.628  1.00  0.00    -0.385 C  
HETATM   24  C   UNL     1      -9.798  18.922  68.860  1.00  0.00    -0.447 C  
HETATM   25  C   UNL     1      -8.321  18.859  68.462  1.00  0.00    -0.384 C  
HETATM   26  C   UNL     1      -7.987  19.939  67.440  1.00  0.00    -0.324 C  
HETATM   27  C   UNL     1      -8.937  19.922  66.242  1.00  0.00    -0.419 C  
HETATM   28  C   UNL     1     -10.409  19.873  66.661  1.00  0.00    -0.608 C  
ENDBRANCH  22  23
ENDBRANCH  17  18
ENDBRANCH  16  17
ENDBRANCH  15  16
ENDBRANCH  14  15
ENDBRANCH  13  14
ENDBRANCH  11  13
TORSDOF 7
ENDMDL
MODEL      157
REMARK 921   NORMALIZED FREE ENERGY PREDICTED BY IDOCK:   -5.26 KCAL/MOL
REMARK 922        TOTAL FREE ENERGY PREDICTED BY IDOCK:   -8.42 KCAL/MOL
REMARK 923 INTER-LIGAND FREE ENERGY PREDICTED BY IDOCK:   -7.34 KCAL/MOL
REMARK 924 INTRA-LIGAND FREE ENERGY PREDICTED BY IDOCK:   -1.08 KCAL/MOL
REMARK 927      BINDING AFFINITY PREDICTED BY RF-SCORE:    0.00 PKD
ROOT
HETATM    1  O   UNL     1     -12.874  15.934  70.542  1.00  0.00    -0.422 OA 
HETATM    2  C   UNL     1     -12.809  14.765  70.917  1.00  0.00    -0.362 C  
HETATM    3  C   UNL     1     -13.208  14.338  72.310  1.00  0.00    -0.508 C  
HETATM    4  C   UNL     1     -13.781  12.927  72.348  1.00  0.00    -0.530 C  
HETATM    5  C   UNL     1     -12.973  11.955  71.530  1.00  0.00    -0.427 A  
HETATM    6  C   UNL     1     -12.239  12.435  70.438  1.00  0.00    -0.287 A  
HETATM    7  N   UNL     1     -12.248  13.799  70.129  1.00  0.00    -0.350 N  
HETATM    8  C   UNL     1     -11.539  11.553  69.622  1.00  0.00    -0.403 A  
HETATM    9  C   UNL     1     -11.575  10.179  69.886  1.00  0.00    -0.290 A  
HETATM   10  H   UNL     1     -11.807  14.092  69.258  1.00  0.00     0.000 HD 
HETATM   11  C   UNL     1     -12.328   9.669  70.949  1.00  0.00    -0.263 A  
HETATM   12  C   UNL     1     -13.025  10.564  71.772  1.00  0.00    -0.582 A  
ENDROOT
BRANCH  11  13
HETATM   13  O   UNL     1     -12.300   8.297  71.055  1.00  0.00    -0.253 OA 
BRANCH  13  14
HETATM   14  C   UNL     1     -11.500   7.742  72.099  1.00  0.00    -0.310 C  
BRANCH  14  15
HETATM   15  C   UNL     1     -10.545   6.657  71.547  1.00  0.00    -0.251 C  
BRANCH  15  16
HETATM   16  C   UNL     1      -9.179   7.295  71.257  1.00  0.00    -0.151 C  
BRANCH  16  17
HETATM   17  C   UNL     1      -8.806   7.594  69.800  1.00  0.00    -0.140 C  
BRANCH  17  18
HETATM   18  C   UNL     1      -9.526   6.794  68.774  1.00  0.00    -0.130 A  
HETATM   19  N   UNL     1     -10.593   7.255  68.142  1.00  0.00    -0.197 NA 
HETATM   20  N   UNL     1     -10.947   6.320  67.219  1.00  0.00    -0.366 NA 
HETATM   21  N   UNL     1     -10.139   5.281  67.278  1.00  0.00    -0.180 NA 
HETATM   22  N   UNL     1      -9.198   5.578  68.207  1.00  0.00    -0.108 NA 
BRANCH  22  23
HETATM   23  C   UNL     1      -8.173   4.570  68.463  1.00  0.00    -0.082 C  
HETATM   24  C   UNL     1      -8.128   4.137  69.955  1.00  0.00    -0.059 C  
HETATM   25  C   UNL     1      -9.374   3.334  70.337  1.00  0.00    -0.237 C  
HETATM   26  C   UNL     1      -9.492   2.075  69.485  1.00  0.00    -0.113 C  
HETATM   27  C   UNL     1      -9.401   2.374  67.988  1.00  0.00    -0.253 C  
HETATM   28  C   UNL     1      -8.211   3.271  67.639  1.00  0.00    -0.086 C  
ENDBRANCH  22  23
ENDBRANCH  17  18
ENDBRANCH  16  17
ENDBRANCH  15  16
ENDBRANCH  14  15
ENDBRANCH  13  14
ENDBRANCH  11  13
TORSDOF 7
ENDMDL
MODEL      158
REMARK 921   NORMALIZED FREE ENERGY PREDICTED BY IDOCK:   -5.26 KCAL/MOL
REMARK 922        TOTAL FREE ENERGY PREDICTED BY IDOCK:   -8.42 KCAL/MOL
REMARK 923 INTER-LIGAND FREE ENERGY PREDICTED BY IDOCK:   -7.84 KCAL/MOL
REMARK 924 INTRA-LIGAND FREE ENERGY PREDICTED BY IDOCK:   -0.59 KCAL/MOL
REMARK 927      BINDING AFFINITY PREDICTED BY RF-SCORE:    0.00 PKD
ROOT
HETATM    1  O   UNL     1      -9.352   5.022  67.224  1.00  0.00    -0.118 OA 
HETATM    2  C   UNL     1      -9.784   6.152  67.439  1.00  0.00    -0.120 C  
HETATM    3  C   UNL     1     -10.645   6.476  68.638  1.00  0.00    -0.289 C  
HETATM    4  C   UNL     1     -10.435   7.899  69.142  1.00  0.00    -0.218 C  
HETATM    5  C   UNL     1     -10.398   8.906  68.023  1.00  0.00    -0.271 A  
HETATM    6  C   UNL     1      -9.976   8.492  66.753  1.00  0.00    -0.281 A  
HETATM    7  N   UNL     1      -9.614   7.160  66.531  1.00  0.00    -0.283 N  
HETATM    8  C   UNL     1      -9.865   9.413  65.716  1.00  0.00    -0.345 A  
HETATM    9  C   UNL     1     -10.165  10.761  65.945  1.00  0.00    -0.319 A  
HETATM   10  H   UNL     1      -9.195   6.924  65.632  1.00  0.00     0.000 HD 
HETATM   11  C   UNL     1     -10.555  11.208  67.212  1.00  0.00    -0.239 A  
HETATM   12  C   UNL     1     -10.672  10.273  68.250  1.00  0.00    -0.276 A  
ENDROOT
BRANCH  11  13
HETATM   13  O   UNL     1     -10.774  12.564  67.292  1.00  0.00    -0.228 OA 
BRANCH  13  14
HETATM   14  C   UNL     1     -12.028  12.990  67.823  1.00  0.00    -0.295 C  
BRANCH  14  15
HETATM   15  C   UNL     1     -11.837  13.729  69.170  1.00  0.00    -0.398 C  
BRANCH  15  16
HETATM   16  C   UNL     1     -11.820  15.242  68.910  1.00  0.00    -0.344 C  
BRANCH  16  17
HETATM   17  C   UNL     1     -10.468  15.934  68.705  1.00  0.00    -0.240 C  
BRANCH  17  18
HETATM   18  C   UNL     1     -10.272  16.584  67.382  1.00  0.00    -0.287 A  
HETATM   19  N   UNL     1     -10.786  16.086  66.268  1.00  0.00    -0.228 NA 
HETATM   20  N   UNL     1     -10.498  16.961  65.267  1.00  0.00    -0.662 NA 
HETATM   21  N   UNL     1      -9.800  17.979  65.728  1.00  0.00    -0.522 NA 
HETATM   22  N   UNL     1      -9.695  17.799  67.067  1.00  0.00    -0.279 NA 
BRANCH  22  23
HETATM   23  C   UNL     1      -8.953  18.807  67.819  1.00  0.00    -0.286 C  
HETATM   24  C   UNL     1      -7.823  18.185  68.687  1.00  0.00    -0.307 C  
HETATM   25  C   UNL     1      -6.691  17.636  67.815  1.00  0.00    -0.190 C  
HETATM   26  C   UNL     1      -6.077  18.741  66.963  1.00  0.00    -0.175 C  
HETATM   27  C   UNL     1      -7.128  19.519  66.170  1.00  0.00    -0.271 C  
HETATM   28  C   UNL     1      -8.307  19.965  67.039  1.00  0.00    -0.364 C  
ENDBRANCH  22  23
ENDBRANCH  17  18
ENDBRANCH  16  17
ENDBRANCH  15  16
ENDBRANCH  14  15
ENDBRANCH  13  14
ENDBRANCH  11  13
TORSDOF 7
ENDMDL
MODEL      159
REMARK 921   NORMALIZED FREE ENERGY PREDICTED BY IDOCK:   -5.24 KCAL/MOL
REMARK 922        TOTAL FREE ENERGY PREDICTED BY IDOCK:   -8.40 KCAL/MOL
REMARK 923 INTER-LIGAND FREE ENERGY PREDICTED BY IDOCK:   -6.53 KCAL/MOL
REMARK 924 INTRA-LIGAND FREE ENERGY PREDICTED BY IDOCK:   -1.87 KCAL/MOL
REMARK 927      BINDING AFFINITY PREDICTED BY RF-SCORE:    0.00 PKD
ROOT
HETATM    1  O   UNL     1     -10.416   8.827  72.408  1.00  0.00    -0.305 OA 
HETATM    2  C   UNL     1     -10.837   9.385  71.397  1.00  0.00    -0.360 C  
HETATM    3  C   UNL     1     -12.070  10.259  71.408  1.00  0.00    -0.457 C  
HETATM    4  C   UNL     1     -11.992  11.394  70.394  1.00  0.00    -0.465 C  
HETATM    5  C   UNL     1     -11.479  10.935  69.055  1.00  0.00    -0.371 A  
HETATM    6  C   UNL     1     -10.630   9.823  69.000  1.00  0.00    -0.219 A  
HETATM    7  N   UNL     1     -10.282   9.144  70.172  1.00  0.00    -0.193 N  
HETATM    8  C   UNL     1     -10.085   9.417  67.786  1.00  0.00    -0.246 A  
HETATM    9  C   UNL     1     -10.378  10.128  66.616  1.00  0.00    -0.274 A  
HETATM   10  H   UNL     1      -9.566   8.421  70.108  1.00  0.00     0.000 HD 
HETATM   11  C   UNL     1     -11.195  11.263  66.648  1.00  0.00    -0.177 A  
HETATM   12  C   UNL     1     -11.747  11.662  67.873  1.00  0.00    -0.329 A  
ENDROOT
BRANCH  11  13
HETATM   13  O   UNL     1     -11.356  11.879  65.429  1.00  0.00    -0.323 OA 
BRANCH  13  14
HETATM   14  C   UNL     1     -12.594  12.551  65.197  1.00  0.00    -0.281 C  
BRANCH  14  15
HETATM   15  C   UNL     1     -12.396  14.086  65.183  1.00  0.00    -0.468 C  
BRANCH  15  16
HETATM   16  C   UNL     1     -11.035  14.408  64.550  1.00  0.00    -0.290 C  
BRANCH  16  17
HETATM   17  C   UNL     1     -10.042  15.262  65.345  1.00  0.00    -0.397 C  
BRANCH  17  18
HETATM   18  C   UNL     1      -9.609  14.698  66.651  1.00  0.00    -0.278 A  
HETATM   19  N   UNL     1      -8.795  13.657  66.735  1.00  0.00    -0.183 NA 
HETATM   20  N   UNL     1      -8.534  13.458  68.055  1.00  0.00    -0.163 NA 
HETATM   21  N   UNL     1      -9.182  14.336  68.793  1.00  0.00    -0.158 NA 
HETATM   22  N   UNL     1      -9.818  15.166  67.933  1.00  0.00    -0.216 NA 
BRANCH  22  23
HETATM   23  C   UNL     1     -10.620  16.241  68.514  1.00  0.00    -0.294 C  
HETATM   24  C   UNL     1     -12.138  16.063  68.236  1.00  0.00     0.382 C  
HETATM   25  C   UNL     1     -12.709  14.874  69.012  1.00  0.00     0.404 C  
HETATM   26  C   UNL     1     -12.525  15.065  70.513  1.00  0.00    -0.425 C  
HETATM   27  C   UNL     1     -11.078  15.392  70.886  1.00  0.00    -0.374 C  
HETATM   28  C   UNL     1     -10.488  16.510  70.023  1.00  0.00    -0.073 C  
ENDBRANCH  22  23
ENDBRANCH  17  18
ENDBRANCH  16  17
ENDBRANCH  15  16
ENDBRANCH  14  15
ENDBRANCH  13  14
ENDBRANCH  11  13
TORSDOF 7
ENDMDL
MODEL      160
REMARK 921   NORMALIZED FREE ENERGY PREDICTED BY IDOCK:   -5.24 KCAL/MOL
REMARK 922        TOTAL FREE ENERGY PREDICTED BY IDOCK:   -8.40 KCAL/MOL
REMARK 923 INTER-LIGAND FREE ENERGY PREDICTED BY IDOCK:   -6.39 KCAL/MOL
REMARK 924 INTRA-LIGAND FREE ENERGY PREDICTED BY IDOCK:   -2.01 KCAL/MOL
REMARK 927      BINDING AFFINITY PREDICTED BY RF-SCORE:    0.00 PKD
ROOT
HETATM    1  O   UNL     1     -13.283  11.543  62.773  1.00  0.00    -0.011 OA 
HETATM    2  C   UNL     1     -12.513  12.217  63.454  1.00  0.00    -0.481 C  
HETATM    3  C   UNL     1     -11.411  11.600  64.282  1.00  0.00    -0.361 C  
HETATM    4  C   UNL     1     -10.187  12.501  64.394  1.00  0.00    -0.346 C  
HETATM    5  C   UNL     1     -10.552  13.933  64.683  1.00  0.00    -0.432 A  
HETATM    6  C   UNL     1     -11.799  14.413  64.261  1.00  0.00    -0.364 A  
HETATM    7  N   UNL     1     -12.691  13.565  63.599  1.00  0.00    -0.596 N  
HETATM    8  C   UNL     1     -12.136  15.749  64.451  1.00  0.00    -0.010 A  
HETATM    9  C   UNL     1     -11.223  16.620  65.058  1.00  0.00    -0.030 A  
HETATM   10  H   UNL     1     -13.532  13.979  63.198  1.00  0.00     0.000 HD 
HETATM   11  C   UNL     1      -9.959  16.176  65.457  1.00  0.00    -0.216 A  
HETATM   12  C   UNL     1      -9.628  14.827  65.269  1.00  0.00     0.048 A  
ENDROOT
BRANCH  11  13
HETATM   13  O   UNL     1      -9.159  17.157  65.996  1.00  0.00    -0.473 OA 
BRANCH  13  14
HETATM   14  C   UNL     1      -8.672  16.944  67.321  1.00  0.00    -0.194 C  
BRANCH  14  15
HETATM   15  C   UNL     1      -9.806  17.106  68.361  1.00  0.00    -0.296 C  
BRANCH  15  16
HETATM   16  C   UNL     1      -9.795  15.894  69.304  1.00  0.00    -0.259 C  
BRANCH  16  17
HETATM   17  C   UNL     1      -9.229  14.568  68.784  1.00  0.00    -0.162 C  
BRANCH  17  18
HETATM   18  C   UNL     1     -10.235  13.526  68.448  1.00  0.00    -0.245 A  
HETATM   19  N   UNL     1     -11.445  13.831  68.005  1.00  0.00    -0.291 NA 
HETATM   20  N   UNL     1     -12.071  12.659  67.713  1.00  0.00    -0.366 NA 
HETATM   21  N   UNL     1     -11.288  11.634  67.983  1.00  0.00    -0.270 NA 
HETATM   22  N   UNL     1     -10.105  12.152  68.390  1.00  0.00    -0.210 NA 
BRANCH  22  23
HETATM   23  C   UNL     1      -9.054  11.206  68.756  1.00  0.00    -0.139 C  
HETATM   24  C   UNL     1      -9.222   9.833  68.048  1.00  0.00    -0.131 C  
HETATM   25  C   UNL     1      -8.950   9.945  66.546  1.00  0.00    -0.166 C  
HETATM   26  C   UNL     1      -7.530  10.439  66.286  1.00  0.00    -0.127 C  
HETATM   27  C   UNL     1      -7.208  11.719  67.057  1.00  0.00    -0.134 C  
HETATM   28  C   UNL     1      -7.591  11.626  68.536  1.00  0.00    -0.127 C  
ENDBRANCH  22  23
ENDBRANCH  17  18
ENDBRANCH  16  17
ENDBRANCH  15  16
ENDBRANCH  14  15
ENDBRANCH  13  14
ENDBRANCH  11  13
TORSDOF 7
ENDMDL
MODEL      161
REMARK 921   NORMALIZED FREE ENERGY PREDICTED BY IDOCK:   -5.23 KCAL/MOL
REMARK 922        TOTAL FREE ENERGY PREDICTED BY IDOCK:   -8.39 KCAL/MOL
REMARK 923 INTER-LIGAND FREE ENERGY PREDICTED BY IDOCK:   -7.37 KCAL/MOL
REMARK 924 INTRA-LIGAND FREE ENERGY PREDICTED BY IDOCK:   -1.02 KCAL/MOL
REMARK 927      BINDING AFFINITY PREDICTED BY RF-SCORE:    0.00 PKD
ROOT
HETATM    1  O   UNL     1      -7.664  19.943  68.982  1.00  0.00    -0.247 OA 
HETATM    2  C   UNL     1      -8.443  19.290  68.291  1.00  0.00    -0.331 C  
HETATM    3  C   UNL     1      -9.615  19.920  67.574  1.00  0.00    -0.493 C  
HETATM    4  C   UNL     1      -9.950  19.214  66.266  1.00  0.00    -0.462 C  
HETATM    5  C   UNL     1      -9.947  17.715  66.404  1.00  0.00    -0.337 A  
HETATM    6  C   UNL     1      -9.140  17.127  67.386  1.00  0.00    -0.224 A  
HETATM    7  N   UNL     1      -8.366  17.926  68.233  1.00  0.00    -0.276 N  
HETATM    8  C   UNL     1      -9.063  15.742  67.493  1.00  0.00    -0.201 A  
HETATM    9  C   UNL     1      -9.786  14.932  66.608  1.00  0.00    -0.276 A  
HETATM   10  H   UNL     1      -7.700  17.461  68.848  1.00  0.00     0.000 HD 
HETATM   11  C   UNL     1     -10.572  15.493  65.596  1.00  0.00    -0.373 A  
HETATM   12  C   UNL     1     -10.651  16.889  65.500  1.00  0.00    -0.215 A  
ENDROOT
BRANCH  11  13
HETATM   13  O   UNL     1     -11.187  14.571  64.781  1.00  0.00    -0.374 OA 
BRANCH  13  14
HETATM   14  C   UNL     1     -12.321  13.886  65.313  1.00  0.00    -0.464 C  
BRANCH  14  15
HETATM   15  C   UNL     1     -12.097  12.355  65.307  1.00  0.00    -0.451 C  
BRANCH  15  16
HETATM   16  C   UNL     1     -10.801  12.044  64.545  1.00  0.00    -0.363 C  
BRANCH  16  17
HETATM   17  C   UNL     1      -9.861  10.971  65.108  1.00  0.00    -0.319 C  
BRANCH  17  18
HETATM   18  C   UNL     1      -9.219  11.297  66.409  1.00  0.00    -0.192 A  
HETATM   19  N   UNL     1      -8.084  11.971  66.486  1.00  0.00    -0.023 NA 
HETATM   20  N   UNL     1      -7.825  12.172  67.806  1.00  0.00    -0.137 NA 
HETATM   21  N   UNL     1      -8.762  11.620  68.551  1.00  0.00    -0.155 NA 
HETATM   22  N   UNL     1      -9.684  11.115  67.697  1.00  0.00    -0.168 NA 
BRANCH  22  23
HETATM   23  C   UNL     1     -10.838  10.439  68.285  1.00  0.00    -0.254 C  
HETATM   24  C   UNL     1     -11.004   8.986  67.760  1.00  0.00    -0.004 C  
HETATM   25  C   UNL     1      -9.887   8.077  68.278  1.00  0.00    -0.190 C  
HETATM   26  C   UNL     1      -9.888   8.030  69.802  1.00  0.00    -0.183 C  
HETATM   27  C   UNL     1      -9.873   9.425  70.429  1.00  0.00    -0.313 C  
HETATM   28  C   UNL     1     -10.924  10.355  69.818  1.00  0.00    -0.345 C  
ENDBRANCH  22  23
ENDBRANCH  17  18
ENDBRANCH  16  17
ENDBRANCH  15  16
ENDBRANCH  14  15
ENDBRANCH  13  14
ENDBRANCH  11  13
TORSDOF 7
ENDMDL
MODEL      162
REMARK 921   NORMALIZED FREE ENERGY PREDICTED BY IDOCK:   -5.23 KCAL/MOL
REMARK 922        TOTAL FREE ENERGY PREDICTED BY IDOCK:   -8.38 KCAL/MOL
REMARK 923 INTER-LIGAND FREE ENERGY PREDICTED BY IDOCK:   -6.79 KCAL/MOL
REMARK 924 INTRA-LIGAND FREE ENERGY PREDICTED BY IDOCK:   -1.59 KCAL/MOL
REMARK 927      BINDING AFFINITY PREDICTED BY RF-SCORE:    0.00 PKD
ROOT
HETATM    1  O   UNL     1      -6.508  10.491  65.156  1.00  0.00    -0.118 OA 
HETATM    2  C   UNL     1      -6.932  10.233  66.280  1.00  0.00    -0.115 C  
HETATM    3  C   UNL     1      -6.204  10.651  67.536  1.00  0.00    -0.056 C  
HETATM    4  C   UNL     1      -7.152  10.944  68.692  1.00  0.00    -0.080 C  
HETATM    5  C   UNL     1      -8.231   9.903  68.830  1.00  0.00    -0.118 A  
HETATM    6  C   UNL     1      -8.635   9.192  67.694  1.00  0.00    -0.117 A  
HETATM    7  N   UNL     1      -8.029   9.437  66.458  1.00  0.00    -0.107 N  
HETATM    8  C   UNL     1      -9.676   8.273  67.775  1.00  0.00    -0.194 A  
HETATM    9  C   UNL     1     -10.331   8.066  68.996  1.00  0.00    -0.228 A  
HETATM   10  H   UNL     1      -8.434   8.993  65.634  1.00  0.00     0.000 HD 
HETATM   11  C   UNL     1      -9.971   8.788  70.138  1.00  0.00    -0.184 A  
HETATM   12  C   UNL     1      -8.916   9.706  70.050  1.00  0.00    -0.266 A  
ENDROOT
BRANCH  11  13
HETATM   13  O   UNL     1     -10.732   8.506  71.249  1.00  0.00    -0.218 OA 
BRANCH  13  14
HETATM   14  C   UNL     1     -12.138   8.733  71.149  1.00  0.00    -0.267 C  
BRANCH  14  15
HETATM   15  C   UNL     1     -12.599   9.808  72.161  1.00  0.00    -0.367 C  
BRANCH  15  16
HETATM   16  C   UNL     1     -12.860  11.122  71.411  1.00  0.00    -0.544 C  
BRANCH  16  17
HETATM   17  C   UNL     1     -12.272  11.289  70.004  1.00  0.00    -0.389 C  
BRANCH  17  18
HETATM   18  C   UNL     1     -11.890  12.675  69.627  1.00  0.00    -0.311 A  
HETATM   19  N   UNL     1     -12.298  13.731  70.314  1.00  0.00    -0.343 NA 
HETATM   20  N   UNL     1     -11.703  14.823  69.762  1.00  0.00    -0.292 NA 
HETATM   21  N   UNL     1     -10.952  14.473  68.737  1.00  0.00    -0.241 NA 
HETATM   22  N   UNL     1     -11.003  13.121  68.667  1.00  0.00    -0.257 NA 
BRANCH  22  23
HETATM   23  C   UNL     1     -10.244  12.480  67.596  1.00  0.00    -0.219 C  
HETATM   24  C   UNL     1     -11.151  11.664  66.634  1.00  0.00    -0.364 C  
HETATM   25  C   UNL     1     -12.042  12.584  65.796  1.00  0.00    -0.443 C  
HETATM   26  C   UNL     1     -11.201  13.537  64.955  1.00  0.00    -0.353 C  
HETATM   27  C   UNL     1     -10.166  14.293  65.789  1.00  0.00    -0.351 C  
HETATM   28  C   UNL     1      -9.359  13.367  66.703  1.00  0.00    -0.248 C  
ENDBRANCH  22  23
ENDBRANCH  17  18
ENDBRANCH  16  17
ENDBRANCH  15  16
ENDBRANCH  14  15
ENDBRANCH  13  14
ENDBRANCH  11  13
TORSDOF 7
ENDMDL
MODEL      163
REMARK 921   NORMALIZED FREE ENERGY PREDICTED BY IDOCK:   -5.20 KCAL/MOL
REMARK 922        TOTAL FREE ENERGY PREDICTED BY IDOCK:   -8.35 KCAL/MOL
REMARK 923 INTER-LIGAND FREE ENERGY PREDICTED BY IDOCK:   -7.59 KCAL/MOL
REMARK 924 INTRA-LIGAND FREE ENERGY PREDICTED BY IDOCK:   -0.76 KCAL/MOL
REMARK 927      BINDING AFFINITY PREDICTED BY RF-SCORE:    0.00 PKD
ROOT
HETATM    1  O   UNL     1     -13.257  14.916  73.687  1.00  0.00    -0.485 OA 
HETATM    2  C   UNL     1     -13.070  14.540  72.532  1.00  0.00    -0.431 C  
HETATM    3  C   UNL     1     -13.209  15.465  71.346  1.00  0.00    -0.578 C  
HETATM    4  C   UNL     1     -12.260  15.107  70.209  1.00  0.00    -0.395 C  
HETATM    5  C   UNL     1     -12.225  13.628  69.933  1.00  0.00    -0.367 A  
HETATM    6  C   UNL     1     -12.513  12.737  70.976  1.00  0.00    -0.277 A  
HETATM    7  N   UNL     1     -12.845  13.223  72.244  1.00  0.00    -0.206 N  
HETATM    8  C   UNL     1     -12.422  11.365  70.770  1.00  0.00    -0.460 A  
HETATM    9  C   UNL     1     -12.029  10.870  69.521  1.00  0.00    -0.401 A  
HETATM   10  H   UNL     1     -12.925  12.549  73.005  1.00  0.00     0.000 HD 
HETATM   11  C   UNL     1     -11.702  11.737  68.473  1.00  0.00    -0.330 A  
HETATM   12  C   UNL     1     -11.804  13.119  68.684  1.00  0.00    -0.363 A  
ENDROOT
BRANCH  11  13
HETATM   13  O   UNL     1     -11.293  11.104  67.322  1.00  0.00    -0.397 OA 
BRANCH  13  14
HETATM   14  C   UNL     1     -10.091  11.574  66.712  1.00  0.00    -0.215 C  
BRANCH  14  15
HETATM   15  C   UNL     1      -9.678  10.666  65.529  1.00  0.00    -0.291 C  
BRANCH  15  16
HETATM   16  C   UNL     1      -8.218  10.230  65.722  1.00  0.00    -0.147 C  
BRANCH  16  17
HETATM   17  C   UNL     1      -7.914   9.123  66.738  1.00  0.00    -0.104 C  
BRANCH  17  18
HETATM   18  C   UNL     1      -8.537   7.803  66.458  1.00  0.00    -0.143 A  
HETATM   19  N   UNL     1      -8.042   6.966  65.561  1.00  0.00    -0.126 NA 
HETATM   20  N   UNL     1      -8.788   5.829  65.618  1.00  0.00    -0.153 NA 
HETATM   21  N   UNL     1      -9.748   5.949  66.513  1.00  0.00    -0.156 NA 
HETATM   22  N   UNL     1      -9.576   7.158  67.100  1.00  0.00    -0.143 NA 
BRANCH  22  23
HETATM   23  C   UNL     1     -10.529   7.534  68.141  1.00  0.00    -0.183 C  
HETATM   24  C   UNL     1     -11.179   6.298  68.823  1.00  0.00    -0.357 C  
HETATM   25  C   UNL     1     -10.161   5.535  69.675  1.00  0.00    -0.336 C  
HETATM   26  C   UNL     1      -9.589   6.430  70.769  1.00  0.00    -0.193 C  
HETATM   27  C   UNL     1      -9.049   7.750  70.219  1.00  0.00    -0.152 C  
HETATM   28  C   UNL     1     -10.039   8.444  69.279  1.00  0.00    -0.202 C  
ENDBRANCH  22  23
ENDBRANCH  17  18
ENDBRANCH  16  17
ENDBRANCH  15  16
ENDBRANCH  14  15
ENDBRANCH  13  14
ENDBRANCH  11  13
TORSDOF 7
ENDMDL
MODEL      164
REMARK 921   NORMALIZED FREE ENERGY PREDICTED BY IDOCK:   -5.20 KCAL/MOL
REMARK 922        TOTAL FREE ENERGY PREDICTED BY IDOCK:   -8.34 KCAL/MOL
REMARK 923 INTER-LIGAND FREE ENERGY PREDICTED BY IDOCK:   -7.53 KCAL/MOL
REMARK 924 INTRA-LIGAND FREE ENERGY PREDICTED BY IDOCK:   -0.81 KCAL/MOL
REMARK 927      BINDING AFFINITY PREDICTED BY RF-SCORE:    0.00 PKD
ROOT
HETATM    1  O   UNL     1     -13.910  15.841  72.623  1.00  0.00    -0.565 OA 
HETATM    2  C   UNL     1     -13.505  14.889  71.959  1.00  0.00    -0.388 C  
HETATM    3  C   UNL     1     -12.885  15.060  70.592  1.00  0.00    -0.413 C  
HETATM    4  C   UNL     1     -11.820  14.011  70.297  1.00  0.00    -0.373 C  
HETATM    5  C   UNL     1     -12.252  12.625  70.694  1.00  0.00    -0.373 A  
HETATM    6  C   UNL     1     -13.182  12.476  71.731  1.00  0.00    -0.344 A  
HETATM    7  N   UNL     1     -13.709  13.602  72.371  1.00  0.00    -0.570 N  
HETATM    8  C   UNL     1     -13.549  11.206  72.167  1.00  0.00    -0.074 A  
HETATM    9  C   UNL     1     -12.979  10.073  71.574  1.00  0.00    -0.535 A  
HETATM   10  H   UNL     1     -14.283  13.452  73.199  1.00  0.00     0.000 HD 
HETATM   11  C   UNL     1     -12.023  10.193  70.560  1.00  0.00    -0.311 A  
HETATM   12  C   UNL     1     -11.663  11.475  70.121  1.00  0.00    -0.395 A  
ENDROOT
BRANCH  11  13
HETATM   13  O   UNL     1     -11.524   8.994  70.108  1.00  0.00    -0.193 OA 
BRANCH  13  14
HETATM   14  C   UNL     1     -11.302   7.973  71.081  1.00  0.00    -0.266 C  
BRANCH  14  15
HETATM   15  C   UNL     1     -11.654   6.578  70.510  1.00  0.00    -0.455 C  
BRANCH  15  16
HETATM   16  C   UNL     1     -10.497   5.613  70.803  1.00  0.00    -0.335 C  
BRANCH  16  17
HETATM   17  C   UNL     1      -9.479   5.333  69.691  1.00  0.00    -0.196 C  
BRANCH  17  18
HETATM   18  C   UNL     1      -8.432   6.371  69.500  1.00  0.00    -0.133 A  
HETATM   19  N   UNL     1      -7.688   6.814  70.501  1.00  0.00    -0.102 NA 
HETATM   20  N   UNL     1      -6.781   7.680  69.973  1.00  0.00    -0.048 NA 
HETATM   21  N   UNL     1      -6.959   7.803  68.673  1.00  0.00    -0.066 NA 
HETATM   22  N   UNL     1      -7.952   6.944  68.339  1.00  0.00    -0.121 NA 
BRANCH  22  23
HETATM   23  C   UNL     1      -8.343   6.893  66.932  1.00  0.00    -0.114 C  
HETATM   24  C   UNL     1      -9.882   6.777  66.750  1.00  0.00    -0.236 C  
HETATM   25  C   UNL     1     -10.589   8.070  67.162  1.00  0.00    -0.367 C  
HETATM   26  C   UNL     1     -10.102   9.247  66.323  1.00  0.00    -0.322 C  
HETATM   27  C   UNL     1      -8.577   9.366  66.315  1.00  0.00    -0.142 C  
HETATM   28  C   UNL     1      -7.885   8.035  66.010  1.00  0.00    -0.094 C  
ENDBRANCH  22  23
ENDBRANCH  17  18
ENDBRANCH  16  17
ENDBRANCH  15  16
ENDBRANCH  14  15
ENDBRANCH  13  14
ENDBRANCH  11  13
TORSDOF 7
ENDMDL
MODEL      165
REMARK 921   NORMALIZED FREE ENERGY PREDICTED BY IDOCK:   -5.20 KCAL/MOL
REMARK 922        TOTAL FREE ENERGY PREDICTED BY IDOCK:   -8.34 KCAL/MOL
REMARK 923 INTER-LIGAND FREE ENERGY PREDICTED BY IDOCK:   -7.70 KCAL/MOL
REMARK 924 INTRA-LIGAND FREE ENERGY PREDICTED BY IDOCK:   -0.64 KCAL/MOL
REMARK 927      BINDING AFFINITY PREDICTED BY RF-SCORE:    0.00 PKD
ROOT
HETATM    1  O   UNL     1      -8.035  20.281  66.570  1.00  0.00    -0.287 OA 
HETATM    2  C   UNL     1      -8.151  19.073  66.767  1.00  0.00    -0.269 C  
HETATM    3  C   UNL     1      -7.087  18.260  67.466  1.00  0.00    -0.204 C  
HETATM    4  C   UNL     1      -7.668  17.100  68.266  1.00  0.00    -0.220 C  
HETATM    5  C   UNL     1      -8.725  16.348  67.502  1.00  0.00    -0.188 A  
HETATM    6  C   UNL     1      -9.462  17.023  66.522  1.00  0.00    -0.276 A  
HETATM    7  N   UNL     1      -9.202  18.369  66.249  1.00  0.00    -0.256 N  
HETATM    8  C   UNL     1     -10.492  16.374  65.848  1.00  0.00    -0.350 A  
HETATM    9  C   UNL     1     -10.801  15.044  66.159  1.00  0.00    -0.329 A  
HETATM   10  H   UNL     1      -9.840  18.859  65.621  1.00  0.00     0.000 HD 
HETATM   11  C   UNL     1     -10.104  14.357  67.158  1.00  0.00    -0.253 A  
HETATM   12  C   UNL     1      -9.062  15.015  67.827  1.00  0.00    -0.180 A  
ENDROOT
BRANCH  11  13
HETATM   13  O   UNL     1     -10.550  13.074  67.379  1.00  0.00    -0.232 OA 
BRANCH  13  14
HETATM   14  C   UNL     1     -11.906  12.920  67.798  1.00  0.00    -0.339 C  
BRANCH  14  15
HETATM   15  C   UNL     1     -12.154  13.638  69.146  1.00  0.00    -0.361 C  
BRANCH  15  16
HETATM   16  C   UNL     1     -12.160  12.595  70.273  1.00  0.00    -0.372 C  
BRANCH  16  17
HETATM   17  C   UNL     1     -12.058  11.112  69.898  1.00  0.00    -0.418 C  
BRANCH  17  18
HETATM   18  C   UNL     1     -12.342  10.150  70.994  1.00  0.00    -0.373 A  
HETATM   19  N   UNL     1     -13.560   9.977  71.483  1.00  0.00    -0.256 NA 
HETATM   20  N   UNL     1     -13.486   8.974  72.399  1.00  0.00    -0.459 NA 
HETATM   21  N   UNL     1     -12.248   8.535  72.507  1.00  0.00    -0.371 NA 
HETATM   22  N   UNL     1     -11.518   9.215  71.591  1.00  0.00    -0.358 NA 
BRANCH  22  23
HETATM   23  C   UNL     1     -10.093   8.907  71.513  1.00  0.00    -0.324 C  
HETATM   24  C   UNL     1      -9.799   7.399  71.751  1.00  0.00    -0.187 C  
HETATM   25  C   UNL     1     -10.307   6.544  70.588  1.00  0.00    -0.239 C  
HETATM   26  C   UNL     1      -9.638   6.953  69.280  1.00  0.00    -0.149 C  
HETATM   27  C   UNL     1      -9.742   8.456  69.017  1.00  0.00    -0.171 C  
HETATM   28  C   UNL     1      -9.336   9.294  70.232  1.00  0.00    -0.277 C  
ENDBRANCH  22  23
ENDBRANCH  17  18
ENDBRANCH  16  17
ENDBRANCH  15  16
ENDBRANCH  14  15
ENDBRANCH  13  14
ENDBRANCH  11  13
TORSDOF 7
ENDMDL
MODEL      166
REMARK 921   NORMALIZED FREE ENERGY PREDICTED BY IDOCK:   -5.19 KCAL/MOL
REMARK 922        TOTAL FREE ENERGY PREDICTED BY IDOCK:   -8.33 KCAL/MOL
REMARK 923 INTER-LIGAND FREE ENERGY PREDICTED BY IDOCK:   -6.80 KCAL/MOL
REMARK 924 INTRA-LIGAND FREE ENERGY PREDICTED BY IDOCK:   -1.53 KCAL/MOL
REMARK 927      BINDING AFFINITY PREDICTED BY RF-SCORE:    0.00 PKD
ROOT
HETATM    1  O   UNL     1     -12.760  11.236  62.880  1.00  0.00     0.076 OA 
HETATM    2  C   UNL     1     -12.168  12.053  63.582  1.00  0.00    -0.538 C  
HETATM    3  C   UNL     1     -11.211  11.639  64.676  1.00  0.00    -0.320 C  
HETATM    4  C   UNL     1     -10.078  12.639  64.873  1.00  0.00    -0.244 C  
HETATM    5  C   UNL     1     -10.564  14.064  64.880  1.00  0.00    -0.442 A  
HETATM    6  C   UNL     1     -11.731  14.385  64.176  1.00  0.00    -0.227 A  
HETATM    7  N   UNL     1     -12.439  13.390  63.496  1.00  0.00    -0.798 N  
HETATM    8  C   UNL     1     -12.167  15.705  64.107  1.00  0.00     0.048 A  
HETATM    9  C   UNL     1     -11.430  16.717  64.734  1.00  0.00     0.166 A  
HETATM   10  H   UNL     1     -13.209  13.681  62.895  1.00  0.00     0.000 HD 
HETATM   11  C   UNL     1     -10.242  16.429  65.413  1.00  0.00    -0.189 A  
HETATM   12  C   UNL     1      -9.813  15.096  65.486  1.00  0.00    -0.356 A  
ENDROOT
BRANCH  11  13
HETATM   13  O   UNL     1      -9.609  17.532  65.938  1.00  0.00    -0.514 OA 
BRANCH  13  14
HETATM   14  C   UNL     1     -10.293  18.781  65.844  1.00  0.00    -0.342 C  
BRANCH  14  15
HETATM   15  C   UNL     1     -10.536  19.387  67.247  1.00  0.00    -0.599 C  
BRANCH  15  16
HETATM   16  C   UNL     1      -9.565  18.740  68.245  1.00  0.00    -0.395 C  
BRANCH  16  17
HETATM   17  C   UNL     1     -10.147  17.962  69.431  1.00  0.00     0.005 C  
BRANCH  17  18
HETATM   18  C   UNL     1     -10.409  16.519  69.187  1.00  0.00    -0.316 A  
HETATM   19  N   UNL     1     -11.580  16.078  68.754  1.00  0.00    -0.381 NA 
HETATM   20  N   UNL     1     -11.455  14.739  68.554  1.00  0.00    -0.293 NA 
HETATM   21  N   UNL     1     -10.242  14.333  68.872  1.00  0.00    -0.227 NA 
HETATM   22  N   UNL     1      -9.544  15.442  69.216  1.00  0.00    -0.253 NA 
BRANCH  22  23
HETATM   23  C   UNL     1      -8.152  15.256  69.618  1.00  0.00    -0.125 C  
HETATM   24  C   UNL     1      -7.473  14.076  68.869  1.00  0.00    -0.095 C  
HETATM   25  C   UNL     1      -7.268  14.403  67.388  1.00  0.00    -0.148 C  
HETATM   26  C   UNL     1      -6.387  15.636  67.221  1.00  0.00    -0.056 C  
HETATM   27  C   UNL     1      -6.888  16.826  68.039  1.00  0.00    -0.152 C  
HETATM   28  C   UNL     1      -7.195  16.453  69.492  1.00  0.00    -0.082 C  
ENDBRANCH  22  23
ENDBRANCH  17  18
ENDBRANCH  16  17
ENDBRANCH  15  16
ENDBRANCH  14  15
ENDBRANCH  13  14
ENDBRANCH  11  13
TORSDOF 7
ENDMDL
MODEL      167
REMARK 921   NORMALIZED FREE ENERGY PREDICTED BY IDOCK:   -5.18 KCAL/MOL
REMARK 922        TOTAL FREE ENERGY PREDICTED BY IDOCK:   -8.31 KCAL/MOL
REMARK 923 INTER-LIGAND FREE ENERGY PREDICTED BY IDOCK:   -7.40 KCAL/MOL
REMARK 924 INTRA-LIGAND FREE ENERGY PREDICTED BY IDOCK:   -0.91 KCAL/MOL
REMARK 927      BINDING AFFINITY PREDICTED BY RF-SCORE:    0.00 PKD
ROOT
HETATM    1  O   UNL     1     -11.289   8.575  72.390  1.00  0.00    -0.366 OA 
HETATM    2  C   UNL     1     -11.026   9.044  71.285  1.00  0.00    -0.313 C  
HETATM    3  C   UNL     1      -9.996   8.427  70.368  1.00  0.00    -0.199 C  
HETATM    4  C   UNL     1     -10.337   8.613  68.895  1.00  0.00    -0.228 C  
HETATM    5  C   UNL     1     -10.793  10.014  68.583  1.00  0.00    -0.265 A  
HETATM    6  C   UNL     1     -11.402  10.769  69.593  1.00  0.00    -0.294 A  
HETATM    7  N   UNL     1     -11.563  10.231  70.873  1.00  0.00    -0.359 N  
HETATM    8  C   UNL     1     -11.895  12.040  69.317  1.00  0.00    -0.377 A  
HETATM    9  C   UNL     1     -11.793  12.563  68.022  1.00  0.00    -0.382 A  
HETATM   10  H   UNL     1     -12.120  10.760  71.544  1.00  0.00     0.000 HD 
HETATM   11  C   UNL     1     -11.222  11.817  66.986  1.00  0.00    -0.322 A  
HETATM   12  C   UNL     1     -10.720  10.540  67.273  1.00  0.00    -0.333 A  
ENDROOT
BRANCH  11  13
HETATM   13  O   UNL     1     -11.232  12.446  65.763  1.00  0.00    -0.305 OA 
BRANCH  13  14
HETATM   14  C   UNL     1     -11.533  13.842  65.752  1.00  0.00    -0.318 C  
BRANCH  14  15
HETATM   15  C   UNL     1     -10.291  14.673  65.350  1.00  0.00    -0.406 C  
BRANCH  15  16
HETATM   16  C   UNL     1     -10.641  16.165  65.435  1.00  0.00    -0.399 C  
BRANCH  16  17
HETATM   17  C   UNL     1     -10.093  16.979  66.613  1.00  0.00    -0.308 C  
BRANCH  17  18
HETATM   18  C   UNL     1     -10.491  16.503  67.964  1.00  0.00    -0.313 A  
HETATM   19  N   UNL     1     -11.740  16.175  68.257  1.00  0.00    -0.200 NA 
HETATM   20  N   UNL     1     -11.741  15.702  69.533  1.00  0.00    -0.351 NA 
HETATM   21  N   UNL     1     -10.528  15.748  70.046  1.00  0.00    -0.310 NA 
HETATM   22  N   UNL     1      -9.711  16.191  69.060  1.00  0.00    -0.236 NA 
BRANCH  22  23
HETATM   23  C   UNL     1      -8.293  16.333  69.384  1.00  0.00    -0.027 C  
HETATM   24  C   UNL     1      -7.620  14.969  69.704  1.00  0.00    -0.140 C  
HETATM   25  C   UNL     1      -7.507  14.098  68.450  1.00  0.00    -0.124 C  
HETATM   26  C   UNL     1      -6.677  14.794  67.378  1.00  0.00    -0.060 C  
HETATM   27  C   UNL     1      -7.169  16.212  67.087  1.00  0.00    -0.255 C  
HETATM   28  C   UNL     1      -7.382  17.033  68.361  1.00  0.00    -0.213 C  
ENDBRANCH  22  23
ENDBRANCH  17  18
ENDBRANCH  16  17
ENDBRANCH  15  16
ENDBRANCH  14  15
ENDBRANCH  13  14
ENDBRANCH  11  13
TORSDOF 7
ENDMDL
MODEL      168
REMARK 921   NORMALIZED FREE ENERGY PREDICTED BY IDOCK:   -5.16 KCAL/MOL
REMARK 922        TOTAL FREE ENERGY PREDICTED BY IDOCK:   -8.29 KCAL/MOL
REMARK 923 INTER-LIGAND FREE ENERGY PREDICTED BY IDOCK:   -7.46 KCAL/MOL
REMARK 924 INTRA-LIGAND FREE ENERGY PREDICTED BY IDOCK:   -0.83 KCAL/MOL
REMARK 927      BINDING AFFINITY PREDICTED BY RF-SCORE:    0.00 PKD
ROOT
HETATM    1  O   UNL     1     -10.174  12.607  63.888  1.00  0.00    -0.412 OA 
HETATM    2  C   UNL     1     -10.437  12.003  64.926  1.00  0.00    -0.285 C  
HETATM    3  C   UNL     1     -10.393  10.496  65.021  1.00  0.00    -0.310 C  
HETATM    4  C   UNL     1      -9.988  10.008  66.406  1.00  0.00    -0.300 C  
HETATM    5  C   UNL     1     -10.696  10.751  67.507  1.00  0.00    -0.312 A  
HETATM    6  C   UNL     1     -11.124  12.063  67.273  1.00  0.00    -0.285 A  
HETATM    7  N   UNL     1     -10.911  12.661  66.027  1.00  0.00    -0.272 N  
HETATM    8  C   UNL     1     -11.719  12.800  68.292  1.00  0.00    -0.388 A  
HETATM    9  C   UNL     1     -11.881  12.230  69.561  1.00  0.00    -0.380 A  
HETATM   10  H   UNL     1     -11.122  13.654  65.934  1.00  0.00     0.000 HD 
HETATM   11  C   UNL     1     -11.430  10.935  69.833  1.00  0.00    -0.323 A  
HETATM   12  C   UNL     1     -10.839  10.196  68.799  1.00  0.00    -0.259 A  
ENDROOT
BRANCH  11  13
HETATM   13  O   UNL     1     -11.620  10.531  71.135  1.00  0.00    -0.307 OA 
BRANCH  13  14
HETATM   14  C   UNL     1     -12.968  10.416  71.590  1.00  0.00    -0.475 C  
BRANCH  14  15
HETATM   15  C   UNL     1     -13.199   9.062  72.303  1.00  0.00    -0.519 C  
BRANCH  15  16
HETATM   16  C   UNL     1     -12.073   8.095  71.912  1.00  0.00    -0.368 C  
BRANCH  16  17
HETATM   17  C   UNL     1     -11.139   7.577  73.012  1.00  0.00    -0.413 C  
BRANCH  17  18
HETATM   18  C   UNL     1      -9.690   7.577  72.678  1.00  0.00    -0.178 A  
HETATM   19  N   UNL     1      -9.009   8.697  72.491  1.00  0.00    -0.380 NA 
HETATM   20  N   UNL     1      -7.709   8.347  72.294  1.00  0.00    -0.200 NA 
HETATM   21  N   UNL     1      -7.570   7.038  72.332  1.00  0.00    -0.089 NA 
HETATM   22  N   UNL     1      -8.790   6.530  72.633  1.00  0.00    -0.125 NA 
BRANCH  22  23
HETATM   23  C   UNL     1      -8.901   5.077  72.733  1.00  0.00    -0.121 C  
HETATM   24  C   UNL     1     -10.046   4.510  71.848  1.00  0.00    -0.258 C  
HETATM   25  C   UNL     1      -9.712   4.636  70.360  1.00  0.00    -0.292 C  
HETATM   26  C   UNL     1      -8.435   3.876  70.022  1.00  0.00    -0.095 C  
HETATM   27  C   UNL     1      -7.270   4.256  70.937  1.00  0.00    -0.041 C  
HETATM   28  C   UNL     1      -7.655   4.231  72.419  1.00  0.00    -0.074 C  
ENDBRANCH  22  23
ENDBRANCH  17  18
ENDBRANCH  16  17
ENDBRANCH  15  16
ENDBRANCH  14  15
ENDBRANCH  13  14
ENDBRANCH  11  13
TORSDOF 7
ENDMDL
MODEL      169
REMARK 921   NORMALIZED FREE ENERGY PREDICTED BY IDOCK:   -5.16 KCAL/MOL
REMARK 922        TOTAL FREE ENERGY PREDICTED BY IDOCK:   -8.28 KCAL/MOL
REMARK 923 INTER-LIGAND FREE ENERGY PREDICTED BY IDOCK:   -6.95 KCAL/MOL
REMARK 924 INTRA-LIGAND FREE ENERGY PREDICTED BY IDOCK:   -1.33 KCAL/MOL
REMARK 927      BINDING AFFINITY PREDICTED BY RF-SCORE:    0.00 PKD
ROOT
HETATM    1  O   UNL     1     -14.050  14.961  72.944  1.00  0.00    -0.425 OA 
HETATM    2  C   UNL     1     -13.313  14.617  72.022  1.00  0.00    -0.365 C  
HETATM    3  C   UNL     1     -12.676  13.249  71.961  1.00  0.00    -0.211 C  
HETATM    4  C   UNL     1     -12.488  12.754  70.532  1.00  0.00    -0.280 C  
HETATM    5  C   UNL     1     -11.933  13.818  69.623  1.00  0.00    -0.399 A  
HETATM    6  C   UNL     1     -12.186  15.163  69.921  1.00  0.00    -0.314 A  
HETATM    7  N   UNL     1     -12.926  15.504  71.056  1.00  0.00    -0.483 N  
HETATM    8  C   UNL     1     -11.746  16.165  69.063  1.00  0.00    -0.254 A  
HETATM    9  C   UNL     1     -11.058  15.829  67.891  1.00  0.00    -0.326 A  
HETATM   10  H   UNL     1     -13.195  16.481  71.172  1.00  0.00     0.000 HD 
HETATM   11  C   UNL     1     -10.823  14.493  67.551  1.00  0.00    -0.289 A  
HETATM   12  C   UNL     1     -11.262  13.488  68.424  1.00  0.00    -0.309 A  
ENDROOT
BRANCH  11  13
HETATM   13  O   UNL     1     -10.174  14.320  66.350  1.00  0.00    -0.277 OA 
BRANCH  13  14
HETATM   14  C   UNL     1     -10.974  14.354  65.168  1.00  0.00    -0.373 C  
BRANCH  14  15
HETATM   15  C   UNL     1     -11.380  12.926  64.732  1.00  0.00    -0.349 C  
BRANCH  15  16
HETATM   16  C   UNL     1     -10.113  12.073  64.576  1.00  0.00    -0.293 C  
BRANCH  16  17
HETATM   17  C   UNL     1     -10.151  10.614  65.046  1.00  0.00    -0.388 C  
BRANCH  17  18
HETATM   18  C   UNL     1     -10.169  10.413  66.519  1.00  0.00    -0.229 A  
HETATM   19  N   UNL     1     -11.297  10.344  67.207  1.00  0.00    -0.292 NA 
HETATM   20  N   UNL     1     -10.963  10.068  68.497  1.00  0.00    -0.228 NA 
HETATM   21  N   UNL     1      -9.655   9.986  68.630  1.00  0.00    -0.151 NA 
HETATM   22  N   UNL     1      -9.132  10.138  67.389  1.00  0.00    -0.137 NA 
BRANCH  22  23
HETATM   23  C   UNL     1      -7.678  10.087  67.268  1.00  0.00    -0.095 C  
HETATM   24  C   UNL     1      -7.097  11.353  66.579  1.00  0.00    -0.058 C  
HETATM   25  C   UNL     1      -7.232  12.585  67.477  1.00  0.00    -0.147 C  
HETATM   26  C   UNL     1      -6.491  12.383  68.793  1.00  0.00    -0.084 C  
HETATM   27  C   UNL     1      -6.885  11.081  69.491  1.00  0.00    -0.133 C  
HETATM   28  C   UNL     1      -6.850   9.875  68.547  1.00  0.00    -0.059 C  
ENDBRANCH  22  23
ENDBRANCH  17  18
ENDBRANCH  16  17
ENDBRANCH  15  16
ENDBRANCH  14  15
ENDBRANCH  13  14
ENDBRANCH  11  13
TORSDOF 7
ENDMDL
MODEL      170
REMARK 921   NORMALIZED FREE ENERGY PREDICTED BY IDOCK:   -5.15 KCAL/MOL
REMARK 922        TOTAL FREE ENERGY PREDICTED BY IDOCK:   -8.28 KCAL/MOL
REMARK 923 INTER-LIGAND FREE ENERGY PREDICTED BY IDOCK:   -7.31 KCAL/MOL
REMARK 924 INTRA-LIGAND FREE ENERGY PREDICTED BY IDOCK:   -0.97 KCAL/MOL
REMARK 927      BINDING AFFINITY PREDICTED BY RF-SCORE:    0.00 PKD
ROOT
HETATM    1  O   UNL     1     -12.841  14.317  64.100  1.00  0.00    -0.574 OA 
HETATM    2  C   UNL     1     -12.318  13.281  64.503  1.00  0.00    -0.368 C  
HETATM    3  C   UNL     1     -12.032  12.110  63.592  1.00  0.00    -0.628 C  
HETATM    4  C   UNL     1     -10.791  11.332  64.012  1.00  0.00    -0.414 C  
HETATM    5  C   UNL     1     -10.742  11.083  65.496  1.00  0.00    -0.218 A  
HETATM    6  C   UNL     1     -11.386  11.982  66.355  1.00  0.00    -0.354 A  
HETATM    7  N   UNL     1     -12.078  13.080  65.834  1.00  0.00    -0.433 N  
HETATM    8  C   UNL     1     -11.301  11.818  67.733  1.00  0.00    -0.358 A  
HETATM    9  C   UNL     1     -10.559  10.757  68.266  1.00  0.00    -0.233 A  
HETATM   10  H   UNL     1     -12.426  13.778  66.491  1.00  0.00     0.000 HD 
HETATM   11  C   UNL     1      -9.876   9.865  67.432  1.00  0.00    -0.179 A  
HETATM   12  C   UNL     1      -9.973  10.032  66.044  1.00  0.00    -0.334 A  
ENDROOT
BRANCH  11  13
HETATM   13  O   UNL     1      -9.156   8.903  68.102  1.00  0.00    -0.139 OA 
BRANCH  13  14
HETATM   14  C   UNL     1      -9.300   7.555  67.655  1.00  0.00    -0.137 C  
BRANCH  14  15
HETATM   15  C   UNL     1     -10.762   7.072  67.812  1.00  0.00    -0.300 C  
BRANCH  15  16
HETATM   16  C   UNL     1     -10.788   5.856  68.749  1.00  0.00    -0.353 C  
BRANCH  16  17
HETATM   17  C   UNL     1     -11.485   5.995  70.108  1.00  0.00    -0.245 C  
BRANCH  17  18
HETATM   18  C   UNL     1     -11.134   7.210  70.889  1.00  0.00    -0.263 A  
HETATM   19  N   UNL     1     -11.778   8.357  70.736  1.00  0.00    -0.248 NA 
HETATM   20  N   UNL     1     -11.273   9.225  71.654  1.00  0.00    -0.370 NA 
HETATM   21  N   UNL     1     -10.318   8.652  72.358  1.00  0.00    -0.301 NA 
HETATM   22  N   UNL     1     -10.251   7.365  71.940  1.00  0.00    -0.186 NA 
BRANCH  22  23
HETATM   23  C   UNL     1      -9.253   6.509  72.575  1.00  0.00    -0.135 C  
HETATM   24  C   UNL     1      -8.376   5.752  71.539  1.00  0.00    -0.127 C  
HETATM   25  C   UNL     1      -7.447   6.712  70.791  1.00  0.00    -0.087 C  
HETATM   26  C   UNL     1      -6.516   7.432  71.760  1.00  0.00    -0.043 C  
HETATM   27  C   UNL     1      -7.272   8.096  72.912  1.00  0.00    -0.141 C  
HETATM   28  C   UNL     1      -8.277   7.151  73.576  1.00  0.00    -0.138 C  
ENDBRANCH  22  23
ENDBRANCH  17  18
ENDBRANCH  16  17
ENDBRANCH  15  16
ENDBRANCH  14  15
ENDBRANCH  13  14
ENDBRANCH  11  13
TORSDOF 7
ENDMDL
MODEL      171
REMARK 921   NORMALIZED FREE ENERGY PREDICTED BY IDOCK:   -5.15 KCAL/MOL
REMARK 922        TOTAL FREE ENERGY PREDICTED BY IDOCK:   -8.28 KCAL/MOL
REMARK 923 INTER-LIGAND FREE ENERGY PREDICTED BY IDOCK:   -7.36 KCAL/MOL
REMARK 924 INTRA-LIGAND FREE ENERGY PREDICTED BY IDOCK:   -0.92 KCAL/MOL
REMARK 927      BINDING AFFINITY PREDICTED BY RF-SCORE:    0.00 PKD
ROOT
HETATM    1  O   UNL     1     -13.091  14.795  73.604  1.00  0.00    -0.527 OA 
HETATM    2  C   UNL     1     -12.953  14.485  72.422  1.00  0.00    -0.386 C  
HETATM    3  C   UNL     1     -13.249  15.443  71.293  1.00  0.00    -0.585 C  
HETATM    4  C   UNL     1     -12.353  15.216  70.081  1.00  0.00    -0.385 C  
HETATM    5  C   UNL     1     -12.215  13.758  69.734  1.00  0.00    -0.368 A  
HETATM    6  C   UNL     1     -12.356  12.803  70.749  1.00  0.00    -0.287 A  
HETATM    7  N   UNL     1     -12.640  13.205  72.058  1.00  0.00    -0.039 N  
HETATM    8  C   UNL     1     -12.165  11.453  70.474  1.00  0.00    -0.478 A  
HETATM    9  C   UNL     1     -11.820  11.047  69.179  1.00  0.00    -0.407 A  
HETATM   10  H   UNL     1     -12.612  12.495  72.790  1.00  0.00     0.000 HD 
HETATM   11  C   UNL     1     -11.638  11.982  68.155  1.00  0.00    -0.340 A  
HETATM   12  C   UNL     1     -11.839  13.340  68.438  1.00  0.00    -0.395 A  
ENDROOT
BRANCH  11  13
HETATM   13  O   UNL     1     -11.258  11.435  66.951  1.00  0.00    -0.296 OA 
BRANCH  13  14
HETATM   14  C   UNL     1      -9.982  10.797  66.900  1.00  0.00    -0.200 C  
BRANCH  14  15
HETATM   15  C   UNL     1      -9.912   9.791  65.726  1.00  0.00    -0.349 C  
BRANCH  15  16
HETATM   16  C   UNL     1      -9.581   8.398  66.282  1.00  0.00    -0.286 C  
BRANCH  16  17
HETATM   17  C   UNL     1      -8.614   8.294  67.466  1.00  0.00    -0.129 C  
BRANCH  17  18
HETATM   18  C   UNL     1      -8.367   6.920  67.977  1.00  0.00    -0.121 A  
HETATM   19  N   UNL     1      -7.971   5.935  67.188  1.00  0.00    -0.102 NA 
HETATM   20  N   UNL     1      -7.755   4.849  67.979  1.00  0.00    -0.082 NA 
HETATM   21  N   UNL     1      -8.029   5.131  69.237  1.00  0.00    -0.080 NA 
HETATM   22  N   UNL     1      -8.358   6.444  69.274  1.00  0.00    -0.121 NA 
BRANCH  22  23
HETATM   23  C   UNL     1      -8.710   7.007  70.575  1.00  0.00    -0.153 C  
HETATM   24  C   UNL     1      -9.777   8.131  70.465  1.00  0.00    -0.181 C  
HETATM   25  C   UNL     1     -11.140   7.566  70.056  1.00  0.00    -0.219 C  
HETATM   26  C   UNL     1     -11.633   6.546  71.077  1.00  0.00    -0.405 C  
HETATM   27  C   UNL     1     -10.593   5.465  71.372  1.00  0.00    -0.282 C  
HETATM   28  C   UNL     1      -9.209   6.047  71.669  1.00  0.00    -0.153 C  
ENDBRANCH  22  23
ENDBRANCH  17  18
ENDBRANCH  16  17
ENDBRANCH  15  16
ENDBRANCH  14  15
ENDBRANCH  13  14
ENDBRANCH  11  13
TORSDOF 7
ENDMDL
MODEL      172
REMARK 921   NORMALIZED FREE ENERGY PREDICTED BY IDOCK:   -5.15 KCAL/MOL
REMARK 922        TOTAL FREE ENERGY PREDICTED BY IDOCK:   -8.27 KCAL/MOL
REMARK 923 INTER-LIGAND FREE ENERGY PREDICTED BY IDOCK:   -7.60 KCAL/MOL
REMARK 924 INTRA-LIGAND FREE ENERGY PREDICTED BY IDOCK:   -0.67 KCAL/MOL
REMARK 927      BINDING AFFINITY PREDICTED BY RF-SCORE:    0.00 PKD
ROOT
HETATM    1  O   UNL     1      -6.916   5.373  72.839  1.00  0.00    -0.078 OA 
HETATM    2  C   UNL     1      -8.027   5.894  72.765  1.00  0.00    -0.104 C  
HETATM    3  C   UNL     1      -9.092   5.683  73.815  1.00  0.00    -0.127 C  
HETATM    4  C   UNL     1      -9.997   6.898  73.983  1.00  0.00    -0.371 C  
HETATM    5  C   UNL     1     -10.430   7.479  72.663  1.00  0.00    -0.322 A  
HETATM    6  C   UNL     1      -9.604   7.311  71.545  1.00  0.00    -0.156 A  
HETATM    7  N   UNL     1      -8.406   6.598  71.656  1.00  0.00    -0.115 N  
HETATM    8  C   UNL     1      -9.942   7.895  70.328  1.00  0.00    -0.189 A  
HETATM    9  C   UNL     1     -11.108   8.663  70.223  1.00  0.00    -0.230 A  
HETATM   10  H   UNL     1      -7.774   6.603  70.857  1.00  0.00     0.000 HD 
HETATM   11  C   UNL     1     -11.933   8.876  71.332  1.00  0.00    -0.311 A  
HETATM   12  C   UNL     1     -11.590   8.279  72.553  1.00  0.00    -0.454 A  
ENDROOT
BRANCH  11  13
HETATM   13  O   UNL     1     -13.017   9.687  71.084  1.00  0.00    -0.336 OA 
BRANCH  13  14
HETATM   14  C   UNL     1     -12.960  11.022  71.586  1.00  0.00    -0.456 C  
BRANCH  14  15
HETATM   15  C   UNL     1     -12.152  11.937  70.636  1.00  0.00    -0.389 C  
BRANCH  15  16
HETATM   16  C   UNL     1     -12.315  13.395  71.090  1.00  0.00    -0.348 C  
BRANCH  16  17
HETATM   17  C   UNL     1     -12.878  14.413  70.091  1.00  0.00    -0.152 C  
BRANCH  17  18
HETATM   18  C   UNL     1     -11.877  15.305  69.449  1.00  0.00    -0.343 A  
HETATM   19  N   UNL     1     -11.130  16.145  70.147  1.00  0.00    -0.359 NA 
HETATM   20  N   UNL     1     -10.269  16.736  69.275  1.00  0.00    -0.292 NA 
HETATM   21  N   UNL     1     -10.478  16.300  68.049  1.00  0.00    -0.283 NA 
HETATM   22  N   UNL     1     -11.443  15.353  68.138  1.00  0.00    -0.346 NA 
BRANCH  22  23
HETATM   23  C   UNL     1     -11.860  14.709  66.895  1.00  0.00    -0.326 C  
HETATM   24  C   UNL     1     -10.841  14.929  65.743  1.00  0.00    -0.343 C  
HETATM   25  C   UNL     1      -9.539  14.165  66.000  1.00  0.00    -0.251 C  
HETATM   26  C   UNL     1      -9.802  12.667  66.117  1.00  0.00    -0.265 C  
HETATM   27  C   UNL     1     -10.902  12.346  67.129  1.00  0.00    -0.280 C  
HETATM   28  C   UNL     1     -12.156  13.200  66.924  1.00  0.00    -0.377 C  
ENDBRANCH  22  23
ENDBRANCH  17  18
ENDBRANCH  16  17
ENDBRANCH  15  16
ENDBRANCH  14  15
ENDBRANCH  13  14
ENDBRANCH  11  13
TORSDOF 7
ENDMDL
MODEL      173
REMARK 921   NORMALIZED FREE ENERGY PREDICTED BY IDOCK:   -5.14 KCAL/MOL
REMARK 922        TOTAL FREE ENERGY PREDICTED BY IDOCK:   -8.26 KCAL/MOL
REMARK 923 INTER-LIGAND FREE ENERGY PREDICTED BY IDOCK:   -6.74 KCAL/MOL
REMARK 924 INTRA-LIGAND FREE ENERGY PREDICTED BY IDOCK:   -1.52 KCAL/MOL
REMARK 927      BINDING AFFINITY PREDICTED BY RF-SCORE:    0.00 PKD
ROOT
HETATM    1  O   UNL     1     -11.387   6.278  67.927  1.00  0.00    -0.257 OA 
HETATM    2  C   UNL     1     -10.522   7.125  67.714  1.00  0.00    -0.223 C  
HETATM    3  C   UNL     1      -9.743   7.180  66.421  1.00  0.00    -0.139 C  
HETATM    4  C   UNL     1      -9.350   8.601  66.034  1.00  0.00    -0.284 C  
HETATM    5  C   UNL     1      -8.814   9.388  67.200  1.00  0.00    -0.138 A  
HETATM    6  C   UNL     1      -9.236   9.054  68.494  1.00  0.00    -0.136 A  
HETATM    7  N   UNL     1     -10.127   7.995  68.691  1.00  0.00    -0.194 N  
HETATM    8  C   UNL     1      -8.813   9.806  69.585  1.00  0.00    -0.224 A  
HETATM    9  C   UNL     1      -7.970  10.907  69.390  1.00  0.00    -0.027 A  
HETATM   10  H   UNL     1     -10.508   7.863  69.628  1.00  0.00     0.000 HD 
HETATM   11  C   UNL     1      -7.562  11.283  68.106  1.00  0.00    -0.105 A  
HETATM   12  C   UNL     1      -7.986  10.517  67.012  1.00  0.00    -0.118 A  
ENDROOT
BRANCH  11  13
HETATM   13  O   UNL     1      -6.772  12.409  68.071  1.00  0.00    -0.066 OA 
BRANCH  13  14
HETATM   14  C   UNL     1      -6.925  13.345  69.139  1.00  0.00    -0.044 C  
BRANCH  14  15
HETATM   15  C   UNL     1      -7.302  14.745  68.598  1.00  0.00    -0.123 C  
BRANCH  15  16
HETATM   16  C   UNL     1      -8.575  14.625  67.748  1.00  0.00    -0.175 C  
BRANCH  16  17
HETATM   17  C   UNL     1      -9.904  14.342  68.458  1.00  0.00    -0.231 C  
BRANCH  17  18
HETATM   18  C   UNL     1     -10.633  13.131  67.997  1.00  0.00    -0.236 A  
HETATM   19  N   UNL     1     -11.401  12.419  68.807  1.00  0.00    -0.270 NA 
HETATM   20  N   UNL     1     -11.982  11.445  68.056  1.00  0.00    -0.640 NA 
HETATM   21  N   UNL     1     -11.577  11.522  66.804  1.00  0.00    -0.492 NA 
HETATM   22  N   UNL     1     -10.775  12.610  66.726  1.00  0.00    -0.237 NA 
BRANCH  22  23
HETATM   23  C   UNL     1     -10.190  12.914  65.422  1.00  0.00    -0.287 C  
HETATM   24  C   UNL     1     -10.650  11.919  64.321  1.00  0.00    -0.381 C  
HETATM   25  C   UNL     1     -12.131  12.110  63.984  1.00  0.00    -0.540 C  
HETATM   26  C   UNL     1     -12.396  13.526  63.482  1.00  0.00    -0.343 C  
HETATM   27  C   UNL     1     -11.848  14.593  64.429  1.00  0.00    -0.405 C  
HETATM   28  C   UNL     1     -10.399  14.323  64.843  1.00  0.00    -0.429 C  
ENDBRANCH  22  23
ENDBRANCH  17  18
ENDBRANCH  16  17
ENDBRANCH  15  16
ENDBRANCH  14  15
ENDBRANCH  13  14
ENDBRANCH  11  13
TORSDOF 7
ENDMDL
MODEL      174
REMARK 921   NORMALIZED FREE ENERGY PREDICTED BY IDOCK:   -5.14 KCAL/MOL
REMARK 922        TOTAL FREE ENERGY PREDICTED BY IDOCK:   -8.26 KCAL/MOL
REMARK 923 INTER-LIGAND FREE ENERGY PREDICTED BY IDOCK:   -7.67 KCAL/MOL
REMARK 924 INTRA-LIGAND FREE ENERGY PREDICTED BY IDOCK:   -0.59 KCAL/MOL
REMARK 927      BINDING AFFINITY PREDICTED BY RF-SCORE:    0.00 PKD
ROOT
HETATM    1  O   UNL     1     -14.379  13.166  72.830  1.00  0.00    -0.551 OA 
HETATM    2  C   UNL     1     -13.480  13.314  72.005  1.00  0.00    -0.507 C  
HETATM    3  C   UNL     1     -12.546  12.192  71.615  1.00  0.00    -0.204 C  
HETATM    4  C   UNL     1     -12.083  12.293  70.166  1.00  0.00    -0.364 C  
HETATM    5  C   UNL     1     -11.681  13.694  69.787  1.00  0.00    -0.364 A  
HETATM    6  C   UNL     1     -12.265  14.773  70.463  1.00  0.00    -0.322 A  
HETATM    7  N   UNL     1     -13.192  14.545  71.484  1.00  0.00    -0.339 N  
HETATM    8  C   UNL     1     -11.966  16.079  70.089  1.00  0.00    -0.213 A  
HETATM    9  C   UNL     1     -11.086  16.316  69.026  1.00  0.00    -0.331 A  
HETATM   10  H   UNL     1     -13.688  15.350  71.865  1.00  0.00     0.000 HD 
HETATM   11  C   UNL     1     -10.516  15.258  68.312  1.00  0.00    -0.244 A  
HETATM   12  C   UNL     1     -10.815  13.945  68.699  1.00  0.00    -0.278 A  
ENDROOT
BRANCH  11  13
HETATM   13  O   UNL     1      -9.707  15.649  67.269  1.00  0.00    -0.217 OA 
BRANCH  13  14
HETATM   14  C   UNL     1     -10.325  16.368  66.202  1.00  0.00    -0.344 C  
BRANCH  14  15
HETATM   15  C   UNL     1     -10.971  15.399  65.183  1.00  0.00    -0.430 C  
BRANCH  15  16
HETATM   16  C   UNL     1     -10.079  14.157  65.041  1.00  0.00    -0.326 C  
BRANCH  16  17
HETATM   17  C   UNL     1     -10.727  12.838  64.604  1.00  0.00    -0.361 C  
BRANCH  17  18
HETATM   18  C   UNL     1     -10.807  11.783  65.649  1.00  0.00    -0.292 A  
HETATM   19  N   UNL     1     -11.769  11.762  66.557  1.00  0.00    -0.528 NA 
HETATM   20  N   UNL     1     -11.601  10.631  67.294  1.00  0.00    -0.291 NA 
HETATM   21  N   UNL     1     -10.545   9.961  66.879  1.00  0.00    -0.209 NA 
HETATM   22  N   UNL     1     -10.062  10.631  65.805  1.00  0.00    -0.256 NA 
BRANCH  22  23
HETATM   23  C   UNL     1      -8.874  10.082  65.157  1.00  0.00    -0.180 C  
HETATM   24  C   UNL     1      -7.563  10.749  65.661  1.00  0.00    -0.044 C  
HETATM   25  C   UNL     1      -7.263  10.358  67.110  1.00  0.00    -0.091 C  
HETATM   26  C   UNL     1      -7.106   8.847  67.244  1.00  0.00    -0.083 C  
HETATM   27  C   UNL     1      -8.285   8.082  66.643  1.00  0.00    -0.108 C  
HETATM   28  C   UNL     1      -8.641   8.564  65.234  1.00  0.00    -0.192 C  
ENDBRANCH  22  23
ENDBRANCH  17  18
ENDBRANCH  16  17
ENDBRANCH  15  16
ENDBRANCH  14  15
ENDBRANCH  13  14
ENDBRANCH  11  13
TORSDOF 7
ENDMDL
MODEL      175
REMARK 921   NORMALIZED FREE ENERGY PREDICTED BY IDOCK:   -5.13 KCAL/MOL
REMARK 922        TOTAL FREE ENERGY PREDICTED BY IDOCK:   -8.24 KCAL/MOL
REMARK 923 INTER-LIGAND FREE ENERGY PREDICTED BY IDOCK:   -7.52 KCAL/MOL
REMARK 924 INTRA-LIGAND FREE ENERGY PREDICTED BY IDOCK:   -0.72 KCAL/MOL
REMARK 927      BINDING AFFINITY PREDICTED BY RF-SCORE:    0.00 PKD
ROOT
HETATM    1  O   UNL     1     -13.589  15.832  71.291  1.00  0.00    -0.561 OA 
HETATM    2  C   UNL     1     -13.053  14.763  71.008  1.00  0.00    -0.375 C  
HETATM    3  C   UNL     1     -12.791  13.690  72.040  1.00  0.00    -0.367 C  
HETATM    4  C   UNL     1     -12.870  12.285  71.456  1.00  0.00    -0.384 C  
HETATM    5  C   UNL     1     -12.152  12.168  70.137  1.00  0.00    -0.368 A  
HETATM    6  C   UNL     1     -12.027  13.307  69.331  1.00  0.00    -0.301 A  
HETATM    7  N   UNL     1     -12.546  14.532  69.760  1.00  0.00    -0.548 N  
HETATM    8  C   UNL     1     -11.431  13.217  68.078  1.00  0.00    -0.346 A  
HETATM    9  C   UNL     1     -10.964  11.981  67.615  1.00  0.00    -0.287 A  
HETATM   10  H   UNL     1     -12.548  15.306  69.096  1.00  0.00     0.000 HD 
HETATM   11  C   UNL     1     -11.107  10.821  68.384  1.00  0.00    -0.266 A  
HETATM   12  C   UNL     1     -11.702  10.921  69.649  1.00  0.00    -0.403 A  
ENDROOT
BRANCH  11  13
HETATM   13  O   UNL     1     -10.640   9.678  67.777  1.00  0.00    -0.237 OA 
BRANCH  13  14
HETATM   14  C   UNL     1      -9.224   9.529  67.675  1.00  0.00    -0.124 C  
BRANCH  14  15
HETATM   15  C   UNL     1      -8.563   9.539  69.074  1.00  0.00    -0.133 C  
BRANCH  15  16
HETATM   16  C   UNL     1      -8.943   8.248  69.814  1.00  0.00    -0.146 C  
BRANCH  16  17
HETATM   17  C   UNL     1     -10.026   8.318  70.896  1.00  0.00    -0.223 C  
BRANCH  17  18
HETATM   18  C   UNL     1      -9.618   7.848  72.246  1.00  0.00    -0.195 A  
HETATM   19  N   UNL     1      -8.754   8.515  72.994  1.00  0.00    -0.371 NA 
HETATM   20  N   UNL     1      -8.673   7.868  74.188  1.00  0.00    -0.252 NA 
HETATM   21  N   UNL     1      -9.449   6.802  74.191  1.00  0.00    -0.217 NA 
HETATM   22  N   UNL     1     -10.102   6.799  73.004  1.00  0.00    -0.179 NA 
BRANCH  22  23
HETATM   23  C   UNL     1     -11.033   5.701  72.760  1.00  0.00    -0.276 C  
HETATM   24  C   UNL     1     -10.966   5.182  71.296  1.00  0.00     0.016 C  
HETATM   25  C   UNL     1      -9.645   4.458  71.024  1.00  0.00    -0.249 C  
HETATM   26  C   UNL     1      -9.478   3.263  71.956  1.00  0.00    -0.202 C  
HETATM   27  C   UNL     1      -9.671   3.638  73.426  1.00  0.00    -0.149 C  
HETATM   28  C   UNL     1     -10.943   4.458  73.661  1.00  0.00    -0.374 C  
ENDBRANCH  22  23
ENDBRANCH  17  18
ENDBRANCH  16  17
ENDBRANCH  15  16
ENDBRANCH  14  15
ENDBRANCH  13  14
ENDBRANCH  11  13
TORSDOF 7
ENDMDL
MODEL      176
REMARK 921   NORMALIZED FREE ENERGY PREDICTED BY IDOCK:   -5.06 KCAL/MOL
REMARK 922        TOTAL FREE ENERGY PREDICTED BY IDOCK:   -8.15 KCAL/MOL
REMARK 923 INTER-LIGAND FREE ENERGY PREDICTED BY IDOCK:   -7.88 KCAL/MOL
REMARK 924 INTRA-LIGAND FREE ENERGY PREDICTED BY IDOCK:   -0.27 KCAL/MOL
REMARK 927      BINDING AFFINITY PREDICTED BY RF-SCORE:    0.00 PKD
ROOT
HETATM    1  O   UNL     1     -11.478   4.172  73.706  1.00  0.00    -0.186 OA 
HETATM    2  C   UNL     1     -11.140   5.012  72.874  1.00  0.00    -0.279 C  
HETATM    3  C   UNL     1     -10.170   4.702  71.757  1.00  0.00    -0.242 C  
HETATM    4  C   UNL     1     -10.459   5.503  70.493  1.00  0.00    -0.347 C  
HETATM    5  C   UNL     1     -10.742   6.953  70.783  1.00  0.00    -0.262 A  
HETATM    6  C   UNL     1     -11.278   7.303  72.029  1.00  0.00    -0.250 A  
HETATM    7  N   UNL     1     -11.527   6.318  72.989  1.00  0.00    -0.478 N  
HETATM    8  C   UNL     1     -11.615   8.625  72.301  1.00  0.00    -0.424 A  
HETATM    9  C   UNL     1     -11.427   9.608  71.322  1.00  0.00    -0.463 A  
HETATM   10  H   UNL     1     -12.032   6.592  73.831  1.00  0.00     0.000 HD 
HETATM   11  C   UNL     1     -10.926   9.282  70.058  1.00  0.00    -0.229 A  
HETATM   12  C   UNL     1     -10.582   7.949  69.794  1.00  0.00    -0.242 A  
ENDROOT
BRANCH  11  13
HETATM   13  O   UNL     1     -10.839  10.346  69.191  1.00  0.00    -0.207 OA 
BRANCH  13  14
HETATM   14  C   UNL     1     -11.950  11.240  69.145  1.00  0.00    -0.336 C  
BRANCH  14  15
HETATM   15  C   UNL     1     -11.546  12.595  68.516  1.00  0.00    -0.363 C  
BRANCH  15  16
HETATM   16  C   UNL     1     -10.053  12.554  68.160  1.00  0.00    -0.225 C  
BRANCH  16  17
HETATM   17  C   UNL     1      -9.237  13.846  68.277  1.00  0.00    -0.207 C  
BRANCH  17  18
HETATM   18  C   UNL     1      -9.974  15.027  68.801  1.00  0.00    -0.228 A  
HETATM   19  N   UNL     1     -10.375  15.106  70.060  1.00  0.00    -0.207 NA 
HETATM   20  N   UNL     1     -10.929  16.337  70.227  1.00  0.00    -0.339 NA 
HETATM   21  N   UNL     1     -10.901  17.016  69.098  1.00  0.00    -0.244 NA 
HETATM   22  N   UNL     1     -10.251  16.239  68.199  1.00  0.00    -0.250 NA 
BRANCH  22  23
HETATM   23  C   UNL     1     -10.089  16.774  66.849  1.00  0.00    -0.286 C  
HETATM   24  C   UNL     1     -10.342  18.306  66.786  1.00  0.00    -0.403 C  
HETATM   25  C   UNL     1      -9.233  19.082  67.501  1.00  0.00    -0.325 C  
HETATM   26  C   UNL     1      -7.876  18.802  66.863  1.00  0.00    -0.252 C  
HETATM   27  C   UNL     1      -7.587  17.305  66.743  1.00  0.00    -0.270 C  
HETATM   28  C   UNL     1      -8.754  16.529  66.127  1.00  0.00    -0.335 C  
ENDBRANCH  22  23
ENDBRANCH  17  18
ENDBRANCH  16  17
ENDBRANCH  15  16
ENDBRANCH  14  15
ENDBRANCH  13  14
ENDBRANCH  11  13
TORSDOF 7
ENDMDL
MODEL      177
REMARK 921   NORMALIZED FREE ENERGY PREDICTED BY IDOCK:   -5.06 KCAL/MOL
REMARK 922        TOTAL FREE ENERGY PREDICTED BY IDOCK:   -8.15 KCAL/MOL
REMARK 923 INTER-LIGAND FREE ENERGY PREDICTED BY IDOCK:   -7.12 KCAL/MOL
REMARK 924 INTRA-LIGAND FREE ENERGY PREDICTED BY IDOCK:   -1.03 KCAL/MOL
REMARK 927      BINDING AFFINITY PREDICTED BY RF-SCORE:    0.00 PKD
ROOT
HETATM    1  O   UNL     1     -13.102  13.643  73.021  1.00  0.00    -0.430 OA 
HETATM    2  C   UNL     1     -12.925  13.874  71.827  1.00  0.00    -0.358 C  
HETATM    3  C   UNL     1     -13.210  15.225  71.212  1.00  0.00    -0.563 C  
HETATM    4  C   UNL     1     -12.278  15.548  70.051  1.00  0.00    -0.380 C  
HETATM    5  C   UNL     1     -12.101  14.383  69.114  1.00  0.00    -0.316 A  
HETATM    6  C   UNL     1     -12.252  13.083  69.613  1.00  0.00    -0.158 A  
HETATM    7  N   UNL     1     -12.578  12.879  70.956  1.00  0.00    -0.345 N  
HETATM    8  C   UNL     1     -12.027  11.985  68.788  1.00  0.00    -0.299 A  
HETATM    9  C   UNL     1     -11.639  12.180  67.457  1.00  0.00    -0.413 A  
HETATM   10  H   UNL     1     -12.556  11.923  71.311  1.00  0.00     0.000 HD 
HETATM   11  C   UNL     1     -11.447  13.466  66.943  1.00  0.00    -0.342 A  
HETATM   12  C   UNL     1     -11.683  14.568  67.777  1.00  0.00    -0.403 A  
ENDROOT
BRANCH  11  13
HETATM   13  O   UNL     1     -11.025  13.495  65.634  1.00  0.00    -0.287 OA 
BRANCH  13  14
HETATM   14  C   UNL     1     -11.504  12.463  64.772  1.00  0.00    -0.325 C  
BRANCH  14  15
HETATM   15  C   UNL     1     -10.364  11.909  63.884  1.00  0.00    -0.426 C  
BRANCH  15  16
HETATM   16  C   UNL     1      -9.844  10.601  64.498  1.00  0.00    -0.388 C  
BRANCH  16  17
HETATM   17  C   UNL     1      -8.859  10.684  65.670  1.00  0.00    -0.201 C  
BRANCH  17  18
HETATM   18  C   UNL     1      -8.442   9.382  66.254  1.00  0.00    -0.126 A  
HETATM   19  N   UNL     1      -8.500   8.251  65.568  1.00  0.00    -0.155 NA 
HETATM   20  N   UNL     1      -7.967   7.277  66.356  1.00  0.00    -0.108 NA 
HETATM   21  N   UNL     1      -7.601   7.772  67.521  1.00  0.00    -0.106 NA 
HETATM   22  N   UNL     1      -7.832   9.105  67.462  1.00  0.00    -0.099 NA 
BRANCH  22  23
HETATM   23  C   UNL     1      -7.506   9.891  68.649  1.00  0.00    -0.075 C  
HETATM   24  C   UNL     1      -8.733  10.671  69.198  1.00  0.00    -0.135 C  
HETATM   25  C   UNL     1      -9.770   9.720  69.802  1.00  0.00    -0.256 C  
HETATM   26  C   UNL     1      -9.169   8.918  70.950  1.00  0.00    -0.286 C  
HETATM   27  C   UNL     1      -7.867   8.221  70.556  1.00  0.00    -0.087 C  
HETATM   28  C   UNL     1      -6.886   9.163  69.853  1.00  0.00    -0.052 C  
ENDBRANCH  22  23
ENDBRANCH  17  18
ENDBRANCH  16  17
ENDBRANCH  15  16
ENDBRANCH  14  15
ENDBRANCH  13  14
ENDBRANCH  11  13
TORSDOF 7
ENDMDL
MODEL      178
REMARK 921   NORMALIZED FREE ENERGY PREDICTED BY IDOCK:   -5.05 KCAL/MOL
REMARK 922        TOTAL FREE ENERGY PREDICTED BY IDOCK:   -8.13 KCAL/MOL
REMARK 923 INTER-LIGAND FREE ENERGY PREDICTED BY IDOCK:   -7.85 KCAL/MOL
REMARK 924 INTRA-LIGAND FREE ENERGY PREDICTED BY IDOCK:   -0.29 KCAL/MOL
REMARK 927      BINDING AFFINITY PREDICTED BY RF-SCORE:    0.00 PKD
ROOT
HETATM    1  O   UNL     1     -12.145  15.763  63.747  1.00  0.00    -0.648 OA 
HETATM    2  C   UNL     1     -12.072  14.746  64.433  1.00  0.00    -0.440 C  
HETATM    3  C   UNL     1     -12.166  13.360  63.840  1.00  0.00    -0.478 C  
HETATM    4  C   UNL     1     -11.336  12.338  64.607  1.00  0.00    -0.375 C  
HETATM    5  C   UNL     1     -11.499  12.466  66.098  1.00  0.00    -0.430 A  
HETATM    6  C   UNL     1     -11.833  13.714  66.638  1.00  0.00    -0.409 A  
HETATM    7  N   UNL     1     -12.029  14.815  65.798  1.00  0.00    -0.224 N  
HETATM    8  C   UNL     1     -11.923  13.881  68.016  1.00  0.00    -0.390 A  
HETATM    9  C   UNL     1     -11.667  12.799  68.868  1.00  0.00    -0.370 A  
HETATM   10  H   UNL     1     -12.146  15.729  66.232  1.00  0.00     0.000 HD 
HETATM   11  C   UNL     1     -11.297  11.551  68.357  1.00  0.00    -0.279 A  
HETATM   12  C   UNL     1     -11.216  11.389  66.967  1.00  0.00    -0.350 A  
ENDROOT
BRANCH  11  13
HETATM   13  O   UNL     1     -11.038  10.601  69.318  1.00  0.00    -0.216 OA 
BRANCH  13  14
HETATM   14  C   UNL     1     -11.905  10.567  70.451  1.00  0.00    -0.340 C  
BRANCH  14  15
HETATM   15  C   UNL     1     -11.420   9.527  71.489  1.00  0.00    -0.466 C  
BRANCH  15  16
HETATM   16  C   UNL     1      -9.944   9.204  71.220  1.00  0.00    -0.373 C  
BRANCH  16  17
HETATM   17  C   UNL     1      -9.328   7.975  71.897  1.00  0.00    -0.225 C  
BRANCH  17  18
HETATM   18  C   UNL     1      -8.518   7.093  71.016  1.00  0.00    -0.129 A  
HETATM   19  N   UNL     1      -7.235   7.319  70.779  1.00  0.00    -0.068 NA 
HETATM   20  N   UNL     1      -6.781   6.288  70.017  1.00  0.00    -0.051 NA 
HETATM   21  N   UNL     1      -7.755   5.439  69.756  1.00  0.00    -0.076 NA 
HETATM   22  N   UNL     1      -8.844   5.889  70.423  1.00  0.00    -0.142 NA 
BRANCH  22  23
HETATM   23  C   UNL     1     -10.074   5.110  70.292  1.00  0.00    -0.268 C  
HETATM   24  C   UNL     1      -9.990   3.744  71.029  1.00  0.00    -0.118 C  
HETATM   25  C   UNL     1      -9.971   3.933  72.548  1.00  0.00    -0.225 C  
HETATM   26  C   UNL     1     -11.231   4.648  73.023  1.00  0.00    -0.312 C  
HETATM   27  C   UNL     1     -11.489   5.945  72.255  1.00  0.00    -0.351 C  
HETATM   28  C   UNL     1     -11.394   5.760  70.739  1.00  0.00    -0.097 C  
ENDBRANCH  22  23
ENDBRANCH  17  18
ENDBRANCH  16  17
ENDBRANCH  15  16
ENDBRANCH  14  15
ENDBRANCH  13  14
ENDBRANCH  11  13
TORSDOF 7
ENDMDL
MODEL      179
REMARK 921   NORMALIZED FREE ENERGY PREDICTED BY IDOCK:   -5.05 KCAL/MOL
REMARK 922        TOTAL FREE ENERGY PREDICTED BY IDOCK:   -8.13 KCAL/MOL
REMARK 923 INTER-LIGAND FREE ENERGY PREDICTED BY IDOCK:   -7.50 KCAL/MOL
REMARK 924 INTRA-LIGAND FREE ENERGY PREDICTED BY IDOCK:   -0.63 KCAL/MOL
REMARK 927      BINDING AFFINITY PREDICTED BY RF-SCORE:    0.00 PKD
ROOT
HETATM    1  O   UNL     1     -10.265  18.898  66.675  1.00  0.00    -0.352 OA 
HETATM    2  C   UNL     1     -10.479  17.792  67.167  1.00  0.00    -0.335 C  
HETATM    3  C   UNL     1     -10.401  17.538  68.655  1.00  0.00    -0.369 C  
HETATM    4  C   UNL     1     -11.376  16.462  69.116  1.00  0.00    -0.241 C  
HETATM    5  C   UNL     1     -11.380  15.261  68.208  1.00  0.00    -0.344 A  
HETATM    6  C   UNL     1     -11.036  15.430  66.861  1.00  0.00    -0.294 A  
HETATM    7  N   UNL     1     -10.677  16.692  66.379  1.00  0.00    -0.191 N  
HETATM    8  C   UNL     1     -11.097  14.354  65.981  1.00  0.00    -0.324 A  
HETATM    9  C   UNL     1     -11.515  13.099  66.441  1.00  0.00    -0.374 A  
HETATM   10  H   UNL     1     -10.555  16.800  65.373  1.00  0.00     0.000 HD 
HETATM   11  C   UNL     1     -11.899  12.911  67.773  1.00  0.00    -0.339 A  
HETATM   12  C   UNL     1     -11.827  13.998  68.655  1.00  0.00    -0.396 A  
ENDROOT
BRANCH  11  13
HETATM   13  O   UNL     1     -12.326  11.636  68.064  1.00  0.00    -0.429 OA 
BRANCH  13  14
HETATM   14  C   UNL     1     -12.198  11.200  69.417  1.00  0.00    -0.259 C  
BRANCH  14  15
HETATM   15  C   UNL     1     -10.775  10.655  69.690  1.00  0.00    -0.290 C  
BRANCH  15  16
HETATM   16  C   UNL     1     -10.777   9.133  69.492  1.00  0.00    -0.226 C  
BRANCH  16  17
HETATM   17  C   UNL     1      -9.520   8.344  69.874  1.00  0.00    -0.166 C  
BRANCH  17  18
HETATM   18  C   UNL     1      -9.700   6.875  70.016  1.00  0.00    -0.167 A  
HETATM   19  N   UNL     1      -9.204   6.016  69.139  1.00  0.00    -0.126 NA 
HETATM   20  N   UNL     1      -9.469   4.767  69.609  1.00  0.00    -0.136 NA 
HETATM   21  N   UNL     1     -10.136   4.829  70.744  1.00  0.00    -0.230 NA 
HETATM   22  N   UNL     1     -10.242   6.144  71.055  1.00  0.00    -0.191 NA 
BRANCH  22  23
HETATM   23  C   UNL     1     -10.952   6.482  72.285  1.00  0.00    -0.249 C  
HETATM   24  C   UNL     1     -10.789   5.392  73.381  1.00  0.00    -0.347 C  
HETATM   25  C   UNL     1      -9.356   5.355  73.918  1.00  0.00    -0.133 C  
HETATM   26  C   UNL     1      -8.969   6.698  74.527  1.00  0.00    -0.210 C  
HETATM   27  C   UNL     1      -9.228   7.867  73.576  1.00  0.00    -0.340 C  
HETATM   28  C   UNL     1     -10.631   7.824  72.963  1.00  0.00    -0.441 C  
ENDBRANCH  22  23
ENDBRANCH  17  18
ENDBRANCH  16  17
ENDBRANCH  15  16
ENDBRANCH  14  15
ENDBRANCH  13  14
ENDBRANCH  11  13
TORSDOF 7
ENDMDL
MODEL      180
REMARK 921   NORMALIZED FREE ENERGY PREDICTED BY IDOCK:   -5.05 KCAL/MOL
REMARK 922        TOTAL FREE ENERGY PREDICTED BY IDOCK:   -8.13 KCAL/MOL
REMARK 923 INTER-LIGAND FREE ENERGY PREDICTED BY IDOCK:   -7.53 KCAL/MOL
REMARK 924 INTRA-LIGAND FREE ENERGY PREDICTED BY IDOCK:   -0.60 KCAL/MOL
REMARK 927      BINDING AFFINITY PREDICTED BY RF-SCORE:    0.00 PKD
ROOT
HETATM    1  O   UNL     1      -9.956  19.673  68.248  1.00  0.00    -0.387 OA 
HETATM    2  C   UNL     1     -10.072  18.466  68.046  1.00  0.00    -0.368 C  
HETATM    3  C   UNL     1      -9.483  17.787  66.832  1.00  0.00    -0.271 C  
HETATM    4  C   UNL     1      -9.055  16.352  67.113  1.00  0.00    -0.220 C  
HETATM    5  C   UNL     1     -10.085  15.588  67.903  1.00  0.00    -0.224 A  
HETATM    6  C   UNL     1     -10.944  16.293  68.755  1.00  0.00    -0.343 A  
HETATM    7  N   UNL     1     -10.854  17.685  68.851  1.00  0.00    -0.253 N  
HETATM    8  C   UNL     1     -11.860  15.610  69.548  1.00  0.00    -0.387 A  
HETATM    9  C   UNL     1     -11.915  14.211  69.504  1.00  0.00    -0.389 A  
HETATM   10  H   UNL     1     -11.407  18.148  69.571  1.00  0.00     0.000 HD 
HETATM   11  C   UNL     1     -11.045  13.481  68.689  1.00  0.00    -0.269 A  
HETATM   12  C   UNL     1     -10.130  14.176  67.886  1.00  0.00    -0.235 A  
ENDROOT
BRANCH  11  13
HETATM   13  O   UNL     1     -11.191  12.116  68.786  1.00  0.00    -0.228 OA 
BRANCH  13  14
HETATM   14  C   UNL     1     -10.131  11.311  68.269  1.00  0.00    -0.188 C  
BRANCH  14  15
HETATM   15  C   UNL     1     -10.562  10.598  66.965  1.00  0.00    -0.317 C  
BRANCH  15  16
HETATM   16  C   UNL     1     -10.324   9.089  67.119  1.00  0.00    -0.342 C  
BRANCH  16  17
HETATM   17  C   UNL     1      -9.769   8.568  68.450  1.00  0.00    -0.169 C  
BRANCH  17  18
HETATM   18  C   UNL     1     -10.065   7.144  68.757  1.00  0.00    -0.173 A  
HETATM   19  N   UNL     1      -9.456   6.147  68.135  1.00  0.00    -0.114 NA 
HETATM   20  N   UNL     1      -9.888   4.992  68.710  1.00  0.00    -0.164 NA 
HETATM   21  N   UNL     1     -10.766   5.247  69.659  1.00  0.00    -0.205 NA 
HETATM   22  N   UNL     1     -10.851   6.596  69.751  1.00  0.00    -0.261 NA 
BRANCH  22  23
HETATM   23  C   UNL     1     -11.774   7.138  70.745  1.00  0.00    -0.323 C  
HETATM   24  C   UNL     1     -11.932   6.206  71.978  1.00  0.00    -0.310 C  
HETATM   25  C   UNL     1     -10.651   6.171  72.815  1.00  0.00    -0.254 C  
HETATM   26  C   UNL     1     -10.294   7.565  73.321  1.00  0.00    -0.412 C  
HETATM   27  C   UNL     1     -10.254   8.600  72.197  1.00  0.00    -0.394 C  
HETATM   28  C   UNL     1     -11.496   8.544  71.303  1.00  0.00    -0.329 C  
ENDBRANCH  22  23
ENDBRANCH  17  18
ENDBRANCH  16  17
ENDBRANCH  15  16
ENDBRANCH  14  15
ENDBRANCH  13  14
ENDBRANCH  11  13
TORSDOF 7
ENDMDL
MODEL      181
REMARK 921   NORMALIZED FREE ENERGY PREDICTED BY IDOCK:   -5.04 KCAL/MOL
REMARK 922        TOTAL FREE ENERGY PREDICTED BY IDOCK:   -8.12 KCAL/MOL
REMARK 923 INTER-LIGAND FREE ENERGY PREDICTED BY IDOCK:   -7.30 KCAL/MOL
REMARK 924 INTRA-LIGAND FREE ENERGY PREDICTED BY IDOCK:   -0.82 KCAL/MOL
REMARK 927      BINDING AFFINITY PREDICTED BY RF-SCORE:    0.00 PKD
ROOT
HETATM    1  O   UNL     1      -8.818   2.395  66.285  1.00  0.00    -0.123 OA 
HETATM    2  C   UNL     1      -9.209   3.428  66.825  1.00  0.00    -0.175 C  
HETATM    3  C   UNL     1      -9.411   4.716  66.062  1.00  0.00    -0.171 C  
HETATM    4  C   UNL     1     -10.542   5.563  66.632  1.00  0.00    -0.365 C  
HETATM    5  C   UNL     1     -10.495   5.648  68.135  1.00  0.00    -0.260 A  
HETATM    6  C   UNL     1      -9.910   4.599  68.855  1.00  0.00    -0.140 A  
HETATM    7  N   UNL     1      -9.365   3.502  68.181  1.00  0.00    -0.179 N  
HETATM    8  C   UNL     1      -9.914   4.615  70.246  1.00  0.00    -0.309 A  
HETATM    9  C   UNL     1     -10.514   5.680  70.930  1.00  0.00    -0.323 A  
HETATM   10  H   UNL     1      -9.063   2.704  68.739  1.00  0.00     0.000 HD 
HETATM   11  C   UNL     1     -11.135   6.723  70.236  1.00  0.00    -0.310 A  
HETATM   12  C   UNL     1     -11.121   6.704  68.835  1.00  0.00    -0.312 A  
ENDROOT
BRANCH  11  13
HETATM   13  O   UNL     1     -11.717   7.673  71.045  1.00  0.00    -0.284 OA 
BRANCH  13  14
HETATM   14  C   UNL     1     -11.514   9.041  70.691  1.00  0.00    -0.248 C  
BRANCH  14  15
HETATM   15  C   UNL     1     -10.026   9.439  70.847  1.00  0.00    -0.353 C  
BRANCH  15  16
HETATM   16  C   UNL     1      -9.513   9.984  69.507  1.00  0.00    -0.245 C  
BRANCH  16  17
HETATM   17  C   UNL     1     -10.505  10.690  68.576  1.00  0.00    -0.212 C  
BRANCH  17  18
HETATM   18  C   UNL     1     -10.031  10.920  67.186  1.00  0.00    -0.189 A  
HETATM   19  N   UNL     1      -8.962  10.314  66.696  1.00  0.00    -0.140 NA 
HETATM   20  N   UNL     1      -8.861  10.674  65.387  1.00  0.00    -0.185 NA 
HETATM   21  N   UNL     1      -9.829  11.506  65.060  1.00  0.00    -0.252 NA 
HETATM   22  N   UNL     1     -10.615  11.631  66.155  1.00  0.00    -0.253 NA 
BRANCH  22  23
HETATM   23  C   UNL     1     -11.774  12.514  66.047  1.00  0.00    -0.417 C  
HETATM   24  C   UNL     1     -11.850  13.536  67.215  1.00  0.00    -0.427 C  
HETATM   25  C   UNL     1     -10.730  14.575  67.118  1.00  0.00    -0.286 C  
HETATM   26  C   UNL     1     -10.818  15.349  65.808  1.00  0.00    -0.349 C  
HETATM   27  C   UNL     1     -10.896  14.428  64.590  1.00  0.00    -0.363 C  
HETATM   28  C   UNL     1     -11.947  13.327  64.752  1.00  0.00    -0.431 C  
ENDBRANCH  22  23
ENDBRANCH  17  18
ENDBRANCH  16  17
ENDBRANCH  15  16
ENDBRANCH  14  15
ENDBRANCH  13  14
ENDBRANCH  11  13
TORSDOF 7
ENDMDL
MODEL      182
REMARK 921   NORMALIZED FREE ENERGY PREDICTED BY IDOCK:   -5.04 KCAL/MOL
REMARK 922        TOTAL FREE ENERGY PREDICTED BY IDOCK:   -8.12 KCAL/MOL
REMARK 923 INTER-LIGAND FREE ENERGY PREDICTED BY IDOCK:   -7.25 KCAL/MOL
REMARK 924 INTRA-LIGAND FREE ENERGY PREDICTED BY IDOCK:   -0.86 KCAL/MOL
REMARK 927      BINDING AFFINITY PREDICTED BY RF-SCORE:    0.00 PKD
ROOT
HETATM    1  O   UNL     1     -12.443  14.860  69.899  1.00  0.00    -0.299 OA 
HETATM    2  C   UNL     1     -12.502  13.785  70.491  1.00  0.00    -0.339 C  
HETATM    3  C   UNL     1     -13.057  13.660  71.891  1.00  0.00    -0.476 C  
HETATM    4  C   UNL     1     -13.738  12.318  72.133  1.00  0.00    -0.207 C  
HETATM    5  C   UNL     1     -12.936  11.161  71.600  1.00  0.00    -0.548 A  
HETATM    6  C   UNL     1     -12.072  11.377  70.519  1.00  0.00    -0.394 A  
HETATM    7  N   UNL     1     -11.948  12.653  69.961  1.00  0.00    -0.412 N  
HETATM    8  C   UNL     1     -11.370  10.314  69.959  1.00  0.00    -0.370 A  
HETATM    9  C   UNL     1     -11.535   9.022  70.472  1.00  0.00    -0.248 A  
HETATM   10  H   UNL     1     -11.409  12.746  69.101  1.00  0.00     0.000 HD 
HETATM   11  C   UNL     1     -12.418   8.772  71.527  1.00  0.00    -0.326 A  
HETATM   12  C   UNL     1     -13.116   9.849  72.091  1.00  0.00    -0.497 A  
ENDROOT
BRANCH  11  13
HETATM   13  O   UNL     1     -12.505   7.448  71.891  1.00  0.00    -0.309 OA 
BRANCH  13  14
HETATM   14  C   UNL     1     -11.877   6.495  71.033  1.00  0.00    -0.330 C  
BRANCH  14  15
HETATM   15  C   UNL     1     -10.931   5.568  71.833  1.00  0.00    -0.264 C  
BRANCH  15  16
HETATM   16  C   UNL     1      -9.601   5.442  71.078  1.00  0.00    -0.224 C  
BRANCH  16  17
HETATM   17  C   UNL     1      -9.352   6.360  69.876  1.00  0.00    -0.156 C  
BRANCH  17  18
HETATM   18  C   UNL     1      -8.600   7.609  70.165  1.00  0.00    -0.140 A  
HETATM   19  N   UNL     1      -8.414   8.051  71.399  1.00  0.00    -0.113 NA 
HETATM   20  N   UNL     1      -7.620   9.153  71.315  1.00  0.00    -0.305 NA 
HETATM   21  N   UNL     1      -7.327   9.418  70.058  1.00  0.00    -0.086 NA 
HETATM   22  N   UNL     1      -7.880   8.428  69.317  1.00  0.00    -0.102 NA 
BRANCH  22  23
HETATM   23  C   UNL     1      -7.696   8.497  67.869  1.00  0.00    -0.103 C  
HETATM   24  C   UNL     1      -8.743   7.645  67.099  1.00  0.00    -0.125 C  
HETATM   25  C   UNL     1     -10.142   8.256  67.205  1.00  0.00    -0.334 C  
HETATM   26  C   UNL     1     -10.165   9.666  66.626  1.00  0.00    -0.302 C  
HETATM   27  C   UNL     1      -9.071  10.556  67.216  1.00  0.00    -0.152 C  
HETATM   28  C   UNL     1      -7.696   9.883  67.203  1.00  0.00    -0.092 C  
ENDBRANCH  22  23
ENDBRANCH  17  18
ENDBRANCH  16  17
ENDBRANCH  15  16
ENDBRANCH  14  15
ENDBRANCH  13  14
ENDBRANCH  11  13
TORSDOF 7
ENDMDL
MODEL      183
REMARK 921   NORMALIZED FREE ENERGY PREDICTED BY IDOCK:   -5.02 KCAL/MOL
REMARK 922        TOTAL FREE ENERGY PREDICTED BY IDOCK:   -8.09 KCAL/MOL
REMARK 923 INTER-LIGAND FREE ENERGY PREDICTED BY IDOCK:   -7.39 KCAL/MOL
REMARK 924 INTRA-LIGAND FREE ENERGY PREDICTED BY IDOCK:   -0.69 KCAL/MOL
REMARK 927      BINDING AFFINITY PREDICTED BY RF-SCORE:    0.00 PKD
ROOT
HETATM    1  O   UNL     1      -6.060  10.107  64.284  1.00  0.00    -0.123 OA 
HETATM    2  C   UNL     1      -6.640  10.120  65.368  1.00  0.00    -0.120 C  
HETATM    3  C   UNL     1      -5.942  10.488  66.656  1.00  0.00    -0.071 C  
HETATM    4  C   UNL     1      -6.871  11.172  67.651  1.00  0.00    -0.076 C  
HETATM    5  C   UNL     1      -8.206  10.484  67.758  1.00  0.00    -0.107 A  
HETATM    6  C   UNL     1      -8.688   9.764  66.657  1.00  0.00    -0.131 A  
HETATM    7  N   UNL     1      -7.927   9.676  65.487  1.00  0.00    -0.112 N  
HETATM    8  C   UNL     1      -9.947   9.176  66.700  1.00  0.00    -0.343 A  
HETATM    9  C   UNL     1     -10.742   9.312  67.845  1.00  0.00    -0.248 A  
HETATM   10  H   UNL     1      -8.363   9.253  64.668  1.00  0.00     0.000 HD 
HETATM   11  C   UNL     1     -10.300  10.053  68.945  1.00  0.00    -0.202 A  
HETATM   12  C   UNL     1      -9.027  10.637  68.898  1.00  0.00    -0.172 A  
ENDROOT
BRANCH  11  13
HETATM   13  O   UNL     1     -11.208  10.132  69.976  1.00  0.00    -0.259 OA 
BRANCH  13  14
HETATM   14  C   UNL     1     -12.311  11.023  69.805  1.00  0.00    -0.262 C  
BRANCH  14  15
HETATM   15  C   UNL     1     -12.345  12.085  70.930  1.00  0.00    -0.384 C  
BRANCH  15  16
HETATM   16  C   UNL     1     -12.128  13.473  70.311  1.00  0.00    -0.425 C  
BRANCH  16  17
HETATM   17  C   UNL     1     -11.937  13.576  68.794  1.00  0.00    -0.374 C  
BRANCH  17  18
HETATM   18  C   UNL     1     -11.471  14.896  68.292  1.00  0.00    -0.324 A  
HETATM   19  N   UNL     1     -11.630  16.010  68.987  1.00  0.00    -0.369 NA 
HETATM   20  N   UNL     1     -11.019  17.007  68.291  1.00  0.00    -0.335 NA 
HETATM   21  N   UNL     1     -10.505  16.542  67.170  1.00  0.00    -0.310 NA 
HETATM   22  N   UNL     1     -10.721  15.205  67.174  1.00  0.00    -0.303 NA 
BRANCH  22  23
HETATM   23  C   UNL     1     -10.239  14.449  66.021  1.00  0.00    -0.315 C  
HETATM   24  C   UNL     1     -10.411  12.916  66.205  1.00  0.00    -0.278 C  
HETATM   25  C   UNL     1     -11.888  12.514  66.171  1.00  0.00    -0.459 C  
HETATM   26  C   UNL     1     -12.526  12.904  64.843  1.00  0.00    -0.540 C  
HETATM   27  C   UNL     1     -12.290  14.373  64.491  1.00  0.00    -0.440 C  
HETATM   28  C   UNL     1     -10.823  14.784  64.638  1.00  0.00    -0.312 C  
ENDBRANCH  22  23
ENDBRANCH  17  18
ENDBRANCH  16  17
ENDBRANCH  15  16
ENDBRANCH  14  15
ENDBRANCH  13  14
ENDBRANCH  11  13
TORSDOF 7
ENDMDL
MODEL      184
REMARK 921   NORMALIZED FREE ENERGY PREDICTED BY IDOCK:   -5.00 KCAL/MOL
REMARK 922        TOTAL FREE ENERGY PREDICTED BY IDOCK:   -8.06 KCAL/MOL
REMARK 923 INTER-LIGAND FREE ENERGY PREDICTED BY IDOCK:   -6.84 KCAL/MOL
REMARK 924 INTRA-LIGAND FREE ENERGY PREDICTED BY IDOCK:   -1.23 KCAL/MOL
REMARK 927      BINDING AFFINITY PREDICTED BY RF-SCORE:    0.00 PKD
ROOT
HETATM    1  O   UNL     1      -8.683  10.157  63.084  1.00  0.00    -0.171 OA 
HETATM    2  C   UNL     1      -9.361  10.672  63.971  1.00  0.00    -0.266 C  
HETATM    3  C   UNL     1      -9.888   9.884  65.148  1.00  0.00    -0.348 C  
HETATM    4  C   UNL     1      -9.991  10.724  66.415  1.00  0.00    -0.264 C  
HETATM    5  C   UNL     1     -10.597  12.078  66.160  1.00  0.00    -0.298 A  
HETATM    6  C   UNL     1     -10.460  12.654  64.890  1.00  0.00    -0.309 A  
HETATM    7  N   UNL     1      -9.786  11.968  63.876  1.00  0.00    -0.535 N  
HETATM    8  C   UNL     1     -10.949  13.933  64.644  1.00  0.00    -0.406 A  
HETATM    9  C   UNL     1     -11.571  14.652  65.671  1.00  0.00    -0.328 A  
HETATM   10  H   UNL     1      -9.597  12.468  63.008  1.00  0.00     0.000 HD 
HETATM   11  C   UNL     1     -11.690  14.116  66.957  1.00  0.00    -0.405 A  
HETATM   12  C   UNL     1     -11.202  12.824  67.197  1.00  0.00    -0.336 A  
ENDROOT
BRANCH  11  13
HETATM   13  O   UNL     1     -12.284  14.958  67.869  1.00  0.00    -0.167 OA 
BRANCH  13  14
HETATM   14  C   UNL     1     -11.515  16.071  68.325  1.00  0.00    -0.291 C  
BRANCH  14  15
HETATM   15  C   UNL     1     -11.214  15.954  69.838  1.00  0.00    -0.348 C  
BRANCH  15  16
HETATM   16  C   UNL     1      -9.852  15.268  70.024  1.00  0.00    -0.072 C  
BRANCH  16  17
HETATM   17  C   UNL     1      -8.959  15.071  68.794  1.00  0.00    -0.196 C  
BRANCH  17  18
HETATM   18  C   UNL     1      -7.495  15.154  69.041  1.00  0.00    -0.161 A  
HETATM   19  N   UNL     1      -6.759  14.081  69.285  1.00  0.00    -0.119 NA 
HETATM   20  N   UNL     1      -5.466  14.495  69.375  1.00  0.00    -0.089 NA 
HETATM   21  N   UNL     1      -5.384  15.800  69.215  1.00  0.00    -0.105 NA 
HETATM   22  N   UNL     1      -6.639  16.233  68.943  1.00  0.00    -0.140 NA 
BRANCH  22  23
HETATM   23  C   UNL     1      -6.816  17.666  68.724  1.00  0.00    -0.235 C  
HETATM   24  C   UNL     1      -5.627  18.298  67.949  1.00  0.00    -0.157 C  
HETATM   25  C   UNL     1      -5.597  17.822  66.494  1.00  0.00    -0.214 C  
HETATM   26  C   UNL     1      -6.885  18.201  65.772  1.00  0.00    -0.305 C  
HETATM   27  C   UNL     1      -8.134  17.750  66.531  1.00  0.00    -0.305 C  
HETATM   28  C   UNL     1      -8.094  18.139  68.011  1.00  0.00    -0.264 C  
ENDBRANCH  22  23
ENDBRANCH  17  18
ENDBRANCH  16  17
ENDBRANCH  15  16
ENDBRANCH  14  15
ENDBRANCH  13  14
ENDBRANCH  11  13
TORSDOF 7
ENDMDL
MODEL      185
REMARK 921   NORMALIZED FREE ENERGY PREDICTED BY IDOCK:   -5.00 KCAL/MOL
REMARK 922        TOTAL FREE ENERGY PREDICTED BY IDOCK:   -8.06 KCAL/MOL
REMARK 923 INTER-LIGAND FREE ENERGY PREDICTED BY IDOCK:   -7.39 KCAL/MOL
REMARK 924 INTRA-LIGAND FREE ENERGY PREDICTED BY IDOCK:   -0.67 KCAL/MOL
REMARK 927      BINDING AFFINITY PREDICTED BY RF-SCORE:    0.00 PKD
ROOT
HETATM    1  O   UNL     1      -8.236   7.936  71.401  1.00  0.00    -0.098 OA 
HETATM    2  C   UNL     1      -8.639   8.247  70.282  1.00  0.00    -0.127 C  
HETATM    3  C   UNL     1      -9.031   7.220  69.246  1.00  0.00    -0.135 C  
HETATM    4  C   UNL     1     -10.147   7.707  68.331  1.00  0.00    -0.208 C  
HETATM    5  C   UNL     1      -9.928   9.119  67.857  1.00  0.00    -0.228 A  
HETATM    6  C   UNL     1      -9.181   9.994  68.657  1.00  0.00    -0.152 A  
HETATM    7  N   UNL     1      -8.636   9.550  69.866  1.00  0.00    -0.184 N  
HETATM    8  C   UNL     1      -9.019  11.323  68.281  1.00  0.00    -0.172 A  
HETATM    9  C   UNL     1      -9.614  11.792  67.103  1.00  0.00    -0.189 A  
HETATM   10  H   UNL     1      -8.209  10.244  70.478  1.00  0.00     0.000 HD 
HETATM   11  C   UNL     1     -10.394  10.950  66.304  1.00  0.00    -0.250 A  
HETATM   12  C   UNL     1     -10.546   9.610  66.685  1.00  0.00    -0.173 A  
ENDROOT
BRANCH  11  13
HETATM   13  O   UNL     1     -10.946  11.565  65.204  1.00  0.00    -0.287 OA 
BRANCH  13  14
HETATM   14  C   UNL     1     -12.161  12.287  65.405  1.00  0.00    -0.276 C  
BRANCH  14  15
HETATM   15  C   UNL     1     -12.077  13.698  64.774  1.00  0.00    -0.435 C  
BRANCH  15  16
HETATM   16  C   UNL     1     -12.151  14.749  65.891  1.00  0.00    -0.106 C  
BRANCH  16  17
HETATM   17  C   UNL     1     -11.944  14.292  67.340  1.00  0.00    -0.426 C  
BRANCH  17  18
HETATM   18  C   UNL     1     -11.393  15.318  68.265  1.00  0.00    -0.336 A  
HETATM   19  N   UNL     1     -10.889  16.462  67.830  1.00  0.00    -0.340 NA 
HETATM   20  N   UNL     1     -10.562  17.198  68.927  1.00  0.00    -0.336 NA 
HETATM   21  N   UNL     1     -10.829  16.529  70.030  1.00  0.00    -0.321 NA 
HETATM   22  N   UNL     1     -11.409  15.368  69.645  1.00  0.00    -0.282 NA 
BRANCH  22  23
HETATM   23  C   UNL     1     -11.803  14.437  70.700  1.00  0.00    -0.295 C  
HETATM   24  C   UNL     1     -11.477  14.981  72.119  1.00  0.00    -0.330 C  
HETATM   25  C   UNL     1     -12.376  16.166  72.480  1.00  0.00    -0.564 C  
HETATM   26  C   UNL     1     -13.846  15.762  72.455  1.00  0.00    -0.572 C  
HETATM   27  C   UNL     1     -14.241  15.079  71.146  1.00  0.00    -0.398 C  
HETATM   28  C   UNL     1     -13.267  13.968  70.745  1.00  0.00    -0.172 C  
ENDBRANCH  22  23
ENDBRANCH  17  18
ENDBRANCH  16  17
ENDBRANCH  15  16
ENDBRANCH  14  15
ENDBRANCH  13  14
ENDBRANCH  11  13
TORSDOF 7
ENDMDL
MODEL      186
REMARK 921   NORMALIZED FREE ENERGY PREDICTED BY IDOCK:   -5.00 KCAL/MOL
REMARK 922        TOTAL FREE ENERGY PREDICTED BY IDOCK:   -8.05 KCAL/MOL
REMARK 923 INTER-LIGAND FREE ENERGY PREDICTED BY IDOCK:   -7.63 KCAL/MOL
REMARK 924 INTRA-LIGAND FREE ENERGY PREDICTED BY IDOCK:   -0.42 KCAL/MOL
REMARK 927      BINDING AFFINITY PREDICTED BY RF-SCORE:    0.00 PKD
ROOT
HETATM    1  O   UNL     1      -9.035   3.750  69.589  1.00  0.00    -0.086 OA 
HETATM    2  C   UNL     1      -9.138   4.947  69.332  1.00  0.00    -0.105 C  
HETATM    3  C   UNL     1      -8.310   5.620  68.262  1.00  0.00    -0.102 C  
HETATM    4  C   UNL     1      -9.048   6.769  67.586  1.00  0.00    -0.117 C  
HETATM    5  C   UNL     1      -9.757   7.657  68.574  1.00  0.00    -0.162 A  
HETATM    6  C   UNL     1     -10.178   7.113  69.794  1.00  0.00    -0.208 A  
HETATM    7  N   UNL     1      -9.923   5.770  70.090  1.00  0.00    -0.186 N  
HETATM    8  C   UNL     1     -10.896   7.889  70.697  1.00  0.00    -0.238 A  
HETATM    9  C   UNL     1     -11.210   9.216  70.382  1.00  0.00    -0.279 A  
HETATM   10  H   UNL     1     -10.351   5.379  70.928  1.00  0.00     0.000 HD 
HETATM   11  C   UNL     1     -10.833   9.775  69.156  1.00  0.00    -0.207 A  
HETATM   12  C   UNL     1     -10.103   8.989  68.254  1.00  0.00    -0.223 A  
ENDROOT
BRANCH  11  13
HETATM   13  O   UNL     1     -11.251  11.073  68.973  1.00  0.00    -0.214 OA 
BRANCH  13  14
HETATM   14  C   UNL     1     -10.537  11.857  68.017  1.00  0.00    -0.207 C  
BRANCH  14  15
HETATM   15  C   UNL     1     -11.424  12.175  66.789  1.00  0.00    -0.418 C  
BRANCH  15  16
HETATM   16  C   UNL     1     -12.065  13.557  66.982  1.00  0.00    -0.401 C  
BRANCH  16  17
HETATM   17  C   UNL     1     -11.173  14.721  67.427  1.00  0.00    -0.346 C  
BRANCH  17  18
HETATM   18  C   UNL     1     -10.956  15.789  66.415  1.00  0.00    -0.159 A  
HETATM   19  N   UNL     1     -10.915  15.532  65.117  1.00  0.00    -0.400 NA 
HETATM   20  N   UNL     1     -10.794  16.726  64.476  1.00  0.00    -0.754 NA 
HETATM   21  N   UNL     1     -10.737  17.715  65.345  1.00  0.00    -0.579 NA 
HETATM   22  N   UNL     1     -10.898  17.160  66.570  1.00  0.00    -0.043 NA 
BRANCH  22  23
HETATM   23  C   UNL     1     -10.871  18.062  67.719  1.00  0.00    -0.228 C  
HETATM   24  C   UNL     1      -9.891  17.581  68.825  1.00  0.00    -0.326 C  
HETATM   25  C   UNL     1      -8.435  17.707  68.370  1.00  0.00    -0.287 C  
HETATM   26  C   UNL     1      -8.094  19.155  68.035  1.00  0.00    -0.333 C  
HETATM   27  C   UNL     1      -9.089  19.777  67.056  1.00  0.00    -0.428 C  
HETATM   28  C   UNL     1     -10.545  19.544  67.470  1.00  0.00    -0.599 C  
ENDBRANCH  22  23
ENDBRANCH  17  18
ENDBRANCH  16  17
ENDBRANCH  15  16
ENDBRANCH  14  15
ENDBRANCH  13  14
ENDBRANCH  11  13
TORSDOF 7
ENDMDL
MODEL      187
REMARK 921   NORMALIZED FREE ENERGY PREDICTED BY IDOCK:   -4.99 KCAL/MOL
REMARK 922        TOTAL FREE ENERGY PREDICTED BY IDOCK:   -8.04 KCAL/MOL
REMARK 923 INTER-LIGAND FREE ENERGY PREDICTED BY IDOCK:   -7.31 KCAL/MOL
REMARK 924 INTRA-LIGAND FREE ENERGY PREDICTED BY IDOCK:   -0.73 KCAL/MOL
REMARK 927      BINDING AFFINITY PREDICTED BY RF-SCORE:    0.00 PKD
ROOT
HETATM    1  O   UNL     1     -13.485  15.104  73.452  1.00  0.00    -0.464 OA 
HETATM    2  C   UNL     1     -13.285  14.551  72.372  1.00  0.00    -0.419 C  
HETATM    3  C   UNL     1     -13.455  15.266  71.052  1.00  0.00    -0.516 C  
HETATM    4  C   UNL     1     -12.494  14.759  69.984  1.00  0.00    -0.327 C  
HETATM    5  C   UNL     1     -12.410  13.256  69.952  1.00  0.00    -0.228 A  
HETATM    6  C   UNL     1     -12.669  12.538  71.127  1.00  0.00    -0.245 A  
HETATM    7  N   UNL     1     -13.018  13.213  72.301  1.00  0.00    -0.294 N  
HETATM    8  C   UNL     1     -12.533  11.154  71.147  1.00  0.00    -0.498 A  
HETATM    9  C   UNL     1     -12.124  10.476  69.992  1.00  0.00    -0.351 A  
HETATM   10  H   UNL     1     -13.075  12.669  73.162  1.00  0.00     0.000 HD 
HETATM   11  C   UNL     1     -11.825  11.171  68.816  1.00  0.00    -0.320 A  
HETATM   12  C   UNL     1     -11.972  12.565  68.800  1.00  0.00    -0.283 A  
ENDROOT
BRANCH  11  13
HETATM   13  O   UNL     1     -11.396  10.373  67.780  1.00  0.00    -0.353 OA 
BRANCH  13  14
HETATM   14  C   UNL     1     -10.483   9.324  68.103  1.00  0.00    -0.215 C  
BRANCH  14  15
HETATM   15  C   UNL     1     -10.287   8.371  66.900  1.00  0.00    -0.378 C  
BRANCH  15  16
HETATM   16  C   UNL     1     -11.157   7.123  67.105  1.00  0.00    -0.220 C  
BRANCH  16  17
HETATM   17  C   UNL     1     -10.594   5.969  67.944  1.00  0.00    -0.337 C  
BRANCH  17  18
HETATM   18  C   UNL     1     -10.695   6.136  69.418  1.00  0.00    -0.320 A  
HETATM   19  N   UNL     1     -11.799   6.571  70.004  1.00  0.00    -0.346 NA 
HETATM   20  N   UNL     1     -11.586   6.521  71.347  1.00  0.00    -0.306 NA 
HETATM   21  N   UNL     1     -10.369   6.086  71.607  1.00  0.00    -0.208 NA 
HETATM   22  N   UNL     1      -9.808   5.779  70.414  1.00  0.00    -0.178 NA 
BRANCH  22  23
HETATM   23  C   UNL     1      -8.439   5.270  70.433  1.00  0.00    -0.115 C  
HETATM   24  C   UNL     1      -7.627   5.708  69.183  1.00  0.00    -0.088 C  
HETATM   25  C   UNL     1      -7.338   7.211  69.206  1.00  0.00    -0.091 C  
HETATM   26  C   UNL     1      -6.536   7.590  70.446  1.00  0.00    -0.038 C  
HETATM   27  C   UNL     1      -7.177   7.077  71.736  1.00  0.00    -0.078 C  
HETATM   28  C   UNL     1      -7.560   5.597  71.652  1.00  0.00    -0.099 C  
ENDBRANCH  22  23
ENDBRANCH  17  18
ENDBRANCH  16  17
ENDBRANCH  15  16
ENDBRANCH  14  15
ENDBRANCH  13  14
ENDBRANCH  11  13
TORSDOF 7
ENDMDL
MODEL      188
REMARK 921   NORMALIZED FREE ENERGY PREDICTED BY IDOCK:   -4.98 KCAL/MOL
REMARK 922        TOTAL FREE ENERGY PREDICTED BY IDOCK:   -8.04 KCAL/MOL
REMARK 923 INTER-LIGAND FREE ENERGY PREDICTED BY IDOCK:   -7.24 KCAL/MOL
REMARK 924 INTRA-LIGAND FREE ENERGY PREDICTED BY IDOCK:   -0.79 KCAL/MOL
REMARK 927      BINDING AFFINITY PREDICTED BY RF-SCORE:    0.00 PKD
ROOT
HETATM    1  O   UNL     1      -6.442   5.729  64.183  1.00  0.00    -0.031 OA 
HETATM    2  C   UNL     1      -7.031   6.807  64.169  1.00  0.00    -0.052 C  
HETATM    3  C   UNL     1      -6.855   7.814  63.057  1.00  0.00    -0.076 C  
HETATM    4  C   UNL     1      -8.117   8.629  62.798  1.00  0.00    -0.178 C  
HETATM    5  C   UNL     1      -8.762   9.108  64.071  1.00  0.00    -0.165 A  
HETATM    6  C   UNL     1      -8.578   8.368  65.245  1.00  0.00    -0.150 A  
HETATM    7  N   UNL     1      -7.790   7.213  65.232  1.00  0.00    -0.114 N  
HETATM    8  C   UNL     1      -9.217   8.747  66.421  1.00  0.00    -0.241 A  
HETATM    9  C   UNL     1     -10.058   9.867  66.428  1.00  0.00    -0.308 A  
HETATM   10  H   UNL     1      -7.781   6.634  66.071  1.00  0.00     0.000 HD 
HETATM   11  C   UNL     1     -10.288  10.603  65.262  1.00  0.00    -0.251 A  
HETATM   12  C   UNL     1      -9.634  10.220  64.083  1.00  0.00    -0.376 A  
ENDROOT
BRANCH  11  13
HETATM   13  O   UNL     1     -11.170  11.648  65.417  1.00  0.00    -0.279 OA 
BRANCH  13  14
HETATM   14  C   UNL     1     -12.099  11.877  64.358  1.00  0.00    -0.214 C  
BRANCH  14  15
HETATM   15  C   UNL     1     -11.682  13.104  63.511  1.00  0.00    -0.472 C  
BRANCH  15  16
HETATM   16  C   UNL     1     -10.816  14.033  64.373  1.00  0.00    -0.265 C  
BRANCH  16  17
HETATM   17  C   UNL     1     -11.510  15.123  65.198  1.00  0.00    -0.304 C  
BRANCH  17  18
HETATM   18  C   UNL     1     -10.612  16.141  65.804  1.00  0.00    -0.334 A  
HETATM   19  N   UNL     1     -10.476  17.355  65.294  1.00  0.00    -0.615 NA 
HETATM   20  N   UNL     1      -9.661  18.053  66.131  1.00  0.00    -0.504 NA 
HETATM   21  N   UNL     1      -9.271  17.295  67.136  1.00  0.00    -0.231 NA 
HETATM   22  N   UNL     1      -9.903  16.106  66.989  1.00  0.00    -0.240 NA 
BRANCH  22  23
HETATM   23  C   UNL     1      -9.631  15.079  67.991  1.00  0.00    -0.208 C  
HETATM   24  C   UNL     1      -9.678  15.639  69.440  1.00  0.00    -0.292 C  
HETATM   25  C   UNL     1     -11.106  16.015  69.844  1.00  0.00    -0.352 C  
HETATM   26  C   UNL     1     -12.027  14.801  69.777  1.00  0.00    -0.368 C  
HETATM   27  C   UNL     1     -11.948  14.083  68.430  1.00  0.00    -0.378 C  
HETATM   28  C   UNL     1     -10.507  13.815  67.990  1.00  0.00    -0.245 C  
ENDBRANCH  22  23
ENDBRANCH  17  18
ENDBRANCH  16  17
ENDBRANCH  15  16
ENDBRANCH  14  15
ENDBRANCH  13  14
ENDBRANCH  11  13
TORSDOF 7
ENDMDL
MODEL      189
REMARK 921   NORMALIZED FREE ENERGY PREDICTED BY IDOCK:   -4.98 KCAL/MOL
REMARK 922        TOTAL FREE ENERGY PREDICTED BY IDOCK:   -8.04 KCAL/MOL
REMARK 923 INTER-LIGAND FREE ENERGY PREDICTED BY IDOCK:   -6.32 KCAL/MOL
REMARK 924 INTRA-LIGAND FREE ENERGY PREDICTED BY IDOCK:   -1.71 KCAL/MOL
REMARK 927      BINDING AFFINITY PREDICTED BY RF-SCORE:    0.00 PKD
ROOT
HETATM    1  O   UNL     1     -12.838   6.879  71.480  1.00  0.00    -0.374 OA 
HETATM    2  C   UNL     1     -11.809   7.030  70.824  1.00  0.00    -0.355 C  
HETATM    3  C   UNL     1     -10.571   7.679  71.397  1.00  0.00    -0.236 C  
HETATM    4  C   UNL     1      -9.286   7.114  70.803  1.00  0.00    -0.160 C  
HETATM    5  C   UNL     1      -9.361   6.965  69.307  1.00  0.00    -0.144 A  
HETATM    6  C   UNL     1     -10.612   6.768  68.708  1.00  0.00    -0.226 A  
HETATM    7  N   UNL     1     -11.769   6.731  69.491  1.00  0.00    -0.637 N  
HETATM    8  C   UNL     1     -10.706   6.558  67.336  1.00  0.00    -0.412 A  
HETATM    9  C   UNL     1      -9.547   6.532  66.552  1.00  0.00    -0.184 A  
HETATM   10  H   UNL     1     -12.641   6.462  69.038  1.00  0.00     0.000 HD 
HETATM   11  C   UNL     1      -8.283   6.690  67.129  1.00  0.00    -0.113 A  
HETATM   12  C   UNL     1      -8.195   6.909  68.511  1.00  0.00    -0.121 A  
ENDROOT
BRANCH  11  13
HETATM   13  O   UNL     1      -7.238   6.597  66.239  1.00  0.00    -0.069 OA 
BRANCH  13  14
HETATM   14  C   UNL     1      -6.249   7.626  66.286  1.00  0.00    -0.045 C  
BRANCH  14  15
HETATM   15  C   UNL     1      -6.558   8.739  65.256  1.00  0.00    -0.067 C  
BRANCH  15  16
HETATM   16  C   UNL     1      -6.775  10.063  66.003  1.00  0.00    -0.100 C  
BRANCH  16  17
HETATM   17  C   UNL     1      -8.176  10.381  66.536  1.00  0.00    -0.131 C  
BRANCH  17  18
HETATM   18  C   UNL     1      -8.361  11.751  67.083  1.00  0.00    -0.168 A  
HETATM   19  N   UNL     1      -7.338  12.543  67.361  1.00  0.00    -0.149 NA 
HETATM   20  N   UNL     1      -7.853  13.740  67.753  1.00  0.00    -0.155 NA 
HETATM   21  N   UNL     1      -9.170  13.703  67.747  1.00  0.00    -0.205 NA 
HETATM   22  N   UNL     1      -9.517  12.483  67.271  1.00  0.00    -0.188 NA 
BRANCH  22  23
HETATM   23  C   UNL     1     -10.944  12.190  67.167  1.00  0.00    -0.268 C  
HETATM   24  C   UNL     1     -11.282  10.734  67.595  1.00  0.00    -0.370 C  
HETATM   25  C   UNL     1     -11.093  10.540  69.102  1.00  0.00    -0.302 C  
HETATM   26  C   UNL     1     -11.995  11.484  69.889  1.00  0.00    -0.426 C  
HETATM   27  C   UNL     1     -11.847  12.939  69.443  1.00  0.00    -0.371 C  
HETATM   28  C   UNL     1     -11.928  13.099  67.923  1.00  0.00    -0.347 C  
ENDBRANCH  22  23
ENDBRANCH  17  18
ENDBRANCH  16  17
ENDBRANCH  15  16
ENDBRANCH  14  15
ENDBRANCH  13  14
ENDBRANCH  11  13
TORSDOF 7
ENDMDL
MODEL      190
REMARK 921   NORMALIZED FREE ENERGY PREDICTED BY IDOCK:   -4.98 KCAL/MOL
REMARK 922        TOTAL FREE ENERGY PREDICTED BY IDOCK:   -8.03 KCAL/MOL
REMARK 923 INTER-LIGAND FREE ENERGY PREDICTED BY IDOCK:   -7.31 KCAL/MOL
REMARK 924 INTRA-LIGAND FREE ENERGY PREDICTED BY IDOCK:   -0.73 KCAL/MOL
REMARK 927      BINDING AFFINITY PREDICTED BY RF-SCORE:    0.00 PKD
ROOT
HETATM    1  O   UNL     1     -10.776   5.690  69.859  1.00  0.00    -0.308 OA 
HETATM    2  C   UNL     1     -10.458   6.545  69.035  1.00  0.00    -0.216 C  
HETATM    3  C   UNL     1      -9.484   6.267  67.914  1.00  0.00    -0.115 C  
HETATM    4  C   UNL     1      -9.792   7.072  66.657  1.00  0.00    -0.223 C  
HETATM    5  C   UNL     1     -10.108   8.513  66.960  1.00  0.00    -0.347 A  
HETATM    6  C   UNL     1     -10.650   8.839  68.210  1.00  0.00    -0.142 A  
HETATM    7  N   UNL     1     -10.875   7.841  69.162  1.00  0.00    -0.410 N  
HETATM    8  C   UNL     1     -11.016  10.151  68.494  1.00  0.00    -0.278 A  
HETATM    9  C   UNL     1     -10.852  11.147  67.524  1.00  0.00    -0.303 A  
HETATM   10  H   UNL     1     -11.384   8.096  70.007  1.00  0.00     0.000 HD 
HETATM   11  C   UNL     1     -10.346  10.843  66.257  1.00  0.00    -0.250 A  
HETATM   12  C   UNL     1      -9.972   9.521  65.980  1.00  0.00    -0.348 A  
ENDROOT
BRANCH  11  13
HETATM   13  O   UNL     1     -10.284  11.917  65.399  1.00  0.00    -0.246 OA 
BRANCH  13  14
HETATM   14  C   UNL     1     -11.518  12.397  64.866  1.00  0.00    -0.332 C  
BRANCH  14  15
HETATM   15  C   UNL     1     -11.592  13.940  64.941  1.00  0.00    -0.365 C  
BRANCH  15  16
HETATM   16  C   UNL     1     -12.470  14.341  66.135  1.00  0.00    -0.362 C  
BRANCH  16  17
HETATM   17  C   UNL     1     -11.798  14.575  67.492  1.00  0.00    -0.404 C  
BRANCH  17  18
HETATM   18  C   UNL     1     -10.353  14.922  67.443  1.00  0.00    -0.243 A  
HETATM   19  N   UNL     1      -9.404  14.029  67.674  1.00  0.00    -0.197 NA 
HETATM   20  N   UNL     1      -8.211  14.646  67.462  1.00  0.00    -0.174 NA 
HETATM   21  N   UNL     1      -8.395  15.907  67.126  1.00  0.00    -0.184 NA 
HETATM   22  N   UNL     1      -9.734  16.092  67.047  1.00  0.00    -0.226 NA 
BRANCH  22  23
HETATM   23  C   UNL     1     -10.202  17.428  66.687  1.00  0.00    -0.324 C  
HETATM   24  C   UNL     1     -11.035  18.089  67.820  1.00  0.00    -0.106 C  
HETATM   25  C   UNL     1     -10.155  18.444  69.021  1.00  0.00    -0.274 C  
HETATM   26  C   UNL     1      -9.053  19.417  68.618  1.00  0.00    -0.423 C  
HETATM   27  C   UNL     1      -8.256  18.928  67.409  1.00  0.00    -0.289 C  
HETATM   28  C   UNL     1      -9.157  18.472  66.258  1.00  0.00    -0.216 C  
ENDBRANCH  22  23
ENDBRANCH  17  18
ENDBRANCH  16  17
ENDBRANCH  15  16
ENDBRANCH  14  15
ENDBRANCH  13  14
ENDBRANCH  11  13
TORSDOF 7
ENDMDL
MODEL      191
REMARK 921   NORMALIZED FREE ENERGY PREDICTED BY IDOCK:   -4.98 KCAL/MOL
REMARK 922        TOTAL FREE ENERGY PREDICTED BY IDOCK:   -8.03 KCAL/MOL
REMARK 923 INTER-LIGAND FREE ENERGY PREDICTED BY IDOCK:   -6.31 KCAL/MOL
REMARK 924 INTRA-LIGAND FREE ENERGY PREDICTED BY IDOCK:   -1.72 KCAL/MOL
REMARK 927      BINDING AFFINITY PREDICTED BY RF-SCORE:    0.00 PKD
ROOT
HETATM    1  O   UNL     1      -5.772  11.647  70.951  1.00  0.00    -0.304 OA 
HETATM    2  C   UNL     1      -6.493  11.848  69.977  1.00  0.00     0.002 C  
HETATM    3  C   UNL     1      -6.288  13.018  69.044  1.00  0.00    -0.099 C  
HETATM    4  C   UNL     1      -6.691  12.701  67.609  1.00  0.00    -0.144 C  
HETATM    5  C   UNL     1      -8.006  11.973  67.528  1.00  0.00    -0.159 A  
HETATM    6  C   UNL     1      -8.410  11.181  68.611  1.00  0.00    -0.154 A  
HETATM    7  N   UNL     1      -7.607  11.088  69.752  1.00  0.00    -0.356 N  
HETATM    8  C   UNL     1      -9.586  10.442  68.539  1.00  0.00    -0.161 A  
HETATM    9  C   UNL     1     -10.364  10.480  67.376  1.00  0.00    -0.269 A  
HETATM   10  H   UNL     1      -7.871  10.408  70.464  1.00  0.00     0.000 HD 
HETATM   11  C   UNL     1      -9.967  11.235  66.267  1.00  0.00    -0.221 A  
HETATM   12  C   UNL     1      -8.785  11.983  66.349  1.00  0.00    -0.088 A  
ENDROOT
BRANCH  11  13
HETATM   13  O   UNL     1     -10.812  11.138  65.185  1.00  0.00    -0.248 OA 
BRANCH  13  14
HETATM   14  C   UNL     1     -10.449  11.864  64.010  1.00  0.00    -0.373 C  
BRANCH  14  15
HETATM   15  C   UNL     1     -11.435  13.028  63.752  1.00  0.00    -0.486 C  
BRANCH  15  16
HETATM   16  C   UNL     1     -10.799  14.337  64.241  1.00  0.00     0.013 C  
BRANCH  16  17
HETATM   17  C   UNL     1     -11.383  15.013  65.487  1.00  0.00    -0.312 C  
BRANCH  17  18
HETATM   18  C   UNL     1     -10.471  15.947  66.200  1.00  0.00    -0.326 A  
HETATM   19  N   UNL     1     -10.102  17.107  65.679  1.00  0.00    -0.590 NA 
HETATM   20  N   UNL     1      -9.350  17.745  66.616  1.00  0.00    -0.279 NA 
HETATM   21  N   UNL     1      -9.225  17.001  67.696  1.00  0.00    -0.232 NA 
HETATM   22  N   UNL     1      -9.971  15.890  67.486  1.00  0.00    -0.236 NA 
BRANCH  22  23
HETATM   23  C   UNL     1      -9.996  14.892  68.553  1.00  0.00    -0.223 C  
HETATM   24  C   UNL     1      -9.678  15.506  69.945  1.00  0.00    -0.169 C  
HETATM   25  C   UNL     1     -10.814  16.416  70.422  1.00  0.00    -0.149 C  
HETATM   26  C   UNL     1     -12.121  15.639  70.536  1.00  0.00    -0.430 C  
HETATM   27  C   UNL     1     -12.457  14.872  69.257  1.00  0.00    -0.023 C  
HETATM   28  C   UNL     1     -11.273  14.055  68.733  1.00  0.00    -0.298 C  
ENDBRANCH  22  23
ENDBRANCH  17  18
ENDBRANCH  16  17
ENDBRANCH  15  16
ENDBRANCH  14  15
ENDBRANCH  13  14
ENDBRANCH  11  13
TORSDOF 7
ENDMDL
MODEL      192
REMARK 921   NORMALIZED FREE ENERGY PREDICTED BY IDOCK:   -4.97 KCAL/MOL
REMARK 922        TOTAL FREE ENERGY PREDICTED BY IDOCK:   -8.01 KCAL/MOL
REMARK 923 INTER-LIGAND FREE ENERGY PREDICTED BY IDOCK:   -7.04 KCAL/MOL
REMARK 924 INTRA-LIGAND FREE ENERGY PREDICTED BY IDOCK:   -0.97 KCAL/MOL
REMARK 927      BINDING AFFINITY PREDICTED BY RF-SCORE:    0.00 PKD
ROOT
HETATM    1  O   UNL     1      -9.375   3.496  63.808  1.00  0.00    -0.114 OA 
HETATM    2  C   UNL     1      -9.536   3.690  65.011  1.00  0.00    -0.161 C  
HETATM    3  C   UNL     1      -9.142   2.673  66.056  1.00  0.00    -0.113 C  
HETATM    4  C   UNL     1      -8.697   3.318  67.363  1.00  0.00    -0.136 C  
HETATM    5  C   UNL     1      -9.610   4.435  67.793  1.00  0.00    -0.211 A  
HETATM    6  C   UNL     1     -10.325   5.139  66.816  1.00  0.00    -0.261 A  
HETATM    7  N   UNL     1     -10.202   4.793  65.468  1.00  0.00    -0.401 N  
HETATM    8  C   UNL     1     -11.124   6.220  67.176  1.00  0.00    -0.389 A  
HETATM    9  C   UNL     1     -11.205   6.613  68.517  1.00  0.00    -0.227 A  
HETATM   10  H   UNL     1     -10.637   5.405  64.778  1.00  0.00     0.000 HD 
HETATM   11  C   UNL     1     -10.474   5.949  69.508  1.00  0.00    -0.278 A  
HETATM   12  C   UNL     1      -9.678   4.856  69.140  1.00  0.00    -0.252 A  
ENDROOT
BRANCH  11  13
HETATM   13  O   UNL     1     -10.623   6.477  70.770  1.00  0.00    -0.217 OA 
BRANCH  13  14
HETATM   14  C   UNL     1     -11.943   6.849  71.168  1.00  0.00    -0.366 C  
BRANCH  14  15
HETATM   15  C   UNL     1     -11.909   8.040  72.155  1.00  0.00    -0.401 C  
BRANCH  15  16
HETATM   16  C   UNL     1     -10.953   9.111  71.611  1.00  0.00    -0.445 C  
BRANCH  16  17
HETATM   17  C   UNL     1     -11.414   9.969  70.427  1.00  0.00    -0.389 C  
BRANCH  17  18
HETATM   18  C   UNL     1     -10.481  10.025  69.271  1.00  0.00    -0.225 A  
HETATM   19  N   UNL     1      -9.363   9.318  69.232  1.00  0.00    -0.155 NA 
HETATM   20  N   UNL     1      -8.797   9.529  68.013  1.00  0.00    -0.124 NA 
HETATM   21  N   UNL     1      -9.526  10.366  67.302  1.00  0.00    -0.153 NA 
HETATM   22  N   UNL     1     -10.623  10.646  68.045  1.00  0.00    -0.194 NA 
BRANCH  22  23
HETATM   23  C   UNL     1     -11.600  11.567  67.470  1.00  0.00    -0.246 C  
HETATM   24  C   UNL     1     -11.794  12.842  68.337  1.00  0.00    -0.357 C  
HETATM   25  C   UNL     1     -10.551  13.735  68.298  1.00  0.00    -0.262 C  
HETATM   26  C   UNL     1     -10.244  14.178  66.872  1.00  0.00    -0.267 C  
HETATM   27  C   UNL     1     -10.174  13.001  65.898  1.00  0.00    -0.298 C  
HETATM   28  C   UNL     1     -11.373  12.058  66.030  1.00  0.00    -0.398 C  
ENDBRANCH  22  23
ENDBRANCH  17  18
ENDBRANCH  16  17
ENDBRANCH  15  16
ENDBRANCH  14  15
ENDBRANCH  13  14
ENDBRANCH  11  13
TORSDOF 7
ENDMDL
MODEL      193
REMARK 921   NORMALIZED FREE ENERGY PREDICTED BY IDOCK:   -4.97 KCAL/MOL
REMARK 922        TOTAL FREE ENERGY PREDICTED BY IDOCK:   -8.01 KCAL/MOL
REMARK 923 INTER-LIGAND FREE ENERGY PREDICTED BY IDOCK:   -7.33 KCAL/MOL
REMARK 924 INTRA-LIGAND FREE ENERGY PREDICTED BY IDOCK:   -0.68 KCAL/MOL
REMARK 927      BINDING AFFINITY PREDICTED BY RF-SCORE:    0.00 PKD
ROOT
HETATM    1  O   UNL     1     -10.634  16.698  69.274  1.00  0.00    -0.308 OA 
HETATM    2  C   UNL     1     -11.067  15.697  69.842  1.00  0.00    -0.319 C  
HETATM    3  C   UNL     1     -11.629  15.741  71.244  1.00  0.00    -0.499 C  
HETATM    4  C   UNL     1     -12.739  14.720  71.462  1.00  0.00    -0.401 C  
HETATM    5  C   UNL     1     -12.396  13.368  70.894  1.00  0.00    -0.436 A  
HETATM    6  C   UNL     1     -11.513  13.293  69.810  1.00  0.00    -0.158 A  
HETATM    7  N   UNL     1     -10.948  14.457  69.281  1.00  0.00    -0.258 N  
HETATM    8  C   UNL     1     -11.231  12.065  69.219  1.00  0.00    -0.291 A  
HETATM    9  C   UNL     1     -11.840  10.901  69.703  1.00  0.00    -0.416 A  
HETATM   10  H   UNL     1     -10.411  14.375  68.417  1.00  0.00     0.000 HD 
HETATM   11  C   UNL     1     -12.753  10.952  70.762  1.00  0.00    -0.340 A  
HETATM   12  C   UNL     1     -13.027  12.191  71.357  1.00  0.00    -0.357 A  
ENDROOT
BRANCH  11  13
HETATM   13  O   UNL     1     -13.301   9.735  71.096  1.00  0.00    -0.373 OA 
BRANCH  13  14
HETATM   14  C   UNL     1     -12.666   9.002  72.143  1.00  0.00    -0.401 C  
BRANCH  14  15
HETATM   15  C   UNL     1     -11.545   8.094  71.584  1.00  0.00    -0.325 C  
BRANCH  15  16
HETATM   16  C   UNL     1     -10.226   8.438  72.291  1.00  0.00    -0.396 C  
BRANCH  16  17
HETATM   17  C   UNL     1      -8.916   7.916  71.689  1.00  0.00    -0.173 C  
BRANCH  17  18
HETATM   18  C   UNL     1      -9.009   6.617  70.973  1.00  0.00    -0.146 A  
HETATM   19  N   UNL     1      -9.199   6.544  69.665  1.00  0.00    -0.144 NA 
HETATM   20  N   UNL     1      -9.147   5.228  69.325  1.00  0.00    -0.106 NA 
HETATM   21  N   UNL     1      -8.950   4.481  70.392  1.00  0.00    -0.090 NA 
HETATM   22  N   UNL     1      -8.799   5.332  71.435  1.00  0.00    -0.133 NA 
BRANCH  22  23
HETATM   23  C   UNL     1      -8.568   4.740  72.750  1.00  0.00    -0.114 C  
HETATM   24  C   UNL     1      -9.503   5.335  73.839  1.00  0.00    -0.134 C  
HETATM   25  C   UNL     1     -10.956   4.905  73.620  1.00  0.00    -0.387 C  
HETATM   26  C   UNL     1     -11.086   3.386  73.666  1.00  0.00    -0.316 C  
HETATM   27  C   UNL     1     -10.099   2.688  72.729  1.00  0.00    -0.225 C  
HETATM   28  C   UNL     1      -8.669   3.211  72.885  1.00  0.00    -0.090 C  
ENDBRANCH  22  23
ENDBRANCH  17  18
ENDBRANCH  16  17
ENDBRANCH  15  16
ENDBRANCH  14  15
ENDBRANCH  13  14
ENDBRANCH  11  13
TORSDOF 7
ENDMDL
MODEL      194
REMARK 921   NORMALIZED FREE ENERGY PREDICTED BY IDOCK:   -4.95 KCAL/MOL
REMARK 922        TOTAL FREE ENERGY PREDICTED BY IDOCK:   -7.99 KCAL/MOL
REMARK 923 INTER-LIGAND FREE ENERGY PREDICTED BY IDOCK:   -7.33 KCAL/MOL
REMARK 924 INTRA-LIGAND FREE ENERGY PREDICTED BY IDOCK:   -0.66 KCAL/MOL
REMARK 927      BINDING AFFINITY PREDICTED BY RF-SCORE:    0.00 PKD
ROOT
HETATM    1  O   UNL     1     -10.488   6.818  73.113  1.00  0.00    -0.225 OA 
HETATM    2  C   UNL     1     -10.138   6.580  71.959  1.00  0.00    -0.184 C  
HETATM    3  C   UNL     1     -10.801   5.518  71.113  1.00  0.00    -0.243 C  
HETATM    4  C   UNL     1     -10.806   5.869  69.631  1.00  0.00    -0.444 C  
HETATM    5  C   UNL     1      -9.478   6.400  69.161  1.00  0.00    -0.137 A  
HETATM    6  C   UNL     1      -8.644   7.049  70.080  1.00  0.00    -0.140 A  
HETATM    7  N   UNL     1      -9.038   7.181  71.415  1.00  0.00    -0.143 N  
HETATM    8  C   UNL     1      -7.443   7.611  69.661  1.00  0.00    -0.091 A  
HETATM    9  C   UNL     1      -7.070   7.537  68.314  1.00  0.00    -0.084 A  
HETATM   10  H   UNL     1      -8.465   7.766  72.023  1.00  0.00     0.000 HD 
HETATM   11  C   UNL     1      -7.900   6.926  67.368  1.00  0.00    -0.111 A  
HETATM   12  C   UNL     1      -9.105   6.355  67.799  1.00  0.00    -0.111 A  
ENDROOT
BRANCH  11  13
HETATM   13  O   UNL     1      -7.419   6.971  66.080  1.00  0.00    -0.076 OA 
BRANCH  13  14
HETATM   14  C   UNL     1      -8.212   7.659  65.113  1.00  0.00    -0.128 C  
BRANCH  14  15
HETATM   15  C   UNL     1      -8.330   9.162  65.461  1.00  0.00    -0.138 C  
BRANCH  15  16
HETATM   16  C   UNL     1      -9.745   9.645  65.113  1.00  0.00    -0.287 C  
BRANCH  16  17
HETATM   17  C   UNL     1      -9.897  10.836  64.160  1.00  0.00    -0.384 C  
BRANCH  17  18
HETATM   18  C   UNL     1     -11.112  11.669  64.360  1.00  0.00    -0.317 A  
HETATM   19  N   UNL     1     -11.936  11.965  63.368  1.00  0.00    -0.476 NA 
HETATM   20  N   UNL     1     -12.978  12.656  63.905  1.00  0.00    -0.687 NA 
HETATM   21  N   UNL     1     -12.809  12.817  65.202  1.00  0.00    -0.776 NA 
HETATM   22  N   UNL     1     -11.673  12.153  65.526  1.00  0.00    -0.364 NA 
BRANCH  22  23
HETATM   23  C   UNL     1     -11.262  12.182  66.927  1.00  0.00    -0.320 C  
HETATM   24  C   UNL     1      -9.753  12.512  67.094  1.00  0.00    -0.205 C  
HETATM   25  C   UNL     1      -9.457  13.965  66.714  1.00  0.00    -0.287 C  
HETATM   26  C   UNL     1     -10.250  14.929  67.590  1.00  0.00    -0.236 C  
HETATM   27  C   UNL     1     -11.743  14.601  67.613  1.00  0.00    -0.389 C  
HETATM   28  C   UNL     1     -12.016  13.120  67.885  1.00  0.00    -0.347 C  
ENDBRANCH  22  23
ENDBRANCH  17  18
ENDBRANCH  16  17
ENDBRANCH  15  16
ENDBRANCH  14  15
ENDBRANCH  13  14
ENDBRANCH  11  13
TORSDOF 7
ENDMDL
MODEL      195
REMARK 921   NORMALIZED FREE ENERGY PREDICTED BY IDOCK:   -4.95 KCAL/MOL
REMARK 922        TOTAL FREE ENERGY PREDICTED BY IDOCK:   -7.99 KCAL/MOL
REMARK 923 INTER-LIGAND FREE ENERGY PREDICTED BY IDOCK:   -6.90 KCAL/MOL
REMARK 924 INTRA-LIGAND FREE ENERGY PREDICTED BY IDOCK:   -1.09 KCAL/MOL
REMARK 927      BINDING AFFINITY PREDICTED BY RF-SCORE:    0.00 PKD
ROOT
HETATM    1  O   UNL     1      -9.225  11.058  62.590  1.00  0.00    -0.304 OA 
HETATM    2  C   UNL     1      -9.648  10.892  63.733  1.00  0.00    -0.292 C  
HETATM    3  C   UNL     1      -9.527   9.572  64.458  1.00  0.00    -0.075 C  
HETATM    4  C   UNL     1      -9.371   9.744  65.964  1.00  0.00    -0.249 C  
HETATM    5  C   UNL     1     -10.327  10.760  66.529  1.00  0.00    -0.300 A  
HETATM    6  C   UNL     1     -10.784  11.794  65.702  1.00  0.00    -0.280 A  
HETATM    7  N   UNL     1     -10.369  11.864  64.369  1.00  0.00    -0.281 N  
HETATM    8  C   UNL     1     -11.613  12.787  66.215  1.00  0.00    -0.433 A  
HETATM    9  C   UNL     1     -11.983  12.759  67.565  1.00  0.00    -0.342 A  
HETATM   10  H   UNL     1     -10.620  12.696  63.836  1.00  0.00     0.000 HD 
HETATM   11  C   UNL     1     -11.513  11.758  68.421  1.00  0.00    -0.294 A  
HETATM   12  C   UNL     1     -10.685  10.757  67.896  1.00  0.00    -0.282 A  
ENDROOT
BRANCH  11  13
HETATM   13  O   UNL     1     -11.928  11.889  69.726  1.00  0.00    -0.306 OA 
BRANCH  13  14
HETATM   14  C   UNL     1     -12.674  10.807  70.283  1.00  0.00    -0.216 C  
BRANCH  14  15
HETATM   15  C   UNL     1     -11.927  10.179  71.484  1.00  0.00    -0.404 C  
BRANCH  15  16
HETATM   16  C   UNL     1     -10.920   9.146  70.960  1.00  0.00    -0.375 C  
BRANCH  16  17
HETATM   17  C   UNL     1     -11.433   7.753  70.576  1.00  0.00    -0.219 C  
BRANCH  17  18
HETATM   18  C   UNL     1     -10.537   6.619  70.923  1.00  0.00    -0.224 A  
HETATM   19  N   UNL     1     -10.691   5.912  72.031  1.00  0.00    -0.224 NA 
HETATM   20  N   UNL     1      -9.774   4.908  71.997  1.00  0.00    -0.160 NA 
HETATM   21  N   UNL     1      -9.040   4.987  70.905  1.00  0.00    -0.139 NA 
HETATM   22  N   UNL     1      -9.539   6.018  70.181  1.00  0.00    -0.160 NA 
BRANCH  22  23
HETATM   23  C   UNL     1      -8.887   6.315  68.909  1.00  0.00    -0.124 C  
HETATM   24  C   UNL     1      -8.430   5.030  68.163  1.00  0.00    -0.099 C  
HETATM   25  C   UNL     1      -9.630   4.229  67.651  1.00  0.00    -0.215 C  
HETATM   26  C   UNL     1     -10.468   5.062  66.687  1.00  0.00    -0.301 C  
HETATM   27  C   UNL     1     -10.853   6.421  67.272  1.00  0.00    -0.463 C  
HETATM   28  C   UNL     1      -9.657   7.159  67.879  1.00  0.00    -0.145 C  
ENDBRANCH  22  23
ENDBRANCH  17  18
ENDBRANCH  16  17
ENDBRANCH  15  16
ENDBRANCH  14  15
ENDBRANCH  13  14
ENDBRANCH  11  13
TORSDOF 7
ENDMDL
MODEL      196
REMARK 921   NORMALIZED FREE ENERGY PREDICTED BY IDOCK:   -4.95 KCAL/MOL
REMARK 922        TOTAL FREE ENERGY PREDICTED BY IDOCK:   -7.99 KCAL/MOL
REMARK 923 INTER-LIGAND FREE ENERGY PREDICTED BY IDOCK:   -7.15 KCAL/MOL
REMARK 924 INTRA-LIGAND FREE ENERGY PREDICTED BY IDOCK:   -0.84 KCAL/MOL
REMARK 927      BINDING AFFINITY PREDICTED BY RF-SCORE:    0.00 PKD
ROOT
HETATM    1  O   UNL     1      -7.669  10.764  62.502  1.00  0.00    -0.147 OA 
HETATM    2  C   UNL     1      -8.453  10.590  63.433  1.00  0.00    -0.148 C  
HETATM    3  C   UNL     1      -8.774   9.217  63.976  1.00  0.00    -0.198 C  
HETATM    4  C   UNL     1      -9.080   9.236  65.469  1.00  0.00    -0.275 C  
HETATM    5  C   UNL     1      -9.999  10.365  65.854  1.00  0.00    -0.317 A  
HETATM    6  C   UNL     1     -10.004  11.529  65.074  1.00  0.00    -0.263 A  
HETATM    7  N   UNL     1      -9.181  11.626  63.949  1.00  0.00    -0.452 N  
HETATM    8  C   UNL     1     -10.790  12.616  65.444  1.00  0.00    -0.318 A  
HETATM    9  C   UNL     1     -11.570  12.551  66.604  1.00  0.00    -0.442 A  
HETATM   10  H   UNL     1      -9.119  12.530  63.482  1.00  0.00     0.000 HD 
HETATM   11  C   UNL     1     -11.557  11.415  67.419  1.00  0.00    -0.184 A  
HETATM   12  C   UNL     1     -10.769  10.320  67.037  1.00  0.00    -0.281 A  
ENDROOT
BRANCH  11  13
HETATM   13  O   UNL     1     -12.340  11.517  68.546  1.00  0.00    -0.459 OA 
BRANCH  13  14
HETATM   14  C   UNL     1     -11.811  12.265  69.640  1.00  0.00    -0.324 C  
BRANCH  14  15
HETATM   15  C   UNL     1     -11.938  11.474  70.965  1.00  0.00    -0.095 C  
BRANCH  15  16
HETATM   16  C   UNL     1     -11.999   9.974  70.646  1.00  0.00    -0.401 C  
BRANCH  16  17
HETATM   17  C   UNL     1     -10.778   9.106  70.973  1.00  0.00    -0.363 C  
BRANCH  17  18
HETATM   18  C   UNL     1     -10.807   7.723  70.430  1.00  0.00    -0.244 A  
HETATM   19  N   UNL     1     -10.560   7.460  69.156  1.00  0.00    -0.218 NA 
HETATM   20  N   UNL     1     -10.579   6.107  69.015  1.00  0.00    -0.246 NA 
HETATM   21  N   UNL     1     -10.854   5.525  70.165  1.00  0.00    -0.284 NA 
HETATM   22  N   UNL     1     -10.942   6.515  71.086  1.00  0.00    -0.254 NA 
BRANCH  22  23
HETATM   23  C   UNL     1     -11.245   6.122  72.459  1.00  0.00    -0.287 C  
HETATM   24  C   UNL     1     -10.690   4.713  72.808  1.00  0.00    -0.273 C  
HETATM   25  C   UNL     1      -9.161   4.720  72.878  1.00  0.00    -0.127 C  
HETATM   26  C   UNL     1      -8.670   5.696  73.942  1.00  0.00    -0.117 C  
HETATM   27  C   UNL     1      -9.274   7.090  73.777  1.00  0.00    -0.235 C  
HETATM   28  C   UNL     1     -10.794   7.054  73.597  1.00  0.00    -0.199 C  
ENDBRANCH  22  23
ENDBRANCH  17  18
ENDBRANCH  16  17
ENDBRANCH  15  16
ENDBRANCH  14  15
ENDBRANCH  13  14
ENDBRANCH  11  13
TORSDOF 7
ENDMDL
MODEL      197
REMARK 921   NORMALIZED FREE ENERGY PREDICTED BY IDOCK:   -4.94 KCAL/MOL
REMARK 922        TOTAL FREE ENERGY PREDICTED BY IDOCK:   -7.98 KCAL/MOL
REMARK 923 INTER-LIGAND FREE ENERGY PREDICTED BY IDOCK:   -6.84 KCAL/MOL
REMARK 924 INTRA-LIGAND FREE ENERGY PREDICTED BY IDOCK:   -1.14 KCAL/MOL
REMARK 927      BINDING AFFINITY PREDICTED BY RF-SCORE:    0.00 PKD
ROOT
HETATM    1  O   UNL     1     -12.771  15.122  63.817  1.00  0.00    -0.722 OA 
HETATM    2  C   UNL     1     -12.092  14.255  64.363  1.00  0.00    -0.468 C  
HETATM    3  C   UNL     1     -11.960  12.858  63.804  1.00  0.00    -0.582 C  
HETATM    4  C   UNL     1     -10.601  12.234  64.100  1.00  0.00    -0.408 C  
HETATM    5  C   UNL     1     -10.166  12.454  65.525  1.00  0.00    -0.297 A  
HETATM    6  C   UNL     1     -10.638  13.581  66.211  1.00  0.00    -0.288 A  
HETATM    7  N   UNL     1     -11.513  14.471  65.582  1.00  0.00    -0.338 N  
HETATM    8  C   UNL     1     -10.200  13.848  67.504  1.00  0.00    -0.245 A  
HETATM    9  C   UNL     1      -9.275  12.995  68.118  1.00  0.00    -0.212 A  
HETATM   10  H   UNL     1     -11.735  15.341  66.066  1.00  0.00     0.000 HD 
HETATM   11  C   UNL     1      -8.761  11.884  67.444  1.00  0.00    -0.166 A  
HETATM   12  C   UNL     1      -9.213  11.615  66.144  1.00  0.00    -0.228 A  
ENDROOT
BRANCH  11  13
HETATM   13  O   UNL     1      -7.831  11.167  68.161  1.00  0.00    -0.107 OA 
BRANCH  13  14
HETATM   14  C   UNL     1      -6.939  11.908  68.993  1.00  0.00    -0.098 C  
BRANCH  14  15
HETATM   15  C   UNL     1      -6.166  10.970  69.951  1.00  0.00    -0.127 C  
BRANCH  15  16
HETATM   16  C   UNL     1      -6.758   9.557  69.849  1.00  0.00    -0.063 C  
BRANCH  16  17
HETATM   17  C   UNL     1      -7.560   9.012  71.037  1.00  0.00    -0.138 C  
BRANCH  17  18
HETATM   18  C   UNL     1      -7.927   7.574  70.960  1.00  0.00    -0.095 A  
HETATM   19  N   UNL     1      -7.101   6.614  71.345  1.00  0.00    -0.075 NA 
HETATM   20  N   UNL     1      -7.773   5.436  71.229  1.00  0.00    -0.100 NA 
HETATM   21  N   UNL     1      -8.987   5.640  70.761  1.00  0.00    -0.142 NA 
HETATM   22  N   UNL     1      -9.133   6.981  70.640  1.00  0.00    -0.158 NA 
BRANCH  22  23
HETATM   23  C   UNL     1     -10.412   7.470  70.131  1.00  0.00    -0.222 C  
HETATM   24  C   UNL     1     -10.239   8.629  69.111  1.00  0.00    -0.215 C  
HETATM   25  C   UNL     1      -9.620   8.130  67.802  1.00  0.00    -0.180 C  
HETATM   26  C   UNL     1     -10.497   7.062  67.158  1.00  0.00    -0.383 C  
HETATM   27  C   UNL     1     -10.852   5.935  68.129  1.00  0.00    -0.323 C  
HETATM   28  C   UNL     1     -11.365   6.457  69.473  1.00  0.00    -0.460 C  
ENDBRANCH  22  23
ENDBRANCH  17  18
ENDBRANCH  16  17
ENDBRANCH  15  16
ENDBRANCH  14  15
ENDBRANCH  13  14
ENDBRANCH  11  13
TORSDOF 7
ENDMDL
MODEL      198
REMARK 921   NORMALIZED FREE ENERGY PREDICTED BY IDOCK:   -4.94 KCAL/MOL
REMARK 922        TOTAL FREE ENERGY PREDICTED BY IDOCK:   -7.98 KCAL/MOL
REMARK 923 INTER-LIGAND FREE ENERGY PREDICTED BY IDOCK:   -6.99 KCAL/MOL
REMARK 924 INTRA-LIGAND FREE ENERGY PREDICTED BY IDOCK:   -0.99 KCAL/MOL
REMARK 927      BINDING AFFINITY PREDICTED BY RF-SCORE:    0.00 PKD
ROOT
HETATM    1  O   UNL     1      -6.037   8.212  67.694  1.00  0.00    -0.048 OA 
HETATM    2  C   UNL     1      -7.117   8.760  67.901  1.00  0.00    -0.079 C  
HETATM    3  C   UNL     1      -7.929   8.505  69.150  1.00  0.00    -0.112 C  
HETATM    4  C   UNL     1      -8.731   9.726  69.586  1.00  0.00    -0.211 C  
HETATM    5  C   UNL     1      -9.426  10.399  68.432  1.00  0.00    -0.151 A  
HETATM    6  C   UNL     1      -8.876  10.285  67.150  1.00  0.00    -0.136 A  
HETATM    7  N   UNL     1      -7.709   9.541  66.948  1.00  0.00    -0.098 N  
HETATM    8  C   UNL     1      -9.456  10.953  66.076  1.00  0.00    -0.235 A  
HETATM    9  C   UNL     1     -10.588  11.751  66.280  1.00  0.00    -0.292 A  
HETATM   10  H   UNL     1      -7.271   9.585  66.029  1.00  0.00     0.000 HD 
HETATM   11  C   UNL     1     -11.138  11.910  67.556  1.00  0.00    -0.273 A  
HETATM   12  C   UNL     1     -10.553  11.228  68.632  1.00  0.00    -0.231 A  
ENDROOT
BRANCH  11  13
HETATM   13  O   UNL     1     -12.221  12.758  67.604  1.00  0.00    -0.321 OA 
BRANCH  13  14
HETATM   14  C   UNL     1     -12.064  14.047  67.012  1.00  0.00    -0.420 C  
BRANCH  14  15
HETATM   15  C   UNL     1     -11.519  15.067  68.040  1.00  0.00    -0.357 C  
BRANCH  15  16
HETATM   16  C   UNL     1      -9.985  14.993  68.050  1.00  0.00    -0.219 C  
BRANCH  16  17
HETATM   17  C   UNL     1      -9.221  15.790  69.114  1.00  0.00    -0.256 C  
BRANCH  17  18
HETATM   18  C   UNL     1      -8.016  16.515  68.632  1.00  0.00    -0.232 A  
HETATM   19  N   UNL     1      -6.934  15.881  68.209  1.00  0.00    -0.114 NA 
HETATM   20  N   UNL     1      -6.064  16.827  67.762  1.00  0.00    -0.130 NA 
HETATM   21  N   UNL     1      -6.571  18.033  67.917  1.00  0.00    -0.191 NA 
HETATM   22  N   UNL     1      -7.823  17.864  68.407  1.00  0.00    -0.278 NA 
BRANCH  22  23
HETATM   23  C   UNL     1      -8.604  19.070  68.671  1.00  0.00    -0.354 C  
HETATM   24  C   UNL     1      -8.278  20.216  67.673  1.00  0.00    -0.337 C  
HETATM   25  C   UNL     1      -8.787  19.888  66.266  1.00  0.00    -0.402 C  
HETATM   26  C   UNL     1     -10.297  19.681  66.269  1.00  0.00    -0.619 C  
HETATM   27  C   UNL     1     -10.745  18.669  67.325  1.00  0.00    -0.449 C  
HETATM   28  C   UNL     1     -10.136  18.949  68.702  1.00  0.00    -0.447 C  
ENDBRANCH  22  23
ENDBRANCH  17  18
ENDBRANCH  16  17
ENDBRANCH  15  16
ENDBRANCH  14  15
ENDBRANCH  13  14
ENDBRANCH  11  13
TORSDOF 7
ENDMDL
MODEL      199
REMARK 921   NORMALIZED FREE ENERGY PREDICTED BY IDOCK:   -4.92 KCAL/MOL
REMARK 922        TOTAL FREE ENERGY PREDICTED BY IDOCK:   -7.94 KCAL/MOL
REMARK 923 INTER-LIGAND FREE ENERGY PREDICTED BY IDOCK:   -7.76 KCAL/MOL
REMARK 924 INTRA-LIGAND FREE ENERGY PREDICTED BY IDOCK:   -0.18 KCAL/MOL
REMARK 927      BINDING AFFINITY PREDICTED BY RF-SCORE:    0.00 PKD
ROOT
HETATM    1  O   UNL     1     -12.887  15.976  70.595  1.00  0.00    -0.376 OA 
HETATM    2  C   UNL     1     -12.812  14.803  70.953  1.00  0.00    -0.362 C  
HETATM    3  C   UNL     1     -13.189  14.355  72.346  1.00  0.00    -0.528 C  
HETATM    4  C   UNL     1     -13.757  12.941  72.373  1.00  0.00    -0.530 C  
HETATM    5  C   UNL     1     -12.956  11.984  71.531  1.00  0.00    -0.407 A  
HETATM    6  C   UNL     1     -12.240  12.482  70.435  1.00  0.00    -0.286 A  
HETATM    7  N   UNL     1     -12.259  13.849  70.145  1.00  0.00    -0.345 N  
HETATM    8  C   UNL     1     -11.548  11.613  69.597  1.00  0.00    -0.401 A  
HETATM    9  C   UNL     1     -11.575  10.235  69.844  1.00  0.00    -0.326 A  
HETATM   10  H   UNL     1     -11.831  14.155  69.272  1.00  0.00     0.000 HD 
HETATM   11  C   UNL     1     -12.310   9.708  70.910  1.00  0.00    -0.263 A  
HETATM   12  C   UNL     1     -12.999  10.589  71.755  1.00  0.00    -0.582 A  
ENDROOT
BRANCH  11  13
HETATM   13  O   UNL     1     -12.275   8.335  70.998  1.00  0.00    -0.275 OA 
BRANCH  13  14
HETATM   14  C   UNL     1     -11.966   7.773  72.273  1.00  0.00    -0.309 C  
BRANCH  14  15
HETATM   15  C   UNL     1     -11.898   6.229  72.195  1.00  0.00    -0.365 C  
BRANCH  15  16
HETATM   16  C   UNL     1     -10.451   5.808  71.902  1.00  0.00    -0.272 C  
BRANCH  16  17
HETATM   17  C   UNL     1     -10.164   4.329  71.614  1.00  0.00    -0.160 C  
BRANCH  17  18
HETATM   18  C   UNL     1      -9.735   4.016  70.225  1.00  0.00    -0.193 A  
HETATM   19  N   UNL     1      -9.168   2.864  69.905  1.00  0.00    -0.134 NA 
HETATM   20  N   UNL     1      -8.986   2.867  68.557  1.00  0.00    -0.124 NA 
HETATM   21  N   UNL     1      -9.405   4.002  68.035  1.00  0.00    -0.157 NA 
HETATM   22  N   UNL     1      -9.937   4.720  69.054  1.00  0.00    -0.170 NA 
BRANCH  22  23
HETATM   23  C   UNL     1     -10.477   6.038  68.730  1.00  0.00    -0.248 C  
HETATM   24  C   UNL     1      -9.490   7.185  69.082  1.00  0.00    -0.147 C  
HETATM   25  C   UNL     1      -8.273   7.175  68.154  1.00  0.00    -0.124 C  
HETATM   26  C   UNL     1      -8.697   7.349  66.700  1.00  0.00    -0.141 C  
HETATM   27  C   UNL     1      -9.781   6.354  66.286  1.00  0.00    -0.082 C  
HETATM   28  C   UNL     1     -10.939   6.297  67.286  1.00  0.00    -0.455 C  
ENDBRANCH  22  23
ENDBRANCH  17  18
ENDBRANCH  16  17
ENDBRANCH  15  16
ENDBRANCH  14  15
ENDBRANCH  13  14
ENDBRANCH  11  13
TORSDOF 7
ENDMDL
MODEL      200
REMARK 921   NORMALIZED FREE ENERGY PREDICTED BY IDOCK:   -4.90 KCAL/MOL
REMARK 922        TOTAL FREE ENERGY PREDICTED BY IDOCK:   -7.92 KCAL/MOL
REMARK 923 INTER-LIGAND FREE ENERGY PREDICTED BY IDOCK:   -6.22 KCAL/MOL
REMARK 924 INTRA-LIGAND FREE ENERGY PREDICTED BY IDOCK:   -1.70 KCAL/MOL
REMARK 927      BINDING AFFINITY PREDICTED BY RF-SCORE:    0.00 PKD
ROOT
HETATM    1  O   UNL     1      -7.580   4.737  66.175  1.00  0.00    -0.088 OA 
HETATM    2  C   UNL     1      -8.424   5.240  66.914  1.00  0.00    -0.106 C  
HETATM    3  C   UNL     1      -9.670   5.910  66.383  1.00  0.00    -0.168 C  
HETATM    4  C   UNL     1     -10.860   5.763  67.324  1.00  0.00    -0.290 C  
HETATM    5  C   UNL     1     -10.492   6.023  68.761  1.00  0.00    -0.307 A  
HETATM    6  C   UNL     1      -9.175   5.786  69.177  1.00  0.00    -0.120 A  
HETATM    7  N   UNL     1      -8.220   5.333  68.262  1.00  0.00    -0.094 N  
HETATM    8  C   UNL     1      -8.821   5.950  70.512  1.00  0.00    -0.147 A  
HETATM    9  C   UNL     1      -9.787   6.343  71.447  1.00  0.00    -0.195 A  
HETATM   10  H   UNL     1      -7.309   5.053  68.626  1.00  0.00     0.000 HD 
HETATM   11  C   UNL     1     -11.116   6.553  71.066  1.00  0.00    -0.288 A  
HETATM   12  C   UNL     1     -11.464   6.393  69.717  1.00  0.00    -0.468 A  
ENDROOT
BRANCH  11  13
HETATM   13  O   UNL     1     -11.955   6.893  72.102  1.00  0.00    -0.294 OA 
BRANCH  13  14
HETATM   14  C   UNL     1     -12.772   8.049  71.924  1.00  0.00    -0.327 C  
BRANCH  14  15
HETATM   15  C   UNL     1     -12.006   9.335  72.318  1.00  0.00    -0.204 C  
BRANCH  15  16
HETATM   16  C   UNL     1     -11.838  10.216  71.072  1.00  0.00    -0.475 C  
BRANCH  16  17
HETATM   17  C   UNL     1     -10.630   9.971  70.160  1.00  0.00    -0.350 C  
BRANCH  17  18
HETATM   18  C   UNL     1     -10.715  10.573  68.804  1.00  0.00    -0.216 A  
HETATM   19  N   UNL     1     -11.869  10.746  68.179  1.00  0.00    -0.514 NA 
HETATM   20  N   UNL     1     -11.601  11.395  67.014  1.00  0.00    -0.514 NA 
HETATM   21  N   UNL     1     -10.307  11.610  66.889  1.00  0.00    -0.214 NA 
HETATM   22  N   UNL     1      -9.731  11.157  68.029  1.00  0.00    -0.171 NA 
BRANCH  22  23
HETATM   23  C   UNL     1      -8.280  11.282  68.137  1.00  0.00    -0.140 C  
HETATM   24  C   UNL     1      -7.621  10.012  68.743  1.00  0.00    -0.083 C  
HETATM   25  C   UNL     1      -7.702   8.828  67.776  1.00  0.00    -0.102 C  
HETATM   26  C   UNL     1      -6.991   9.148  66.465  1.00  0.00    -0.080 C  
HETATM   27  C   UNL     1      -7.466  10.465  65.851  1.00  0.00    -0.139 C  
HETATM   28  C   UNL     1      -7.484  11.613  66.864  1.00  0.00    -0.131 C  
ENDBRANCH  22  23
ENDBRANCH  17  18
ENDBRANCH  16  17
ENDBRANCH  15  16
ENDBRANCH  14  15
ENDBRANCH  13  14
ENDBRANCH  11  13
TORSDOF 7
ENDMDL
MODEL      201
REMARK 921   NORMALIZED FREE ENERGY PREDICTED BY IDOCK:   -4.89 KCAL/MOL
REMARK 922        TOTAL FREE ENERGY PREDICTED BY IDOCK:   -7.91 KCAL/MOL
REMARK 923 INTER-LIGAND FREE ENERGY PREDICTED BY IDOCK:   -7.10 KCAL/MOL
REMARK 924 INTRA-LIGAND FREE ENERGY PREDICTED BY IDOCK:   -0.80 KCAL/MOL
REMARK 927      BINDING AFFINITY PREDICTED BY RF-SCORE:    0.00 PKD
ROOT
HETATM    1  O   UNL     1     -13.702  13.332  72.520  1.00  0.00    -0.621 OA 
HETATM    2  C   UNL     1     -13.285  12.353  71.904  1.00  0.00    -0.382 C  
HETATM    3  C   UNL     1     -12.675  12.462  70.526  1.00  0.00    -0.051 C  
HETATM    4  C   UNL     1     -11.595  11.415  70.280  1.00  0.00    -0.334 C  
HETATM    5  C   UNL     1     -12.004  10.045  70.750  1.00  0.00    -0.426 A  
HETATM    6  C   UNL     1     -12.926   9.936  71.799  1.00  0.00    -0.449 A  
HETATM    7  N   UNL     1     -13.467  11.085  72.382  1.00  0.00    -0.458 N  
HETATM    8  C   UNL     1     -13.272   8.686  72.302  1.00  0.00    -0.410 A  
HETATM    9  C   UNL     1     -12.688   7.532  71.765  1.00  0.00    -0.360 A  
HETATM   10  H   UNL     1     -14.035  10.971  73.221  1.00  0.00     0.000 HD 
HETATM   11  C   UNL     1     -11.738   7.614  70.741  1.00  0.00    -0.239 A  
HETATM   12  C   UNL     1     -11.401   8.876  70.234  1.00  0.00    -0.179 A  
ENDROOT
BRANCH  11  13
HETATM   13  O   UNL     1     -11.223   6.400  70.349  1.00  0.00    -0.314 OA 
BRANCH  13  14
HETATM   14  C   UNL     1      -9.837   6.360  70.010  1.00  0.00    -0.168 C  
BRANCH  14  15
HETATM   15  C   UNL     1      -9.001   7.212  70.995  1.00  0.00    -0.150 C  
BRANCH  15  16
HETATM   16  C   UNL     1      -7.888   7.927  70.215  1.00  0.00    -0.089 C  
BRANCH  16  17
HETATM   17  C   UNL     1      -8.186   8.409  68.791  1.00  0.00    -0.119 C  
BRANCH  17  18
HETATM   18  C   UNL     1      -8.198   9.884  68.600  1.00  0.00    -0.108 A  
HETATM   19  N   UNL     1      -7.234  10.662  69.065  1.00  0.00    -0.085 NA 
HETATM   20  N   UNL     1      -7.503  11.928  68.644  1.00  0.00    -0.117 NA 
HETATM   21  N   UNL     1      -8.621  11.957  67.948  1.00  0.00    -0.154 NA 
HETATM   22  N   UNL     1      -9.048  10.675  67.853  1.00  0.00    -0.143 NA 
BRANCH  22  23
HETATM   23  C   UNL     1     -10.289  10.439  67.119  1.00  0.00    -0.238 C  
HETATM   24  C   UNL     1     -10.926  11.756  66.596  1.00  0.00    -0.342 C  
HETATM   25  C   UNL     1     -10.084  12.374  65.476  1.00  0.00    -0.287 C  
HETATM   26  C   UNL     1      -9.955  11.412  64.300  1.00  0.00    -0.329 C  
HETATM   27  C   UNL     1      -9.469  10.028  64.729  1.00  0.00    -0.366 C  
HETATM   28  C   UNL     1     -10.252   9.474  65.923  1.00  0.00    -0.185 C  
ENDBRANCH  22  23
ENDBRANCH  17  18
ENDBRANCH  16  17
ENDBRANCH  15  16
ENDBRANCH  14  15
ENDBRANCH  13  14
ENDBRANCH  11  13
TORSDOF 7
ENDMDL
MODEL      202
REMARK 921   NORMALIZED FREE ENERGY PREDICTED BY IDOCK:   -4.89 KCAL/MOL
REMARK 922        TOTAL FREE ENERGY PREDICTED BY IDOCK:   -7.90 KCAL/MOL
REMARK 923 INTER-LIGAND FREE ENERGY PREDICTED BY IDOCK:   -7.48 KCAL/MOL
REMARK 924 INTRA-LIGAND FREE ENERGY PREDICTED BY IDOCK:   -0.41 KCAL/MOL
REMARK 927      BINDING AFFINITY PREDICTED BY RF-SCORE:    0.00 PKD
ROOT
HETATM    1  O   UNL     1      -8.707   5.037  71.019  1.00  0.00    -0.122 OA 
HETATM    2  C   UNL     1      -9.126   5.600  70.010  1.00  0.00    -0.137 C  
HETATM    3  C   UNL     1     -10.442   5.233  69.365  1.00  0.00    -0.284 C  
HETATM    4  C   UNL     1     -11.122   6.425  68.701  1.00  0.00    -0.393 C  
HETATM    5  C   UNL     1     -10.163   7.257  67.893  1.00  0.00    -0.237 A  
HETATM    6  C   UNL     1      -8.809   7.274  68.254  1.00  0.00    -0.127 A  
HETATM    7  N   UNL     1      -8.361   6.512  69.337  1.00  0.00    -0.122 N  
HETATM    8  C   UNL     1      -7.911   8.086  67.570  1.00  0.00    -0.122 A  
HETATM    9  C   UNL     1      -8.363   8.900  66.524  1.00  0.00    -0.115 A  
HETATM   10  H   UNL     1      -7.399   6.646  69.647  1.00  0.00     0.000 HD 
HETATM   11  C   UNL     1      -9.714   8.929  66.165  1.00  0.00    -0.268 A  
HETATM   12  C   UNL     1     -10.612   8.102  66.854  1.00  0.00    -0.311 A  
ENDROOT
BRANCH  11  13
HETATM   13  O   UNL     1     -10.011   9.808  65.149  1.00  0.00    -0.309 OA 
BRANCH  13  14
HETATM   14  C   UNL     1     -10.580  11.064  65.521  1.00  0.00    -0.200 C  
BRANCH  14  15
HETATM   15  C   UNL     1     -10.450  12.092  64.372  1.00  0.00    -0.352 C  
BRANCH  15  16
HETATM   16  C   UNL     1     -10.022  13.445  64.959  1.00  0.00    -0.179 C  
BRANCH  16  17
HETATM   17  C   UNL     1     -11.025  14.604  64.933  1.00  0.00    -0.419 C  
BRANCH  17  18
HETATM   18  C   UNL     1     -10.566  15.866  65.571  1.00  0.00    -0.401 A  
HETATM   19  N   UNL     1     -10.655  17.038  64.962  1.00  0.00    -0.655 NA 
HETATM   20  N   UNL     1     -10.237  17.983  65.847  1.00  0.00    -0.588 NA 
HETATM   21  N   UNL     1      -9.871  17.424  66.983  1.00  0.00    -0.275 NA 
HETATM   22  N   UNL     1     -10.125  16.099  66.859  1.00  0.00    -0.265 NA 
BRANCH  22  23
HETATM   23  C   UNL     1      -9.798  15.249  68.001  1.00  0.00    -0.216 C  
HETATM   24  C   UNL     1      -9.641  16.060  69.317  1.00  0.00    -0.255 C  
HETATM   25  C   UNL     1     -10.986  16.615  69.792  1.00  0.00    -0.208 C  
HETATM   26  C   UNL     1     -11.979  15.487  70.049  1.00  0.00    -0.385 C  
HETATM   27  C   UNL     1     -12.103  14.536  68.859  1.00  0.00    -0.272 C  
HETATM   28  C   UNL     1     -10.742  14.079  68.328  1.00  0.00    -0.262 C  
ENDBRANCH  22  23
ENDBRANCH  17  18
ENDBRANCH  16  17
ENDBRANCH  15  16
ENDBRANCH  14  15
ENDBRANCH  13  14
ENDBRANCH  11  13
TORSDOF 7
ENDMDL
MODEL      203
REMARK 921   NORMALIZED FREE ENERGY PREDICTED BY IDOCK:   -4.88 KCAL/MOL
REMARK 922        TOTAL FREE ENERGY PREDICTED BY IDOCK:   -7.89 KCAL/MOL
REMARK 923 INTER-LIGAND FREE ENERGY PREDICTED BY IDOCK:   -7.54 KCAL/MOL
REMARK 924 INTRA-LIGAND FREE ENERGY PREDICTED BY IDOCK:   -0.35 KCAL/MOL
REMARK 927      BINDING AFFINITY PREDICTED BY RF-SCORE:    0.00 PKD
ROOT
HETATM    1  O   UNL     1     -11.700  16.486  63.882  1.00  0.00    -1.148 OA 
HETATM    2  C   UNL     1     -11.286  15.792  64.808  1.00  0.00    -0.366 C  
HETATM    3  C   UNL     1     -10.066  16.164  65.617  1.00  0.00    -0.366 C  
HETATM    4  C   UNL     1     -10.159  15.697  67.065  1.00  0.00    -0.253 C  
HETATM    5  C   UNL     1     -10.664  14.284  67.182  1.00  0.00    -0.282 A  
HETATM    6  C   UNL     1     -11.498  13.776  66.177  1.00  0.00    -0.338 A  
HETATM    7  N   UNL     1     -11.837  14.570  65.078  1.00  0.00    -0.386 N  
HETATM    8  C   UNL     1     -12.036  12.499  66.292  1.00  0.00    -0.410 A  
HETATM    9  C   UNL     1     -11.751  11.720  67.420  1.00  0.00    -0.304 A  
HETATM   10  H   UNL     1     -12.542  14.214  64.434  1.00  0.00     0.000 HD 
HETATM   11  C   UNL     1     -10.950  12.215  68.454  1.00  0.00    -0.235 A  
HETATM   12  C   UNL     1     -10.405  13.500  68.329  1.00  0.00    -0.253 A  
ENDROOT
BRANCH  11  13
HETATM   13  O   UNL     1     -10.797  11.351  69.514  1.00  0.00    -0.204 OA 
BRANCH  13  14
HETATM   14  C   UNL     1     -11.912  11.195  70.392  1.00  0.00    -0.378 C  
BRANCH  14  15
HETATM   15  C   UNL     1     -11.874   9.817  71.096  1.00  0.00    -0.466 C  
BRANCH  15  16
HETATM   16  C   UNL     1     -10.492   9.185  70.881  1.00  0.00    -0.347 C  
BRANCH  16  17
HETATM   17  C   UNL     1     -10.420   7.732  70.398  1.00  0.00    -0.221 C  
BRANCH  17  18
HETATM   18  C   UNL     1     -10.998   6.718  71.319  1.00  0.00    -0.249 A  
HETATM   19  N   UNL     1     -12.289   6.684  71.608  1.00  0.00    -0.355 NA 
HETATM   20  N   UNL     1     -12.495   5.594  72.396  1.00  0.00     0.157 NA 
HETATM   21  N   UNL     1     -11.359   4.964  72.621  1.00  0.00    -0.133 NA 
HETATM   22  N   UNL     1     -10.411   5.614  71.905  1.00  0.00    -0.208 NA 
BRANCH  22  23
HETATM   23  C   UNL     1      -9.045   5.103  71.989  1.00  0.00    -0.137 C  
HETATM   24  C   UNL     1      -8.998   3.551  72.068  1.00  0.00    -0.142 C  
HETATM   25  C   UNL     1      -9.426   2.915  70.743  1.00  0.00    -0.223 C  
HETATM   26  C   UNL     1      -8.510   3.357  69.608  1.00  0.00    -0.097 C  
HETATM   27  C   UNL     1      -8.368   4.877  69.530  1.00  0.00    -0.085 C  
HETATM   28  C   UNL     1      -8.050   5.507  70.889  1.00  0.00    -0.114 C  
ENDBRANCH  22  23
ENDBRANCH  17  18
ENDBRANCH  16  17
ENDBRANCH  15  16
ENDBRANCH  14  15
ENDBRANCH  13  14
ENDBRANCH  11  13
TORSDOF 7
ENDMDL
MODEL      204
REMARK 921   NORMALIZED FREE ENERGY PREDICTED BY IDOCK:   -4.87 KCAL/MOL
REMARK 922        TOTAL FREE ENERGY PREDICTED BY IDOCK:   -7.88 KCAL/MOL
REMARK 923 INTER-LIGAND FREE ENERGY PREDICTED BY IDOCK:   -6.03 KCAL/MOL
REMARK 924 INTRA-LIGAND FREE ENERGY PREDICTED BY IDOCK:   -1.85 KCAL/MOL
REMARK 927      BINDING AFFINITY PREDICTED BY RF-SCORE:    0.00 PKD
ROOT
HETATM    1  O   UNL     1     -10.733   8.989  67.475  1.00  0.00    -0.267 OA 
HETATM    2  C   UNL     1     -10.511  10.138  67.099  1.00  0.00    -0.246 C  
HETATM    3  C   UNL     1      -9.197  10.547  66.476  1.00  0.00    -0.183 C  
HETATM    4  C   UNL     1      -9.359  11.655  65.442  1.00  0.00    -0.143 C  
HETATM    5  C   UNL     1     -10.273  12.753  65.915  1.00  0.00    -0.300 A  
HETATM    6  C   UNL     1     -11.273  12.448  66.847  1.00  0.00    -0.305 A  
HETATM    7  N   UNL     1     -11.402  11.146  67.339  1.00  0.00    -0.296 N  
HETATM    8  C   UNL     1     -12.178  13.425  67.250  1.00  0.00    -0.282 A  
HETATM    9  C   UNL     1     -12.095  14.716  66.715  1.00  0.00    -0.223 A  
HETATM   10  H   UNL     1     -12.215  10.935  67.917  1.00  0.00     0.000 HD 
HETATM   11  C   UNL     1     -11.129  15.039  65.756  1.00  0.00    -0.346 A  
HETATM   12  C   UNL     1     -10.216  14.052  65.360  1.00  0.00    -0.368 A  
ENDROOT
BRANCH  11  13
HETATM   13  O   UNL     1     -11.201  16.333  65.293  1.00  0.00    -0.173 OA 
BRANCH  13  14
HETATM   14  C   UNL     1     -10.046  17.153  65.473  1.00  0.00     0.034 C  
BRANCH  14  15
HETATM   15  C   UNL     1     -10.444  18.577  65.929  1.00  0.00    -0.379 C  
BRANCH  15  16
HETATM   16  C   UNL     1     -10.988  18.508  67.363  1.00  0.00    -0.202 C  
BRANCH  16  17
HETATM   17  C   UNL     1     -10.004  18.232  68.506  1.00  0.00    -0.413 C  
BRANCH  17  18
HETATM   18  C   UNL     1     -10.001  16.840  69.030  1.00  0.00    -0.272 A  
HETATM   19  N   UNL     1     -10.948  16.389  69.837  1.00  0.00    -0.361 NA 
HETATM   20  N   UNL     1     -10.695  15.069  70.052  1.00  0.00    -0.226 NA 
HETATM   21  N   UNL     1      -9.604  14.696  69.416  1.00  0.00    -0.014 NA 
HETATM   22  N   UNL     1      -9.180  15.775  68.715  1.00  0.00    -0.202 NA 
BRANCH  22  23
HETATM   23  C   UNL     1      -7.967  15.617  67.917  1.00  0.00    -0.142 C  
HETATM   24  C   UNL     1      -6.841  16.597  68.350  1.00  0.00    -0.151 C  
HETATM   25  C   UNL     1      -6.286  16.230  69.729  1.00  0.00    -0.192 C  
HETATM   26  C   UNL     1      -5.707  14.820  69.724  1.00  0.00    -0.105 C  
HETATM   27  C   UNL     1      -6.691  13.787  69.174  1.00  0.00    -0.112 C  
HETATM   28  C   UNL     1      -7.320  14.223  67.849  1.00  0.00    -0.163 C  
ENDBRANCH  22  23
ENDBRANCH  17  18
ENDBRANCH  16  17
ENDBRANCH  15  16
ENDBRANCH  14  15
ENDBRANCH  13  14
ENDBRANCH  11  13
TORSDOF 7
ENDMDL
MODEL      205
REMARK 921   NORMALIZED FREE ENERGY PREDICTED BY IDOCK:   -4.86 KCAL/MOL
REMARK 922        TOTAL FREE ENERGY PREDICTED BY IDOCK:   -7.87 KCAL/MOL
REMARK 923 INTER-LIGAND FREE ENERGY PREDICTED BY IDOCK:   -6.22 KCAL/MOL
REMARK 924 INTRA-LIGAND FREE ENERGY PREDICTED BY IDOCK:   -1.65 KCAL/MOL
REMARK 927      BINDING AFFINITY PREDICTED BY RF-SCORE:    0.00 PKD
ROOT
HETATM    1  O   UNL     1     -12.939  12.285  63.175  1.00  0.00    -0.634 OA 
HETATM    2  C   UNL     1     -12.133  12.706  64.003  1.00  0.00    -0.462 C  
HETATM    3  C   UNL     1     -11.450  11.801  65.001  1.00  0.00    -0.253 C  
HETATM    4  C   UNL     1     -10.047  12.277  65.358  1.00  0.00    -0.292 C  
HETATM    5  C   UNL     1      -9.990  13.760  65.613  1.00  0.00    -0.275 A  
HETATM    6  C   UNL     1     -10.925  14.592  64.985  1.00  0.00    -0.398 A  
HETATM    7  N   UNL     1     -11.903  14.045  64.149  1.00  0.00    -0.605 N  
HETATM    8  C   UNL     1     -10.855  15.972  65.146  1.00  0.00    -0.411 A  
HETATM    9  C   UNL     1      -9.840  16.532  65.931  1.00  0.00    -0.324 A  
HETATM   10  H   UNL     1     -12.484  14.689  63.613  1.00  0.00     0.000 HD 
HETATM   11  C   UNL     1      -8.873  15.727  66.542  1.00  0.00    -0.310 A  
HETATM   12  C   UNL     1      -8.954  14.337  66.381  1.00  0.00    -0.093 A  
ENDROOT
BRANCH  11  13
HETATM   13  O   UNL     1      -7.917  16.425  67.244  1.00  0.00    -0.149 OA 
BRANCH  13  14
HETATM   14  C   UNL     1      -6.643  15.801  67.404  1.00  0.00    -0.180 C  
BRANCH  14  15
HETATM   15  C   UNL     1      -6.399  15.410  68.881  1.00  0.00    -0.106 C  
BRANCH  15  16
HETATM   16  C   UNL     1      -5.827  13.986  68.931  1.00  0.00    -0.083 C  
BRANCH  16  17
HETATM   17  C   UNL     1      -6.805  12.806  68.974  1.00  0.00    -0.081 C  
BRANCH  17  18
HETATM   18  C   UNL     1      -6.707  11.847  67.841  1.00  0.00    -0.079 A  
HETATM   19  N   UNL     1      -6.118  12.163  66.699  1.00  0.00    -0.134 NA 
HETATM   20  N   UNL     1      -6.123  11.046  65.923  1.00  0.00    -0.103 NA 
HETATM   21  N   UNL     1      -6.719  10.050  66.547  1.00  0.00    -0.079 NA 
HETATM   22  N   UNL     1      -7.042  10.509  67.780  1.00  0.00    -0.083 NA 
BRANCH  22  23
HETATM   23  C   UNL     1      -7.725   9.581  68.678  1.00  0.00    -0.081 C  
HETATM   24  C   UNL     1      -8.845  10.272  69.504  1.00  0.00    -0.166 C  
HETATM   25  C   UNL     1     -10.023  10.675  68.613  1.00  0.00    -0.188 C  
HETATM   26  C   UNL     1     -10.628   9.455  67.927  1.00  0.00    -0.293 C  
HETATM   27  C   UNL     1      -9.578   8.615  67.199  1.00  0.00    -0.227 C  
HETATM   28  C   UNL     1      -8.356   8.316  68.071  1.00  0.00    -0.129 C  
ENDBRANCH  22  23
ENDBRANCH  17  18
ENDBRANCH  16  17
ENDBRANCH  15  16
ENDBRANCH  14  15
ENDBRANCH  13  14
ENDBRANCH  11  13
TORSDOF 7
ENDMDL
MODEL      206
REMARK 921   NORMALIZED FREE ENERGY PREDICTED BY IDOCK:   -4.86 KCAL/MOL
REMARK 922        TOTAL FREE ENERGY PREDICTED BY IDOCK:   -7.86 KCAL/MOL
REMARK 923 INTER-LIGAND FREE ENERGY PREDICTED BY IDOCK:   -7.22 KCAL/MOL
REMARK 924 INTRA-LIGAND FREE ENERGY PREDICTED BY IDOCK:   -0.65 KCAL/MOL
REMARK 927      BINDING AFFINITY PREDICTED BY RF-SCORE:    0.00 PKD
ROOT
HETATM    1  O   UNL     1      -7.981   8.022  66.811  1.00  0.00    -0.100 OA 
HETATM    2  C   UNL     1      -8.751   8.783  67.393  1.00  0.00    -0.130 C  
HETATM    3  C   UNL     1      -8.993  10.201  66.932  1.00  0.00    -0.146 C  
HETATM    4  C   UNL     1     -10.410  10.678  67.227  1.00  0.00    -0.265 C  
HETATM    5  C   UNL     1     -10.861  10.316  68.617  1.00  0.00    -0.272 A  
HETATM    6  C   UNL     1     -10.308   9.188  69.236  1.00  0.00    -0.216 A  
HETATM    7  N   UNL     1      -9.339   8.427  68.575  1.00  0.00    -0.139 N  
HETATM    8  C   UNL     1     -10.754   8.787  70.491  1.00  0.00    -0.259 A  
HETATM    9  C   UNL     1     -11.768   9.508  71.134  1.00  0.00    -0.438 A  
HETATM   10  H   UNL     1      -9.053   7.546  69.003  1.00  0.00     0.000 HD 
HETATM   11  C   UNL     1     -12.363  10.617  70.524  1.00  0.00    -0.359 A  
HETATM   12  C   UNL     1     -11.903  11.019  69.262  1.00  0.00    -0.411 A  
ENDROOT
BRANCH  11  13
HETATM   13  O   UNL     1     -13.373  11.194  71.259  1.00  0.00    -0.206 OA 
BRANCH  13  14
HETATM   14  C   UNL     1     -13.009  12.252  72.145  1.00  0.00    -0.186 C  
BRANCH  14  15
HETATM   15  C   UNL     1     -13.395  13.628  71.551  1.00  0.00    -0.372 C  
BRANCH  15  16
HETATM   16  C   UNL     1     -12.120  14.460  71.351  1.00  0.00    -0.397 C  
BRANCH  16  17
HETATM   17  C   UNL     1     -12.162  15.639  70.373  1.00  0.00    -0.429 C  
BRANCH  17  18
HETATM   18  C   UNL     1     -11.731  15.338  68.982  1.00  0.00    -0.347 A  
HETATM   19  N   UNL     1     -12.342  14.433  68.235  1.00  0.00    -0.110 NA 
HETATM   20  N   UNL     1     -11.762  14.470  67.005  1.00  0.00    -0.391 NA 
HETATM   21  N   UNL     1     -10.791  15.360  66.977  1.00  0.00    -0.319 NA 
HETATM   22  N   UNL     1     -10.789  15.964  68.190  1.00  0.00    -0.304 NA 
BRANCH  22  23
HETATM   23  C   UNL     1      -9.787  17.004  68.414  1.00  0.00    -0.283 C  
HETATM   24  C   UNL     1      -8.491  16.446  69.065  1.00  0.00    -0.225 C  
HETATM   25  C   UNL     1      -7.717  15.557  68.088  1.00  0.00    -0.126 C  
HETATM   26  C   UNL     1      -7.320  16.338  66.840  1.00  0.00    -0.266 C  
HETATM   27  C   UNL     1      -8.509  17.052  66.197  1.00  0.00    -0.262 C  
HETATM   28  C   UNL     1      -9.335  17.847  67.210  1.00  0.00    -0.258 C  
ENDBRANCH  22  23
ENDBRANCH  17  18
ENDBRANCH  16  17
ENDBRANCH  15  16
ENDBRANCH  14  15
ENDBRANCH  13  14
ENDBRANCH  11  13
TORSDOF 7
ENDMDL
MODEL      207
REMARK 921   NORMALIZED FREE ENERGY PREDICTED BY IDOCK:   -4.85 KCAL/MOL
REMARK 922        TOTAL FREE ENERGY PREDICTED BY IDOCK:   -7.85 KCAL/MOL
REMARK 923 INTER-LIGAND FREE ENERGY PREDICTED BY IDOCK:   -6.77 KCAL/MOL
REMARK 924 INTRA-LIGAND FREE ENERGY PREDICTED BY IDOCK:   -1.08 KCAL/MOL
REMARK 927      BINDING AFFINITY PREDICTED BY RF-SCORE:    0.00 PKD
ROOT
HETATM    1  O   UNL     1      -8.326   3.511  64.878  1.00  0.00    -0.096 OA 
HETATM    2  C   UNL     1      -8.841   3.739  65.971  1.00  0.00    -0.126 C  
HETATM    3  C   UNL     1      -8.900   2.705  67.071  1.00  0.00    -0.155 C  
HETATM    4  C   UNL     1      -8.832   3.324  68.461  1.00  0.00    -0.164 C  
HETATM    5  C   UNL     1      -9.721   4.531  68.597  1.00  0.00    -0.203 A  
HETATM    6  C   UNL     1     -10.017   5.287  67.456  1.00  0.00    -0.171 A  
HETATM    7  N   UNL     1      -9.506   4.909  66.210  1.00  0.00    -0.146 N  
HETATM    8  C   UNL     1     -10.779   6.446  67.560  1.00  0.00    -0.396 A  
HETATM    9  C   UNL     1     -11.243   6.866  68.813  1.00  0.00    -0.095 A  
HETATM   10  H   UNL     1      -9.639   5.550  65.428  1.00  0.00     0.000 HD 
HETATM   11  C   UNL     1     -10.933   6.150  69.973  1.00  0.00    -0.372 A  
HETATM   12  C   UNL     1     -10.171   4.979  69.860  1.00  0.00    -0.340 A  
ENDROOT
BRANCH  11  13
HETATM   13  O   UNL     1     -11.422   6.709  71.131  1.00  0.00    -0.286 OA 
BRANCH  13  14
HETATM   14  C   UNL     1     -11.174   8.100  71.337  1.00  0.00    -0.254 C  
BRANCH  14  15
HETATM   15  C   UNL     1     -12.101   8.671  72.437  1.00  0.00    -0.415 C  
BRANCH  15  16
HETATM   16  C   UNL     1     -12.639  10.034  71.977  1.00  0.00    -0.379 C  
BRANCH  16  17
HETATM   17  C   UNL     1     -12.487  10.420  70.501  1.00  0.00    -0.403 C  
BRANCH  17  18
HETATM   18  C   UNL     1     -12.280  11.867  70.233  1.00  0.00    -0.271 A  
HETATM   19  N   UNL     1     -12.581  12.800  71.123  1.00  0.00    -0.340 NA 
HETATM   20  N   UNL     1     -12.188  13.993  70.601  1.00  0.00    -0.351 NA 
HETATM   21  N   UNL     1     -11.671  13.827  69.400  1.00  0.00    -0.304 NA 
HETATM   22  N   UNL     1     -11.660  12.492  69.169  1.00  0.00    -0.301 NA 
BRANCH  22  23
HETATM   23  C   UNL     1     -11.128  12.044  67.884  1.00  0.00    -0.236 C  
HETATM   24  C   UNL     1      -9.954  12.933  67.387  1.00  0.00    -0.217 C  
HETATM   25  C   UNL     1      -8.708  12.746  68.257  1.00  0.00    -0.168 C  
HETATM   26  C   UNL     1      -8.242  11.294  68.233  1.00  0.00    -0.143 C  
HETATM   27  C   UNL     1      -9.367  10.315  68.569  1.00  0.00    -0.155 C  
HETATM   28  C   UNL     1     -10.643  10.589  67.768  1.00  0.00    -0.285 C  
ENDBRANCH  22  23
ENDBRANCH  17  18
ENDBRANCH  16  17
ENDBRANCH  15  16
ENDBRANCH  14  15
ENDBRANCH  13  14
ENDBRANCH  11  13
TORSDOF 7
ENDMDL
MODEL      208
REMARK 921   NORMALIZED FREE ENERGY PREDICTED BY IDOCK:   -4.85 KCAL/MOL
REMARK 922        TOTAL FREE ENERGY PREDICTED BY IDOCK:   -7.84 KCAL/MOL
REMARK 923 INTER-LIGAND FREE ENERGY PREDICTED BY IDOCK:   -6.92 KCAL/MOL
REMARK 924 INTRA-LIGAND FREE ENERGY PREDICTED BY IDOCK:   -0.92 KCAL/MOL
REMARK 927      BINDING AFFINITY PREDICTED BY RF-SCORE:    0.00 PKD
ROOT
HETATM    1  O   UNL     1     -11.313   3.141  63.201  1.00  0.00    -0.157 OA 
HETATM    2  C   UNL     1     -10.688   3.482  64.203  1.00  0.00    -0.170 C  
HETATM    3  C   UNL     1      -9.479   2.726  64.702  1.00  0.00    -0.142 C  
HETATM    4  C   UNL     1      -8.460   3.633  65.380  1.00  0.00    -0.106 C  
HETATM    5  C   UNL     1      -9.102   4.615  66.325  1.00  0.00    -0.122 A  
HETATM    6  C   UNL     1     -10.422   5.019  66.088  1.00  0.00    -0.286 A  
HETATM    7  N   UNL     1     -11.132   4.500  65.001  1.00  0.00    -0.892 N  
HETATM    8  C   UNL     1     -11.019   5.976  66.902  1.00  0.00    -0.350 A  
HETATM    9  C   UNL     1     -10.294   6.546  67.956  1.00  0.00    -0.226 A  
HETATM   10  H   UNL     1     -12.041   4.910  64.788  1.00  0.00     0.000 HD 
HETATM   11  C   UNL     1      -8.963   6.187  68.193  1.00  0.00    -0.114 A  
HETATM   12  C   UNL     1      -8.371   5.216  67.374  1.00  0.00    -0.106 A  
ENDROOT
BRANCH  11  13
HETATM   13  O   UNL     1      -8.372   6.863  69.235  1.00  0.00    -0.126 OA 
BRANCH  13  14
HETATM   14  C   UNL     1      -7.621   6.089  70.171  1.00  0.00    -0.095 C  
BRANCH  14  15
HETATM   15  C   UNL     1      -7.241   6.934  71.410  1.00  0.00    -0.080 C  
BRANCH  15  16
HETATM   16  C   UNL     1      -8.176   8.150  71.490  1.00  0.00    -0.150 C  
BRANCH  16  17
HETATM   17  C   UNL     1      -9.134   8.259  72.683  1.00  0.00    -0.327 C  
BRANCH  17  18
HETATM   18  C   UNL     1     -10.074   7.121  72.859  1.00  0.00    -0.210 A  
HETATM   19  N   UNL     1      -9.937   6.238  73.835  1.00  0.00    -0.212 NA 
HETATM   20  N   UNL     1     -11.002   5.393  73.763  1.00  0.00    -0.240 NA 
HETATM   21  N   UNL     1     -11.783   5.717  72.753  1.00  0.00    -0.246 NA 
HETATM   22  N   UNL     1     -11.256   6.837  72.203  1.00  0.00    -0.249 NA 
BRANCH  22  23
HETATM   23  C   UNL     1     -11.950   7.402  71.048  1.00  0.00    -0.306 C  
HETATM   24  C   UNL     1     -13.481   7.529  71.281  1.00  0.00    -0.325 C  
HETATM   25  C   UNL     1     -13.797   8.609  72.319  1.00  0.00    -0.459 C  
HETATM   26  C   UNL     1     -13.275   9.968  71.866  1.00  0.00    -0.557 C  
HETATM   27  C   UNL     1     -11.799   9.923  71.470  1.00  0.00    -0.445 C  
HETATM   28  C   UNL     1     -11.481   8.767  70.517  1.00  0.00    -0.222 C  
ENDBRANCH  22  23
ENDBRANCH  17  18
ENDBRANCH  16  17
ENDBRANCH  15  16
ENDBRANCH  14  15
ENDBRANCH  13  14
ENDBRANCH  11  13
TORSDOF 7
ENDMDL
MODEL      209
REMARK 921   NORMALIZED FREE ENERGY PREDICTED BY IDOCK:   -4.84 KCAL/MOL
REMARK 922        TOTAL FREE ENERGY PREDICTED BY IDOCK:   -7.83 KCAL/MOL
REMARK 923 INTER-LIGAND FREE ENERGY PREDICTED BY IDOCK:   -6.53 KCAL/MOL
REMARK 924 INTRA-LIGAND FREE ENERGY PREDICTED BY IDOCK:   -1.31 KCAL/MOL
REMARK 927      BINDING AFFINITY PREDICTED BY RF-SCORE:    0.00 PKD
ROOT
HETATM    1  O   UNL     1     -12.124  14.394  64.253  1.00  0.00    -0.470 OA 
HETATM    2  C   UNL     1     -11.902  13.351  64.865  1.00  0.00    -0.372 C  
HETATM    3  C   UNL     1     -11.646  12.038  64.163  1.00  0.00    -0.460 C  
HETATM    4  C   UNL     1     -10.693  11.136  64.938  1.00  0.00    -0.318 C  
HETATM    5  C   UNL     1     -11.016  11.085  66.407  1.00  0.00    -0.202 A  
HETATM    6  C   UNL     1     -11.656  12.182  66.999  1.00  0.00    -0.337 A  
HETATM    7  N   UNL     1     -12.001  13.295  66.227  1.00  0.00    -0.403 N  
HETATM    8  C   UNL     1     -11.906  12.193  68.367  1.00  0.00    -0.360 A  
HETATM    9  C   UNL     1     -11.508  11.109  69.159  1.00  0.00    -0.366 A  
HETATM   10  H   UNL     1     -12.349  14.121  66.714  1.00  0.00     0.000 HD 
HETATM   11  C   UNL     1     -10.837  10.016  68.600  1.00  0.00    -0.229 A  
HETATM   12  C   UNL     1     -10.595  10.008  67.219  1.00  0.00    -0.319 A  
ENDROOT
BRANCH  11  13
HETATM   13  O   UNL     1     -10.472   9.050  69.509  1.00  0.00    -0.211 OA 
BRANCH  13  14
HETATM   14  C   UNL     1      -9.498   9.413  70.488  1.00  0.00    -0.269 C  
BRANCH  14  15
HETATM   15  C   UNL     1      -8.159   9.805  69.818  1.00  0.00    -0.174 C  
BRANCH  15  16
HETATM   16  C   UNL     1      -7.174   8.635  69.949  1.00  0.00    -0.051 C  
BRANCH  16  17
HETATM   17  C   UNL     1      -7.500   7.321  69.230  1.00  0.00    -0.096 C  
BRANCH  17  18
HETATM   18  C   UNL     1      -7.773   7.434  67.773  1.00  0.00    -0.112 A  
HETATM   19  N   UNL     1      -6.897   7.960  66.931  1.00  0.00    -0.071 NA 
HETATM   20  N   UNL     1      -7.417   7.830  65.680  1.00  0.00    -0.073 NA 
HETATM   21  N   UNL     1      -8.602   7.256  65.728  1.00  0.00    -0.146 NA 
HETATM   22  N   UNL     1      -8.825   6.942  67.026  1.00  0.00    -0.117 NA 
BRANCH  22  23
HETATM   23  C   UNL     1     -10.092   6.288  67.345  1.00  0.00    -0.156 C  
HETATM   24  C   UNL     1     -10.450   5.165  66.333  1.00  0.00    -0.356 C  
HETATM   25  C   UNL     1      -9.506   3.968  66.475  1.00  0.00    -0.208 C  
HETATM   26  C   UNL     1      -9.582   3.379  67.879  1.00  0.00    -0.163 C  
HETATM   27  C   UNL     1      -9.386   4.436  68.966  1.00  0.00    -0.219 C  
HETATM   28  C   UNL     1     -10.259   5.675  68.746  1.00  0.00    -0.269 C  
ENDBRANCH  22  23
ENDBRANCH  17  18
ENDBRANCH  16  17
ENDBRANCH  15  16
ENDBRANCH  14  15
ENDBRANCH  13  14
ENDBRANCH  11  13
TORSDOF 7
ENDMDL
MODEL      210
REMARK 921   NORMALIZED FREE ENERGY PREDICTED BY IDOCK:   -4.84 KCAL/MOL
REMARK 922        TOTAL FREE ENERGY PREDICTED BY IDOCK:   -7.83 KCAL/MOL
REMARK 923 INTER-LIGAND FREE ENERGY PREDICTED BY IDOCK:   -6.92 KCAL/MOL
REMARK 924 INTRA-LIGAND FREE ENERGY PREDICTED BY IDOCK:   -0.92 KCAL/MOL
REMARK 927      BINDING AFFINITY PREDICTED BY RF-SCORE:    0.00 PKD
ROOT
HETATM    1  O   UNL     1      -6.143  18.992  68.288  1.00  0.00    -0.213 OA 
HETATM    2  C   UNL     1      -6.968  18.106  68.074  1.00  0.00    -0.217 C  
HETATM    3  C   UNL     1      -6.733  17.007  67.064  1.00  0.00    -0.238 C  
HETATM    4  C   UNL     1      -7.399  15.695  67.462  1.00  0.00    -0.213 C  
HETATM    5  C   UNL     1      -8.806  15.891  67.958  1.00  0.00    -0.178 A  
HETATM    6  C   UNL     1      -9.153  17.114  68.546  1.00  0.00    -0.265 A  
HETATM    7  N   UNL     1      -8.207  18.138  68.651  1.00  0.00    -0.304 N  
HETATM    8  C   UNL     1     -10.426  17.301  69.076  1.00  0.00    -0.309 A  
HETATM    9  C   UNL     1     -11.361  16.260  69.032  1.00  0.00    -0.301 A  
HETATM   10  H   UNL     1      -8.458  18.963  69.195  1.00  0.00     0.000 HD 
HETATM   11  C   UNL     1     -11.030  15.017  68.482  1.00  0.00    -0.256 A  
HETATM   12  C   UNL     1      -9.748  14.838  67.943  1.00  0.00    -0.211 A  
ENDROOT
BRANCH  11  13
HETATM   13  O   UNL     1     -12.037  14.082  68.550  1.00  0.00    -0.357 OA 
BRANCH  13  14
HETATM   14  C   UNL     1     -12.586  13.810  69.839  1.00  0.00    -0.092 C  
BRANCH  14  15
HETATM   15  C   UNL     1     -12.164  12.406  70.335  1.00  0.00    -0.370 C  
BRANCH  15  16
HETATM   16  C   UNL     1     -11.852  11.521  69.120  1.00  0.00    -0.406 C  
BRANCH  16  17
HETATM   17  C   UNL     1     -10.427  10.981  68.955  1.00  0.00    -0.242 C  
BRANCH  17  18
HETATM   18  C   UNL     1     -10.242   9.970  67.880  1.00  0.00    -0.188 A  
HETATM   19  N   UNL     1     -10.544   8.693  68.053  1.00  0.00    -0.187 NA 
HETATM   20  N   UNL     1     -10.342   8.069  66.861  1.00  0.00    -0.333 NA 
HETATM   21  N   UNL     1      -9.902   8.923  65.959  1.00  0.00    -0.257 NA 
HETATM   22  N   UNL     1      -9.887  10.139  66.556  1.00  0.00    -0.202 NA 
BRANCH  22  23
HETATM   23  C   UNL     1      -9.429  11.269  65.753  1.00  0.00    -0.227 C  
HETATM   24  C   UNL     1      -9.272  10.903  64.251  1.00  0.00    -0.221 C  
HETATM   25  C   UNL     1     -10.632  10.660  63.593  1.00  0.00     0.118 C  
HETATM   26  C   UNL     1     -11.510  11.903  63.685  1.00  0.00    -0.551 C  
HETATM   27  C   UNL     1     -11.616  12.438  65.114  1.00  0.00    -0.408 C  
HETATM   28  C   UNL     1     -10.251  12.569  65.794  1.00  0.00    -0.289 C  
ENDBRANCH  22  23
ENDBRANCH  17  18
ENDBRANCH  16  17
ENDBRANCH  15  16
ENDBRANCH  14  15
ENDBRANCH  13  14
ENDBRANCH  11  13
TORSDOF 7
ENDMDL
MODEL      211
REMARK 921   NORMALIZED FREE ENERGY PREDICTED BY IDOCK:   -4.84 KCAL/MOL
REMARK 922        TOTAL FREE ENERGY PREDICTED BY IDOCK:   -7.83 KCAL/MOL
REMARK 923 INTER-LIGAND FREE ENERGY PREDICTED BY IDOCK:   -5.80 KCAL/MOL
REMARK 924 INTRA-LIGAND FREE ENERGY PREDICTED BY IDOCK:   -2.03 KCAL/MOL
REMARK 927      BINDING AFFINITY PREDICTED BY RF-SCORE:    0.00 PKD
ROOT
HETATM    1  O   UNL     1     -12.461  15.560  70.354  1.00  0.00    -0.400 OA 
HETATM    2  C   UNL     1     -12.167  14.716  69.510  1.00  0.00    -0.258 C  
HETATM    3  C   UNL     1     -11.690  13.331  69.882  1.00  0.00    -0.330 C  
HETATM    4  C   UNL     1     -12.108  12.275  68.865  1.00  0.00    -0.177 C  
HETATM    5  C   UNL     1     -11.889  12.726  67.445  1.00  0.00    -0.404 A  
HETATM    6  C   UNL     1     -11.921  14.096  67.157  1.00  0.00    -0.426 A  
HETATM    7  N   UNL     1     -12.134  15.025  68.179  1.00  0.00    -0.544 N  
HETATM    8  C   UNL     1     -11.792  14.540  65.845  1.00  0.00    -0.334 A  
HETATM    9  C   UNL     1     -11.640  13.613  64.807  1.00  0.00    -0.374 A  
HETATM   10  H   UNL     1     -12.276  16.000  67.914  1.00  0.00     0.000 HD 
HETATM   11  C   UNL     1     -11.640  12.238  65.062  1.00  0.00    -0.343 A  
HETATM   12  C   UNL     1     -11.763  11.798  66.387  1.00  0.00    -0.131 A  
ENDROOT
BRANCH  11  13
HETATM   13  O   UNL     1     -11.526  11.453  63.937  1.00  0.00    -0.341 OA 
BRANCH  13  14
HETATM   14  C   UNL     1     -10.407  11.697  63.085  1.00  0.00    -0.334 C  
BRANCH  14  15
HETATM   15  C   UNL     1      -9.109  11.115  63.694  1.00  0.00    -0.102 C  
BRANCH  15  16
HETATM   16  C   UNL     1      -9.145   9.585  63.575  1.00  0.00    -0.145 C  
BRANCH  16  17
HETATM   17  C   UNL     1      -8.410   8.751  64.631  1.00  0.00    -0.175 C  
BRANCH  17  18
HETATM   18  C   UNL     1      -9.025   8.740  65.984  1.00  0.00    -0.192 A  
HETATM   19  N   UNL     1     -10.159   8.108  66.239  1.00  0.00    -0.127 NA 
HETATM   20  N   UNL     1     -10.390   8.220  67.575  1.00  0.00    -0.248 NA 
HETATM   21  N   UNL     1      -9.438   8.925  68.152  1.00  0.00    -0.142 NA 
HETATM   22  N   UNL     1      -8.534   9.214  67.186  1.00  0.00    -0.120 NA 
BRANCH  22  23
HETATM   23  C   UNL     1      -7.368  10.002  67.578  1.00  0.00    -0.090 C  
HETATM   24  C   UNL     1      -7.109  11.195  66.616  1.00  0.00    -0.141 C  
HETATM   25  C   UNL     1      -8.195  12.265  66.754  1.00  0.00    -0.058 C  
HETATM   26  C   UNL     1      -8.244  12.809  68.177  1.00  0.00    -0.167 C  
HETATM   27  C   UNL     1      -8.352  11.699  69.223  1.00  0.00     0.404 C  
HETATM   28  C   UNL     1      -7.329  10.581  69.002  1.00  0.00    -0.103 C  
ENDBRANCH  22  23
ENDBRANCH  17  18
ENDBRANCH  16  17
ENDBRANCH  15  16
ENDBRANCH  14  15
ENDBRANCH  13  14
ENDBRANCH  11  13
TORSDOF 7
ENDMDL
MODEL      212
REMARK 921   NORMALIZED FREE ENERGY PREDICTED BY IDOCK:   -4.84 KCAL/MOL
REMARK 922        TOTAL FREE ENERGY PREDICTED BY IDOCK:   -7.83 KCAL/MOL
REMARK 923 INTER-LIGAND FREE ENERGY PREDICTED BY IDOCK:   -6.87 KCAL/MOL
REMARK 924 INTRA-LIGAND FREE ENERGY PREDICTED BY IDOCK:   -0.96 KCAL/MOL
REMARK 927      BINDING AFFINITY PREDICTED BY RF-SCORE:    0.00 PKD
ROOT
HETATM    1  O   UNL     1      -7.653   4.307  67.379  1.00  0.00    -0.076 OA 
HETATM    2  C   UNL     1      -7.654   5.430  66.880  1.00  0.00    -0.089 C  
HETATM    3  C   UNL     1      -6.441   6.012  66.192  1.00  0.00    -0.046 C  
HETATM    4  C   UNL     1      -6.811   6.953  65.052  1.00  0.00    -0.051 C  
HETATM    5  C   UNL     1      -7.917   7.903  65.426  1.00  0.00    -0.123 A  
HETATM    6  C   UNL     1      -8.841   7.515  66.405  1.00  0.00    -0.156 A  
HETATM    7  N   UNL     1      -8.720   6.272  67.033  1.00  0.00    -0.108 N  
HETATM    8  C   UNL     1      -9.914   8.342  66.722  1.00  0.00    -0.355 A  
HETATM    9  C   UNL     1     -10.078   9.561  66.054  1.00  0.00    -0.319 A  
HETATM   10  H   UNL     1      -9.478   5.974  67.646  1.00  0.00     0.000 HD 
HETATM   11  C   UNL     1      -9.191   9.956  65.047  1.00  0.00    -0.240 A  
HETATM   12  C   UNL     1      -8.107   9.122  64.738  1.00  0.00    -0.140 A  
ENDROOT
BRANCH  11  13
HETATM   13  O   UNL     1      -9.507  11.156  64.454  1.00  0.00    -0.232 OA 
BRANCH  13  14
HETATM   14  C   UNL     1     -10.863  11.344  64.048  1.00  0.00    -0.383 C  
BRANCH  14  15
HETATM   15  C   UNL     1     -11.368  12.754  64.438  1.00  0.00    -0.394 C  
BRANCH  15  16
HETATM   16  C   UNL     1     -12.037  12.679  65.818  1.00  0.00    -0.484 C  
BRANCH  16  17
HETATM   17  C   UNL     1     -11.160  12.835  67.065  1.00  0.00    -0.316 C  
BRANCH  17  18
HETATM   18  C   UNL     1     -11.543  13.935  67.989  1.00  0.00    -0.333 A  
HETATM   19  N   UNL     1     -12.085  13.704  69.174  1.00  0.00    -0.343 NA 
HETATM   20  N   UNL     1     -12.228  14.909  69.790  1.00  0.00    -0.305 NA 
HETATM   21  N   UNL     1     -11.808  15.883  69.008  1.00  0.00    -0.374 NA 
HETATM   22  N   UNL     1     -11.316  15.294  67.892  1.00  0.00    -0.331 NA 
BRANCH  22  23
HETATM   23  C   UNL     1     -10.784  16.174  66.855  1.00  0.00    -0.247 C  
HETATM   24  C   UNL     1     -10.222  17.501  67.435  1.00  0.00    -0.337 C  
HETATM   25  C   UNL     1      -8.943  17.257  68.240  1.00  0.00    -0.262 C  
HETATM   26  C   UNL     1      -7.862  16.630  67.367  1.00  0.00    -0.188 C  
HETATM   27  C   UNL     1      -8.358  15.386  66.628  1.00  0.00    -0.255 C  
HETATM   28  C   UNL     1      -9.696  15.618  65.920  1.00  0.00    -0.388 C  
ENDBRANCH  22  23
ENDBRANCH  17  18
ENDBRANCH  16  17
ENDBRANCH  15  16
ENDBRANCH  14  15
ENDBRANCH  13  14
ENDBRANCH  11  13
TORSDOF 7
ENDMDL
MODEL      213
REMARK 921   NORMALIZED FREE ENERGY PREDICTED BY IDOCK:   -4.83 KCAL/MOL
REMARK 922        TOTAL FREE ENERGY PREDICTED BY IDOCK:   -7.83 KCAL/MOL
REMARK 923 INTER-LIGAND FREE ENERGY PREDICTED BY IDOCK:   -7.39 KCAL/MOL
REMARK 924 INTRA-LIGAND FREE ENERGY PREDICTED BY IDOCK:   -0.44 KCAL/MOL
REMARK 927      BINDING AFFINITY PREDICTED BY RF-SCORE:    0.00 PKD
ROOT
HETATM    1  O   UNL     1     -13.637  13.964  72.930  1.00  0.00    -0.680 OA 
HETATM    2  C   UNL     1     -13.184  14.144  71.802  1.00  0.00    -0.373 C  
HETATM    3  C   UNL     1     -13.102  15.513  71.169  1.00  0.00    -0.573 C  
HETATM    4  C   UNL     1     -11.911  15.653  70.229  1.00  0.00    -0.398 C  
HETATM    5  C   UNL     1     -11.750  14.461  69.324  1.00  0.00    -0.358 A  
HETATM    6  C   UNL     1     -12.219  13.214  69.755  1.00  0.00    -0.202 A  
HETATM    7  N   UNL     1     -12.843  13.090  71.000  1.00  0.00    -0.250 N  
HETATM    8  C   UNL     1     -12.022  12.082  68.972  1.00  0.00    -0.321 A  
HETATM    9  C   UNL     1     -11.344  12.186  67.752  1.00  0.00    -0.371 A  
HETATM   10  H   UNL     1     -13.057  12.150  71.333  1.00  0.00     0.000 HD 
HETATM   11  C   UNL     1     -10.834  13.413  67.313  1.00  0.00    -0.269 A  
HETATM   12  C   UNL     1     -11.042  14.551  68.104  1.00  0.00    -0.280 A  
ENDROOT
BRANCH  11  13
HETATM   13  O   UNL     1     -10.155  13.348  66.118  1.00  0.00    -0.289 OA 
BRANCH  13  14
HETATM   14  C   UNL     1      -9.364  12.183  65.881  1.00  0.00    -0.130 C  
BRANCH  14  15
HETATM   15  C   UNL     1     -10.047  11.251  64.852  1.00  0.00    -0.333 C  
BRANCH  15  16
HETATM   16  C   UNL     1      -9.812   9.792  65.269  1.00  0.00    -0.335 C  
BRANCH  16  17
HETATM   17  C   UNL     1     -10.156   9.377  66.704  1.00  0.00    -0.332 C  
BRANCH  17  18
HETATM   18  C   UNL     1      -9.058   8.726  67.467  1.00  0.00    -0.133 A  
HETATM   19  N   UNL     1      -7.803   9.138  67.387  1.00  0.00    -0.099 NA 
HETATM   20  N   UNL     1      -7.080   8.394  68.267  1.00  0.00    -0.083 NA 
HETATM   21  N   UNL     1      -7.852   7.516  68.875  1.00  0.00    -0.121 NA 
HETATM   22  N   UNL     1      -9.113   7.743  68.436  1.00  0.00    -0.132 NA 
BRANCH  22  23
HETATM   23  C   UNL     1     -10.168   6.885  68.968  1.00  0.00    -0.181 C  
HETATM   24  C   UNL     1     -11.156   6.410  67.867  1.00  0.00    -0.370 C  
HETATM   25  C   UNL     1     -10.486   5.421  66.909  1.00  0.00    -0.337 C  
HETATM   26  C   UNL     1      -9.989   4.190  67.659  1.00  0.00    -0.049 C  
HETATM   27  C   UNL     1      -9.117   4.553  68.861  1.00  0.00    -0.171 C  
HETATM   28  C   UNL     1      -9.755   5.625  69.748  1.00  0.00    -0.220 C  
ENDBRANCH  22  23
ENDBRANCH  17  18
ENDBRANCH  16  17
ENDBRANCH  15  16
ENDBRANCH  14  15
ENDBRANCH  13  14
ENDBRANCH  11  13
TORSDOF 7
ENDMDL
MODEL      214
REMARK 921   NORMALIZED FREE ENERGY PREDICTED BY IDOCK:   -4.83 KCAL/MOL
REMARK 922        TOTAL FREE ENERGY PREDICTED BY IDOCK:   -7.82 KCAL/MOL
REMARK 923 INTER-LIGAND FREE ENERGY PREDICTED BY IDOCK:   -6.96 KCAL/MOL
REMARK 924 INTRA-LIGAND FREE ENERGY PREDICTED BY IDOCK:   -0.86 KCAL/MOL
REMARK 927      BINDING AFFINITY PREDICTED BY RF-SCORE:    0.00 PKD
ROOT
HETATM    1  O   UNL     1      -6.996   5.996  66.613  1.00  0.00    -0.064 OA 
HETATM    2  C   UNL     1      -7.468   6.760  67.453  1.00  0.00    -0.096 C  
HETATM    3  C   UNL     1      -6.711   7.959  67.974  1.00  0.00    -0.067 C  
HETATM    4  C   UNL     1      -7.629   9.118  68.340  1.00  0.00    -0.083 C  
HETATM    5  C   UNL     1      -8.839   8.670  69.117  1.00  0.00    -0.137 A  
HETATM    6  C   UNL     1      -9.316   7.366  68.936  1.00  0.00    -0.145 A  
HETATM    7  N   UNL     1      -8.664   6.494  68.060  1.00  0.00    -0.117 N  
HETATM    8  C   UNL     1     -10.471   6.946  69.587  1.00  0.00    -0.240 A  
HETATM    9  C   UNL     1     -11.166   7.832  70.418  1.00  0.00    -0.246 A  
HETATM   10  H   UNL     1      -9.110   5.600  67.859  1.00  0.00     0.000 HD 
HETATM   11  C   UNL     1     -10.731   9.151  70.590  1.00  0.00    -0.254 A  
HETATM   12  C   UNL     1      -9.562   9.565  69.937  1.00  0.00    -0.250 A  
ENDROOT
BRANCH  11  13
HETATM   13  O   UNL     1     -11.541   9.913  71.401  1.00  0.00    -0.374 OA 
BRANCH  13  14
HETATM   14  C   UNL     1     -12.062  11.121  70.848  1.00  0.00    -0.322 C  
BRANCH  14  15
HETATM   15  C   UNL     1     -12.468  10.924  69.368  1.00  0.00    -0.037 C  
BRANCH  15  16
HETATM   16  C   UNL     1     -12.000  12.141  68.557  1.00  0.00    -0.273 C  
BRANCH  16  17
HETATM   17  C   UNL     1     -11.272  11.899  67.229  1.00  0.00    -0.376 C  
BRANCH  17  18
HETATM   18  C   UNL     1     -11.609  12.841  66.130  1.00  0.00    -0.379 A  
HETATM   19  N   UNL     1     -12.743  12.759  65.453  1.00  0.00    -0.603 NA 
HETATM   20  N   UNL     1     -12.773  13.812  64.592  1.00  0.00    -0.670 NA 
HETATM   21  N   UNL     1     -11.676  14.533  64.703  1.00  0.00    -0.421 NA 
HETATM   22  N   UNL     1     -10.953  13.980  65.705  1.00  0.00    -0.291 NA 
BRANCH  22  23
HETATM   23  C   UNL     1      -9.672  14.605  66.026  1.00  0.00    -0.312 C  
HETATM   24  C   UNL     1      -9.664  16.129  65.720  1.00  0.00    -0.325 C  
HETATM   25  C   UNL     1     -10.569  16.895  66.689  1.00  0.00    -0.189 C  
HETATM   26  C   UNL     1     -10.109  16.701  68.130  1.00  0.00    -0.267 C  
HETATM   27  C   UNL     1      -9.942  15.226  68.496  1.00  0.00    -0.222 C  
HETATM   28  C   UNL     1      -9.127  14.451  67.456  1.00  0.00    -0.195 C  
ENDBRANCH  22  23
ENDBRANCH  17  18
ENDBRANCH  16  17
ENDBRANCH  15  16
ENDBRANCH  14  15
ENDBRANCH  13  14
ENDBRANCH  11  13
TORSDOF 7
ENDMDL
MODEL      215
REMARK 921   NORMALIZED FREE ENERGY PREDICTED BY IDOCK:   -4.82 KCAL/MOL
REMARK 922        TOTAL FREE ENERGY PREDICTED BY IDOCK:   -7.81 KCAL/MOL
REMARK 923 INTER-LIGAND FREE ENERGY PREDICTED BY IDOCK:   -7.26 KCAL/MOL
REMARK 924 INTRA-LIGAND FREE ENERGY PREDICTED BY IDOCK:   -0.56 KCAL/MOL
REMARK 927      BINDING AFFINITY PREDICTED BY RF-SCORE:    0.00 PKD
ROOT
HETATM    1  O   UNL     1     -12.957  12.136  63.006  1.00  0.00    -0.535 OA 
HETATM    2  C   UNL     1     -12.085  12.189  63.871  1.00  0.00    -0.488 C  
HETATM    3  C   UNL     1     -11.744  13.468  64.600  1.00  0.00    -0.412 C  
HETATM    4  C   UNL     1     -11.285  13.222  66.032  1.00  0.00    -0.316 C  
HETATM    5  C   UNL     1     -10.305  12.083  66.134  1.00  0.00    -0.257 A  
HETATM    6  C   UNL     1     -10.351  11.062  65.177  1.00  0.00    -0.283 A  
HETATM    7  N   UNL     1     -11.283  11.114  64.136  1.00  0.00    -0.332 N  
HETATM    8  C   UNL     1      -9.505   9.962  65.283  1.00  0.00    -0.331 A  
HETATM    9  C   UNL     1      -8.611   9.871  66.357  1.00  0.00    -0.136 A  
HETATM   10  H   UNL     1     -11.371  10.296  63.535  1.00  0.00     0.000 HD 
HETATM   11  C   UNL     1      -8.568  10.859  67.346  1.00  0.00    -0.127 A  
HETATM   12  C   UNL     1      -9.418  11.968  67.228  1.00  0.00    -0.181 A  
ENDROOT
BRANCH  11  13
HETATM   13  O   UNL     1      -7.671  10.609  68.358  1.00  0.00    -0.097 OA 
BRANCH  13  14
HETATM   14  C   UNL     1      -7.798   9.365  69.047  1.00  0.00    -0.079 C  
BRANCH  14  15
HETATM   15  C   UNL     1      -8.222   9.587  70.518  1.00  0.00    -0.203 C  
BRANCH  15  16
HETATM   16  C   UNL     1      -7.964   8.298  71.311  1.00  0.00    -0.125 C  
BRANCH  16  17
HETATM   17  C   UNL     1      -8.596   8.155  72.701  1.00  0.00    -0.262 C  
BRANCH  17  18
HETATM   18  C   UNL     1      -9.637   7.101  72.829  1.00  0.00    -0.152 A  
HETATM   19  N   UNL     1      -9.574   6.156  73.754  1.00  0.00    -0.152 NA 
HETATM   20  N   UNL     1     -10.713   5.420  73.652  1.00  0.00    -0.279 NA 
HETATM   21  N   UNL     1     -11.471   5.871  72.674  1.00  0.00    -0.291 NA 
HETATM   22  N   UNL     1     -10.847   6.966  72.178  1.00  0.00    -0.220 NA 
BRANCH  22  23
HETATM   23  C   UNL     1     -11.496   7.657  71.066  1.00  0.00    -0.276 C  
HETATM   24  C   UNL     1     -12.828   6.976  70.643  1.00  0.00     0.050 C  
HETATM   25  C   UNL     1     -13.907   7.153  71.715  1.00  0.00    -0.375 C  
HETATM   26  C   UNL     1     -14.190   8.631  71.963  1.00  0.00    -0.524 C  
HETATM   27  C   UNL     1     -12.917   9.429  72.247  1.00  0.00    -0.479 C  
HETATM   28  C   UNL     1     -11.811   9.154  71.226  1.00  0.00    -0.396 C  
ENDBRANCH  22  23
ENDBRANCH  17  18
ENDBRANCH  16  17
ENDBRANCH  15  16
ENDBRANCH  14  15
ENDBRANCH  13  14
ENDBRANCH  11  13
TORSDOF 7
ENDMDL
MODEL      216
REMARK 921   NORMALIZED FREE ENERGY PREDICTED BY IDOCK:   -4.82 KCAL/MOL
REMARK 922        TOTAL FREE ENERGY PREDICTED BY IDOCK:   -7.81 KCAL/MOL
REMARK 923 INTER-LIGAND FREE ENERGY PREDICTED BY IDOCK:   -7.29 KCAL/MOL
REMARK 924 INTRA-LIGAND FREE ENERGY PREDICTED BY IDOCK:   -0.52 KCAL/MOL
REMARK 927      BINDING AFFINITY PREDICTED BY RF-SCORE:    0.00 PKD
ROOT
HETATM    1  O   UNL     1      -5.367   9.078  66.200  1.00  0.00    -0.033 OA 
HETATM    2  C   UNL     1      -6.528   9.483  66.226  1.00  0.00    -0.070 C  
HETATM    3  C   UNL     1      -7.329   9.565  67.504  1.00  0.00    -0.090 C  
HETATM    4  C   UNL     1      -8.329  10.714  67.495  1.00  0.00    -0.115 C  
HETATM    5  C   UNL     1      -9.085  10.809  66.196  1.00  0.00    -0.193 A  
HETATM    6  C   UNL     1      -8.481  10.334  65.025  1.00  0.00    -0.172 A  
HETATM    7  N   UNL     1      -7.205   9.765  65.072  1.00  0.00    -0.121 N  
HETATM    8  C   UNL     1      -9.125  10.470  63.800  1.00  0.00    -0.258 A  
HETATM    9  C   UNL     1     -10.377  11.095  63.734  1.00  0.00    -0.447 A  
HETATM   10  H   UNL     1      -6.749   9.546  64.187  1.00  0.00     0.000 HD 
HETATM   11  C   UNL     1     -10.986  11.610  64.883  1.00  0.00    -0.284 A  
HETATM   12  C   UNL     1     -10.335  11.462  66.116  1.00  0.00    -0.294 A  
ENDROOT
BRANCH  11  13
HETATM   13  O   UNL     1     -12.191  12.233  64.653  1.00  0.00    -0.411 OA 
BRANCH  13  14
HETATM   14  C   UNL     1     -12.234  13.202  63.606  1.00  0.00    -0.479 C  
BRANCH  14  15
HETATM   15  C   UNL     1     -12.530  14.613  64.169  1.00  0.00    -0.180 C  
BRANCH  15  16
HETATM   16  C   UNL     1     -11.208  15.265  64.599  1.00  0.00    -0.366 C  
BRANCH  16  17
HETATM   17  C   UNL     1     -10.895  15.364  66.097  1.00  0.00    -0.313 C  
BRANCH  17  18
HETATM   18  C   UNL     1     -10.273  16.640  66.541  1.00  0.00    -0.310 A  
HETATM   19  N   UNL     1     -10.193  17.698  65.751  1.00  0.00    -0.597 NA 
HETATM   20  N   UNL     1      -9.657  18.709  66.487  1.00  0.00    -0.327 NA 
HETATM   21  N   UNL     1      -9.383  18.297  67.709  1.00  0.00    -0.268 NA 
HETATM   22  N   UNL     1      -9.817  17.016  67.789  1.00  0.00    -0.264 NA 
BRANCH  22  23
HETATM   23  C   UNL     1      -9.623  16.326  69.062  1.00  0.00    -0.257 C  
HETATM   24  C   UNL     1     -10.907  16.325  69.936  1.00  0.00    -0.352 C  
HETATM   25  C   UNL     1     -11.992  15.433  69.327  1.00  0.00    -0.335 C  
HETATM   26  C   UNL     1     -11.505  13.993  69.202  1.00  0.00    -0.340 C  
HETATM   27  C   UNL     1     -10.163  13.892  68.478  1.00  0.00    -0.240 C  
HETATM   28  C   UNL     1      -9.123  14.872  69.029  1.00  0.00    -0.175 C  
ENDBRANCH  22  23
ENDBRANCH  17  18
ENDBRANCH  16  17
ENDBRANCH  15  16
ENDBRANCH  14  15
ENDBRANCH  13  14
ENDBRANCH  11  13
TORSDOF 7
ENDMDL
MODEL      217
REMARK 921   NORMALIZED FREE ENERGY PREDICTED BY IDOCK:   -4.80 KCAL/MOL
REMARK 922        TOTAL FREE ENERGY PREDICTED BY IDOCK:   -7.78 KCAL/MOL
REMARK 923 INTER-LIGAND FREE ENERGY PREDICTED BY IDOCK:   -7.48 KCAL/MOL
REMARK 924 INTRA-LIGAND FREE ENERGY PREDICTED BY IDOCK:   -0.30 KCAL/MOL
REMARK 927      BINDING AFFINITY PREDICTED BY RF-SCORE:    0.00 PKD
ROOT
HETATM    1  O   UNL     1     -10.442   4.745  72.182  1.00  0.00    -0.205 OA 
HETATM    2  C   UNL     1     -10.686   5.777  71.561  1.00  0.00    -0.258 C  
HETATM    3  C   UNL     1     -11.320   6.985  72.213  1.00  0.00    -0.305 C  
HETATM    4  C   UNL     1     -10.855   8.296  71.592  1.00  0.00    -0.320 C  
HETATM    5  C   UNL     1     -10.842   8.248  70.087  1.00  0.00    -0.237 A  
HETATM    6  C   UNL     1     -10.661   7.013  69.451  1.00  0.00    -0.230 A  
HETATM    7  N   UNL     1     -10.513   5.847  70.207  1.00  0.00    -0.239 N  
HETATM    8  C   UNL     1     -10.575   6.945  68.064  1.00  0.00    -0.273 A  
HETATM    9  C   UNL     1     -10.660   8.116  67.301  1.00  0.00    -0.344 A  
HETATM   10  H   UNL     1     -10.259   4.991  69.716  1.00  0.00     0.000 HD 
HETATM   11  C   UNL     1     -10.806   9.366  67.912  1.00  0.00    -0.154 A  
HETATM   12  C   UNL     1     -10.899   9.426  69.309  1.00  0.00    -0.190 A  
ENDROOT
BRANCH  11  13
HETATM   13  O   UNL     1     -10.830  10.426  67.035  1.00  0.00    -0.259 OA 
BRANCH  13  14
HETATM   14  C   UNL     1     -10.809  11.737  67.598  1.00  0.00    -0.217 C  
BRANCH  14  15
HETATM   15  C   UNL     1     -10.564  12.805  66.506  1.00  0.00    -0.270 C  
BRANCH  15  16
HETATM   16  C   UNL     1      -9.532  13.818  67.022  1.00  0.00    -0.255 C  
BRANCH  16  17
HETATM   17  C   UNL     1     -10.034  15.158  67.571  1.00  0.00    -0.225 C  
BRANCH  17  18
HETATM   18  C   UNL     1      -8.986  16.068  68.105  1.00  0.00    -0.183 A  
HETATM   19  N   UNL     1      -8.324  15.804  69.220  1.00  0.00    -0.244 NA 
HETATM   20  N   UNL     1      -7.389  16.781  69.372  1.00  0.00    -0.157 NA 
HETATM   21  N   UNL     1      -7.470  17.656  68.390  1.00  0.00    -0.243 NA 
HETATM   22  N   UNL     1      -8.425  17.200  67.546  1.00  0.00    -0.197 NA 
BRANCH  22  23
HETATM   23  C   UNL     1      -8.708  18.007  66.362  1.00  0.00    -0.227 C  
HETATM   24  C   UNL     1     -10.226  18.294  66.190  1.00  0.00    -0.393 C  
HETATM   25  C   UNL     1     -10.737  19.247  67.274  1.00  0.00    -0.594 C  
HETATM   26  C   UNL     1      -9.996  20.579  67.219  1.00  0.00    -0.528 C  
HETATM   27  C   UNL     1      -8.477  20.402  67.235  1.00  0.00    -0.405 C  
HETATM   28  C   UNL     1      -7.996  19.362  66.220  1.00  0.00    -0.330 C  
ENDBRANCH  22  23
ENDBRANCH  17  18
ENDBRANCH  16  17
ENDBRANCH  15  16
ENDBRANCH  14  15
ENDBRANCH  13  14
ENDBRANCH  11  13
TORSDOF 7
ENDMDL
MODEL      218
REMARK 921   NORMALIZED FREE ENERGY PREDICTED BY IDOCK:   -4.80 KCAL/MOL
REMARK 922        TOTAL FREE ENERGY PREDICTED BY IDOCK:   -7.78 KCAL/MOL
REMARK 923 INTER-LIGAND FREE ENERGY PREDICTED BY IDOCK:   -7.16 KCAL/MOL
REMARK 924 INTRA-LIGAND FREE ENERGY PREDICTED BY IDOCK:   -0.62 KCAL/MOL
REMARK 927      BINDING AFFINITY PREDICTED BY RF-SCORE:    0.00 PKD
ROOT
HETATM    1  O   UNL     1      -7.111   9.150  71.556  1.00  0.00    -0.258 OA 
HETATM    2  C   UNL     1      -7.593   9.373  70.447  1.00  0.00    -0.145 C  
HETATM    3  C   UNL     1      -8.058   8.269  69.528  1.00  0.00    -0.114 C  
HETATM    4  C   UNL     1      -9.237   8.688  68.658  1.00  0.00    -0.138 C  
HETATM    5  C   UNL     1      -9.051  10.056  68.058  1.00  0.00    -0.132 A  
HETATM    6  C   UNL     1      -8.248  10.987  68.730  1.00  0.00    -0.146 A  
HETATM    7  N   UNL     1      -7.618  10.638  69.928  1.00  0.00    -0.353 N  
HETATM    8  C   UNL     1      -8.113  12.281  68.237  1.00  0.00    -0.166 A  
HETATM    9  C   UNL     1      -8.789  12.658  67.071  1.00  0.00    -0.212 A  
HETATM   10  H   UNL     1      -7.147  11.376  70.450  1.00  0.00     0.000 HD 
HETATM   11  C   UNL     1      -9.625  11.760  66.400  1.00  0.00    -0.218 A  
HETATM   12  C   UNL     1      -9.751  10.455  66.898  1.00  0.00    -0.223 A  
ENDROOT
BRANCH  11  13
HETATM   13  O   UNL     1     -10.254  12.288  65.296  1.00  0.00    -0.270 OA 
BRANCH  13  14
HETATM   14  C   UNL     1     -11.231  13.303  65.528  1.00  0.00    -0.287 C  
BRANCH  14  15
HETATM   15  C   UNL     1     -10.755  14.667  64.976  1.00  0.00    -0.448 C  
BRANCH  15  16
HETATM   16  C   UNL     1     -10.612  15.655  66.142  1.00  0.00    -0.325 C  
BRANCH  16  17
HETATM   17  C   UNL     1      -9.389  16.580  66.171  1.00  0.00    -0.339 C  
BRANCH  17  18
HETATM   18  C   UNL     1      -9.663  17.998  66.527  1.00  0.00    -0.338 A  
HETATM   19  N   UNL     1     -10.802  18.377  67.085  1.00  0.00    -0.322 NA 
HETATM   20  N   UNL     1     -10.691  19.705  67.359  1.00  0.00    -0.462 NA 
HETATM   21  N   UNL     1      -9.520  20.164  66.965  1.00  0.00    -0.384 NA 
HETATM   22  N   UNL     1      -8.829  19.098  66.494  1.00  0.00    -0.324 NA 
BRANCH  22  23
HETATM   23  C   UNL     1      -7.481  19.348  65.988  1.00  0.00    -0.289 C  
HETATM   24  C   UNL     1      -6.758  20.481  66.769  1.00  0.00    -0.312 C  
HETATM   25  C   UNL     1      -6.416  20.041  68.195  1.00  0.00    -0.301 C  
HETATM   26  C   UNL     1      -5.503  18.819  68.183  1.00  0.00    -0.179 C  
HETATM   27  C   UNL     1      -6.057  17.687  67.317  1.00  0.00    -0.168 C  
HETATM   28  C   UNL     1      -6.497  18.168  65.932  1.00  0.00    -0.304 C  
ENDBRANCH  22  23
ENDBRANCH  17  18
ENDBRANCH  16  17
ENDBRANCH  15  16
ENDBRANCH  14  15
ENDBRANCH  13  14
ENDBRANCH  11  13
TORSDOF 7
ENDMDL
MODEL      219
REMARK 921   NORMALIZED FREE ENERGY PREDICTED BY IDOCK:   -4.78 KCAL/MOL
REMARK 922        TOTAL FREE ENERGY PREDICTED BY IDOCK:   -7.75 KCAL/MOL
REMARK 923 INTER-LIGAND FREE ENERGY PREDICTED BY IDOCK:   -6.43 KCAL/MOL
REMARK 924 INTRA-LIGAND FREE ENERGY PREDICTED BY IDOCK:   -1.33 KCAL/MOL
REMARK 927      BINDING AFFINITY PREDICTED BY RF-SCORE:    0.00 PKD
ROOT
HETATM    1  O   UNL     1      -9.165   4.134  63.759  1.00  0.00    -0.135 OA 
HETATM    2  C   UNL     1      -9.403   4.121  64.965  1.00  0.00    -0.165 C  
HETATM    3  C   UNL     1      -9.089   2.931  65.840  1.00  0.00    -0.132 C  
HETATM    4  C   UNL     1      -8.725   3.332  67.265  1.00  0.00    -0.135 C  
HETATM    5  C   UNL     1      -9.654   4.377  67.823  1.00  0.00    -0.211 A  
HETATM    6  C   UNL     1     -10.296   5.255  66.940  1.00  0.00    -0.255 A  
HETATM    7  N   UNL     1     -10.087   5.143  65.562  1.00  0.00    -0.397 N  
HETATM    8  C   UNL     1     -11.105   6.274  67.429  1.00  0.00    -0.384 A  
HETATM    9  C   UNL     1     -11.271   6.432  68.811  1.00  0.00    -0.358 A  
HETATM   10  H   UNL     1     -10.469   5.874  64.963  1.00  0.00     0.000 HD 
HETATM   11  C   UNL     1     -10.614   5.592  69.716  1.00  0.00    -0.329 A  
HETATM   12  C   UNL     1      -9.806   4.562  69.216  1.00  0.00    -0.241 A  
ENDROOT
BRANCH  11  13
HETATM   13  O   UNL     1     -10.841   5.898  71.038  1.00  0.00    -0.260 OA 
BRANCH  13  14
HETATM   14  C   UNL     1     -11.889   6.825  71.321  1.00  0.00    -0.348 C  
BRANCH  14  15
HETATM   15  C   UNL     1     -11.433   7.874  72.363  1.00  0.00    -0.433 C  
BRANCH  15  16
HETATM   16  C   UNL     1     -10.125   8.519  71.883  1.00  0.00    -0.367 C  
BRANCH  16  17
HETATM   17  C   UNL     1     -10.177   9.471  70.683  1.00  0.00    -0.364 C  
BRANCH  17  18
HETATM   18  C   UNL     1      -8.862   9.969  70.199  1.00  0.00     0.008 A  
HETATM   19  N   UNL     1      -7.716   9.536  70.701  1.00  0.00    -0.241 NA 
HETATM   20  N   UNL     1      -6.719  10.120  69.983  1.00  0.00    -0.110 NA 
HETATM   21  N   UNL     1      -7.217  10.920  69.063  1.00  0.00    -0.091 NA 
HETATM   22  N   UNL     1      -8.564  10.799  69.136  1.00  0.00    -0.128 NA 
BRANCH  22  23
HETATM   23  C   UNL     1      -9.357  11.599  68.206  1.00  0.00    -0.191 C  
HETATM   24  C   UNL     1      -8.651  11.785  66.834  1.00  0.00    -0.177 C  
HETATM   25  C   UNL     1      -8.599  10.468  66.054  1.00  0.00    -0.166 C  
HETATM   26  C   UNL     1     -10.004   9.935  65.793  1.00  0.00    -0.347 C  
HETATM   27  C   UNL     1     -10.841   9.850  67.070  1.00  0.00    -0.186 C  
HETATM   28  C   UNL     1     -10.791  11.139  67.893  1.00  0.00    -0.285 C  
ENDBRANCH  22  23
ENDBRANCH  17  18
ENDBRANCH  16  17
ENDBRANCH  15  16
ENDBRANCH  14  15
ENDBRANCH  13  14
ENDBRANCH  11  13
TORSDOF 7
ENDMDL
MODEL      220
REMARK 921   NORMALIZED FREE ENERGY PREDICTED BY IDOCK:   -4.78 KCAL/MOL
REMARK 922        TOTAL FREE ENERGY PREDICTED BY IDOCK:   -7.75 KCAL/MOL
REMARK 923 INTER-LIGAND FREE ENERGY PREDICTED BY IDOCK:   -7.31 KCAL/MOL
REMARK 924 INTRA-LIGAND FREE ENERGY PREDICTED BY IDOCK:   -0.44 KCAL/MOL
REMARK 927      BINDING AFFINITY PREDICTED BY RF-SCORE:    0.00 PKD
ROOT
HETATM    1  O   UNL     1     -13.749  15.795  73.256  1.00  0.00    -0.496 OA 
HETATM    2  C   UNL     1     -13.420  15.055  72.332  1.00  0.00    -0.430 C  
HETATM    3  C   UNL     1     -13.278  15.548  70.911  1.00  0.00    -0.474 C  
HETATM    4  C   UNL     1     -12.202  14.797  70.136  1.00  0.00    -0.391 C  
HETATM    5  C   UNL     1     -12.273  13.308  70.349  1.00  0.00    -0.404 A  
HETATM    6  C   UNL     1     -12.810  12.820  71.547  1.00  0.00    -0.270 A  
HETATM    7  N   UNL     1     -13.287  13.707  72.516  1.00  0.00    -0.539 N  
HETATM    8  C   UNL     1     -12.825  11.453  71.802  1.00  0.00    -0.449 A  
HETATM    9  C   UNL     1     -12.293  10.561  70.864  1.00  0.00    -0.490 A  
HETATM   10  H   UNL     1     -13.553  13.322  73.422  1.00  0.00     0.000 HD 
HETATM   11  C   UNL     1     -11.718  11.023  69.675  1.00  0.00    -0.329 A  
HETATM   12  C   UNL     1     -11.713  12.402  69.421  1.00  0.00    -0.384 A  
ENDROOT
BRANCH  11  13
HETATM   13  O   UNL     1     -11.199  10.032  68.874  1.00  0.00    -0.209 OA 
BRANCH  13  14
HETATM   14  C   UNL     1     -11.067  10.322  67.483  1.00  0.00    -0.232 C  
BRANCH  14  15
HETATM   15  C   UNL     1      -9.676   9.892  66.957  1.00  0.00    -0.230 C  
BRANCH  15  16
HETATM   16  C   UNL     1      -8.600  10.760  67.625  1.00  0.00    -0.123 C  
BRANCH  16  17
HETATM   17  C   UNL     1      -7.903  10.224  68.880  1.00  0.00    -0.106 C  
BRANCH  17  18
HETATM   18  C   UNL     1      -7.653   8.758  68.901  1.00  0.00    -0.091 A  
HETATM   19  N   UNL     1      -6.737   8.188  68.134  1.00  0.00    -0.060 NA 
HETATM   20  N   UNL     1      -6.706   6.868  68.462  1.00  0.00    -0.062 NA 
HETATM   21  N   UNL     1      -7.594   6.601  69.398  1.00  0.00    -0.094 NA 
HETATM   22  N   UNL     1      -8.162   7.783  69.736  1.00  0.00    -0.127 NA 
BRANCH  22  23
HETATM   23  C   UNL     1      -9.196   7.755  70.768  1.00  0.00    -0.157 C  
HETATM   24  C   UNL     1     -10.581   7.329  70.206  1.00  0.00    -0.243 C  
HETATM   25  C   UNL     1     -10.586   5.852  69.802  1.00  0.00    -0.374 C  
HETATM   26  C   UNL     1     -10.267   4.960  70.997  1.00  0.00    -0.262 C  
HETATM   27  C   UNL     1      -8.988   5.386  71.718  1.00  0.00    -0.146 C  
HETATM   28  C   UNL     1      -8.953   6.888  72.015  1.00  0.00    -0.136 C  
ENDBRANCH  22  23
ENDBRANCH  17  18
ENDBRANCH  16  17
ENDBRANCH  15  16
ENDBRANCH  14  15
ENDBRANCH  13  14
ENDBRANCH  11  13
TORSDOF 7
ENDMDL
MODEL      221
REMARK 921   NORMALIZED FREE ENERGY PREDICTED BY IDOCK:   -4.77 KCAL/MOL
REMARK 922        TOTAL FREE ENERGY PREDICTED BY IDOCK:   -7.74 KCAL/MOL
REMARK 923 INTER-LIGAND FREE ENERGY PREDICTED BY IDOCK:   -6.78 KCAL/MOL
REMARK 924 INTRA-LIGAND FREE ENERGY PREDICTED BY IDOCK:   -0.96 KCAL/MOL
REMARK 927      BINDING AFFINITY PREDICTED BY RF-SCORE:    0.00 PKD
ROOT
HETATM    1  O   UNL     1     -12.384  15.639  70.249  1.00  0.00    -0.400 OA 
HETATM    2  C   UNL     1     -12.291  14.432  70.040  1.00  0.00    -0.336 C  
HETATM    3  C   UNL     1     -11.861  13.871  68.705  1.00  0.00    -0.407 C  
HETATM    4  C   UNL     1     -11.095  12.561  68.839  1.00  0.00    -0.309 C  
HETATM    5  C   UNL     1     -11.743  11.613  69.813  1.00  0.00    -0.425 A  
HETATM    6  C   UNL     1     -12.517  12.137  70.856  1.00  0.00    -0.279 A  
HETATM    7  N   UNL     1     -12.695  13.518  70.974  1.00  0.00    -0.340 N  
HETATM    8  C   UNL     1     -13.071  11.291  71.811  1.00  0.00    -0.527 A  
HETATM    9  C   UNL     1     -12.846   9.911  71.736  1.00  0.00    -0.540 A  
HETATM   10  H   UNL     1     -13.157  13.868  71.813  1.00  0.00     0.000 HD 
HETATM   11  C   UNL     1     -12.049   9.364  70.726  1.00  0.00    -0.203 A  
HETATM   12  C   UNL     1     -11.500  10.222  69.762  1.00  0.00    -0.320 A  
ENDROOT
BRANCH  11  13
HETATM   13  O   UNL     1     -11.885   8.001  70.809  1.00  0.00    -0.261 OA 
BRANCH  13  14
HETATM   14  C   UNL     1     -11.110   7.375  69.788  1.00  0.00    -0.152 C  
BRANCH  14  15
HETATM   15  C   UNL     1     -10.670   5.955  70.217  1.00  0.00    -0.383 C  
BRANCH  15  16
HETATM   16  C   UNL     1      -9.146   5.940  70.405  1.00  0.00    -0.157 C  
BRANCH  16  17
HETATM   17  C   UNL     1      -8.286   5.237  69.349  1.00  0.00    -0.095 C  
BRANCH  17  18
HETATM   18  C   UNL     1      -8.861   5.187  67.979  1.00  0.00    -0.102 A  
HETATM   19  N   UNL     1      -9.823   4.341  67.648  1.00  0.00    -0.138 NA 
HETATM   20  N   UNL     1     -10.176   4.617  66.364  1.00  0.00    -0.263 NA 
HETATM   21  N   UNL     1      -9.442   5.600  65.882  1.00  0.00    -0.115 NA 
HETATM   22  N   UNL     1      -8.648   6.019  66.897  1.00  0.00    -0.108 NA 
BRANCH  22  23
HETATM   23  C   UNL     1      -7.726   7.115  66.612  1.00  0.00    -0.097 C  
HETATM   24  C   UNL     1      -8.279   8.089  65.535  1.00  0.00    -0.138 C  
HETATM   25  C   UNL     1      -9.468   8.891  66.070  1.00  0.00    -0.320 C  
HETATM   26  C   UNL     1      -9.064   9.715  67.288  1.00  0.00    -0.150 C  
HETATM   27  C   UNL     1      -8.372   8.872  68.359  1.00  0.00    -0.125 C  
HETATM   28  C   UNL     1      -7.258   7.992  67.785  1.00  0.00    -0.091 C  
ENDBRANCH  22  23
ENDBRANCH  17  18
ENDBRANCH  16  17
ENDBRANCH  15  16
ENDBRANCH  14  15
ENDBRANCH  13  14
ENDBRANCH  11  13
TORSDOF 7
ENDMDL
MODEL      222
REMARK 921   NORMALIZED FREE ENERGY PREDICTED BY IDOCK:   -4.77 KCAL/MOL
REMARK 922        TOTAL FREE ENERGY PREDICTED BY IDOCK:   -7.74 KCAL/MOL
REMARK 923 INTER-LIGAND FREE ENERGY PREDICTED BY IDOCK:   -6.98 KCAL/MOL
REMARK 924 INTRA-LIGAND FREE ENERGY PREDICTED BY IDOCK:   -0.76 KCAL/MOL
REMARK 927      BINDING AFFINITY PREDICTED BY RF-SCORE:    0.00 PKD
ROOT
HETATM    1  O   UNL     1      -7.938  20.032  66.590  1.00  0.00    -0.295 OA 
HETATM    2  C   UNL     1      -8.044  18.808  66.541  1.00  0.00    -0.289 C  
HETATM    3  C   UNL     1      -6.870  17.883  66.761  1.00  0.00    -0.220 C  
HETATM    4  C   UNL     1      -7.277  16.564  67.407  1.00  0.00    -0.178 C  
HETATM    5  C   UNL     1      -8.515  15.976  66.784  1.00  0.00    -0.295 A  
HETATM    6  C   UNL     1      -9.446  16.835  66.187  1.00  0.00    -0.264 A  
HETATM    7  N   UNL     1      -9.214  18.214  66.158  1.00  0.00    -0.189 N  
HETATM    8  C   UNL     1     -10.632  16.330  65.664  1.00  0.00    -0.360 A  
HETATM    9  C   UNL     1     -10.901  14.958  65.744  1.00  0.00    -0.343 A  
HETATM   10  H   UNL     1      -9.969  18.816  65.830  1.00  0.00     0.000 HD 
HETATM   11  C   UNL     1     -10.005  14.082  66.366  1.00  0.00    -0.294 A  
HETATM   12  C   UNL     1      -8.809  14.598  66.883  1.00  0.00    -0.267 A  
ENDROOT
BRANCH  11  13
HETATM   13  O   UNL     1     -10.427  12.773  66.405  1.00  0.00    -0.246 OA 
BRANCH  13  14
HETATM   14  C   UNL     1     -11.650  12.505  67.090  1.00  0.00    -0.368 C  
BRANCH  14  15
HETATM   15  C   UNL     1     -11.445  12.539  68.624  1.00  0.00    -0.348 C  
BRANCH  15  16
HETATM   16  C   UNL     1     -10.818  11.211  69.072  1.00  0.00    -0.276 C  
BRANCH  16  17
HETATM   17  C   UNL     1     -11.045   9.966  68.208  1.00  0.00    -0.207 C  
BRANCH  17  18
HETATM   18  C   UNL     1     -10.082   8.853  68.417  1.00  0.00    -0.189 A  
HETATM   19  N   UNL     1      -8.875   8.854  67.874  1.00  0.00    -0.132 NA 
HETATM   20  N   UNL     1      -8.228   7.748  68.333  1.00  0.00    -0.123 NA 
HETATM   21  N   UNL     1      -9.011   7.051  69.130  1.00  0.00    -0.135 NA 
HETATM   22  N   UNL     1     -10.163   7.754  69.249  1.00  0.00    -0.207 NA 
BRANCH  22  23
HETATM   23  C   UNL     1     -11.209   7.181  70.093  1.00  0.00    -0.262 C  
HETATM   24  C   UNL     1     -10.643   6.189  71.146  1.00  0.00    -0.300 C  
HETATM   25  C   UNL     1      -9.828   6.920  72.216  1.00  0.00    -0.163 C  
HETATM   26  C   UNL     1     -10.687   7.945  72.948  1.00  0.00    -0.440 C  
HETATM   27  C   UNL     1     -11.412   8.890  71.989  1.00  0.00    -0.431 C  
HETATM   28  C   UNL     1     -12.130   8.144  70.861  1.00  0.00    -0.158 C  
ENDBRANCH  22  23
ENDBRANCH  17  18
ENDBRANCH  16  17
ENDBRANCH  15  16
ENDBRANCH  14  15
ENDBRANCH  13  14
ENDBRANCH  11  13
TORSDOF 7
ENDMDL
MODEL      223
REMARK 921   NORMALIZED FREE ENERGY PREDICTED BY IDOCK:   -4.77 KCAL/MOL
REMARK 922        TOTAL FREE ENERGY PREDICTED BY IDOCK:   -7.74 KCAL/MOL
REMARK 923 INTER-LIGAND FREE ENERGY PREDICTED BY IDOCK:   -7.14 KCAL/MOL
REMARK 924 INTRA-LIGAND FREE ENERGY PREDICTED BY IDOCK:   -0.60 KCAL/MOL
REMARK 927      BINDING AFFINITY PREDICTED BY RF-SCORE:    0.00 PKD
ROOT
HETATM    1  O   UNL     1     -14.171  15.826  73.074  1.00  0.00    -0.363 OA 
HETATM    2  C   UNL     1     -13.662  15.022  72.295  1.00  0.00    -0.468 C  
HETATM    3  C   UNL     1     -13.018  15.449  70.997  1.00  0.00    -0.556 C  
HETATM    4  C   UNL     1     -11.854  14.549  70.597  1.00  0.00    -0.367 C  
HETATM    5  C   UNL     1     -12.174  13.087  70.765  1.00  0.00    -0.359 A  
HETATM    6  C   UNL     1     -13.118  12.706  71.727  1.00  0.00    -0.360 A  
HETATM    7  N   UNL     1     -13.763  13.675  72.502  1.00  0.00    -0.576 N  
HETATM    8  C   UNL     1     -13.384  11.360  71.953  1.00  0.00    -0.409 A  
HETATM    9  C   UNL     1     -12.697  10.381  71.225  1.00  0.00    -0.536 A  
HETATM   10  H   UNL     1     -14.347  13.354  73.273  1.00  0.00     0.000 HD 
HETATM   11  C   UNL     1     -11.724  10.732  70.284  1.00  0.00    -0.352 A  
HETATM   12  C   UNL     1     -11.467  12.091  70.055  1.00  0.00    -0.183 A  
ENDROOT
BRANCH  11  13
HETATM   13  O   UNL     1     -11.107   9.660  69.681  1.00  0.00    -0.236 OA 
BRANCH  13  14
HETATM   14  C   UNL     1     -10.765   9.797  68.302  1.00  0.00    -0.233 C  
BRANCH  14  15
HETATM   15  C   UNL     1      -9.589   8.864  67.927  1.00  0.00    -0.171 C  
BRANCH  15  16
HETATM   16  C   UNL     1      -8.292   9.435  68.517  1.00  0.00    -0.118 C  
BRANCH  16  17
HETATM   17  C   UNL     1      -8.067  10.950  68.459  1.00  0.00    -0.137 C  
BRANCH  17  18
HETATM   18  C   UNL     1      -7.046  11.486  69.397  1.00  0.00    -0.037 A  
HETATM   19  N   UNL     1      -6.597  10.785  70.427  1.00  0.00    -0.301 NA 
HETATM   20  N   UNL     1      -5.620  11.523  71.019  1.00  0.00    -0.338 NA 
HETATM   21  N   UNL     1      -5.466  12.674  70.396  1.00  0.00    -0.139 NA 
HETATM   22  N   UNL     1      -6.308  12.652  69.335  1.00  0.00    -0.110 NA 
BRANCH  22  23
HETATM   23  C   UNL     1      -6.326  13.832  68.474  1.00  0.00    -0.092 C  
HETATM   24  C   UNL     1      -7.451  13.767  67.404  1.00  0.00    -0.142 C  
HETATM   25  C   UNL     1      -8.835  13.899  68.044  1.00  0.00    -0.184 C  
HETATM   26  C   UNL     1      -8.966  15.225  68.786  1.00  0.00    -0.200 C  
HETATM   27  C   UNL     1      -7.819  15.459  69.770  1.00  0.00    -0.059 C  
HETATM   28  C   UNL     1      -6.446  15.213  69.140  1.00  0.00    -0.116 C  
ENDBRANCH  22  23
ENDBRANCH  17  18
ENDBRANCH  16  17
ENDBRANCH  15  16
ENDBRANCH  14  15
ENDBRANCH  13  14
ENDBRANCH  11  13
TORSDOF 7
ENDMDL
MODEL      224
REMARK 921   NORMALIZED FREE ENERGY PREDICTED BY IDOCK:   -4.76 KCAL/MOL
REMARK 922        TOTAL FREE ENERGY PREDICTED BY IDOCK:   -7.72 KCAL/MOL
REMARK 923 INTER-LIGAND FREE ENERGY PREDICTED BY IDOCK:   -7.72 KCAL/MOL
REMARK 924 INTRA-LIGAND FREE ENERGY PREDICTED BY IDOCK:   -0.01 KCAL/MOL
REMARK 927      BINDING AFFINITY PREDICTED BY RF-SCORE:    0.00 PKD
ROOT
HETATM    1  O   UNL     1      -8.489   8.776  62.400  1.00  0.00    -0.194 OA 
HETATM    2  C   UNL     1      -8.955   9.603  63.181  1.00  0.00    -0.232 C  
HETATM    3  C   UNL     1      -9.054  11.072  62.842  1.00  0.00    -0.333 C  
HETATM    4  C   UNL     1     -10.256  11.744  63.495  1.00  0.00    -0.483 C  
HETATM    5  C   UNL     1     -10.418  11.353  64.940  1.00  0.00    -0.363 A  
HETATM    6  C   UNL     1      -9.935  10.109  65.364  1.00  0.00    -0.307 A  
HETATM    7  N   UNL     1      -9.298   9.256  64.458  1.00  0.00    -0.422 N  
HETATM    8  C   UNL     1     -10.132   9.690  66.676  1.00  0.00    -0.307 A  
HETATM    9  C   UNL     1     -10.824  10.511  67.574  1.00  0.00    -0.357 A  
HETATM   10  H   UNL     1      -9.073   8.312  64.771  1.00  0.00     0.000 HD 
HETATM   11  C   UNL     1     -11.348  11.743  67.169  1.00  0.00    -0.322 A  
HETATM   12  C   UNL     1     -11.139  12.162  65.847  1.00  0.00    -0.360 A  
ENDROOT
BRANCH  11  13
HETATM   13  O   UNL     1     -12.039  12.415  68.150  1.00  0.00    -0.362 OA 
BRANCH  13  14
HETATM   14  C   UNL     1     -12.103  13.837  68.044  1.00  0.00    -0.280 C  
BRANCH  14  15
HETATM   15  C   UNL     1     -11.442  14.514  69.268  1.00  0.00    -0.322 C  
BRANCH  15  16
HETATM   16  C   UNL     1     -11.755  16.017  69.236  1.00  0.00    -0.302 C  
BRANCH  16  17
HETATM   17  C   UNL     1     -10.600  17.000  69.011  1.00  0.00    -0.314 C  
BRANCH  17  18
HETATM   18  C   UNL     1      -9.248  16.390  68.902  1.00  0.00    -0.259 A  
HETATM   19  N   UNL     1      -8.826  15.457  69.740  1.00  0.00    -0.149 NA 
HETATM   20  N   UNL     1      -7.598  15.058  69.310  1.00  0.00    -0.176 NA 
HETATM   21  N   UNL     1      -7.240  15.736  68.238  1.00  0.00    -0.113 NA 
HETATM   22  N   UNL     1      -8.284  16.538  67.924  1.00  0.00    -0.166 NA 
BRANCH  22  23
HETATM   23  C   UNL     1      -8.132  17.404  66.757  1.00  0.00    -0.250 C  
HETATM   24  C   UNL     1      -8.712  18.826  66.996  1.00  0.00    -0.291 C  
HETATM   25  C   UNL     1      -7.866  19.608  68.004  1.00  0.00    -0.341 C  
HETATM   26  C   UNL     1      -6.432  19.761  67.508  1.00  0.00    -0.231 C  
HETATM   27  C   UNL     1      -5.809  18.424  67.104  1.00  0.00    -0.161 C  
HETATM   28  C   UNL     1      -6.719  17.606  66.184  1.00  0.00    -0.321 C  
ENDBRANCH  22  23
ENDBRANCH  17  18
ENDBRANCH  16  17
ENDBRANCH  15  16
ENDBRANCH  14  15
ENDBRANCH  13  14
ENDBRANCH  11  13
TORSDOF 7
ENDMDL
MODEL      225
REMARK 921   NORMALIZED FREE ENERGY PREDICTED BY IDOCK:   -4.76 KCAL/MOL
REMARK 922        TOTAL FREE ENERGY PREDICTED BY IDOCK:   -7.72 KCAL/MOL
REMARK 923 INTER-LIGAND FREE ENERGY PREDICTED BY IDOCK:   -6.37 KCAL/MOL
REMARK 924 INTRA-LIGAND FREE ENERGY PREDICTED BY IDOCK:   -1.35 KCAL/MOL
REMARK 927      BINDING AFFINITY PREDICTED BY RF-SCORE:    0.00 PKD
ROOT
HETATM    1  O   UNL     1      -5.801   9.432  65.397  1.00  0.00    -0.056 OA 
HETATM    2  C   UNL     1      -6.524   9.449  66.391  1.00  0.00    -0.066 C  
HETATM    3  C   UNL     1      -6.017   9.086  67.767  1.00  0.00    -0.050 C  
HETATM    4  C   UNL     1      -6.727   9.857  68.874  1.00  0.00    -0.053 C  
HETATM    5  C   UNL     1      -8.218   9.906  68.676  1.00  0.00    -0.108 A  
HETATM    6  C   UNL     1      -8.732   9.822  67.375  1.00  0.00    -0.132 A  
HETATM    7  N   UNL     1      -7.868   9.676  66.286  1.00  0.00    -0.101 N  
HETATM    8  C   UNL     1     -10.100   9.934  67.153  1.00  0.00    -0.270 A  
HETATM    9  C   UNL     1     -10.968  10.142  68.233  1.00  0.00    -0.299 A  
HETATM   10  H   UNL     1      -8.267   9.745  65.350  1.00  0.00     0.000 HD 
HETATM   11  C   UNL     1     -10.479  10.265  69.537  1.00  0.00    -0.244 A  
HETATM   12  C   UNL     1      -9.099  10.144  69.754  1.00  0.00    -0.166 A  
ENDROOT
BRANCH  11  13
HETATM   13  O   UNL     1     -11.447  10.511  70.484  1.00  0.00    -0.313 OA 
BRANCH  13  14
HETATM   14  C   UNL     1     -12.503  11.399  70.119  1.00  0.00    -0.196 C  
BRANCH  14  15
HETATM   15  C   UNL     1     -12.453  12.695  70.962  1.00  0.00    -0.354 C  
BRANCH  15  16
HETATM   16  C   UNL     1     -12.121  13.877  70.041  1.00  0.00    -0.411 C  
BRANCH  16  17
HETATM   17  C   UNL     1     -10.889  13.774  69.134  1.00  0.00    -0.205 C  
BRANCH  17  18
HETATM   18  C   UNL     1     -11.133  14.020  67.688  1.00  0.00    -0.282 A  
HETATM   19  N   UNL     1     -12.123  13.438  67.030  1.00  0.00    -0.369 NA 
HETATM   20  N   UNL     1     -12.117  13.943  65.767  1.00  0.00    -0.400 NA 
HETATM   21  N   UNL     1     -11.134  14.809  65.618  1.00  0.00    -0.332 NA 
HETATM   22  N   UNL     1     -10.536  14.922  66.828  1.00  0.00    -0.298 NA 
BRANCH  22  23
HETATM   23  C   UNL     1      -9.399  15.834  66.927  1.00  0.00    -0.227 C  
HETATM   24  C   UNL     1      -9.533  17.052  65.971  1.00  0.00    -0.195 C  
HETATM   25  C   UNL     1     -10.652  17.993  66.424  1.00  0.00    -0.259 C  
HETATM   26  C   UNL     1     -10.381  18.523  67.828  1.00  0.00    -0.435 C  
HETATM   27  C   UNL     1     -10.090  17.403  68.828  1.00  0.00    -0.346 C  
HETATM   28  C   UNL     1      -9.048  16.409  68.309  1.00  0.00    -0.207 C  
ENDBRANCH  22  23
ENDBRANCH  17  18
ENDBRANCH  16  17
ENDBRANCH  15  16
ENDBRANCH  14  15
ENDBRANCH  13  14
ENDBRANCH  11  13
TORSDOF 7
ENDMDL
MODEL      226
REMARK 921   NORMALIZED FREE ENERGY PREDICTED BY IDOCK:   -4.76 KCAL/MOL
REMARK 922        TOTAL FREE ENERGY PREDICTED BY IDOCK:   -7.72 KCAL/MOL
REMARK 923 INTER-LIGAND FREE ENERGY PREDICTED BY IDOCK:   -7.15 KCAL/MOL
REMARK 924 INTRA-LIGAND FREE ENERGY PREDICTED BY IDOCK:   -0.57 KCAL/MOL
REMARK 927      BINDING AFFINITY PREDICTED BY RF-SCORE:    0.00 PKD
ROOT
HETATM    1  O   UNL     1     -10.815   5.276  73.358  1.00  0.00    -0.255 OA 
HETATM    2  C   UNL     1     -10.541   5.600  72.205  1.00  0.00    -0.223 C  
HETATM    3  C   UNL     1      -9.806   4.680  71.258  1.00  0.00    -0.261 C  
HETATM    4  C   UNL     1     -10.223   4.880  69.806  1.00  0.00    -0.284 C  
HETATM    5  C   UNL     1     -10.313   6.335  69.429  1.00  0.00    -0.266 A  
HETATM    6  C   UNL     1     -10.598   7.277  70.425  1.00  0.00    -0.226 A  
HETATM    7  N   UNL     1     -10.777   6.867  71.750  1.00  0.00    -0.220 N  
HETATM    8  C   UNL     1     -10.756   8.620  70.096  1.00  0.00    -0.244 A  
HETATM    9  C   UNL     1     -10.641   9.030  68.763  1.00  0.00    -0.196 A  
HETATM   10  H   UNL     1     -11.105   7.560  72.422  1.00  0.00     0.000 HD 
HETATM   11  C   UNL     1     -10.392   8.106  67.743  1.00  0.00    -0.233 A  
HETATM   12  C   UNL     1     -10.226   6.756  68.083  1.00  0.00    -0.198 A  
ENDROOT
BRANCH  11  13
HETATM   13  O   UNL     1     -10.349   8.653  66.481  1.00  0.00    -0.282 OA 
BRANCH  13  14
HETATM   14  C   UNL     1     -10.505  10.068  66.381  1.00  0.00    -0.129 C  
BRANCH  14  15
HETATM   15  C   UNL     1      -9.176  10.744  65.964  1.00  0.00    -0.210 C  
BRANCH  15  16
HETATM   16  C   UNL     1      -9.107  12.140  66.598  1.00  0.00    -0.206 C  
BRANCH  16  17
HETATM   17  C   UNL     1     -10.416  12.903  66.833  1.00  0.00    -0.252 C  
BRANCH  17  18
HETATM   18  C   UNL     1     -10.633  14.092  65.968  1.00  0.00    -0.297 A  
HETATM   19  N   UNL     1     -11.699  14.216  65.193  1.00  0.00    -0.345 NA 
HETATM   20  N   UNL     1     -11.631  15.444  64.612  1.00  0.00    -0.369 NA 
HETATM   21  N   UNL     1     -10.538  16.076  64.989  1.00  0.00    -0.606 NA 
HETATM   22  N   UNL     1      -9.922  15.274  65.890  1.00  0.00    -0.314 NA 
BRANCH  22  23
HETATM   23  C   UNL     1      -8.668  15.756  66.464  1.00  0.00    -0.319 C  
HETATM   24  C   UNL     1      -8.469  17.283  66.252  1.00  0.00    -0.278 C  
HETATM   25  C   UNL     1      -9.460  18.094  67.091  1.00  0.00    -0.264 C  
HETATM   26  C   UNL     1      -9.284  17.797  68.576  1.00  0.00    -0.281 C  
HETATM   27  C   UNL     1      -9.319  16.299  68.880  1.00  0.00    -0.248 C  
HETATM   28  C   UNL     1      -8.404  15.491  67.955  1.00  0.00    -0.142 C  
ENDBRANCH  22  23
ENDBRANCH  17  18
ENDBRANCH  16  17
ENDBRANCH  15  16
ENDBRANCH  14  15
ENDBRANCH  13  14
ENDBRANCH  11  13
TORSDOF 7
ENDMDL
MODEL      227
REMARK 921   NORMALIZED FREE ENERGY PREDICTED BY IDOCK:   -4.75 KCAL/MOL
REMARK 922        TOTAL FREE ENERGY PREDICTED BY IDOCK:   -7.71 KCAL/MOL
REMARK 923 INTER-LIGAND FREE ENERGY PREDICTED BY IDOCK:   -7.44 KCAL/MOL
REMARK 924 INTRA-LIGAND FREE ENERGY PREDICTED BY IDOCK:   -0.26 KCAL/MOL
REMARK 927      BINDING AFFINITY PREDICTED BY RF-SCORE:    0.00 PKD
ROOT
HETATM    1  O   UNL     1     -11.287  16.570  68.749  1.00  0.00    -0.318 OA 
HETATM    2  C   UNL     1     -11.629  15.705  69.552  1.00  0.00    -0.357 C  
HETATM    3  C   UNL     1     -11.963  16.021  70.991  1.00  0.00    -0.407 C  
HETATM    4  C   UNL     1     -13.029  15.094  71.563  1.00  0.00    -0.458 C  
HETATM    5  C   UNL     1     -12.785  13.651  71.210  1.00  0.00    -0.443 A  
HETATM    6  C   UNL     1     -12.083  13.350  70.035  1.00  0.00    -0.334 A  
HETATM    7  N   UNL     1     -11.604  14.379  69.219  1.00  0.00    -0.284 N  
HETATM    8  C   UNL     1     -11.902  12.027  69.647  1.00  0.00    -0.401 A  
HETATM    9  C   UNL     1     -12.432  10.991  70.426  1.00  0.00    -0.397 A  
HETATM   10  H   UNL     1     -11.211  14.123  68.314  1.00  0.00     0.000 HD 
HETATM   11  C   UNL     1     -13.167  11.264  71.584  1.00  0.00    -0.327 A  
HETATM   12  C   UNL     1     -13.339  12.600  71.974  1.00  0.00    -0.555 A  
ENDROOT
BRANCH  11  13
HETATM   13  O   UNL     1     -13.660  10.147  72.218  1.00  0.00    -0.355 OA 
BRANCH  13  14
HETATM   14  C   UNL     1     -12.896   8.946  72.106  1.00  0.00    -0.409 C  
BRANCH  14  15
HETATM   15  C   UNL     1     -13.795   7.755  71.697  1.00  0.00    -0.465 C  
BRANCH  15  16
HETATM   16  C   UNL     1     -12.913   6.519  71.472  1.00  0.00     0.003 C  
BRANCH  16  17
HETATM   17  C   UNL     1     -11.393   6.670  71.608  1.00  0.00    -0.319 C  
BRANCH  17  18
HETATM   18  C   UNL     1     -10.635   6.721  70.330  1.00  0.00    -0.227 A  
HETATM   19  N   UNL     1     -11.042   6.088  69.242  1.00  0.00    -0.380 NA 
HETATM   20  N   UNL     1     -10.179   6.413  68.242  1.00  0.00    -0.156 NA 
HETATM   21  N   UNL     1      -9.234   7.215  68.688  1.00  0.00    -0.136 NA 
HETATM   22  N   UNL     1      -9.530   7.474  69.984  1.00  0.00    -0.161 NA 
BRANCH  22  23
HETATM   23  C   UNL     1      -8.617   8.352  70.713  1.00  0.00    -0.145 C  
HETATM   24  C   UNL     1      -7.333   7.612  71.181  1.00  0.00    -0.073 C  
HETATM   25  C   UNL     1      -6.438   7.247  69.993  1.00  0.00    -0.035 C  
HETATM   26  C   UNL     1      -6.011   8.497  69.231  1.00  0.00    -0.041 C  
HETATM   27  C   UNL     1      -7.199   9.379  68.845  1.00  0.00    -0.072 C  
HETATM   28  C   UNL     1      -8.143   9.641  70.021  1.00  0.00    -0.190 C  
ENDBRANCH  22  23
ENDBRANCH  17  18
ENDBRANCH  16  17
ENDBRANCH  15  16
ENDBRANCH  14  15
ENDBRANCH  13  14
ENDBRANCH  11  13
TORSDOF 7
ENDMDL
MODEL      228
REMARK 921   NORMALIZED FREE ENERGY PREDICTED BY IDOCK:   -4.75 KCAL/MOL
REMARK 922        TOTAL FREE ENERGY PREDICTED BY IDOCK:   -7.71 KCAL/MOL
REMARK 923 INTER-LIGAND FREE ENERGY PREDICTED BY IDOCK:   -7.26 KCAL/MOL
REMARK 924 INTRA-LIGAND FREE ENERGY PREDICTED BY IDOCK:   -0.45 KCAL/MOL
REMARK 927      BINDING AFFINITY PREDICTED BY RF-SCORE:    0.00 PKD
ROOT
HETATM    1  O   UNL     1      -7.840   5.780  64.971  1.00  0.00    -0.094 OA 
HETATM    2  C   UNL     1      -8.126   6.970  64.863  1.00  0.00    -0.107 C  
HETATM    3  C   UNL     1      -7.512   7.858  63.806  1.00  0.00    -0.114 C  
HETATM    4  C   UNL     1      -8.462   8.953  63.337  1.00  0.00    -0.150 C  
HETATM    5  C   UNL     1      -9.173   9.627  64.480  1.00  0.00    -0.277 A  
HETATM    6  C   UNL     1      -9.386   8.908  65.663  1.00  0.00    -0.191 A  
HETATM    7  N   UNL     1      -8.927   7.593  65.779  1.00  0.00    -0.354 N  
HETATM    8  C   UNL     1     -10.101   9.479  66.712  1.00  0.00    -0.312 A  
HETATM    9  C   UNL     1     -10.618  10.773  66.580  1.00  0.00    -0.291 A  
HETATM   10  H   UNL     1      -9.209   7.062  66.603  1.00  0.00     0.000 HD 
HETATM   11  C   UNL     1     -10.450  11.500  65.397  1.00  0.00    -0.281 A  
HETATM   12  C   UNL     1      -9.723  10.922  64.348  1.00  0.00    -0.342 A  
ENDROOT
BRANCH  11  13
HETATM   13  O   UNL     1     -11.051  12.738  65.403  1.00  0.00    -0.277 OA 
BRANCH  13  14
HETATM   14  C   UNL     1     -11.418  13.289  64.139  1.00  0.00    -0.396 C  
BRANCH  14  15
HETATM   15  C   UNL     1     -12.014  14.708  64.304  1.00  0.00    -0.406 C  
BRANCH  15  16
HETATM   16  C   UNL     1     -11.630  15.251  65.688  1.00  0.00    -0.039 C  
BRANCH  16  17
HETATM   17  C   UNL     1     -10.618  16.399  65.768  1.00  0.00    -0.327 C  
BRANCH  17  18
HETATM   18  C   UNL     1      -9.424  16.147  66.618  1.00  0.00    -0.247 A  
HETATM   19  N   UNL     1      -8.632  15.104  66.429  1.00  0.00    -0.196 NA 
HETATM   20  N   UNL     1      -7.599  15.220  67.308  1.00  0.00    -0.204 NA 
HETATM   21  N   UNL     1      -7.744  16.298  68.052  1.00  0.00    -0.145 NA 
HETATM   22  N   UNL     1      -8.851  16.933  67.599  1.00  0.00    -0.212 NA 
BRANCH  22  23
HETATM   23  C   UNL     1      -9.231  18.172  68.272  1.00  0.00    -0.298 C  
HETATM   24  C   UNL     1      -8.109  19.246  68.213  1.00  0.00    -0.367 C  
HETATM   25  C   UNL     1      -7.923  19.777  66.789  1.00  0.00    -0.323 C  
HETATM   26  C   UNL     1      -9.210  20.412  66.274  1.00  0.00    -0.222 C  
HETATM   27  C   UNL     1     -10.417  19.485  66.421  1.00  0.00    -0.597 C  
HETATM   28  C   UNL     1     -10.523  18.876  67.821  1.00  0.00    -0.487 C  
ENDBRANCH  22  23
ENDBRANCH  17  18
ENDBRANCH  16  17
ENDBRANCH  15  16
ENDBRANCH  14  15
ENDBRANCH  13  14
ENDBRANCH  11  13
TORSDOF 7
ENDMDL
MODEL      229
REMARK 921   NORMALIZED FREE ENERGY PREDICTED BY IDOCK:   -4.75 KCAL/MOL
REMARK 922        TOTAL FREE ENERGY PREDICTED BY IDOCK:   -7.70 KCAL/MOL
REMARK 923 INTER-LIGAND FREE ENERGY PREDICTED BY IDOCK:   -7.08 KCAL/MOL
REMARK 924 INTRA-LIGAND FREE ENERGY PREDICTED BY IDOCK:   -0.62 KCAL/MOL
REMARK 927      BINDING AFFINITY PREDICTED BY RF-SCORE:    0.00 PKD
ROOT
HETATM    1  O   UNL     1      -6.480   7.401  67.764  1.00  0.00    -0.046 OA 
HETATM    2  C   UNL     1      -7.079   8.407  67.391  1.00  0.00    -0.080 C  
HETATM    3  C   UNL     1      -6.412   9.493  66.579  1.00  0.00    -0.067 C  
HETATM    4  C   UNL     1      -7.374  10.179  65.617  1.00  0.00    -0.144 C  
HETATM    5  C   UNL     1      -8.695  10.508  66.262  1.00  0.00    -0.159 A  
HETATM    6  C   UNL     1      -9.140   9.722  67.332  1.00  0.00    -0.134 A  
HETATM    7  N   UNL     1      -8.358   8.663  67.801  1.00  0.00    -0.118 N  
HETATM    8  C   UNL     1     -10.387   9.958  67.903  1.00  0.00    -0.256 A  
HETATM    9  C   UNL     1     -11.204  10.977  67.400  1.00  0.00    -0.355 A  
HETATM   10  H   UNL     1      -8.769   8.039  68.494  1.00  0.00     0.000 HD 
HETATM   11  C   UNL     1     -10.799  11.754  66.309  1.00  0.00    -0.281 A  
HETATM   12  C   UNL     1      -9.539  11.516  65.744  1.00  0.00    -0.259 A  
ENDROOT
BRANCH  11  13
HETATM   13  O   UNL     1     -11.726  12.685  65.902  1.00  0.00    -0.375 OA 
BRANCH  13  14
HETATM   14  C   UNL     1     -12.335  13.484  66.916  1.00  0.00    -0.238 C  
BRANCH  14  15
HETATM   15  C   UNL     1     -11.413  14.657  67.325  1.00  0.00    -0.386 C  
BRANCH  15  16
HETATM   16  C   UNL     1     -10.862  15.324  66.057  1.00  0.00    -0.331 C  
BRANCH  16  17
HETATM   17  C   UNL     1      -9.566  16.136  66.161  1.00  0.00    -0.359 C  
BRANCH  17  18
HETATM   18  C   UNL     1      -9.737  17.607  66.293  1.00  0.00    -0.263 A  
HETATM   19  N   UNL     1     -10.601  18.285  65.554  1.00  0.00    -0.576 NA 
HETATM   20  N   UNL     1     -10.569  19.576  65.984  1.00  0.00    -0.501 NA 
HETATM   21  N   UNL     1      -9.692  19.719  66.957  1.00  0.00    -0.355 NA 
HETATM   22  N   UNL     1      -9.197  18.484  67.213  1.00  0.00    -0.274 NA 
BRANCH  22  23
HETATM   23  C   UNL     1      -8.189  18.375  68.264  1.00  0.00    -0.299 C  
HETATM   24  C   UNL     1      -6.945  17.561  67.810  1.00  0.00    -0.180 C  
HETATM   25  C   UNL     1      -6.134  18.326  66.761  1.00  0.00    -0.182 C  
HETATM   26  C   UNL     1      -5.647  19.660  67.316  1.00  0.00    -0.173 C  
HETATM   27  C   UNL     1      -6.780  20.487  67.925  1.00  0.00    -0.346 C  
HETATM   28  C   UNL     1      -7.649  19.673  68.889  1.00  0.00    -0.344 C  
ENDBRANCH  22  23
ENDBRANCH  17  18
ENDBRANCH  16  17
ENDBRANCH  15  16
ENDBRANCH  14  15
ENDBRANCH  13  14
ENDBRANCH  11  13
TORSDOF 7
ENDMDL
MODEL      230
REMARK 921   NORMALIZED FREE ENERGY PREDICTED BY IDOCK:   -4.74 KCAL/MOL
REMARK 922        TOTAL FREE ENERGY PREDICTED BY IDOCK:   -7.70 KCAL/MOL
REMARK 923 INTER-LIGAND FREE ENERGY PREDICTED BY IDOCK:   -6.19 KCAL/MOL
REMARK 924 INTRA-LIGAND FREE ENERGY PREDICTED BY IDOCK:   -1.51 KCAL/MOL
REMARK 927      BINDING AFFINITY PREDICTED BY RF-SCORE:    0.00 PKD
ROOT
HETATM    1  O   UNL     1      -9.713   4.905  65.527  1.00  0.00    -0.162 OA 
HETATM    2  C   UNL     1      -9.004   5.908  65.478  1.00  0.00    -0.050 C  
HETATM    3  C   UNL     1      -8.180   6.260  64.262  1.00  0.00    -0.021 C  
HETATM    4  C   UNL     1      -8.028   7.765  64.073  1.00  0.00    -0.104 C  
HETATM    5  C   UNL     1      -7.704   8.476  65.360  1.00  0.00    -0.095 A  
HETATM    6  C   UNL     1      -8.127   7.913  66.571  1.00  0.00    -0.107 A  
HETATM    7  N   UNL     1      -8.823   6.701  66.577  1.00  0.00    -0.134 N  
HETATM    8  C   UNL     1      -7.903   8.581  67.770  1.00  0.00    -0.103 A  
HETATM    9  C   UNL     1      -7.262   9.826  67.767  1.00  0.00    -0.088 A  
HETATM   10  H   UNL     1      -9.223   6.387  67.461  1.00  0.00     0.000 HD 
HETATM   11  C   UNL     1      -6.860  10.427  66.570  1.00  0.00    -0.107 A  
HETATM   12  C   UNL     1      -7.082   9.745  65.366  1.00  0.00    -0.113 A  
ENDROOT
BRANCH  11  13
HETATM   13  O   UNL     1      -6.283  11.667  66.725  1.00  0.00    -0.143 OA 
BRANCH  13  14
HETATM   14  C   UNL     1      -6.827  12.515  67.736  1.00  0.00    -0.120 C  
BRANCH  14  15
HETATM   15  C   UNL     1      -8.116  13.213  67.240  1.00  0.00    -0.151 C  
BRANCH  15  16
HETATM   16  C   UNL     1      -8.895  13.742  68.453  1.00  0.00    -0.165 C  
BRANCH  16  17
HETATM   17  C   UNL     1     -10.241  14.435  68.212  1.00  0.00    -0.241 C  
BRANCH  17  18
HETATM   18  C   UNL     1     -10.440  14.997  66.850  1.00  0.00    -0.279 A  
HETATM   19  N   UNL     1      -9.809  16.085  66.437  1.00  0.00    -0.269 NA 
HETATM   20  N   UNL     1     -10.145  16.271  65.132  1.00  0.00    -0.486 NA 
HETATM   21  N   UNL     1     -10.986  15.339  64.732  1.00  0.00    -0.410 NA 
HETATM   22  N   UNL     1     -11.142  14.489  65.775  1.00  0.00    -0.317 NA 
BRANCH  22  23
HETATM   23  C   UNL     1     -12.042  13.355  65.581  1.00  0.00    -0.434 C  
HETATM   24  C   UNL     1     -12.139  12.925  64.091  1.00  0.00    -0.503 C  
HETATM   25  C   UNL     1     -10.830  12.295  63.608  1.00  0.00    -0.522 C  
HETATM   26  C   UNL     1     -10.484  11.060  64.433  1.00  0.00    -0.422 C  
HETATM   27  C   UNL     1     -10.503  11.339  65.937  1.00  0.00    -0.314 C  
HETATM   28  C   UNL     1     -11.773  12.070  66.382  1.00  0.00    -0.326 C  
ENDBRANCH  22  23
ENDBRANCH  17  18
ENDBRANCH  16  17
ENDBRANCH  15  16
ENDBRANCH  14  15
ENDBRANCH  13  14
ENDBRANCH  11  13
TORSDOF 7
ENDMDL
MODEL      231
REMARK 921   NORMALIZED FREE ENERGY PREDICTED BY IDOCK:   -4.70 KCAL/MOL
REMARK 922        TOTAL FREE ENERGY PREDICTED BY IDOCK:   -7.64 KCAL/MOL
REMARK 923 INTER-LIGAND FREE ENERGY PREDICTED BY IDOCK:   -7.41 KCAL/MOL
REMARK 924 INTRA-LIGAND FREE ENERGY PREDICTED BY IDOCK:   -0.23 KCAL/MOL
REMARK 927      BINDING AFFINITY PREDICTED BY RF-SCORE:    0.00 PKD
ROOT
HETATM    1  O   UNL     1     -13.252  13.821  73.041  1.00  0.00    -0.534 OA 
HETATM    2  C   UNL     1     -13.013  14.154  71.882  1.00  0.00    -0.360 C  
HETATM    3  C   UNL     1     -13.234  15.563  71.382  1.00  0.00    -0.587 C  
HETATM    4  C   UNL     1     -12.239  15.962  70.299  1.00  0.00    -0.264 C  
HETATM    5  C   UNL     1     -12.048  14.882  69.267  1.00  0.00    -0.286 A  
HETATM    6  C   UNL     1     -12.255  13.547  69.638  1.00  0.00    -0.247 A  
HETATM    7  N   UNL     1     -12.650  13.232  70.941  1.00  0.00    -0.335 N  
HETATM    8  C   UNL     1     -12.019  12.523  68.727  1.00  0.00    -0.283 A  
HETATM    9  C   UNL     1     -11.563  12.825  67.438  1.00  0.00    -0.415 A  
HETATM   10  H   UNL     1     -12.669  12.248  71.207  1.00  0.00     0.000 HD 
HETATM   11  C   UNL     1     -11.315  14.147  67.053  1.00  0.00    -0.332 A  
HETATM   12  C   UNL     1     -11.562  15.175  67.973  1.00  0.00    -0.345 A  
ENDROOT
BRANCH  11  13
HETATM   13  O   UNL     1     -10.829  14.282  65.773  1.00  0.00    -0.291 OA 
BRANCH  13  14
HETATM   14  C   UNL     1     -11.530  13.595  64.736  1.00  0.00    -0.352 C  
BRANCH  14  15
HETATM   15  C   UNL     1     -10.562  12.734  63.889  1.00  0.00    -0.427 C  
BRANCH  15  16
HETATM   16  C   UNL     1     -10.599  11.289  64.405  1.00  0.00    -0.410 C  
BRANCH  16  17
HETATM   17  C   UNL     1      -9.912  10.970  65.738  1.00  0.00    -0.294 C  
BRANCH  17  18
HETATM   18  C   UNL     1      -9.791   9.525  66.070  1.00  0.00    -0.283 A  
HETATM   19  N   UNL     1     -10.625   8.920  66.900  1.00  0.00    -0.236 NA 
HETATM   20  N   UNL     1     -10.292   7.601  66.911  1.00  0.00    -0.314 NA 
HETATM   21  N   UNL     1      -9.258   7.377  66.126  1.00  0.00    -0.141 NA 
HETATM   22  N   UNL     1      -8.960   8.559  65.536  1.00  0.00    -0.168 NA 
BRANCH  22  23
HETATM   23  C   UNL     1      -7.832   8.575  64.607  1.00  0.00    -0.131 C  
HETATM   24  C   UNL     1      -7.168   9.977  64.507  1.00  0.00    -0.139 C  
HETATM   25  C   UNL     1      -6.435  10.337  65.801  1.00  0.00    -0.119 C  
HETATM   26  C   UNL     1      -5.342   9.319  66.109  1.00  0.00    -0.037 C  
HETATM   27  C   UNL     1      -5.863   7.882  66.089  1.00  0.00    -0.037 C  
HETATM   28  C   UNL     1      -6.689   7.573  64.837  1.00  0.00    -0.047 C  
ENDBRANCH  22  23
ENDBRANCH  17  18
ENDBRANCH  16  17
ENDBRANCH  15  16
ENDBRANCH  14  15
ENDBRANCH  13  14
ENDBRANCH  11  13
TORSDOF 7
ENDMDL
MODEL      232
REMARK 921   NORMALIZED FREE ENERGY PREDICTED BY IDOCK:   -4.70 KCAL/MOL
REMARK 922        TOTAL FREE ENERGY PREDICTED BY IDOCK:   -7.63 KCAL/MOL
REMARK 923 INTER-LIGAND FREE ENERGY PREDICTED BY IDOCK:   -6.83 KCAL/MOL
REMARK 924 INTRA-LIGAND FREE ENERGY PREDICTED BY IDOCK:   -0.80 KCAL/MOL
REMARK 927      BINDING AFFINITY PREDICTED BY RF-SCORE:    0.00 PKD
ROOT
HETATM    1  O   UNL     1      -8.971   2.298  66.934  1.00  0.00    -0.129 OA 
HETATM    2  C   UNL     1      -9.245   3.491  67.055  1.00  0.00    -0.190 C  
HETATM    3  C   UNL     1      -9.585   4.368  65.873  1.00  0.00    -0.188 C  
HETATM    4  C   UNL     1     -10.580   5.467  66.226  1.00  0.00    -0.222 C  
HETATM    5  C   UNL     1     -10.242   6.153  67.523  1.00  0.00    -0.218 A  
HETATM    6  C   UNL     1      -9.534   5.442  68.501  1.00  0.00    -0.123 A  
HETATM    7  N   UNL     1      -9.134   4.124  68.261  1.00  0.00    -0.123 N  
HETATM    8  C   UNL     1      -9.267   6.025  69.736  1.00  0.00    -0.153 A  
HETATM    9  C   UNL     1      -9.718   7.322  70.007  1.00  0.00    -0.175 A  
HETATM   10  H   UNL     1      -8.734   3.600  69.039  1.00  0.00     0.000 HD 
HETATM   11  C   UNL     1     -10.457   8.041  69.062  1.00  0.00    -0.199 A  
HETATM   12  C   UNL     1     -10.715   7.451  67.817  1.00  0.00    -0.249 A  
ENDROOT
BRANCH  11  13
HETATM   13  O   UNL     1     -10.866   9.284  69.490  1.00  0.00    -0.232 OA 
BRANCH  13  14
HETATM   14  C   UNL     1     -10.201  10.416  68.930  1.00  0.00    -0.205 C  
BRANCH  14  15
HETATM   15  C   UNL     1     -10.959  10.947  67.691  1.00  0.00    -0.350 C  
BRANCH  15  16
HETATM   16  C   UNL     1     -10.115  10.678  66.436  1.00  0.00    -0.279 C  
BRANCH  16  17
HETATM   17  C   UNL     1      -9.791  11.853  65.507  1.00  0.00    -0.257 C  
BRANCH  17  18
HETATM   18  C   UNL     1     -10.905  12.806  65.263  1.00  0.00    -0.291 A  
HETATM   19  N   UNL     1     -12.084  12.413  64.809  1.00  0.00    -0.419 NA 
HETATM   20  N   UNL     1     -12.891  13.508  64.785  1.00  0.00    -0.701 NA 
HETATM   21  N   UNL     1     -12.235  14.576  65.192  1.00  0.00    -0.373 NA 
HETATM   22  N   UNL     1     -11.001  14.153  65.557  1.00  0.00    -0.300 NA 
BRANCH  22  23
HETATM   23  C   UNL     1     -10.069  15.163  66.050  1.00  0.00    -0.302 C  
HETATM   24  C   UNL     1     -10.793  16.338  66.765  1.00  0.00    -0.125 C  
HETATM   25  C   UNL     1     -11.403  15.886  68.095  1.00  0.00    -0.311 C  
HETATM   26  C   UNL     1     -10.325  15.355  69.034  1.00  0.00    -0.243 C  
HETATM   27  C   UNL     1      -9.453  14.286  68.375  1.00  0.00    -0.213 C  
HETATM   28  C   UNL     1      -8.943  14.713  66.996  1.00  0.00    -0.258 C  
ENDBRANCH  22  23
ENDBRANCH  17  18
ENDBRANCH  16  17
ENDBRANCH  15  16
ENDBRANCH  14  15
ENDBRANCH  13  14
ENDBRANCH  11  13
TORSDOF 7
ENDMDL
MODEL      233
REMARK 921   NORMALIZED FREE ENERGY PREDICTED BY IDOCK:   -4.67 KCAL/MOL
REMARK 922        TOTAL FREE ENERGY PREDICTED BY IDOCK:   -7.60 KCAL/MOL
REMARK 923 INTER-LIGAND FREE ENERGY PREDICTED BY IDOCK:   -6.16 KCAL/MOL
REMARK 924 INTRA-LIGAND FREE ENERGY PREDICTED BY IDOCK:   -1.44 KCAL/MOL
REMARK 927      BINDING AFFINITY PREDICTED BY RF-SCORE:    0.00 PKD
ROOT
HETATM    1  O   UNL     1      -5.351  13.216  72.031  1.00  0.00    -0.352 OA 
HETATM    2  C   UNL     1      -5.832  13.333  70.906  1.00  0.00    -0.099 C  
HETATM    3  C   UNL     1      -5.513  12.373  69.784  1.00  0.00    -0.092 C  
HETATM    4  C   UNL     1      -6.678  12.192  68.819  1.00  0.00    -0.088 C  
HETATM    5  C   UNL     1      -7.327  13.499  68.449  1.00  0.00    -0.115 A  
HETATM    6  C   UNL     1      -7.264  14.567  69.353  1.00  0.00    -0.120 A  
HETATM    7  N   UNL     1      -6.592  14.419  70.570  1.00  0.00    -0.376 N  
HETATM    8  C   UNL     1      -7.913  15.764  69.071  1.00  0.00    -0.214 A  
HETATM    9  C   UNL     1      -8.641  15.900  67.882  1.00  0.00    -0.164 A  
HETATM   10  H   UNL     1      -6.674  15.172  71.253  1.00  0.00     0.000 HD 
HETATM   11  C   UNL     1      -8.750  14.839  66.978  1.00  0.00    -0.235 A  
HETATM   12  C   UNL     1      -8.087  13.638  67.266  1.00  0.00    -0.152 A  
ENDROOT
BRANCH  11  13
HETATM   13  O   UNL     1      -9.532  15.109  65.879  1.00  0.00    -0.318 OA 
BRANCH  13  14
HETATM   14  C   UNL     1     -10.836  15.636  66.123  1.00  0.00    -0.264 C  
BRANCH  14  15
HETATM   15  C   UNL     1     -11.641  14.709  67.065  1.00  0.00    -0.385 C  
BRANCH  15  16
HETATM   16  C   UNL     1     -11.895  13.373  66.353  1.00  0.00    -0.441 C  
BRANCH  16  17
HETATM   17  C   UNL     1     -11.449  12.079  67.043  1.00  0.00    -0.402 C  
BRANCH  17  18
HETATM   18  C   UNL     1     -10.725  11.107  66.182  1.00  0.00    -0.225 A  
HETATM   19  N   UNL     1     -10.209  11.448  65.012  1.00  0.00    -0.265 NA 
HETATM   20  N   UNL     1      -9.547  10.361  64.533  1.00  0.00    -0.283 NA 
HETATM   21  N   UNL     1      -9.656   9.347  65.367  1.00  0.00    -0.266 NA 
HETATM   22  N   UNL     1     -10.341   9.805  66.442  1.00  0.00    -0.211 NA 
BRANCH  22  23
HETATM   23  C   UNL     1     -10.599   8.857  67.523  1.00  0.00    -0.237 C  
HETATM   24  C   UNL     1      -9.558   7.704  67.558  1.00  0.00    -0.178 C  
HETATM   25  C   UNL     1      -8.180   8.212  67.991  1.00  0.00    -0.129 C  
HETATM   26  C   UNL     1      -8.243   8.834  69.382  1.00  0.00    -0.108 C  
HETATM   27  C   UNL     1      -9.342   9.890  69.500  1.00  0.00    -0.236 C  
HETATM   28  C   UNL     1     -10.688   9.400  68.959  1.00  0.00    -0.209 C  
ENDBRANCH  22  23
ENDBRANCH  17  18
ENDBRANCH  16  17
ENDBRANCH  15  16
ENDBRANCH  14  15
ENDBRANCH  13  14
ENDBRANCH  11  13
TORSDOF 7
ENDMDL
MODEL      234
REMARK 921   NORMALIZED FREE ENERGY PREDICTED BY IDOCK:   -4.66 KCAL/MOL
REMARK 922        TOTAL FREE ENERGY PREDICTED BY IDOCK:   -7.58 KCAL/MOL
REMARK 923 INTER-LIGAND FREE ENERGY PREDICTED BY IDOCK:   -7.00 KCAL/MOL
REMARK 924 INTRA-LIGAND FREE ENERGY PREDICTED BY IDOCK:   -0.57 KCAL/MOL
REMARK 927      BINDING AFFINITY PREDICTED BY RF-SCORE:    0.00 PKD
ROOT
HETATM    1  O   UNL     1      -5.477  13.627  71.851  1.00  0.00    -0.263 OA 
HETATM    2  C   UNL     1      -6.006  13.535  70.745  1.00  0.00    -0.108 C  
HETATM    3  C   UNL     1      -5.748  12.372  69.817  1.00  0.00    -0.113 C  
HETATM    4  C   UNL     1      -6.956  12.032  68.953  1.00  0.00    -0.104 C  
HETATM    5  C   UNL     1      -7.605  13.257  68.365  1.00  0.00    -0.137 A  
HETATM    6  C   UNL     1      -7.489  14.477  69.044  1.00  0.00    -0.131 A  
HETATM    7  N   UNL     1      -6.766  14.552  70.238  1.00  0.00    -0.361 N  
HETATM    8  C   UNL     1      -8.135  15.611  68.562  1.00  0.00    -0.147 A  
HETATM    9  C   UNL     1      -8.913  15.531  67.400  1.00  0.00    -0.203 A  
HETATM   10  H   UNL     1      -6.809  15.423  70.766  1.00  0.00     0.000 HD 
HETATM   11  C   UNL     1      -9.074  14.319  66.723  1.00  0.00    -0.249 A  
HETATM   12  C   UNL     1      -8.414  13.182  67.209  1.00  0.00    -0.199 A  
ENDROOT
BRANCH  11  13
HETATM   13  O   UNL     1      -9.900  14.389  65.625  1.00  0.00    -0.324 OA 
BRANCH  13  14
HETATM   14  C   UNL     1     -11.277  14.680  65.865  1.00  0.00    -0.336 C  
BRANCH  14  15
HETATM   15  C   UNL     1     -11.928  13.589  66.749  1.00  0.00    -0.453 C  
BRANCH  15  16
HETATM   16  C   UNL     1     -11.894  12.252  65.996  1.00  0.00    -0.409 C  
BRANCH  16  17
HETATM   17  C   UNL     1     -11.083  11.096  66.594  1.00  0.00    -0.255 C  
BRANCH  17  18
HETATM   18  C   UNL     1     -11.262  10.872  68.053  1.00  0.00    -0.314 A  
HETATM   19  N   UNL     1     -12.159  11.537  68.764  1.00  0.00    -0.471 NA 
HETATM   20  N   UNL     1     -12.123  11.033  70.027  1.00  0.00    -0.337 NA 
HETATM   21  N   UNL     1     -11.211  10.086  70.122  1.00  0.00    -0.283 NA 
HETATM   22  N   UNL     1     -10.696   9.922  68.880  1.00  0.00    -0.216 NA 
BRANCH  22  23
HETATM   23  C   UNL     1      -9.650   8.915  68.721  1.00  0.00    -0.157 C  
HETATM   24  C   UNL     1      -9.802   7.739  69.724  1.00  0.00    -0.178 C  
HETATM   25  C   UNL     1     -11.028   6.883  69.394  1.00  0.00    -0.274 C  
HETATM   26  C   UNL     1     -10.919   6.295  67.991  1.00  0.00    -0.418 C  
HETATM   27  C   UNL     1     -10.622   7.360  66.934  1.00  0.00    -0.375 C  
HETATM   28  C   UNL     1      -9.463   8.277  67.334  1.00  0.00    -0.188 C  
ENDBRANCH  22  23
ENDBRANCH  17  18
ENDBRANCH  16  17
ENDBRANCH  15  16
ENDBRANCH  14  15
ENDBRANCH  13  14
ENDBRANCH  11  13
TORSDOF 7
ENDMDL
MODEL      235
REMARK 921   NORMALIZED FREE ENERGY PREDICTED BY IDOCK:   -4.66 KCAL/MOL
REMARK 922        TOTAL FREE ENERGY PREDICTED BY IDOCK:   -7.57 KCAL/MOL
REMARK 923 INTER-LIGAND FREE ENERGY PREDICTED BY IDOCK:   -6.78 KCAL/MOL
REMARK 924 INTRA-LIGAND FREE ENERGY PREDICTED BY IDOCK:   -0.79 KCAL/MOL
REMARK 927      BINDING AFFINITY PREDICTED BY RF-SCORE:    0.00 PKD
ROOT
HETATM    1  O   UNL     1     -11.961  15.400  69.079  1.00  0.00    -0.337 OA 
HETATM    2  C   UNL     1     -12.125  14.442  69.832  1.00  0.00    -0.344 C  
HETATM    3  C   UNL     1     -12.567  14.606  71.267  1.00  0.00    -0.403 C  
HETATM    4  C   UNL     1     -13.415  13.438  71.756  1.00  0.00    -0.452 C  
HETATM    5  C   UNL     1     -12.843  12.105  71.355  1.00  0.00    -0.378 A  
HETATM    6  C   UNL     1     -12.055  12.025  70.200  1.00  0.00    -0.298 A  
HETATM    7  N   UNL     1     -11.794  13.173  69.447  1.00  0.00    -0.321 N  
HETATM    8  C   UNL     1     -11.570  10.796  69.766  1.00  0.00    -0.393 A  
HETATM    9  C   UNL     1     -11.878   9.632  70.479  1.00  0.00    -0.284 A  
HETATM   10  H   UNL     1     -11.324  13.056  68.549  1.00  0.00     0.000 HD 
HETATM   11  C   UNL     1     -12.692   9.677  71.616  1.00  0.00    -0.407 A  
HETATM   12  C   UNL     1     -13.171  10.920  72.053  1.00  0.00    -0.456 A  
ENDROOT
BRANCH  11  13
HETATM   13  O   UNL     1     -12.941   8.449  72.184  1.00  0.00    -0.339 OA 
BRANCH  13  14
HETATM   14  C   UNL     1     -12.833   7.307  71.335  1.00  0.00    -0.382 C  
BRANCH  14  15
HETATM   15  C   UNL     1     -11.993   6.194  72.007  1.00  0.00    -0.310 C  
BRANCH  15  16
HETATM   16  C   UNL     1     -10.586   6.192  71.392  1.00  0.00    -0.294 C  
BRANCH  16  17
HETATM   17  C   UNL     1     -10.115   4.937  70.648  1.00  0.00    -0.306 C  
BRANCH  17  18
HETATM   18  C   UNL     1     -10.017   5.063  69.170  1.00  0.00    -0.196 A  
HETATM   19  N   UNL     1     -10.918   5.721  68.458  1.00  0.00    -0.196 NA 
HETATM   20  N   UNL     1     -10.487   5.720  67.167  1.00  0.00    -0.243 NA 
HETATM   21  N   UNL     1      -9.352   5.060  67.058  1.00  0.00    -0.122 NA 
HETATM   22  N   UNL     1      -9.002   4.687  68.313  1.00  0.00    -0.109 NA 
BRANCH  22  23
HETATM   23  C   UNL     1      -7.763   3.928  68.461  1.00  0.00    -0.061 C  
HETATM   24  C   UNL     1      -6.654   4.408  67.483  1.00  0.00    -0.046 C  
HETATM   25  C   UNL     1      -6.145   5.801  67.861  1.00  0.00    -0.022 C  
HETATM   26  C   UNL     1      -5.563   5.802  69.270  1.00  0.00    -0.008 C  
HETATM   27  C   UNL     1      -6.525   5.210  70.300  1.00  0.00    -0.034 C  
HETATM   28  C   UNL     1      -7.111   3.868  69.853  1.00  0.00    -0.042 C  
ENDBRANCH  22  23
ENDBRANCH  17  18
ENDBRANCH  16  17
ENDBRANCH  15  16
ENDBRANCH  14  15
ENDBRANCH  13  14
ENDBRANCH  11  13
TORSDOF 7
ENDMDL
MODEL      236
REMARK 921   NORMALIZED FREE ENERGY PREDICTED BY IDOCK:   -4.65 KCAL/MOL
REMARK 922        TOTAL FREE ENERGY PREDICTED BY IDOCK:   -7.57 KCAL/MOL
REMARK 923 INTER-LIGAND FREE ENERGY PREDICTED BY IDOCK:   -6.76 KCAL/MOL
REMARK 924 INTRA-LIGAND FREE ENERGY PREDICTED BY IDOCK:   -0.81 KCAL/MOL
REMARK 927      BINDING AFFINITY PREDICTED BY RF-SCORE:    0.00 PKD
ROOT
HETATM    1  O   UNL     1     -12.549   6.644  71.857  1.00  0.00    -0.350 OA 
HETATM    2  C   UNL     1     -11.647   6.479  71.038  1.00  0.00    -0.348 C  
HETATM    3  C   UNL     1     -10.214   6.237  71.450  1.00  0.00    -0.237 C  
HETATM    4  C   UNL     1      -9.465   5.344  70.468  1.00  0.00    -0.215 C  
HETATM    5  C   UNL     1      -9.719   5.727  69.034  1.00  0.00    -0.180 A  
HETATM    6  C   UNL     1     -10.928   6.354  68.704  1.00  0.00    -0.330 A  
HETATM    7  N   UNL     1     -11.870   6.633  69.698  1.00  0.00    -0.646 N  
HETATM    8  C   UNL     1     -11.221   6.657  67.378  1.00  0.00    -0.294 A  
HETATM    9  C   UNL     1     -10.310   6.325  66.368  1.00  0.00    -0.072 A  
HETATM   10  H   UNL     1     -12.784   6.973  69.404  1.00  0.00     0.000 HD 
HETATM   11  C   UNL     1      -9.112   5.667  66.665  1.00  0.00    -0.129 A  
HETATM   12  C   UNL     1      -8.820   5.372  68.004  1.00  0.00    -0.105 A  
ENDROOT
BRANCH  11  13
HETATM   13  O   UNL     1      -8.342   5.369  65.565  1.00  0.00    -0.121 OA 
BRANCH  13  14
HETATM   14  C   UNL     1      -7.262   6.255  65.268  1.00  0.00    -0.070 C  
BRANCH  14  15
HETATM   15  C   UNL     1      -7.713   7.370  64.294  1.00  0.00    -0.121 C  
BRANCH  15  16
HETATM   16  C   UNL     1      -7.403   8.736  64.923  1.00  0.00    -0.093 C  
BRANCH  16  17
HETATM   17  C   UNL     1      -8.569   9.582  65.446  1.00  0.00    -0.173 C  
BRANCH  17  18
HETATM   18  C   UNL     1      -9.139  10.559  64.480  1.00  0.00    -0.222 A  
HETATM   19  N   UNL     1      -8.663  10.697  63.253  1.00  0.00    -0.182 NA 
HETATM   20  N   UNL     1      -9.458  11.598  62.614  1.00  0.00    -0.223 NA 
HETATM   21  N   UNL     1     -10.403  12.038  63.421  1.00  0.00    -0.451 NA 
HETATM   22  N   UNL     1     -10.263  11.356  64.583  1.00  0.00    -0.273 NA 
BRANCH  22  23
HETATM   23  C   UNL     1     -11.203  11.668  65.656  1.00  0.00    -0.214 C  
HETATM   24  C   UNL     1     -10.486  12.106  66.963  1.00  0.00    -0.244 C  
HETATM   25  C   UNL     1      -9.824  13.477  66.800  1.00  0.00    -0.267 C  
HETATM   26  C   UNL     1     -10.857  14.542  66.450  1.00  0.00    -0.318 C  
HETATM   27  C   UNL     1     -11.724  14.143  65.256  1.00  0.00    -0.353 C  
HETATM   28  C   UNL     1     -12.287  12.725  65.386  1.00  0.00    -0.528 C  
ENDBRANCH  22  23
ENDBRANCH  17  18
ENDBRANCH  16  17
ENDBRANCH  15  16
ENDBRANCH  14  15
ENDBRANCH  13  14
ENDBRANCH  11  13
TORSDOF 7
ENDMDL
MODEL      237
REMARK 921   NORMALIZED FREE ENERGY PREDICTED BY IDOCK:   -4.64 KCAL/MOL
REMARK 922        TOTAL FREE ENERGY PREDICTED BY IDOCK:   -7.55 KCAL/MOL
REMARK 923 INTER-LIGAND FREE ENERGY PREDICTED BY IDOCK:   -7.08 KCAL/MOL
REMARK 924 INTRA-LIGAND FREE ENERGY PREDICTED BY IDOCK:   -0.47 KCAL/MOL
REMARK 927      BINDING AFFINITY PREDICTED BY RF-SCORE:    0.00 PKD
ROOT
HETATM    1  O   UNL     1      -7.161   5.379  66.046  1.00  0.00    -0.065 OA 
HETATM    2  C   UNL     1      -7.669   5.831  67.070  1.00  0.00    -0.101 C  
HETATM    3  C   UNL     1      -6.843   6.371  68.214  1.00  0.00    -0.071 C  
HETATM    4  C   UNL     1      -7.540   7.506  68.955  1.00  0.00    -0.105 C  
HETATM    5  C   UNL     1      -8.991   7.210  69.226  1.00  0.00    -0.138 A  
HETATM    6  C   UNL     1      -9.679   6.345  68.365  1.00  0.00    -0.131 A  
HETATM    7  N   UNL     1      -9.017   5.756  67.284  1.00  0.00    -0.113 N  
HETATM    8  C   UNL     1     -11.037   6.107  68.549  1.00  0.00    -0.352 A  
HETATM    9  C   UNL     1     -11.722   6.742  69.592  1.00  0.00    -0.164 A  
HETATM   10  H   UNL     1      -9.577   5.235  66.610  1.00  0.00     0.000 HD 
HETATM   11  C   UNL     1     -11.069   7.637  70.444  1.00  0.00    -0.258 A  
HETATM   12  C   UNL     1      -9.698   7.866  70.258  1.00  0.00    -0.183 A  
ENDROOT
BRANCH  11  13
HETATM   13  O   UNL     1     -11.883   8.213  71.392  1.00  0.00    -0.283 OA 
BRANCH  13  14
HETATM   14  C   UNL     1     -11.729   9.615  71.616  1.00  0.00    -0.369 C  
BRANCH  14  15
HETATM   15  C   UNL     1     -12.628  10.431  70.657  1.00  0.00    -0.435 C  
BRANCH  15  16
HETATM   16  C   UNL     1     -12.192  11.903  70.697  1.00  0.00    -0.424 C  
BRANCH  16  17
HETATM   17  C   UNL     1     -11.919  12.620  69.370  1.00  0.00    -0.318 C  
BRANCH  17  18
HETATM   18  C   UNL     1     -11.313  11.785  68.300  1.00  0.00    -0.282 A  
HETATM   19  N   UNL     1     -10.492  10.782  68.567  1.00  0.00    -0.176 NA 
HETATM   20  N   UNL     1     -10.196  10.180  67.384  1.00  0.00    -0.205 NA 
HETATM   21  N   UNL     1     -10.795  10.798  66.386  1.00  0.00    -0.161 NA 
HETATM   22  N   UNL     1     -11.553  11.774  66.940  1.00  0.00    -0.548 NA 
BRANCH  22  23
HETATM   23  C   UNL     1     -12.326  12.615  66.028  1.00  0.00    -0.103 C  
HETATM   24  C   UNL     1     -12.406  14.091  66.508  1.00  0.00    -0.442 C  
HETATM   25  C   UNL     1     -11.045  14.784  66.399  1.00  0.00    -0.340 C  
HETATM   26  C   UNL     1     -10.548  14.783  64.957  1.00  0.00    -0.452 C  
HETATM   27  C   UNL     1     -10.567  13.386  64.335  1.00  0.00    -0.423 C  
HETATM   28  C   UNL     1     -11.900  12.665  64.551  1.00  0.00    -0.441 C  
ENDBRANCH  22  23
ENDBRANCH  17  18
ENDBRANCH  16  17
ENDBRANCH  15  16
ENDBRANCH  14  15
ENDBRANCH  13  14
ENDBRANCH  11  13
TORSDOF 7
ENDMDL
MODEL      238
REMARK 921   NORMALIZED FREE ENERGY PREDICTED BY IDOCK:   -4.64 KCAL/MOL
REMARK 922        TOTAL FREE ENERGY PREDICTED BY IDOCK:   -7.55 KCAL/MOL
REMARK 923 INTER-LIGAND FREE ENERGY PREDICTED BY IDOCK:   -7.25 KCAL/MOL
REMARK 924 INTRA-LIGAND FREE ENERGY PREDICTED BY IDOCK:   -0.30 KCAL/MOL
REMARK 927      BINDING AFFINITY PREDICTED BY RF-SCORE:    0.00 PKD
ROOT
HETATM    1  O   UNL     1     -13.377  15.246  73.658  1.00  0.00    -0.416 OA 
HETATM    2  C   UNL     1     -13.166  14.709  72.573  1.00  0.00    -0.428 C  
HETATM    3  C   UNL     1     -13.118  15.489  71.279  1.00  0.00    -0.581 C  
HETATM    4  C   UNL     1     -12.151  14.885  70.268  1.00  0.00    -0.379 C  
HETATM    5  C   UNL     1     -12.280  13.388  70.170  1.00  0.00    -0.385 A  
HETATM    6  C   UNL     1     -12.739  12.674  71.284  1.00  0.00    -0.257 A  
HETATM    7  N   UNL     1     -13.087  13.349  72.458  1.00  0.00    -0.386 N  
HETATM    8  C   UNL     1     -12.804  11.285  71.249  1.00  0.00    -0.491 A  
HETATM    9  C   UNL     1     -12.398  10.597  70.099  1.00  0.00    -0.370 A  
HETATM   10  H   UNL     1     -13.296  12.790  73.284  1.00  0.00     0.000 HD 
HETATM   11  C   UNL     1     -11.903  11.283  68.985  1.00  0.00    -0.352 A  
HETATM   12  C   UNL     1     -11.848  12.683  69.025  1.00  0.00    -0.341 A  
ENDROOT
BRANCH  11  13
HETATM   13  O   UNL     1     -11.505  10.468  67.950  1.00  0.00    -0.417 OA 
BRANCH  13  14
HETATM   14  C   UNL     1     -10.585   9.423  68.262  1.00  0.00    -0.210 C  
BRANCH  14  15
HETATM   15  C   UNL     1     -10.449   8.433  67.080  1.00  0.00    -0.380 C  
BRANCH  15  16
HETATM   16  C   UNL     1     -10.803   7.021  67.569  1.00  0.00    -0.338 C  
BRANCH  16  17
HETATM   17  C   UNL     1     -10.536   5.835  66.635  1.00  0.00    -0.347 C  
BRANCH  17  18
HETATM   18  C   UNL     1      -9.215   5.174  66.797  1.00  0.00    -0.123 A  
HETATM   19  N   UNL     1      -8.283   5.649  67.608  1.00  0.00    -0.101 NA 
HETATM   20  N   UNL     1      -7.246   4.767  67.587  1.00  0.00    -0.069 NA 
HETATM   21  N   UNL     1      -7.503   3.769  66.767  1.00  0.00    -0.078 NA 
HETATM   22  N   UNL     1      -8.760   3.967  66.302  1.00  0.00    -0.112 NA 
BRANCH  22  23
HETATM   23  C   UNL     1      -9.285   2.982  65.359  1.00  0.00    -0.141 C  
HETATM   24  C   UNL     1     -10.145   3.633  64.240  1.00  0.00    -0.212 C  
HETATM   25  C   UNL     1      -9.279   4.461  63.286  1.00  0.00    -0.122 C  
HETATM   26  C   UNL     1      -8.220   3.590  62.620  1.00  0.00    -0.073 C  
HETATM   27  C   UNL     1      -7.404   2.786  63.633  1.00  0.00    -0.060 C  
HETATM   28  C   UNL     1      -8.286   2.054  64.648  1.00  0.00    -0.079 C  
ENDBRANCH  22  23
ENDBRANCH  17  18
ENDBRANCH  16  17
ENDBRANCH  15  16
ENDBRANCH  14  15
ENDBRANCH  13  14
ENDBRANCH  11  13
TORSDOF 7
ENDMDL
MODEL      239
REMARK 921   NORMALIZED FREE ENERGY PREDICTED BY IDOCK:   -4.61 KCAL/MOL
REMARK 922        TOTAL FREE ENERGY PREDICTED BY IDOCK:   -7.52 KCAL/MOL
REMARK 923 INTER-LIGAND FREE ENERGY PREDICTED BY IDOCK:   -7.03 KCAL/MOL
REMARK 924 INTRA-LIGAND FREE ENERGY PREDICTED BY IDOCK:   -0.48 KCAL/MOL
REMARK 927      BINDING AFFINITY PREDICTED BY RF-SCORE:    0.00 PKD
ROOT
HETATM    1  O   UNL     1     -10.062   6.789  69.630  1.00  0.00    -0.177 OA 
HETATM    2  C   UNL     1      -9.589   7.855  69.242  1.00  0.00    -0.157 C  
HETATM    3  C   UNL     1     -10.111   8.578  68.022  1.00  0.00    -0.245 C  
HETATM    4  C   UNL     1      -9.989  10.092  68.141  1.00  0.00    -0.176 C  
HETATM    5  C   UNL     1      -8.649  10.520  68.680  1.00  0.00    -0.139 A  
HETATM    6  C   UNL     1      -7.943   9.644  69.514  1.00  0.00    -0.125 A  
HETATM    7  N   UNL     1      -8.472   8.387  69.823  1.00  0.00    -0.125 N  
HETATM    8  C   UNL     1      -6.736  10.038  70.083  1.00  0.00    -0.128 A  
HETATM    9  C   UNL     1      -6.230  11.318  69.828  1.00  0.00    -0.124 A  
HETATM   10  H   UNL     1      -7.993   7.831  70.530  1.00  0.00     0.000 HD 
HETATM   11  C   UNL     1      -6.931  12.225  69.027  1.00  0.00    -0.078 A  
HETATM   12  C   UNL     1      -8.143  11.819  68.452  1.00  0.00    -0.150 A  
ENDROOT
BRANCH  11  13
HETATM   13  O   UNL     1      -6.328  13.456  68.905  1.00  0.00    -0.086 OA 
BRANCH  13  14
HETATM   14  C   UNL     1      -6.741  14.475  69.816  1.00  0.00    -0.150 C  
BRANCH  14  15
HETATM   15  C   UNL     1      -7.031  15.800  69.071  1.00  0.00    -0.150 C  
BRANCH  15  16
HETATM   16  C   UNL     1      -7.349  15.486  67.602  1.00  0.00    -0.197 C  
BRANCH  16  17
HETATM   17  C   UNL     1      -7.463  16.652  66.613  1.00  0.00    -0.311 C  
BRANCH  17  18
HETATM   18  C   UNL     1      -8.828  16.919  66.087  1.00  0.00    -0.244 A  
HETATM   19  N   UNL     1      -9.294  18.147  65.927  1.00  0.00    -0.492 NA 
HETATM   20  N   UNL     1     -10.521  18.038  65.351  1.00  0.00    -0.564 NA 
HETATM   21  N   UNL     1     -10.838  16.772  65.170  1.00  0.00    -0.591 NA 
HETATM   22  N   UNL     1      -9.765  16.047  65.568  1.00  0.00    -0.443 NA 
BRANCH  22  23
HETATM   23  C   UNL     1      -9.868  14.593  65.468  1.00  0.00    -0.292 C  
HETATM   24  C   UNL     1     -10.365  13.943  66.789  1.00  0.00    -0.272 C  
HETATM   25  C   UNL     1     -11.833  14.282  67.057  1.00  0.00    -0.455 C  
HETATM   26  C   UNL     1     -12.722  13.785  65.922  1.00  0.00    -0.452 C  
HETATM   27  C   UNL     1     -12.234  14.252  64.551  1.00  0.00    -0.476 C  
HETATM   28  C   UNL     1     -10.737  14.004  64.344  1.00  0.00    -0.236 C  
ENDBRANCH  22  23
ENDBRANCH  17  18
ENDBRANCH  16  17
ENDBRANCH  15  16
ENDBRANCH  14  15
ENDBRANCH  13  14
ENDBRANCH  11  13
TORSDOF 7
ENDMDL
MODEL      240
REMARK 921   NORMALIZED FREE ENERGY PREDICTED BY IDOCK:   -4.61 KCAL/MOL
REMARK 922        TOTAL FREE ENERGY PREDICTED BY IDOCK:   -7.51 KCAL/MOL
REMARK 923 INTER-LIGAND FREE ENERGY PREDICTED BY IDOCK:   -6.76 KCAL/MOL
REMARK 924 INTRA-LIGAND FREE ENERGY PREDICTED BY IDOCK:   -0.75 KCAL/MOL
REMARK 927      BINDING AFFINITY PREDICTED BY RF-SCORE:    0.00 PKD
ROOT
HETATM    1  O   UNL     1     -10.071   4.839  70.610  1.00  0.00    -0.227 OA 
HETATM    2  C   UNL     1     -10.454   5.957  70.948  1.00  0.00    -0.244 C  
HETATM    3  C   UNL     1      -9.496   7.065  71.318  1.00  0.00    -0.164 C  
HETATM    4  C   UNL     1     -10.030   8.446  70.956  1.00  0.00    -0.235 C  
HETATM    5  C   UNL     1     -11.475   8.622  71.339  1.00  0.00    -0.352 A  
HETATM    6  C   UNL     1     -12.302   7.494  71.402  1.00  0.00    -0.345 A  
HETATM    7  N   UNL     1     -11.782   6.225  71.130  1.00  0.00    -0.287 N  
HETATM    8  C   UNL     1     -13.657   7.633  71.686  1.00  0.00    -0.431 A  
HETATM    9  C   UNL     1     -14.198   8.906  71.898  1.00  0.00    -0.421 A  
HETATM   10  H   UNL     1     -12.438   5.447  71.063  1.00  0.00     0.000 HD 
HETATM   11  C   UNL     1     -13.403  10.053  71.807  1.00  0.00    -0.393 A  
HETATM   12  C   UNL     1     -12.037   9.905  71.528  1.00  0.00    -0.496 A  
ENDROOT
BRANCH  11  13
HETATM   13  O   UNL     1     -14.085  11.232  71.998  1.00  0.00     0.373 OA 
BRANCH  13  14
HETATM   14  C   UNL     1     -13.308  12.425  72.092  1.00  0.00    -0.403 C  
BRANCH  14  15
HETATM   15  C   UNL     1     -13.209  13.132  70.719  1.00  0.00     0.173 C  
BRANCH  15  16
HETATM   16  C   UNL     1     -12.008  14.089  70.737  1.00  0.00    -0.364 C  
BRANCH  16  17
HETATM   17  C   UNL     1     -11.075  14.114  69.520  1.00  0.00    -0.222 C  
BRANCH  17  18
HETATM   18  C   UNL     1     -10.942  12.829  68.785  1.00  0.00    -0.250 A  
HETATM   19  N   UNL     1     -10.279  11.797  69.282  1.00  0.00     0.079 NA 
HETATM   20  N   UNL     1     -10.426  10.766  68.407  1.00  0.00    -0.173 NA 
HETATM   21  N   UNL     1     -11.146  11.139  67.368  1.00  0.00    -0.292 NA 
HETATM   22  N   UNL     1     -11.536  12.414  67.609  1.00  0.00    -0.315 NA 
BRANCH  22  23
HETATM   23  C   UNL     1     -12.355  13.064  66.589  1.00  0.00    -0.061 C  
HETATM   24  C   UNL     1     -12.169  14.606  66.575  1.00  0.00    -0.154 C  
HETATM   25  C   UNL     1     -10.778  14.993  66.065  1.00  0.00    -0.329 C  
HETATM   26  C   UNL     1     -10.556  14.477  64.647  1.00  0.00    -0.298 C  
HETATM   27  C   UNL     1     -10.856  12.984  64.515  1.00  0.00    -0.390 C  
HETATM   28  C   UNL     1     -12.203  12.599  65.131  1.00  0.00    -0.539 C  
ENDBRANCH  22  23
ENDBRANCH  17  18
ENDBRANCH  16  17
ENDBRANCH  15  16
ENDBRANCH  14  15
ENDBRANCH  13  14
ENDBRANCH  11  13
TORSDOF 7
ENDMDL
MODEL      241
REMARK 921   NORMALIZED FREE ENERGY PREDICTED BY IDOCK:   -4.61 KCAL/MOL
REMARK 922        TOTAL FREE ENERGY PREDICTED BY IDOCK:   -7.51 KCAL/MOL
REMARK 923 INTER-LIGAND FREE ENERGY PREDICTED BY IDOCK:   -6.25 KCAL/MOL
REMARK 924 INTRA-LIGAND FREE ENERGY PREDICTED BY IDOCK:   -1.26 KCAL/MOL
REMARK 927      BINDING AFFINITY PREDICTED BY RF-SCORE:    0.00 PKD
ROOT
HETATM    1  O   UNL     1     -14.299  13.689  72.527  1.00  0.00    -0.707 OA 
HETATM    2  C   UNL     1     -13.474  13.168  71.780  1.00  0.00    -0.335 C  
HETATM    3  C   UNL     1     -13.124  11.701  71.856  1.00  0.00    -0.490 C  
HETATM    4  C   UNL     1     -12.752  11.116  70.499  1.00  0.00    -0.302 C  
HETATM    5  C   UNL     1     -11.822  12.011  69.723  1.00  0.00    -0.401 A  
HETATM    6  C   UNL     1     -11.856  13.391  69.959  1.00  0.00    -0.294 A  
HETATM    7  N   UNL     1     -12.728  13.920  70.915  1.00  0.00    -0.344 N  
HETATM    8  C   UNL     1     -11.058  14.250  69.210  1.00  0.00    -0.297 A  
HETATM    9  C   UNL     1     -10.227  13.735  68.208  1.00  0.00    -0.245 A  
HETATM   10  H   UNL     1     -12.814  14.934  70.970  1.00  0.00     0.000 HD 
HETATM   11  C   UNL     1     -10.200  12.365  67.927  1.00  0.00    -0.213 A  
HETATM   12  C   UNL     1     -11.000  11.504  68.692  1.00  0.00    -0.270 A  
ENDROOT
BRANCH  11  13
HETATM   13  O   UNL     1      -9.368  12.016  66.888  1.00  0.00    -0.188 OA 
BRANCH  13  14
HETATM   14  C   UNL     1      -9.932  12.009  65.577  1.00  0.00    -0.241 C  
BRANCH  14  15
HETATM   15  C   UNL     1     -10.354  10.578  65.164  1.00  0.00    -0.310 C  
BRANCH  15  16
HETATM   16  C   UNL     1      -9.214   9.606  65.497  1.00  0.00    -0.291 C  
BRANCH  16  17
HETATM   17  C   UNL     1      -9.567   8.245  66.108  1.00  0.00    -0.217 C  
BRANCH  17  18
HETATM   18  C   UNL     1      -9.627   8.202  67.593  1.00  0.00    -0.152 A  
HETATM   19  N   UNL     1     -10.741   7.909  68.245  1.00  0.00    -0.096 NA 
HETATM   20  N   UNL     1     -10.430   7.868  69.569  1.00  0.00    -0.225 NA 
HETATM   21  N   UNL     1      -9.157   8.151  69.756  1.00  0.00    -0.148 NA 
HETATM   22  N   UNL     1      -8.613   8.305  68.525  1.00  0.00    -0.133 NA 
BRANCH  22  23
HETATM   23  C   UNL     1      -7.191   8.630  68.461  1.00  0.00    -0.081 C  
HETATM   24  C   UNL     1      -6.940  10.147  68.238  1.00  0.00    -0.070 C  
HETATM   25  C   UNL     1      -7.330  10.962  69.474  1.00  0.00    -0.095 C  
HETATM   26  C   UNL     1      -6.521  10.524  70.690  1.00  0.00    -0.002 C  
HETATM   27  C   UNL     1      -6.582   9.013  70.918  1.00  0.00    -0.068 C  
HETATM   28  C   UNL     1      -6.298   8.215  69.642  1.00  0.00    -0.033 C  
ENDBRANCH  22  23
ENDBRANCH  17  18
ENDBRANCH  16  17
ENDBRANCH  15  16
ENDBRANCH  14  15
ENDBRANCH  13  14
ENDBRANCH  11  13
TORSDOF 7
ENDMDL
MODEL      242
REMARK 921   NORMALIZED FREE ENERGY PREDICTED BY IDOCK:   -4.61 KCAL/MOL
REMARK 922        TOTAL FREE ENERGY PREDICTED BY IDOCK:   -7.50 KCAL/MOL
REMARK 923 INTER-LIGAND FREE ENERGY PREDICTED BY IDOCK:   -6.60 KCAL/MOL
REMARK 924 INTRA-LIGAND FREE ENERGY PREDICTED BY IDOCK:   -0.90 KCAL/MOL
REMARK 927      BINDING AFFINITY PREDICTED BY RF-SCORE:    0.00 PKD
ROOT
HETATM    1  O   UNL     1     -13.007  12.189  63.105  1.00  0.00    -0.659 OA 
HETATM    2  C   UNL     1     -12.232  12.344  64.047  1.00  0.00    -0.490 C  
HETATM    3  C   UNL     1     -12.145  13.639  64.820  1.00  0.00    -0.435 C  
HETATM    4  C   UNL     1     -11.784  13.424  66.284  1.00  0.00    -0.405 C  
HETATM    5  C   UNL     1     -10.663  12.434  66.461  1.00  0.00    -0.265 A  
HETATM    6  C   UNL     1     -10.477  11.441  65.491  1.00  0.00    -0.268 A  
HETATM    7  N   UNL     1     -11.310  11.388  64.370  1.00  0.00    -0.212 N  
HETATM    8  C   UNL     1      -9.494  10.471  65.660  1.00  0.00    -0.259 A  
HETATM    9  C   UNL     1      -8.695  10.481  66.810  1.00  0.00    -0.136 A  
HETATM   10  H   UNL     1     -11.226  10.581  63.753  1.00  0.00     0.000 HD 
HETATM   11  C   UNL     1      -8.883  11.439  67.811  1.00  0.00    -0.143 A  
HETATM   12  C   UNL     1      -9.870  12.418  67.630  1.00  0.00    -0.198 A  
ENDROOT
BRANCH  11  13
HETATM   13  O   UNL     1      -8.052  11.293  68.898  1.00  0.00    -0.140 OA 
BRANCH  13  14
HETATM   14  C   UNL     1      -7.736   9.960  69.301  1.00  0.00    -0.109 C  
BRANCH  14  15
HETATM   15  C   UNL     1      -8.672   9.489  70.439  1.00  0.00    -0.265 C  
BRANCH  15  16
HETATM   16  C   UNL     1      -7.933   8.450  71.295  1.00  0.00    -0.141 C  
BRANCH  16  17
HETATM   17  C   UNL     1      -8.607   7.096  71.545  1.00  0.00    -0.115 C  
BRANCH  17  18
HETATM   18  C   UNL     1      -9.834   6.831  70.750  1.00  0.00    -0.183 A  
HETATM   19  N   UNL     1     -11.042   6.849  71.290  1.00  0.00    -0.250 NA 
HETATM   20  N   UNL     1     -11.936   6.659  70.281  1.00  0.00    -0.338 NA 
HETATM   21  N   UNL     1     -11.310   6.502  69.132  1.00  0.00    -0.304 NA 
HETATM   22  N   UNL     1      -9.990   6.666  69.387  1.00  0.00    -0.154 NA 
BRANCH  22  23
HETATM   23  C   UNL     1      -9.072   6.536  68.258  1.00  0.00    -0.119 C  
HETATM   24  C   UNL     1      -8.193   5.258  68.355  1.00  0.00    -0.090 C  
HETATM   25  C   UNL     1      -9.029   3.992  68.148  1.00  0.00    -0.156 C  
HETATM   26  C   UNL     1      -9.700   4.001  66.779  1.00  0.00    -0.216 C  
HETATM   27  C   UNL     1     -10.480   5.290  66.519  1.00  0.00    -0.354 C  
HETATM   28  C   UNL     1      -9.663   6.545  66.838  1.00  0.00    -0.199 C  
ENDBRANCH  22  23
ENDBRANCH  17  18
ENDBRANCH  16  17
ENDBRANCH  15  16
ENDBRANCH  14  15
ENDBRANCH  13  14
ENDBRANCH  11  13
TORSDOF 7
ENDMDL
MODEL      243
REMARK 921   NORMALIZED FREE ENERGY PREDICTED BY IDOCK:   -4.60 KCAL/MOL
REMARK 922        TOTAL FREE ENERGY PREDICTED BY IDOCK:   -7.50 KCAL/MOL
REMARK 923 INTER-LIGAND FREE ENERGY PREDICTED BY IDOCK:   -7.23 KCAL/MOL
REMARK 924 INTRA-LIGAND FREE ENERGY PREDICTED BY IDOCK:   -0.27 KCAL/MOL
REMARK 927      BINDING AFFINITY PREDICTED BY RF-SCORE:    0.00 PKD
ROOT
HETATM    1  O   UNL     1     -13.949  16.053  72.915  1.00  0.00    -0.560 OA 
HETATM    2  C   UNL     1     -13.586  15.126  72.194  1.00  0.00    -0.455 C  
HETATM    3  C   UNL     1     -13.071  15.344  70.791  1.00  0.00    -0.479 C  
HETATM    4  C   UNL     1     -12.021  14.317  70.385  1.00  0.00    -0.402 C  
HETATM    5  C   UNL     1     -12.410  12.915  70.770  1.00  0.00    -0.385 A  
HETATM    6  C   UNL     1     -13.258  12.724  71.868  1.00  0.00    -0.412 A  
HETATM    7  N   UNL     1     -13.746  13.824  72.579  1.00  0.00    -0.567 N  
HETATM    8  C   UNL     1     -13.580  11.438  72.290  1.00  0.00     0.052 A  
HETATM    9  C   UNL     1     -13.046  10.330  71.622  1.00  0.00    -0.553 A  
HETATM   10  H   UNL     1     -14.256  13.643  73.443  1.00  0.00     0.000 HD 
HETATM   11  C   UNL     1     -12.169  10.491  70.545  1.00  0.00    -0.344 A  
HETATM   12  C   UNL     1     -11.855  11.790  70.120  1.00  0.00    -0.408 A  
ENDROOT
BRANCH  11  13
HETATM   13  O   UNL     1     -11.694   9.311  70.020  1.00  0.00    -0.073 OA 
BRANCH  13  14
HETATM   14  C   UNL     1     -10.884   8.500  70.871  1.00  0.00    -0.232 C  
BRANCH  14  15
HETATM   15  C   UNL     1     -11.645   7.226  71.309  1.00  0.00    -0.316 C  
BRANCH  15  16
HETATM   16  C   UNL     1     -10.766   5.999  71.028  1.00  0.00    -0.325 C  
BRANCH  16  17
HETATM   17  C   UNL     1     -10.454   5.642  69.570  1.00  0.00    -0.372 C  
BRANCH  17  18
HETATM   18  C   UNL     1      -9.820   4.315  69.354  1.00  0.00    -0.135 A  
HETATM   19  N   UNL     1      -9.539   3.496  70.355  1.00  0.00    -0.186 NA 
HETATM   20  N   UNL     1      -9.056   2.347  69.809  1.00  0.00    -0.103 NA 
HETATM   21  N   UNL     1      -9.009   2.441  68.496  1.00  0.00    -0.111 NA 
HETATM   22  N   UNL     1      -9.541   3.646  68.178  1.00  0.00    -0.145 NA 
BRANCH  22  23
HETATM   23  C   UNL     1      -9.601   3.995  66.760  1.00  0.00    -0.211 C  
HETATM   24  C   UNL     1      -9.172   5.464  66.494  1.00  0.00    -0.139 C  
HETATM   25  C   UNL     1      -7.673   5.658  66.739  1.00  0.00    -0.100 C  
HETATM   26  C   UNL     1      -6.852   4.754  65.826  1.00  0.00    -0.061 C  
HETATM   27  C   UNL     1      -7.293   3.292  65.902  1.00  0.00    -0.072 C  
HETATM   28  C   UNL     1      -8.809   3.129  65.766  1.00  0.00    -0.138 C  
ENDBRANCH  22  23
ENDBRANCH  17  18
ENDBRANCH  16  17
ENDBRANCH  15  16
ENDBRANCH  14  15
ENDBRANCH  13  14
ENDBRANCH  11  13
TORSDOF 7
ENDMDL
MODEL      244
REMARK 921   NORMALIZED FREE ENERGY PREDICTED BY IDOCK:   -4.60 KCAL/MOL
REMARK 922        TOTAL FREE ENERGY PREDICTED BY IDOCK:   -7.50 KCAL/MOL
REMARK 923 INTER-LIGAND FREE ENERGY PREDICTED BY IDOCK:   -6.66 KCAL/MOL
REMARK 924 INTRA-LIGAND FREE ENERGY PREDICTED BY IDOCK:   -0.84 KCAL/MOL
REMARK 927      BINDING AFFINITY PREDICTED BY RF-SCORE:    0.00 PKD
ROOT
HETATM    1  O   UNL     1      -5.486   6.371  66.763  1.00  0.00    -0.012 OA 
HETATM    2  C   UNL     1      -6.527   6.961  66.480  1.00  0.00    -0.051 C  
HETATM    3  C   UNL     1      -7.799   6.787  67.276  1.00  0.00    -0.110 C  
HETATM    4  C   UNL     1      -8.652   8.049  67.300  1.00  0.00    -0.124 C  
HETATM    5  C   UNL     1      -8.766   8.693  65.944  1.00  0.00    -0.201 A  
HETATM    6  C   UNL     1      -7.733   8.506  65.017  1.00  0.00    -0.102 A  
HETATM    7  N   UNL     1      -6.626   7.718  65.346  1.00  0.00    -0.044 N  
HETATM    8  C   UNL     1      -7.776   9.144  63.782  1.00  0.00    -0.119 A  
HETATM    9  C   UNL     1      -8.850   9.985  63.467  1.00  0.00    -0.251 A  
HETATM   10  H   UNL     1      -5.840   7.708  64.697  1.00  0.00     0.000 HD 
HETATM   11  C   UNL     1      -9.877  10.217  64.387  1.00  0.00    -0.305 A  
HETATM   12  C   UNL     1      -9.831   9.565  65.627  1.00  0.00    -0.343 A  
ENDROOT
BRANCH  11  13
HETATM   13  O   UNL     1     -10.839  11.099  63.952  1.00  0.00    -0.380 OA 
BRANCH  13  14
HETATM   14  C   UNL     1     -10.430  12.448  63.724  1.00  0.00    -0.443 C  
BRANCH  14  15
HETATM   15  C   UNL     1     -11.579  13.436  64.040  1.00  0.00    -0.429 C  
BRANCH  15  16
HETATM   16  C   UNL     1     -12.453  12.844  65.155  1.00  0.00    -0.561 C  
BRANCH  16  17
HETATM   17  C   UNL     1     -12.410  13.497  66.541  1.00  0.00    -0.382 C  
BRANCH  17  18
HETATM   18  C   UNL     1     -11.824  12.666  67.626  1.00  0.00    -0.329 A  
HETATM   19  N   UNL     1     -12.133  11.389  67.781  1.00  0.00    -0.564 NA 
HETATM   20  N   UNL     1     -11.363  10.910  68.795  1.00  0.00    -0.269 NA 
HETATM   21  N   UNL     1     -10.600  11.865  69.288  1.00  0.00    -0.057 NA 
HETATM   22  N   UNL     1     -10.824  12.965  68.531  1.00  0.00    -0.250 NA 
BRANCH  22  23
HETATM   23  C   UNL     1     -10.088  14.177  68.882  1.00  0.00    -0.150 C  
HETATM   24  C   UNL     1      -8.637  14.170  68.324  1.00  0.00    -0.175 C  
HETATM   25  C   UNL     1      -8.627  14.300  66.799  1.00  0.00    -0.113 C  
HETATM   26  C   UNL     1      -9.294  15.600  66.361  1.00  0.00    -0.332 C  
HETATM   27  C   UNL     1     -10.683  15.778  66.975  1.00  0.00    -0.306 C  
HETATM   28  C   UNL     1     -10.693  15.534  68.486  1.00  0.00    -0.259 C  
ENDBRANCH  22  23
ENDBRANCH  17  18
ENDBRANCH  16  17
ENDBRANCH  15  16
ENDBRANCH  14  15
ENDBRANCH  13  14
ENDBRANCH  11  13
TORSDOF 7
ENDMDL
MODEL      245
REMARK 921   NORMALIZED FREE ENERGY PREDICTED BY IDOCK:   -4.59 KCAL/MOL
REMARK 922        TOTAL FREE ENERGY PREDICTED BY IDOCK:   -7.48 KCAL/MOL
REMARK 923 INTER-LIGAND FREE ENERGY PREDICTED BY IDOCK:   -6.84 KCAL/MOL
REMARK 924 INTRA-LIGAND FREE ENERGY PREDICTED BY IDOCK:   -0.65 KCAL/MOL
REMARK 927      BINDING AFFINITY PREDICTED BY RF-SCORE:    0.00 PKD
ROOT
HETATM    1  O   UNL     1      -7.923  20.059  69.444  1.00  0.00    -0.001 OA 
HETATM    2  C   UNL     1      -8.674  19.419  68.711  1.00  0.00    -0.337 C  
HETATM    3  C   UNL     1     -10.127  19.785  68.520  1.00  0.00    -0.555 C  
HETATM    4  C   UNL     1     -10.640  19.442  67.126  1.00  0.00    -0.596 C  
HETATM    5  C   UNL     1     -10.205  18.073  66.675  1.00  0.00    -0.375 A  
HETATM    6  C   UNL     1      -9.018  17.535  67.189  1.00  0.00    -0.238 A  
HETATM    7  N   UNL     1      -8.265  18.256  68.120  1.00  0.00    -0.275 N  
HETATM    8  C   UNL     1      -8.555  16.303  66.740  1.00  0.00    -0.273 A  
HETATM    9  C   UNL     1      -9.271  15.602  65.761  1.00  0.00    -0.247 A  
HETATM   10  H   UNL     1      -7.348  17.889  68.376  1.00  0.00     0.000 HD 
HETATM   11  C   UNL     1     -10.439  16.132  65.205  1.00  0.00    -0.331 A  
HETATM   12  C   UNL     1     -10.905  17.370  65.669  1.00  0.00    -0.011 A  
ENDROOT
BRANCH  11  13
HETATM   13  O   UNL     1     -11.006  15.349  64.226  1.00  0.00    -0.153 OA 
BRANCH  13  14
HETATM   14  C   UNL     1     -12.178  14.614  64.578  1.00  0.00    -0.456 C  
BRANCH  14  15
HETATM   15  C   UNL     1     -12.401  13.428  63.610  1.00  0.00    -0.422 C  
BRANCH  15  16
HETATM   16  C   UNL     1     -11.617  12.212  64.122  1.00  0.00    -0.467 C  
BRANCH  16  17
HETATM   17  C   UNL     1     -10.270  12.449  64.816  1.00  0.00    -0.303 C  
BRANCH  17  18
HETATM   18  C   UNL     1      -9.956  11.530  65.942  1.00  0.00    -0.230 A  
HETATM   19  N   UNL     1      -8.798  10.896  66.032  1.00  0.00    -0.183 NA 
HETATM   20  N   UNL     1      -8.803  10.217  67.211  1.00  0.00    -0.132 NA 
HETATM   21  N   UNL     1      -9.945  10.396  67.844  1.00  0.00    -0.163 NA 
HETATM   22  N   UNL     1     -10.666  11.267  67.097  1.00  0.00    -0.239 NA 
BRANCH  22  23
HETATM   23  C   UNL     1     -11.991  11.630  67.592  1.00  0.00    -0.012 C  
HETATM   24  C   UNL     1     -12.156  11.344  69.110  1.00  0.00    -0.331 C  
HETATM   25  C   UNL     1     -11.302  12.297  69.950  1.00  0.00    -0.084 C  
HETATM   26  C   UNL     1     -11.699  13.748  69.698  1.00  0.00    -0.379 C  
HETATM   27  C   UNL     1     -11.712  14.099  68.211  1.00  0.00    -0.383 C  
HETATM   28  C   UNL     1     -12.477  13.073  67.371  1.00  0.00     0.341 C  
ENDBRANCH  22  23
ENDBRANCH  17  18
ENDBRANCH  16  17
ENDBRANCH  15  16
ENDBRANCH  14  15
ENDBRANCH  13  14
ENDBRANCH  11  13
TORSDOF 7
ENDMDL
MODEL      246
REMARK 921   NORMALIZED FREE ENERGY PREDICTED BY IDOCK:   -4.59 KCAL/MOL
REMARK 922        TOTAL FREE ENERGY PREDICTED BY IDOCK:   -7.48 KCAL/MOL
REMARK 923 INTER-LIGAND FREE ENERGY PREDICTED BY IDOCK:   -6.93 KCAL/MOL
REMARK 924 INTRA-LIGAND FREE ENERGY PREDICTED BY IDOCK:   -0.54 KCAL/MOL
REMARK 927      BINDING AFFINITY PREDICTED BY RF-SCORE:    0.00 PKD
ROOT
HETATM    1  O   UNL     1     -10.318  19.602  66.812  1.00  0.00    -0.408 OA 
HETATM    2  C   UNL     1     -10.401  18.412  67.106  1.00  0.00    -0.394 C  
HETATM    3  C   UNL     1     -10.497  17.935  68.537  1.00  0.00    -0.312 C  
HETATM    4  C   UNL     1     -11.323  16.662  68.676  1.00  0.00    -0.155 C  
HETATM    5  C   UNL     1     -10.982  15.638  67.626  1.00  0.00    -0.315 A  
HETATM    6  C   UNL     1     -10.480  16.073  66.393  1.00  0.00    -0.309 A  
HETATM    7  N   UNL     1     -10.284  17.437  66.155  1.00  0.00    -0.344 N  
HETATM    8  C   UNL     1     -10.221  15.157  65.379  1.00  0.00    -0.402 A  
HETATM    9  C   UNL     1     -10.473  13.795  65.587  1.00  0.00    -0.312 A  
HETATM   10  H   UNL     1     -10.038  17.723  65.208  1.00  0.00     0.000 HD 
HETATM   11  C   UNL     1     -11.007  13.338  66.796  1.00  0.00    -0.287 A  
HETATM   12  C   UNL     1     -11.258  14.265  67.816  1.00  0.00    -0.309 A  
ENDROOT
BRANCH  11  13
HETATM   13  O   UNL     1     -11.239  11.982  66.835  1.00  0.00    -0.283 OA 
BRANCH  13  14
HETATM   14  C   UNL     1     -11.451  11.395  68.119  1.00  0.00    -0.305 C  
BRANCH  14  15
HETATM   15  C   UNL     1     -10.104  11.075  68.810  1.00  0.00    -0.214 C  
BRANCH  15  16
HETATM   16  C   UNL     1      -9.991   9.556  69.004  1.00  0.00    -0.185 C  
BRANCH  16  17
HETATM   17  C   UNL     1     -10.242   8.644  67.798  1.00  0.00    -0.282 C  
BRANCH  17  18
HETATM   18  C   UNL     1      -9.325   7.480  67.670  1.00  0.00    -0.137 A  
HETATM   19  N   UNL     1      -8.152   7.570  67.064  1.00  0.00    -0.115 NA 
HETATM   20  N   UNL     1      -7.536   6.365  67.201  1.00  0.00    -0.094 NA 
HETATM   21  N   UNL     1      -8.307   5.522  67.858  1.00  0.00    -0.100 NA 
HETATM   22  N   UNL     1      -9.414   6.216  68.219  1.00  0.00    -0.118 NA 
BRANCH  22  23
HETATM   23  C   UNL     1     -10.439   5.493  68.968  1.00  0.00    -0.226 C  
HETATM   24  C   UNL     1      -9.874   4.229  69.673  1.00  0.00    -0.244 C  
HETATM   25  C   UNL     1      -8.939   4.606  70.825  1.00  0.00    -0.166 C  
HETATM   26  C   UNL     1      -9.671   5.442  71.869  1.00  0.00    -0.204 C  
HETATM   27  C   UNL     1     -10.391   6.643  71.255  1.00  0.00    -0.230 C  
HETATM   28  C   UNL     1     -11.235   6.262  70.036  1.00  0.00    -0.480 C  
ENDBRANCH  22  23
ENDBRANCH  17  18
ENDBRANCH  16  17
ENDBRANCH  15  16
ENDBRANCH  14  15
ENDBRANCH  13  14
ENDBRANCH  11  13
TORSDOF 7
ENDMDL
MODEL      247
REMARK 921   NORMALIZED FREE ENERGY PREDICTED BY IDOCK:   -4.57 KCAL/MOL
REMARK 922        TOTAL FREE ENERGY PREDICTED BY IDOCK:   -7.45 KCAL/MOL
REMARK 923 INTER-LIGAND FREE ENERGY PREDICTED BY IDOCK:   -6.76 KCAL/MOL
REMARK 924 INTRA-LIGAND FREE ENERGY PREDICTED BY IDOCK:   -0.70 KCAL/MOL
REMARK 927      BINDING AFFINITY PREDICTED BY RF-SCORE:    0.00 PKD
ROOT
HETATM    1  O   UNL     1      -5.575   6.750  66.537  1.00  0.00    -0.017 OA 
HETATM    2  C   UNL     1      -6.647   7.333  66.391  1.00  0.00    -0.053 C  
HETATM    3  C   UNL     1      -7.787   7.189  67.371  1.00  0.00    -0.112 C  
HETATM    4  C   UNL     1      -8.630   8.454  67.478  1.00  0.00    -0.129 C  
HETATM    5  C   UNL     1      -8.944   9.052  66.132  1.00  0.00    -0.216 A  
HETATM    6  C   UNL     1      -8.059   8.830  65.069  1.00  0.00    -0.144 A  
HETATM    7  N   UNL     1      -6.914   8.051  65.258  1.00  0.00    -0.062 N  
HETATM    8  C   UNL     1      -8.286   9.425  63.833  1.00  0.00    -0.165 A  
HETATM    9  C   UNL     1      -9.397  10.258  63.652  1.00  0.00    -0.338 A  
HETATM   10  H   UNL     1      -6.233   8.015  64.501  1.00  0.00     0.000 HD 
HETATM   11  C   UNL     1     -10.277  10.524  64.705  1.00  0.00    -0.303 A  
HETATM   12  C   UNL     1     -10.047   9.915  65.947  1.00  0.00    -0.316 A  
ENDROOT
BRANCH  11  13
HETATM   13  O   UNL     1     -11.295  11.394  64.386  1.00  0.00    -0.266 OA 
BRANCH  13  14
HETATM   14  C   UNL     1     -10.923  12.718  64.005  1.00  0.00    -0.415 C  
BRANCH  14  15
HETATM   15  C   UNL     1     -11.974  13.748  64.484  1.00  0.00    -0.458 C  
BRANCH  15  16
HETATM   16  C   UNL     1     -12.152  13.609  66.003  1.00  0.00    -0.480 C  
BRANCH  16  17
HETATM   17  C   UNL     1     -11.741  14.783  66.899  1.00  0.00    -0.316 C  
BRANCH  17  18
HETATM   18  C   UNL     1     -10.339  14.753  67.395  1.00  0.00    -0.242 A  
HETATM   19  N   UNL     1      -9.859  13.736  68.091  1.00  0.00    -0.232 NA 
HETATM   20  N   UNL     1      -8.539  13.985  68.307  1.00  0.00    -0.175 NA 
HETATM   21  N   UNL     1      -8.194  15.142  67.780  1.00  0.00    -0.142 NA 
HETATM   22  N   UNL     1      -9.292  15.619  67.147  1.00  0.00    -0.213 NA 
BRANCH  22  23
HETATM   23  C   UNL     1      -9.166  16.910  66.475  1.00  0.00    -0.269 C  
HETATM   24  C   UNL     1     -10.382  17.840  66.746  1.00  0.00    -0.343 C  
HETATM   25  C   UNL     1     -10.405  18.313  68.202  1.00  0.00    -0.393 C  
HETATM   26  C   UNL     1      -9.136  19.086  68.542  1.00  0.00    -0.401 C  
HETATM   27  C   UNL     1      -7.867  18.314  68.177  1.00  0.00    -0.299 C  
HETATM   28  C   UNL     1      -7.910  17.753  66.754  1.00  0.00    -0.262 C  
ENDBRANCH  22  23
ENDBRANCH  17  18
ENDBRANCH  16  17
ENDBRANCH  15  16
ENDBRANCH  14  15
ENDBRANCH  13  14
ENDBRANCH  11  13
TORSDOF 7
ENDMDL
MODEL      248
REMARK 921   NORMALIZED FREE ENERGY PREDICTED BY IDOCK:   -4.57 KCAL/MOL
REMARK 922        TOTAL FREE ENERGY PREDICTED BY IDOCK:   -7.45 KCAL/MOL
REMARK 923 INTER-LIGAND FREE ENERGY PREDICTED BY IDOCK:   -6.35 KCAL/MOL
REMARK 924 INTRA-LIGAND FREE ENERGY PREDICTED BY IDOCK:   -1.10 KCAL/MOL
REMARK 927      BINDING AFFINITY PREDICTED BY RF-SCORE:    0.00 PKD
ROOT
HETATM    1  O   UNL     1     -10.316  19.160  66.811  1.00  0.00    -0.363 OA 
HETATM    2  C   UNL     1     -10.451  18.009  67.221  1.00  0.00    -0.380 C  
HETATM    3  C   UNL     1      -9.971  17.573  68.585  1.00  0.00    -0.347 C  
HETATM    4  C   UNL     1     -10.842  16.477  69.189  1.00  0.00    -0.334 C  
HETATM    5  C   UNL     1     -11.180  15.398  68.196  1.00  0.00    -0.326 A  
HETATM    6  C   UNL     1     -11.221  15.720  66.833  1.00  0.00    -0.050 A  
HETATM    7  N   UNL     1     -10.933  17.021  66.409  1.00  0.00     0.077 N  
HETATM    8  C   UNL     1     -11.597  14.762  65.897  1.00  0.00    -0.286 A  
HETATM    9  C   UNL     1     -11.946  13.474  66.319  1.00  0.00    -0.457 A  
HETATM   10  H   UNL     1     -11.095  17.247  65.428  1.00  0.00     0.000 HD 
HETATM   11  C   UNL     1     -11.948  13.135  67.676  1.00  0.00    -0.315 A  
HETATM   12  C   UNL     1     -11.560  14.103  68.613  1.00  0.00    -0.352 A  
ENDROOT
BRANCH  11  13
HETATM   13  O   UNL     1     -12.356  11.847  67.938  1.00  0.00    -0.367 OA 
BRANCH  13  14
HETATM   14  C   UNL     1     -12.092  11.334  69.243  1.00  0.00    -0.303 C  
BRANCH  14  15
HETATM   15  C   UNL     1     -10.639  10.815  69.352  1.00  0.00    -0.254 C  
BRANCH  15  16
HETATM   16  C   UNL     1     -10.630   9.300  69.100  1.00  0.00    -0.228 C  
BRANCH  16  17
HETATM   17  C   UNL     1     -10.944   8.792  67.688  1.00  0.00     0.069 C  
BRANCH  17  18
HETATM   18  C   UNL     1      -9.901   7.933  67.067  1.00  0.00    -0.225 A  
HETATM   19  N   UNL     1      -9.985   6.612  67.064  1.00  0.00    -0.157 NA 
HETATM   20  N   UNL     1      -8.928   6.145  66.346  1.00  0.00    -0.146 NA 
HETATM   21  N   UNL     1      -8.179   7.142  65.922  1.00  0.00    -0.125 NA 
HETATM   22  N   UNL     1      -8.800   8.282  66.309  1.00  0.00    -0.152 NA 
BRANCH  22  23
HETATM   23  C   UNL     1      -8.157   9.545  65.956  1.00  0.00    -0.111 C  
HETATM   24  C   UNL     1      -7.409   9.468  64.596  1.00  0.00    -0.113 C  
HETATM   25  C   UNL     1      -8.392   9.349  63.428  1.00  0.00    -0.188 C  
HETATM   26  C   UNL     1      -9.331  10.550  63.383  1.00  0.00    -0.335 C  
HETATM   27  C   UNL     1     -10.015  10.806  64.726  1.00  0.00    -0.382 C  
HETATM   28  C   UNL     1      -9.028  10.811  65.897  1.00  0.00    -0.200 C  
ENDBRANCH  22  23
ENDBRANCH  17  18
ENDBRANCH  16  17
ENDBRANCH  15  16
ENDBRANCH  14  15
ENDBRANCH  13  14
ENDBRANCH  11  13
TORSDOF 7
ENDMDL
MODEL      249
REMARK 921   NORMALIZED FREE ENERGY PREDICTED BY IDOCK:   -4.56 KCAL/MOL
REMARK 922        TOTAL FREE ENERGY PREDICTED BY IDOCK:   -7.44 KCAL/MOL
REMARK 923 INTER-LIGAND FREE ENERGY PREDICTED BY IDOCK:   -5.45 KCAL/MOL
REMARK 924 INTRA-LIGAND FREE ENERGY PREDICTED BY IDOCK:   -1.99 KCAL/MOL
REMARK 927      BINDING AFFINITY PREDICTED BY RF-SCORE:    0.00 PKD
ROOT
HETATM    1  O   UNL     1      -8.098   4.156  71.350  1.00  0.00    -0.074 OA 
HETATM    2  C   UNL     1      -7.950   5.149  70.642  1.00  0.00    -0.088 C  
HETATM    3  C   UNL     1      -7.953   6.552  71.203  1.00  0.00    -0.112 C  
HETATM    4  C   UNL     1      -7.048   7.497  70.421  1.00  0.00    -0.059 C  
HETATM    5  C   UNL     1      -7.207   7.345  68.932  1.00  0.00    -0.089 A  
HETATM    6  C   UNL     1      -7.623   6.111  68.417  1.00  0.00    -0.092 A  
HETATM    7  N   UNL     1      -7.901   5.047  69.280  1.00  0.00    -0.075 N  
HETATM    8  C   UNL     1      -7.713   5.919  67.042  1.00  0.00    -0.101 A  
HETATM    9  C   UNL     1      -7.377   6.961  66.169  1.00  0.00    -0.076 A  
HETATM   10  H   UNL     1      -8.078   4.132  68.865  1.00  0.00     0.000 HD 
HETATM   11  C   UNL     1      -6.926   8.192  66.655  1.00  0.00    -0.072 A  
HETATM   12  C   UNL     1      -6.845   8.381  68.042  1.00  0.00    -0.070 A  
ENDROOT
BRANCH  11  13
HETATM   13  O   UNL     1      -6.593   9.100  65.676  1.00  0.00    -0.067 OA 
BRANCH  13  14
HETATM   14  C   UNL     1      -7.595   9.408  64.707  1.00  0.00    -0.111 C  
BRANCH  14  15
HETATM   15  C   UNL     1      -8.617  10.424  65.271  1.00  0.00    -0.184 C  
BRANCH  15  16
HETATM   16  C   UNL     1      -9.869   9.667  65.736  1.00  0.00    -0.373 C  
BRANCH  16  17
HETATM   17  C   UNL     1     -10.403   9.933  67.148  1.00  0.00    -0.304 C  
BRANCH  17  18
HETATM   18  C   UNL     1     -10.653   8.727  67.979  1.00  0.00    -0.159 A  
HETATM   19  N   UNL     1     -10.846   7.531  67.447  1.00  0.00    -0.246 NA 
HETATM   20  N   UNL     1     -10.954   6.647  68.476  1.00  0.00    -0.259 NA 
HETATM   21  N   UNL     1     -10.854   7.268  69.633  1.00  0.00    -0.238 NA 
HETATM   22  N   UNL     1     -10.603   8.569  69.351  1.00  0.00    -0.217 NA 
BRANCH  22  23
HETATM   23  C   UNL     1     -10.451   9.479  70.483  1.00  0.00    -0.296 C  
HETATM   24  C   UNL     1     -11.340  10.747  70.347  1.00  0.00    -0.342 C  
HETATM   25  C   UNL     1     -12.824  10.403  70.496  1.00  0.00    -0.326 C  
HETATM   26  C   UNL     1     -13.102   9.777  71.858  1.00  0.00    -0.544 C  
HETATM   27  C   UNL     1     -12.175   8.599  72.159  1.00  0.00    -0.453 C  
HETATM   28  C   UNL     1     -10.703   8.927  71.896  1.00  0.00    -0.426 C  
ENDBRANCH  22  23
ENDBRANCH  17  18
ENDBRANCH  16  17
ENDBRANCH  15  16
ENDBRANCH  14  15
ENDBRANCH  13  14
ENDBRANCH  11  13
TORSDOF 7
ENDMDL
MODEL      250
REMARK 921   NORMALIZED FREE ENERGY PREDICTED BY IDOCK:   -4.56 KCAL/MOL
REMARK 922        TOTAL FREE ENERGY PREDICTED BY IDOCK:   -7.44 KCAL/MOL
REMARK 923 INTER-LIGAND FREE ENERGY PREDICTED BY IDOCK:   -7.18 KCAL/MOL
REMARK 924 INTRA-LIGAND FREE ENERGY PREDICTED BY IDOCK:   -0.26 KCAL/MOL
REMARK 927      BINDING AFFINITY PREDICTED BY RF-SCORE:    0.00 PKD
ROOT
HETATM    1  O   UNL     1     -10.370   6.188  72.500  1.00  0.00    -0.187 OA 
HETATM    2  C   UNL     1     -10.663   7.081  71.707  1.00  0.00    -0.216 C  
HETATM    3  C   UNL     1     -11.499   8.275  72.104  1.00  0.00    -0.427 C  
HETATM    4  C   UNL     1     -11.123   9.535  71.334  1.00  0.00    -0.438 C  
HETATM    5  C   UNL     1     -10.939   9.276  69.862  1.00  0.00    -0.231 A  
HETATM    6  C   UNL     1     -10.548   7.998  69.443  1.00  0.00    -0.205 A  
HETATM    7  N   UNL     1     -10.351   6.980  70.380  1.00  0.00    -0.200 N  
HETATM    8  C   UNL     1     -10.303   7.747  68.097  1.00  0.00    -0.248 A  
HETATM    9  C   UNL     1     -10.438   8.777  67.158  1.00  0.00    -0.354 A  
HETATM   10  H   UNL     1      -9.946   6.104  70.052  1.00  0.00     0.000 HD 
HETATM   11  C   UNL     1     -10.793  10.071  67.554  1.00  0.00    -0.265 A  
HETATM   12  C   UNL     1     -11.046  10.315  68.911  1.00  0.00    -0.278 A  
ENDROOT
BRANCH  11  13
HETATM   13  O   UNL     1     -10.843  10.984  66.526  1.00  0.00    -0.261 OA 
BRANCH  13  14
HETATM   14  C   UNL     1      -9.734  11.872  66.390  1.00  0.00    -0.221 C  
BRANCH  14  15
HETATM   15  C   UNL     1     -10.207  13.345  66.341  1.00  0.00    -0.293 C  
BRANCH  15  16
HETATM   16  C   UNL     1     -10.506  13.821  67.769  1.00  0.00    -0.240 C  
BRANCH  16  17
HETATM   17  C   UNL     1     -10.082  15.238  68.171  1.00  0.00    -0.229 C  
BRANCH  17  18
HETATM   18  C   UNL     1      -9.965  16.215  67.057  1.00  0.00    -0.258 A  
HETATM   19  N   UNL     1     -11.016  16.626  66.365  1.00  0.00     0.013 NA 
HETATM   20  N   UNL     1     -10.577  17.572  65.492  1.00  0.00    -0.610 NA 
HETATM   21  N   UNL     1      -9.276  17.743  65.609  1.00  0.00    -0.217 NA 
HETATM   22  N   UNL     1      -8.874  16.946  66.628  1.00  0.00    -0.229 NA 
BRANCH  22  23
HETATM   23  C   UNL     1      -7.451  16.955  66.959  1.00  0.00    -0.196 C  
HETATM   24  C   UNL     1      -6.624  17.848  65.994  1.00  0.00    -0.317 C  
HETATM   25  C   UNL     1      -6.941  19.331  66.201  1.00  0.00    -0.261 C  
HETATM   26  C   UNL     1      -6.622  19.760  67.629  1.00  0.00    -0.263 C  
HETATM   27  C   UNL     1      -7.275  18.851  68.671  1.00  0.00    -0.333 C  
HETATM   28  C   UNL     1      -7.040  17.366  68.383  1.00  0.00    -0.212 C  
ENDBRANCH  22  23
ENDBRANCH  17  18
ENDBRANCH  16  17
ENDBRANCH  15  16
ENDBRANCH  14  15
ENDBRANCH  13  14
ENDBRANCH  11  13
TORSDOF 7
ENDMDL
MODEL      251
REMARK 921   NORMALIZED FREE ENERGY PREDICTED BY IDOCK:   -4.55 KCAL/MOL
REMARK 922        TOTAL FREE ENERGY PREDICTED BY IDOCK:   -7.43 KCAL/MOL
REMARK 923 INTER-LIGAND FREE ENERGY PREDICTED BY IDOCK:   -6.72 KCAL/MOL
REMARK 924 INTRA-LIGAND FREE ENERGY PREDICTED BY IDOCK:   -0.70 KCAL/MOL
REMARK 927      BINDING AFFINITY PREDICTED BY RF-SCORE:    0.00 PKD
ROOT
HETATM    1  O   UNL     1     -12.346  15.627  64.049  1.00  0.00    -0.641 OA 
HETATM    2  C   UNL     1     -12.146  14.454  64.357  1.00  0.00    -0.470 C  
HETATM    3  C   UNL     1     -12.201  13.330  63.349  1.00  0.00    -0.476 C  
HETATM    4  C   UNL     1     -11.240  12.196  63.684  1.00  0.00    -0.540 C  
HETATM    5  C   UNL     1     -11.277  11.822  65.142  1.00  0.00    -0.311 A  
HETATM    6  C   UNL     1     -11.644  12.794  66.081  1.00  0.00    -0.379 A  
HETATM    7  N   UNL     1     -11.985  14.083  65.663  1.00  0.00    -0.378 N  
HETATM    8  C   UNL     1     -11.621  12.498  67.441  1.00  0.00    -0.434 A  
HETATM    9  C   UNL     1     -11.220  11.228  67.872  1.00  0.00    -0.353 A  
HETATM   10  H   UNL     1     -12.124  14.794  66.380  1.00  0.00     0.000 HD 
HETATM   11  C   UNL     1     -10.815  10.250  66.958  1.00  0.00    -0.181 A  
HETATM   12  C   UNL     1     -10.848  10.552  65.590  1.00  0.00     0.054 A  
ENDROOT
BRANCH  11  13
HETATM   13  O   UNL     1     -10.409   9.069  67.535  1.00  0.00    -0.231 OA 
BRANCH  13  14
HETATM   14  C   UNL     1     -10.093   7.990  66.655  1.00  0.00    -0.259 C  
BRANCH  14  15
HETATM   15  C   UNL     1     -10.872   6.712  67.045  1.00  0.00    -0.467 C  
BRANCH  15  16
HETATM   16  C   UNL     1     -10.863   6.569  68.574  1.00  0.00    -0.353 C  
BRANCH  16  17
HETATM   17  C   UNL     1      -9.853   5.609  69.213  1.00  0.00    -0.230 C  
BRANCH  17  18
HETATM   18  C   UNL     1      -9.791   5.636  70.698  1.00  0.00    -0.187 A  
HETATM   19  N   UNL     1     -10.512   4.820  71.449  1.00  0.00    -0.116 NA 
HETATM   20  N   UNL     1     -10.154   5.044  72.743  1.00  0.00    -0.166 NA 
HETATM   21  N   UNL     1      -9.244   5.994  72.814  1.00  0.00    -0.142 NA 
HETATM   22  N   UNL     1      -8.952   6.343  71.538  1.00  0.00    -0.144 NA 
BRANCH  22  23
HETATM   23  C   UNL     1      -7.957   7.395  71.346  1.00  0.00    -0.096 C  
HETATM   24  C   UNL     1      -6.810   7.323  72.392  1.00  0.00    -0.063 C  
HETATM   25  C   UNL     1      -5.926   6.094  72.164  1.00  0.00    -0.037 C  
HETATM   26  C   UNL     1      -5.296   6.128  70.776  1.00  0.00    -0.014 C  
HETATM   27  C   UNL     1      -6.331   6.343  69.671  1.00  0.00    -0.038 C  
HETATM   28  C   UNL     1      -7.277   7.508  69.971  1.00  0.00    -0.069 C  
ENDBRANCH  22  23
ENDBRANCH  17  18
ENDBRANCH  16  17
ENDBRANCH  15  16
ENDBRANCH  14  15
ENDBRANCH  13  14
ENDBRANCH  11  13
TORSDOF 7
ENDMDL
MODEL      252
REMARK 921   NORMALIZED FREE ENERGY PREDICTED BY IDOCK:   -4.54 KCAL/MOL
REMARK 922        TOTAL FREE ENERGY PREDICTED BY IDOCK:   -7.41 KCAL/MOL
REMARK 923 INTER-LIGAND FREE ENERGY PREDICTED BY IDOCK:   -7.43 KCAL/MOL
REMARK 924 INTRA-LIGAND FREE ENERGY PREDICTED BY IDOCK:    0.02 KCAL/MOL
REMARK 927      BINDING AFFINITY PREDICTED BY RF-SCORE:    0.00 PKD
ROOT
HETATM    1  O   UNL     1     -12.687  15.001  64.075  1.00  0.00    -0.772 OA 
HETATM    2  C   UNL     1     -12.113  14.032  64.566  1.00  0.00    -0.459 C  
HETATM    3  C   UNL     1     -11.400  12.999  63.725  1.00  0.00    -0.434 C  
HETATM    4  C   UNL     1     -10.194  12.396  64.435  1.00  0.00    -0.342 C  
HETATM    5  C   UNL     1     -10.489  12.039  65.867  1.00  0.00    -0.290 A  
HETATM    6  C   UNL     1     -11.481  12.752  66.553  1.00  0.00    -0.355 A  
HETATM    7  N   UNL     1     -12.194  13.765  65.905  1.00  0.00    -0.438 N  
HETATM    8  C   UNL     1     -11.728  12.493  67.897  1.00  0.00    -0.416 A  
HETATM    9  C   UNL     1     -10.976  11.523  68.571  1.00  0.00    -0.268 A  
HETATM   10  H   UNL     1     -12.817  14.343  66.468  1.00  0.00     0.000 HD 
HETATM   11  C   UNL     1      -9.956  10.822  67.920  1.00  0.00    -0.174 A  
HETATM   12  C   UNL     1      -9.717  11.083  66.564  1.00  0.00    -0.230 A  
ENDROOT
BRANCH  11  13
HETATM   13  O   UNL     1      -9.277   9.934  68.724  1.00  0.00    -0.138 OA 
BRANCH  13  14
HETATM   14  C   UNL     1      -8.641   8.830  68.081  1.00  0.00    -0.134 C  
BRANCH  14  15
HETATM   15  C   UNL     1      -9.683   7.902  67.413  1.00  0.00    -0.210 C  
BRANCH  15  16
HETATM   16  C   UNL     1      -9.810   6.616  68.242  1.00  0.00    -0.137 C  
BRANCH  16  17
HETATM   17  C   UNL     1     -11.185   6.244  68.809  1.00  0.00    -0.357 C  
BRANCH  17  18
HETATM   18  C   UNL     1     -11.287   6.228  70.292  1.00  0.00    -0.388 A  
HETATM   19  N   UNL     1     -12.061   7.072  70.955  1.00  0.00    -0.364 NA 
HETATM   20  N   UNL     1     -11.992   6.731  72.270  1.00  0.00    -0.250 NA 
HETATM   21  N   UNL     1     -11.178   5.710  72.442  1.00  0.00    -0.281 NA 
HETATM   22  N   UNL     1     -10.767   5.334  71.207  1.00  0.00    -0.177 NA 
BRANCH  22  23
HETATM   23  C   UNL     1      -9.842   4.206  71.127  1.00  0.00    -0.174 C  
HETATM   24  C   UNL     1      -8.369   4.630  71.386  1.00  0.00    -0.108 C  
HETATM   25  C   UNL     1      -8.155   5.030  72.848  1.00  0.00    -0.105 C  
HETATM   26  C   UNL     1      -8.483   3.870  73.782  1.00  0.00    -0.091 C  
HETATM   27  C   UNL     1      -9.867   3.278  73.514  1.00  0.00    -0.161 C  
HETATM   28  C   UNL     1     -10.104   2.988  72.029  1.00  0.00    -0.180 C  
ENDBRANCH  22  23
ENDBRANCH  17  18
ENDBRANCH  16  17
ENDBRANCH  15  16
ENDBRANCH  14  15
ENDBRANCH  13  14
ENDBRANCH  11  13
TORSDOF 7
ENDMDL
MODEL      253
REMARK 921   NORMALIZED FREE ENERGY PREDICTED BY IDOCK:   -4.54 KCAL/MOL
REMARK 922        TOTAL FREE ENERGY PREDICTED BY IDOCK:   -7.41 KCAL/MOL
REMARK 923 INTER-LIGAND FREE ENERGY PREDICTED BY IDOCK:   -6.97 KCAL/MOL
REMARK 924 INTRA-LIGAND FREE ENERGY PREDICTED BY IDOCK:   -0.44 KCAL/MOL
REMARK 927      BINDING AFFINITY PREDICTED BY RF-SCORE:    0.00 PKD
ROOT
HETATM    1  O   UNL     1     -11.742  16.343  63.795  1.00  0.00    -1.049 OA 
HETATM    2  C   UNL     1     -11.219  15.466  64.479  1.00  0.00    -0.299 C  
HETATM    3  C   UNL     1     -10.623  15.746  65.839  1.00  0.00    -0.350 C  
HETATM    4  C   UNL     1     -10.745  14.560  66.788  1.00  0.00    -0.291 C  
HETATM    5  C   UNL     1     -10.383  13.256  66.128  1.00  0.00    -0.290 A  
HETATM    6  C   UNL     1     -10.552  13.127  64.744  1.00  0.00    -0.372 A  
HETATM    7  N   UNL     1     -11.033  14.203  63.991  1.00  0.00    -0.464 N  
HETATM    8  C   UNL     1     -10.292  11.914  64.115  1.00  0.00    -0.377 A  
HETATM    9  C   UNL     1      -9.869  10.813  64.871  1.00  0.00    -0.350 A  
HETATM   10  H   UNL     1     -11.262  14.033  63.012  1.00  0.00     0.000 HD 
HETATM   11  C   UNL     1      -9.725  10.904  66.259  1.00  0.00    -0.204 A  
HETATM   12  C   UNL     1      -9.982  12.132  66.884  1.00  0.00    -0.217 A  
ENDROOT
BRANCH  11  13
HETATM   13  O   UNL     1      -9.346   9.729  66.867  1.00  0.00    -0.144 OA 
BRANCH  13  14
HETATM   14  C   UNL     1      -7.960   9.390  66.817  1.00  0.00    -0.108 C  
BRANCH  14  15
HETATM   15  C   UNL     1      -7.453   8.926  68.203  1.00  0.00    -0.092 C  
BRANCH  15  16
HETATM   16  C   UNL     1      -8.651   8.800  69.156  1.00  0.00    -0.128 C  
BRANCH  16  17
HETATM   17  C   UNL     1      -8.747   7.560  70.051  1.00  0.00    -0.140 C  
BRANCH  17  18
HETATM   18  C   UNL     1      -9.646   7.684  71.229  1.00  0.00    -0.157 A  
HETATM   19  N   UNL     1      -9.891   8.848  71.809  1.00  0.00    -0.319 NA 
HETATM   20  N   UNL     1     -10.812   8.623  72.785  1.00  0.00    -0.011 NA 
HETATM   21  N   UNL     1     -11.127   7.344  72.840  1.00  0.00    -0.343 NA 
HETATM   22  N   UNL     1     -10.454   6.739  71.832  1.00  0.00    -0.199 NA 
BRANCH  22  23
HETATM   23  C   UNL     1     -10.636   5.298  71.679  1.00  0.00    -0.192 C  
HETATM   24  C   UNL     1      -9.347   4.588  71.180  1.00  0.00    -0.212 C  
HETATM   25  C   UNL     1      -8.258   4.593  72.256  1.00  0.00    -0.114 C  
HETATM   26  C   UNL     1      -8.734   3.876  73.515  1.00  0.00    -0.090 C  
HETATM   27  C   UNL     1     -10.080   4.403  74.013  1.00  0.00    -0.221 C  
HETATM   28  C   UNL     1     -11.124   4.496  72.897  1.00  0.00    -0.239 C  
ENDBRANCH  22  23
ENDBRANCH  17  18
ENDBRANCH  16  17
ENDBRANCH  15  16
ENDBRANCH  14  15
ENDBRANCH  13  14
ENDBRANCH  11  13
TORSDOF 7
ENDMDL
MODEL      254
REMARK 921   NORMALIZED FREE ENERGY PREDICTED BY IDOCK:   -4.53 KCAL/MOL
REMARK 922        TOTAL FREE ENERGY PREDICTED BY IDOCK:   -7.39 KCAL/MOL
REMARK 923 INTER-LIGAND FREE ENERGY PREDICTED BY IDOCK:   -6.62 KCAL/MOL
REMARK 924 INTRA-LIGAND FREE ENERGY PREDICTED BY IDOCK:   -0.77 KCAL/MOL
REMARK 927      BINDING AFFINITY PREDICTED BY RF-SCORE:    0.00 PKD
ROOT
HETATM    1  O   UNL     1     -12.854  15.194  63.808  1.00  0.00    -0.636 OA 
HETATM    2  C   UNL     1     -12.014  14.407  64.239  1.00  0.00    -0.410 C  
HETATM    3  C   UNL     1     -11.269  14.644  65.531  1.00  0.00    -0.343 C  
HETATM    4  C   UNL     1     -10.918  13.348  66.251  1.00  0.00    -0.296 C  
HETATM    5  C   UNL     1     -10.370  12.301  65.318  1.00  0.00    -0.311 A  
HETATM    6  C   UNL     1     -10.752  12.329  63.970  1.00  0.00    -0.396 A  
HETATM    7  N   UNL     1     -11.614  13.326  63.504  1.00  0.00    -0.679 N  
HETATM    8  C   UNL     1     -10.318  11.336  63.098  1.00  0.00    -0.338 A  
HETATM    9  C   UNL     1      -9.505  10.298  63.571  1.00  0.00    -0.345 A  
HETATM   10  H   UNL     1     -11.968  13.241  62.551  1.00  0.00     0.000 HD 
HETATM   11  C   UNL     1      -9.138  10.227  64.918  1.00  0.00    -0.213 A  
HETATM   12  C   UNL     1      -9.573  11.235  65.790  1.00  0.00    -0.256 A  
ENDROOT
BRANCH  11  13
HETATM   13  O   UNL     1      -8.375   9.128  65.239  1.00  0.00    -0.129 OA 
BRANCH  13  14
HETATM   14  C   UNL     1      -8.073   8.215  64.184  1.00  0.00    -0.128 C  
BRANCH  14  15
HETATM   15  C   UNL     1      -6.664   7.601  64.369  1.00  0.00    -0.048 C  
BRANCH  15  16
HETATM   16  C   UNL     1      -6.688   6.653  65.576  1.00  0.00    -0.051 C  
BRANCH  16  17
HETATM   17  C   UNL     1      -7.810   5.612  65.666  1.00  0.00    -0.099 C  
BRANCH  17  18
HETATM   18  C   UNL     1      -7.871   4.840  66.935  1.00  0.00    -0.099 A  
HETATM   19  N   UNL     1      -7.574   3.552  66.992  1.00  0.00    -0.078 NA 
HETATM   20  N   UNL     1      -7.644   3.182  68.300  1.00  0.00    -0.053 NA 
HETATM   21  N   UNL     1      -7.998   4.204  69.052  1.00  0.00    -0.067 NA 
HETATM   22  N   UNL     1      -8.089   5.275  68.228  1.00  0.00    -0.094 NA 
BRANCH  22  23
HETATM   23  C   UNL     1      -8.474   6.548  68.831  1.00  0.00    -0.122 C  
HETATM   24  C   UNL     1      -9.556   7.293  67.999  1.00  0.00    -0.148 C  
HETATM   25  C   UNL     1     -10.902   6.566  68.061  1.00  0.00    -0.372 C  
HETATM   26  C   UNL     1     -11.399   6.465  69.499  1.00  0.00    -0.460 C  
HETATM   27  C   UNL     1     -10.348   5.874  70.440  1.00  0.00    -0.294 C  
HETATM   28  C   UNL     1      -8.979   6.540  70.283  1.00  0.00    -0.155 C  
ENDBRANCH  22  23
ENDBRANCH  17  18
ENDBRANCH  16  17
ENDBRANCH  15  16
ENDBRANCH  14  15
ENDBRANCH  13  14
ENDBRANCH  11  13
TORSDOF 7
ENDMDL
MODEL      255
REMARK 921   NORMALIZED FREE ENERGY PREDICTED BY IDOCK:   -4.51 KCAL/MOL
REMARK 922        TOTAL FREE ENERGY PREDICTED BY IDOCK:   -7.37 KCAL/MOL
REMARK 923 INTER-LIGAND FREE ENERGY PREDICTED BY IDOCK:   -7.38 KCAL/MOL
REMARK 924 INTRA-LIGAND FREE ENERGY PREDICTED BY IDOCK:    0.00 KCAL/MOL
REMARK 927      BINDING AFFINITY PREDICTED BY RF-SCORE:    0.00 PKD
ROOT
HETATM    1  O   UNL     1      -5.685   8.391  66.281  1.00  0.00    -0.041 OA 
HETATM    2  C   UNL     1      -6.599   9.081  65.836  1.00  0.00    -0.064 C  
HETATM    3  C   UNL     1      -6.545   9.710  64.463  1.00  0.00    -0.102 C  
HETATM    4  C   UNL     1      -7.920   9.826  63.817  1.00  0.00    -0.145 C  
HETATM    5  C   UNL     1      -8.963  10.340  64.774  1.00  0.00    -0.232 A  
HETATM    6  C   UNL     1      -8.798  10.107  66.145  1.00  0.00    -0.145 A  
HETATM    7  N   UNL     1      -7.671   9.424  66.612  1.00  0.00    -0.097 N  
HETATM    8  C   UNL     1      -9.778  10.508  67.048  1.00  0.00    -0.212 A  
HETATM    9  C   UNL     1     -10.939  11.138  66.583  1.00  0.00    -0.289 A  
HETATM   10  H   UNL     1      -7.647   9.164  67.598  1.00  0.00     0.000 HD 
HETATM   11  C   UNL     1     -11.146  11.351  65.217  1.00  0.00    -0.129 A  
HETATM   12  C   UNL     1     -10.151  10.951  64.314  1.00  0.00    -0.413 A  
ENDROOT
BRANCH  11  13
HETATM   13  O   UNL     1     -12.351  11.940  64.912  1.00  0.00    -0.302 OA 
BRANCH  13  14
HETATM   14  C   UNL     1     -12.392  12.777  63.756  1.00  0.00    -0.446 C  
BRANCH  14  15
HETATM   15  C   UNL     1     -12.027  14.237  64.117  1.00  0.00    -0.401 C  
BRANCH  15  16
HETATM   16  C   UNL     1     -11.373  14.259  65.506  1.00  0.00    -0.325 C  
BRANCH  16  17
HETATM   17  C   UNL     1     -10.535  15.481  65.901  1.00  0.00    -0.356 C  
BRANCH  17  18
HETATM   18  C   UNL     1     -10.660  15.916  67.317  1.00  0.00    -0.314 A  
HETATM   19  N   UNL     1     -11.472  15.314  68.171  1.00  0.00    -0.340 NA 
HETATM   20  N   UNL     1     -11.278  15.895  69.386  1.00  0.00    -0.310 NA 
HETATM   21  N   UNL     1     -10.381  16.856  69.303  1.00  0.00    -0.314 NA 
HETATM   22  N   UNL     1      -9.930  16.851  68.025  1.00  0.00    -0.269 NA 
BRANCH  22  23
HETATM   23  C   UNL     1      -8.915  17.840  67.673  1.00  0.00    -0.249 C  
HETATM   24  C   UNL     1      -9.186  18.500  66.292  1.00  0.00    -0.231 C  
HETATM   25  C   UNL     1     -10.417  19.408  66.342  1.00  0.00    -0.581 C  
HETATM   26  C   UNL     1     -10.231  20.521  67.367  1.00  0.00    -0.342 C  
HETATM   27  C   UNL     1      -9.817  19.987  68.739  1.00  0.00    -0.335 C  
HETATM   28  C   UNL     1      -8.655  18.994  68.656  1.00  0.00    -0.389 C  
ENDBRANCH  22  23
ENDBRANCH  17  18
ENDBRANCH  16  17
ENDBRANCH  15  16
ENDBRANCH  14  15
ENDBRANCH  13  14
ENDBRANCH  11  13
TORSDOF 7
ENDMDL
MODEL      256
REMARK 921   NORMALIZED FREE ENERGY PREDICTED BY IDOCK:   -4.51 KCAL/MOL
REMARK 922        TOTAL FREE ENERGY PREDICTED BY IDOCK:   -7.37 KCAL/MOL
REMARK 923 INTER-LIGAND FREE ENERGY PREDICTED BY IDOCK:   -6.44 KCAL/MOL
REMARK 924 INTRA-LIGAND FREE ENERGY PREDICTED BY IDOCK:   -0.93 KCAL/MOL
REMARK 927      BINDING AFFINITY PREDICTED BY RF-SCORE:    0.00 PKD
ROOT
HETATM    1  O   UNL     1     -13.278  12.091  62.972  1.00  0.00    -0.427 OA 
HETATM    2  C   UNL     1     -12.288  11.982  63.691  1.00  0.00    -0.539 C  
HETATM    3  C   UNL     1     -12.187  12.656  65.039  1.00  0.00    -0.535 C  
HETATM    4  C   UNL     1     -11.357  11.855  66.034  1.00  0.00    -0.375 C  
HETATM    5  C   UNL     1     -10.084  11.327  65.427  1.00  0.00    -0.314 A  
HETATM    6  C   UNL     1     -10.042  11.082  64.049  1.00  0.00    -0.350 A  
HETATM    7  N   UNL     1     -11.161  11.343  63.253  1.00  0.00    -0.838 N  
HETATM    8  C   UNL     1      -8.904  10.529  63.470  1.00  0.00    -0.208 A  
HETATM    9  C   UNL     1      -7.801  10.206  64.269  1.00  0.00    -0.140 A  
HETATM   10  H   UNL     1     -11.136  11.036  62.282  1.00  0.00     0.000 HD 
HETATM   11  C   UNL     1      -7.829  10.407  65.653  1.00  0.00    -0.154 A  
HETATM   12  C   UNL     1      -8.975  10.972  66.228  1.00  0.00    -0.195 A  
ENDROOT
BRANCH  11  13
HETATM   13  O   UNL     1      -6.689  10.002  66.307  1.00  0.00    -0.085 OA 
BRANCH  13  14
HETATM   14  C   UNL     1      -6.375   8.610  66.265  1.00  0.00    -0.061 C  
BRANCH  14  15
HETATM   15  C   UNL     1      -7.077   7.849  67.415  1.00  0.00    -0.083 C  
BRANCH  15  16
HETATM   16  C   UNL     1      -6.064   6.906  68.080  1.00  0.00    -0.033 C  
BRANCH  16  17
HETATM   17  C   UNL     1      -6.262   6.546  69.558  1.00  0.00    -0.034 C  
BRANCH  17  18
HETATM   18  C   UNL     1      -6.876   7.605  70.401  1.00  0.00    -0.047 A  
HETATM   19  N   UNL     1      -6.326   8.800  70.545  1.00  0.00    -0.036 NA 
HETATM   20  N   UNL     1      -7.180   9.545  71.298  1.00  0.00    -0.330 NA 
HETATM   21  N   UNL     1      -8.235   8.836  71.643  1.00  0.00    -0.284 NA 
HETATM   22  N   UNL     1      -8.100   7.629  71.042  1.00  0.00    -0.094 NA 
BRANCH  22  23
HETATM   23  C   UNL     1      -9.156   6.648  71.274  1.00  0.00    -0.151 C  
HETATM   24  C   UNL     1     -10.576   7.253  71.096  1.00  0.00    -0.236 C  
HETATM   25  C   UNL     1     -10.858   7.586  69.628  1.00  0.00    -0.210 C  
HETATM   26  C   UNL     1     -10.766   6.336  68.760  1.00  0.00    -0.352 C  
HETATM   27  C   UNL     1      -9.455   5.577  68.967  1.00  0.00    -0.167 C  
HETATM   28  C   UNL     1      -9.135   5.351  70.447  1.00  0.00    -0.170 C  
ENDBRANCH  22  23
ENDBRANCH  17  18
ENDBRANCH  16  17
ENDBRANCH  15  16
ENDBRANCH  14  15
ENDBRANCH  13  14
ENDBRANCH  11  13
TORSDOF 7
ENDMDL
MODEL      257
REMARK 921   NORMALIZED FREE ENERGY PREDICTED BY IDOCK:   -4.50 KCAL/MOL
REMARK 922        TOTAL FREE ENERGY PREDICTED BY IDOCK:   -7.36 KCAL/MOL
REMARK 923 INTER-LIGAND FREE ENERGY PREDICTED BY IDOCK:   -6.56 KCAL/MOL
REMARK 924 INTRA-LIGAND FREE ENERGY PREDICTED BY IDOCK:   -0.80 KCAL/MOL
REMARK 927      BINDING AFFINITY PREDICTED BY RF-SCORE:    0.00 PKD
ROOT
HETATM    1  O   UNL     1     -10.479   4.767  72.431  1.00  0.00    -0.196 OA 
HETATM    2  C   UNL     1     -10.134   5.487  71.497  1.00  0.00    -0.205 C  
HETATM    3  C   UNL     1      -9.021   6.501  71.624  1.00  0.00    -0.143 C  
HETATM    4  C   UNL     1      -8.259   6.701  70.319  1.00  0.00    -0.126 C  
HETATM    5  C   UNL     1      -9.175   6.822  69.131  1.00  0.00    -0.137 A  
HETATM    6  C   UNL     1     -10.430   6.202  69.176  1.00  0.00    -0.251 A  
HETATM    7  N   UNL     1     -10.826   5.499  70.318  1.00  0.00    -0.264 N  
HETATM    8  C   UNL     1     -11.271   6.238  68.069  1.00  0.00    -0.223 A  
HETATM    9  C   UNL     1     -10.857   6.887  66.899  1.00  0.00    -0.380 A  
HETATM   10  H   UNL     1     -11.688   4.958  70.268  1.00  0.00     0.000 HD 
HETATM   11  C   UNL     1      -9.595   7.484  66.814  1.00  0.00    -0.206 A  
HETATM   12  C   UNL     1      -8.756   7.451  67.937  1.00  0.00    -0.123 A  
ENDROOT
BRANCH  11  13
HETATM   13  O   UNL     1      -9.315   8.043  65.588  1.00  0.00    -0.027 OA 
BRANCH  13  14
HETATM   14  C   UNL     1      -8.214   8.949  65.523  1.00  0.00    -0.129 C  
BRANCH  14  15
HETATM   15  C   UNL     1      -8.703  10.417  65.524  1.00  0.00    -0.190 C  
BRANCH  15  16
HETATM   16  C   UNL     1      -9.969  10.521  64.660  1.00  0.00    -0.415 C  
BRANCH  16  17
HETATM   17  C   UNL     1     -11.242  11.092  65.295  1.00  0.00     0.104 C  
BRANCH  17  18
HETATM   18  C   UNL     1     -11.412  12.565  65.186  1.00  0.00    -0.328 A  
HETATM   19  N   UNL     1     -12.229  13.117  64.303  1.00  0.00    -0.494 NA 
HETATM   20  N   UNL     1     -12.214  14.459  64.528  1.00  0.00    -0.533 NA 
HETATM   21  N   UNL     1     -11.392  14.755  65.514  1.00  0.00    -0.340 NA 
HETATM   22  N   UNL     1     -10.919  13.576  65.987  1.00  0.00    -0.276 NA 
BRANCH  22  23
HETATM   23  C   UNL     1      -9.973  13.636  67.098  1.00  0.00    -0.247 C  
HETATM   24  C   UNL     1      -9.747  15.087  67.606  1.00  0.00    -0.215 C  
HETATM   25  C   UNL     1     -10.995  15.630  68.307  1.00  0.00    -0.315 C  
HETATM   26  C   UNL     1     -11.365  14.763  69.506  1.00  0.00    -0.312 C  
HETATM   27  C   UNL     1     -11.471  13.282  69.143  1.00  0.00    -0.357 C  
HETATM   28  C   UNL     1     -10.263  12.784  68.345  1.00  0.00    -0.237 C  
ENDBRANCH  22  23
ENDBRANCH  17  18
ENDBRANCH  16  17
ENDBRANCH  15  16
ENDBRANCH  14  15
ENDBRANCH  13  14
ENDBRANCH  11  13
TORSDOF 7
ENDMDL
MODEL      258
REMARK 921   NORMALIZED FREE ENERGY PREDICTED BY IDOCK:   -4.50 KCAL/MOL
REMARK 922        TOTAL FREE ENERGY PREDICTED BY IDOCK:   -7.36 KCAL/MOL
REMARK 923 INTER-LIGAND FREE ENERGY PREDICTED BY IDOCK:   -6.42 KCAL/MOL
REMARK 924 INTRA-LIGAND FREE ENERGY PREDICTED BY IDOCK:   -0.93 KCAL/MOL
REMARK 927      BINDING AFFINITY PREDICTED BY RF-SCORE:    0.00 PKD
ROOT
HETATM    1  O   UNL     1      -6.611   9.906  62.337  1.00  0.00    -0.101 OA 
HETATM    2  C   UNL     1      -7.462   9.927  63.223  1.00  0.00    -0.131 C  
HETATM    3  C   UNL     1      -7.596   8.823  64.245  1.00  0.00    -0.117 C  
HETATM    4  C   UNL     1      -8.088   9.331  65.595  1.00  0.00    -0.112 C  
HETATM    5  C   UNL     1      -9.236  10.295  65.463  1.00  0.00    -0.232 A  
HETATM    6  C   UNL     1      -9.353  11.053  64.291  1.00  0.00    -0.205 A  
HETATM    7  N   UNL     1      -8.425  10.898  63.257  1.00  0.00    -0.369 N  
HETATM    8  C   UNL     1     -10.362  12.002  64.167  1.00  0.00    -0.381 A  
HETATM    9  C   UNL     1     -11.259  12.209  65.223  1.00  0.00    -0.381 A  
HETATM   10  H   UNL     1      -8.468  11.552  62.477  1.00  0.00     0.000 HD 
HETATM   11  C   UNL     1     -11.144  11.491  66.418  1.00  0.00    -0.269 A  
HETATM   12  C   UNL     1     -10.129  10.531  66.532  1.00  0.00    -0.280 A  
ENDROOT
BRANCH  11  13
HETATM   13  O   UNL     1     -12.070  11.835  67.376  1.00  0.00    -0.595 OA 
BRANCH  13  14
HETATM   14  C   UNL     1     -11.702  12.862  68.296  1.00  0.00    -0.350 C  
BRANCH  14  15
HETATM   15  C   UNL     1     -11.706  12.331  69.750  1.00  0.00    -0.368 C  
BRANCH  15  16
HETATM   16  C   UNL     1     -12.033  10.831  69.731  1.00  0.00    -0.397 C  
BRANCH  16  17
HETATM   17  C   UNL     1     -10.877   9.829  69.835  1.00  0.00    -0.306 C  
BRANCH  17  18
HETATM   18  C   UNL     1     -11.095   8.689  70.763  1.00  0.00    -0.255 A  
HETATM   19  N   UNL     1     -12.298   8.188  70.995  1.00  0.00    -0.207 NA 
HETATM   20  N   UNL     1     -12.134   7.111  71.810  1.00  0.00    -0.312 NA 
HETATM   21  N   UNL     1     -10.861   6.945  72.108  1.00  0.00    -0.220 NA 
HETATM   22  N   UNL     1     -10.178   7.887  71.414  1.00  0.00    -0.189 NA 
BRANCH  22  23
HETATM   23  C   UNL     1      -8.727   7.913  71.578  1.00  0.00    -0.125 C  
HETATM   24  C   UNL     1      -8.137   6.503  71.856  1.00  0.00    -0.104 C  
HETATM   25  C   UNL     1      -8.236   5.605  70.620  1.00  0.00    -0.118 C  
HETATM   26  C   UNL     1      -7.474   6.212  69.446  1.00  0.00    -0.093 C  
HETATM   27  C   UNL     1      -7.877   7.661  69.176  1.00  0.00    -0.118 C  
HETATM   28  C   UNL     1      -7.880   8.517  70.445  1.00  0.00    -0.089 C  
ENDBRANCH  22  23
ENDBRANCH  17  18
ENDBRANCH  16  17
ENDBRANCH  15  16
ENDBRANCH  14  15
ENDBRANCH  13  14
ENDBRANCH  11  13
TORSDOF 7
ENDMDL
MODEL      259
REMARK 921   NORMALIZED FREE ENERGY PREDICTED BY IDOCK:   -4.50 KCAL/MOL
REMARK 922        TOTAL FREE ENERGY PREDICTED BY IDOCK:   -7.35 KCAL/MOL
REMARK 923 INTER-LIGAND FREE ENERGY PREDICTED BY IDOCK:   -6.97 KCAL/MOL
REMARK 924 INTRA-LIGAND FREE ENERGY PREDICTED BY IDOCK:   -0.38 KCAL/MOL
REMARK 927      BINDING AFFINITY PREDICTED BY RF-SCORE:    0.00 PKD
ROOT
HETATM    1  O   UNL     1     -10.206  17.867  66.555  1.00  0.00    -0.347 OA 
HETATM    2  C   UNL     1     -10.418  16.908  67.295  1.00  0.00    -0.301 C  
HETATM    3  C   UNL     1     -10.400  17.027  68.801  1.00  0.00    -0.336 C  
HETATM    4  C   UNL     1     -11.371  16.067  69.476  1.00  0.00    -0.344 C  
HETATM    5  C   UNL     1     -11.311  14.681  68.890  1.00  0.00    -0.305 A  
HETATM    6  C   UNL     1     -10.911  14.527  67.557  1.00  0.00    -0.293 A  
HETATM    7  N   UNL     1     -10.558  15.644  66.794  1.00  0.00    -0.306 N  
HETATM    8  C   UNL     1     -10.912  13.267  66.966  1.00  0.00    -0.291 A  
HETATM    9  C   UNL     1     -11.323  12.151  67.704  1.00  0.00    -0.379 A  
HETATM   10  H   UNL     1     -10.395  15.507  65.797  1.00  0.00     0.000 HD 
HETATM   11  C   UNL     1     -11.760  12.281  69.026  1.00  0.00    -0.324 A  
HETATM   12  C   UNL     1     -11.750  13.552  69.617  1.00  0.00    -0.378 A  
ENDROOT
BRANCH  11  13
HETATM   13  O   UNL     1     -12.173  11.103  69.605  1.00  0.00    -0.320 OA 
BRANCH  13  14
HETATM   14  C   UNL     1     -12.765  11.188  70.901  1.00  0.00    -0.344 C  
BRANCH  14  15
HETATM   15  C   UNL     1     -12.723   9.818  71.619  1.00  0.00    -0.517 C  
BRANCH  15  16
HETATM   16  C   UNL     1     -11.787   8.877  70.846  1.00  0.00    -0.283 C  
BRANCH  16  17
HETATM   17  C   UNL     1     -11.710   7.407  71.274  1.00  0.00    -0.316 C  
BRANCH  17  18
HETATM   18  C   UNL     1     -10.812   7.119  72.423  1.00  0.00    -0.246 A  
HETATM   19  N   UNL     1     -11.146   6.272  73.384  1.00  0.00    -0.137 NA 
HETATM   20  N   UNL     1     -10.077   6.173  74.220  1.00  0.00    -0.282 NA 
HETATM   21  N   UNL     1      -9.096   6.953  73.814  1.00  0.00    -0.154 NA 
HETATM   22  N   UNL     1      -9.508   7.514  72.652  1.00  0.00    -0.152 NA 
BRANCH  22  23
HETATM   23  C   UNL     1      -8.586   8.435  71.993  1.00  0.00    -0.191 C  
HETATM   24  C   UNL     1      -7.174   8.425  72.643  1.00  0.00    -0.114 C  
HETATM   25  C   UNL     1      -6.449   7.104  72.373  1.00  0.00    -0.052 C  
HETATM   26  C   UNL     1      -6.280   6.873  70.875  1.00  0.00    -0.036 C  
HETATM   27  C   UNL     1      -7.598   7.006  70.112  1.00  0.00    -0.095 C  
HETATM   28  C   UNL     1      -8.363   8.280  70.479  1.00  0.00    -0.124 C  
ENDBRANCH  22  23
ENDBRANCH  17  18
ENDBRANCH  16  17
ENDBRANCH  15  16
ENDBRANCH  14  15
ENDBRANCH  13  14
ENDBRANCH  11  13
TORSDOF 7
ENDMDL
MODEL      260
REMARK 921   NORMALIZED FREE ENERGY PREDICTED BY IDOCK:   -4.49 KCAL/MOL
REMARK 922        TOTAL FREE ENERGY PREDICTED BY IDOCK:   -7.35 KCAL/MOL
REMARK 923 INTER-LIGAND FREE ENERGY PREDICTED BY IDOCK:   -6.70 KCAL/MOL
REMARK 924 INTRA-LIGAND FREE ENERGY PREDICTED BY IDOCK:   -0.65 KCAL/MOL
REMARK 927      BINDING AFFINITY PREDICTED BY RF-SCORE:    0.00 PKD
ROOT
HETATM    1  O   UNL     1     -11.985  14.465  65.480  1.00  0.00    -0.362 OA 
HETATM    2  C   UNL     1     -11.593  13.300  65.464  1.00  0.00    -0.326 C  
HETATM    3  C   UNL     1     -11.321  12.554  64.179  1.00  0.00    -0.440 C  
HETATM    4  C   UNL     1     -10.198  11.534  64.320  1.00  0.00    -0.361 C  
HETATM    5  C   UNL     1     -10.314  10.722  65.582  1.00  0.00    -0.297 A  
HETATM    6  C   UNL     1     -10.959  11.282  66.692  1.00  0.00    -0.268 A  
HETATM    7  N   UNL     1     -11.500  12.568  66.615  1.00  0.00    -0.338 N  
HETATM    8  C   UNL     1     -11.021  10.583  67.893  1.00  0.00    -0.352 A  
HETATM    9  C   UNL     1     -10.427   9.320  67.997  1.00  0.00    -0.275 A  
HETATM   10  H   UNL     1     -11.849  12.989  67.476  1.00  0.00     0.000 HD 
HETATM   11  C   UNL     1      -9.746   8.752  66.916  1.00  0.00    -0.210 A  
HETATM   12  C   UNL     1      -9.694   9.458  65.706  1.00  0.00    -0.354 A  
ENDROOT
BRANCH  11  13
HETATM   13  O   UNL     1      -9.179   7.527  67.184  1.00  0.00    -0.128 OA 
BRANCH  13  14
HETATM   14  C   UNL     1      -8.927   6.670  66.071  1.00  0.00    -0.112 C  
BRANCH  14  15
HETATM   15  C   UNL     1      -9.862   5.437  66.097  1.00  0.00    -0.161 C  
BRANCH  15  16
HETATM   16  C   UNL     1     -10.085   5.011  67.555  1.00  0.00    -0.201 C  
BRANCH  16  17
HETATM   17  C   UNL     1      -8.937   4.317  68.298  1.00  0.00    -0.151 C  
BRANCH  17  18
HETATM   18  C   UNL     1      -9.310   3.635  69.565  1.00  0.00    -0.176 A  
HETATM   19  N   UNL     1      -9.526   2.331  69.627  1.00  0.00    -0.090 NA 
HETATM   20  N   UNL     1      -9.755   2.024  70.933  1.00  0.00    -0.108 NA 
HETATM   21  N   UNL     1      -9.708   3.109  71.679  1.00  0.00    -0.161 NA 
HETATM   22  N   UNL     1      -9.369   4.129  70.854  1.00  0.00    -0.134 NA 
BRANCH  22  23
HETATM   23  C   UNL     1      -9.253   5.457  71.450  1.00  0.00    -0.146 C  
HETATM   24  C   UNL     1      -9.734   6.581  70.490  1.00  0.00    -0.186 C  
HETATM   25  C   UNL     1     -11.251   6.526  70.289  1.00  0.00    -0.433 C  
HETATM   26  C   UNL     1     -11.982   6.695  71.616  1.00  0.00    -0.395 C  
HETATM   27  C   UNL     1     -11.479   5.726  72.686  1.00  0.00    -0.337 C  
HETATM   28  C   UNL     1      -9.952   5.713  72.796  1.00  0.00    -0.195 C  
ENDBRANCH  22  23
ENDBRANCH  17  18
ENDBRANCH  16  17
ENDBRANCH  15  16
ENDBRANCH  14  15
ENDBRANCH  13  14
ENDBRANCH  11  13
TORSDOF 7
ENDMDL
MODEL      261
REMARK 921   NORMALIZED FREE ENERGY PREDICTED BY IDOCK:   -4.48 KCAL/MOL
REMARK 922        TOTAL FREE ENERGY PREDICTED BY IDOCK:   -7.33 KCAL/MOL
REMARK 923 INTER-LIGAND FREE ENERGY PREDICTED BY IDOCK:   -6.14 KCAL/MOL
REMARK 924 INTRA-LIGAND FREE ENERGY PREDICTED BY IDOCK:   -1.19 KCAL/MOL
REMARK 927      BINDING AFFINITY PREDICTED BY RF-SCORE:    0.00 PKD
ROOT
HETATM    1  O   UNL     1      -6.040   9.682  63.199  1.00  0.00    -0.098 OA 
HETATM    2  C   UNL     1      -6.977  10.046  63.908  1.00  0.00    -0.124 C  
HETATM    3  C   UNL     1      -8.420   9.835  63.514  1.00  0.00    -0.184 C  
HETATM    4  C   UNL     1      -9.330   9.620  64.718  1.00  0.00    -0.286 C  
HETATM    5  C   UNL     1      -9.050  10.594  65.831  1.00  0.00    -0.201 A  
HETATM    6  C   UNL     1      -7.763  11.133  65.953  1.00  0.00     0.062 A  
HETATM    7  N   UNL     1      -6.764  10.780  65.041  1.00  0.00    -0.359 N  
HETATM    8  C   UNL     1      -7.455  11.981  67.012  1.00  0.00    -0.106 A  
HETATM    9  C   UNL     1      -8.432  12.290  67.965  1.00  0.00    -0.171 A  
HETATM   10  H   UNL     1      -5.812  11.091  65.234  1.00  0.00     0.000 HD 
HETATM   11  C   UNL     1      -9.716  11.739  67.887  1.00  0.00    -0.185 A  
HETATM   12  C   UNL     1     -10.021  10.891  66.814  1.00  0.00    -0.245 A  
ENDROOT
BRANCH  11  13
HETATM   13  O   UNL     1     -10.551  12.102  68.919  1.00  0.00    -0.212 OA 
BRANCH  13  14
HETATM   14  C   UNL     1     -11.825  12.640  68.566  1.00  0.00    -0.300 C  
BRANCH  14  15
HETATM   15  C   UNL     1     -11.672  14.012  67.867  1.00  0.00    -0.397 C  
BRANCH  15  16
HETATM   16  C   UNL     1     -11.378  15.082  68.927  1.00  0.00    -0.312 C  
BRANCH  16  17
HETATM   17  C   UNL     1     -10.012  15.779  68.904  1.00  0.00    -0.223 C  
BRANCH  17  18
HETATM   18  C   UNL     1      -9.923  16.990  68.047  1.00  0.00    -0.283 A  
HETATM   19  N   UNL     1     -10.752  18.013  68.183  1.00  0.00    -0.314 NA 
HETATM   20  N   UNL     1     -10.343  18.979  67.316  1.00  0.00    -0.397 NA 
HETATM   21  N   UNL     1      -9.294  18.572  66.630  1.00  0.00    -0.301 NA 
HETATM   22  N   UNL     1      -8.971  17.348  67.112  1.00  0.00    -0.235 NA 
BRANCH  22  23
HETATM   23  C   UNL     1      -7.826  16.674  66.505  1.00  0.00    -0.307 C  
HETATM   24  C   UNL     1      -6.769  17.675  65.962  1.00  0.00    -0.296 C  
HETATM   25  C   UNL     1      -6.057  18.405  67.104  1.00  0.00    -0.178 C  
HETATM   26  C   UNL     1      -5.343  17.415  68.018  1.00  0.00    -0.133 C  
HETATM   27  C   UNL     1      -6.265  16.294  68.498  1.00  0.00    -0.116 C  
HETATM   28  C   UNL     1      -7.053  15.651  67.354  1.00  0.00    -0.241 C  
ENDBRANCH  22  23
ENDBRANCH  17  18
ENDBRANCH  16  17
ENDBRANCH  15  16
ENDBRANCH  14  15
ENDBRANCH  13  14
ENDBRANCH  11  13
TORSDOF 7
ENDMDL
MODEL      262
REMARK 921   NORMALIZED FREE ENERGY PREDICTED BY IDOCK:   -4.48 KCAL/MOL
REMARK 922        TOTAL FREE ENERGY PREDICTED BY IDOCK:   -7.33 KCAL/MOL
REMARK 923 INTER-LIGAND FREE ENERGY PREDICTED BY IDOCK:   -6.47 KCAL/MOL
REMARK 924 INTRA-LIGAND FREE ENERGY PREDICTED BY IDOCK:   -0.85 KCAL/MOL
REMARK 927      BINDING AFFINITY PREDICTED BY RF-SCORE:    0.00 PKD
ROOT
HETATM    1  O   UNL     1     -12.979  12.619  63.892  1.00  0.00    -0.706 OA 
HETATM    2  C   UNL     1     -12.120  12.831  64.745  1.00  0.00    -0.432 C  
HETATM    3  C   UNL     1     -11.777  11.824  65.817  1.00  0.00    -0.093 C  
HETATM    4  C   UNL     1     -10.311  11.886  66.232  1.00  0.00    -0.259 C  
HETATM    5  C   UNL     1      -9.828  13.298  66.427  1.00  0.00    -0.281 A  
HETATM    6  C   UNL     1     -10.448  14.331  65.713  1.00  0.00    -0.316 A  
HETATM    7  N   UNL     1     -11.509  14.050  64.847  1.00  0.00    -0.342 N  
HETATM    8  C   UNL     1      -9.979  15.636  65.819  1.00  0.00    -0.390 A  
HETATM    9  C   UNL     1      -8.877  15.918  66.636  1.00  0.00    -0.316 A  
HETATM   10  H   UNL     1     -11.850  14.804  64.253  1.00  0.00     0.000 HD 
HETATM   11  C   UNL     1      -8.218  14.900  67.333  1.00  0.00    -0.197 A  
HETATM   12  C   UNL     1      -8.700  13.588  67.227  1.00  0.00    -0.228 A  
ENDROOT
BRANCH  11  13
HETATM   13  O   UNL     1      -7.128  15.325  68.057  1.00  0.00    -0.108 OA 
BRANCH  13  14
HETATM   14  C   UNL     1      -6.037  14.412  68.187  1.00  0.00    -0.137 C  
BRANCH  14  15
HETATM   15  C   UNL     1      -5.956  13.848  69.626  1.00  0.00    -0.114 C  
BRANCH  15  16
HETATM   16  C   UNL     1      -5.288  12.466  69.582  1.00  0.00    -0.079 C  
BRANCH  16  17
HETATM   17  C   UNL     1      -6.137  11.257  69.174  1.00  0.00    -0.053 C  
BRANCH  17  18
HETATM   18  C   UNL     1      -6.637  10.414  70.292  1.00  0.00    -0.141 A  
HETATM   19  N   UNL     1      -5.876  10.089  71.325  1.00  0.00    -0.227 NA 
HETATM   20  N   UNL     1      -6.659   9.397  72.197  1.00  0.00    -0.278 NA 
HETATM   21  N   UNL     1      -7.880   9.266  71.720  1.00  0.00    -0.249 NA 
HETATM   22  N   UNL     1      -7.911   9.949  70.551  1.00  0.00    -0.234 NA 
BRANCH  22  23
HETATM   23  C   UNL     1      -9.174   9.954  69.816  1.00  0.00    -0.227 C  
HETATM   24  C   UNL     1      -9.125   9.054  68.550  1.00  0.00    -0.133 C  
HETATM   25  C   UNL     1      -9.057   7.571  68.926  1.00  0.00    -0.140 C  
HETATM   26  C   UNL     1     -10.274   7.162  69.749  1.00  0.00    -0.215 C  
HETATM   27  C   UNL     1     -10.501   8.081  70.950  1.00  0.00    -0.223 C  
HETATM   28  C   UNL     1     -10.455   9.564  70.572  1.00  0.00    -0.358 C  
ENDBRANCH  22  23
ENDBRANCH  17  18
ENDBRANCH  16  17
ENDBRANCH  15  16
ENDBRANCH  14  15
ENDBRANCH  13  14
ENDBRANCH  11  13
TORSDOF 7
ENDMDL
MODEL      263
REMARK 921   NORMALIZED FREE ENERGY PREDICTED BY IDOCK:   -4.48 KCAL/MOL
REMARK 922        TOTAL FREE ENERGY PREDICTED BY IDOCK:   -7.32 KCAL/MOL
REMARK 923 INTER-LIGAND FREE ENERGY PREDICTED BY IDOCK:   -7.22 KCAL/MOL
REMARK 924 INTRA-LIGAND FREE ENERGY PREDICTED BY IDOCK:   -0.11 KCAL/MOL
REMARK 927      BINDING AFFINITY PREDICTED BY RF-SCORE:    0.00 PKD
ROOT
HETATM    1  O   UNL     1     -10.259   4.652  70.910  1.00  0.00    -0.211 OA 
HETATM    2  C   UNL     1     -10.234   5.855  70.658  1.00  0.00    -0.209 C  
HETATM    3  C   UNL     1      -9.143   6.486  69.825  1.00  0.00    -0.142 C  
HETATM    4  C   UNL     1      -9.638   7.678  69.017  1.00  0.00    -0.151 C  
HETATM    5  C   UNL     1     -10.512   8.599  69.827  1.00  0.00    -0.220 A  
HETATM    6  C   UNL     1     -11.237   8.072  70.904  1.00  0.00    -0.266 A  
HETATM    7  N   UNL     1     -11.130   6.716  71.227  1.00  0.00    -0.256 N  
HETATM    8  C   UNL     1     -12.105   8.882  71.627  1.00  0.00    -0.415 A  
HETATM    9  C   UNL     1     -12.265  10.227  71.272  1.00  0.00    -0.496 A  
HETATM   10  H   UNL     1     -11.764   6.345  71.933  1.00  0.00     0.000 HD 
HETATM   11  C   UNL     1     -11.581  10.770  70.180  1.00  0.00    -0.337 A  
HETATM   12  C   UNL     1     -10.702   9.950  69.459  1.00  0.00    -0.265 A  
ENDROOT
BRANCH  11  13
HETATM   13  O   UNL     1     -11.874  12.091  69.928  1.00  0.00    -0.320 OA 
BRANCH  13  14
HETATM   14  C   UNL     1     -10.987  12.800  69.064  1.00  0.00    -0.193 C  
BRANCH  14  15
HETATM   15  C   UNL     1     -11.775  13.621  68.015  1.00  0.00    -0.387 C  
BRANCH  15  16
HETATM   16  C   UNL     1     -12.268  14.921  68.666  1.00  0.00    -0.101 C  
BRANCH  16  17
HETATM   17  C   UNL     1     -11.375  16.165  68.585  1.00  0.00    -0.365 C  
BRANCH  17  18
HETATM   18  C   UNL     1     -10.537  16.276  67.362  1.00  0.00    -0.307 A  
HETATM   19  N   UNL     1     -10.994  15.954  66.162  1.00  0.00    -0.198 NA 
HETATM   20  N   UNL     1     -10.014  16.255  65.267  1.00  0.00    -0.482 NA 
HETATM   21  N   UNL     1      -8.953  16.735  65.884  1.00  0.00    -0.517 NA 
HETATM   22  N   UNL     1      -9.277  16.816  67.197  1.00  0.00    -0.220 NA 
BRANCH  22  23
HETATM   23  C   UNL     1      -8.252  17.324  68.105  1.00  0.00    -0.231 C  
HETATM   24  C   UNL     1      -7.725  16.230  69.075  1.00  0.00    -0.224 C  
HETATM   25  C   UNL     1      -6.903  15.176  68.330  1.00  0.00    -0.119 C  
HETATM   26  C   UNL     1      -5.701  15.813  67.640  1.00  0.00    -0.148 C  
HETATM   27  C   UNL     1      -6.093  17.004  66.766  1.00  0.00    -0.239 C  
HETATM   28  C   UNL     1      -7.008  17.992  67.494  1.00  0.00    -0.201 C  
ENDBRANCH  22  23
ENDBRANCH  17  18
ENDBRANCH  16  17
ENDBRANCH  15  16
ENDBRANCH  14  15
ENDBRANCH  13  14
ENDBRANCH  11  13
TORSDOF 7
ENDMDL
MODEL      264
REMARK 921   NORMALIZED FREE ENERGY PREDICTED BY IDOCK:   -4.47 KCAL/MOL
REMARK 922        TOTAL FREE ENERGY PREDICTED BY IDOCK:   -7.32 KCAL/MOL
REMARK 923 INTER-LIGAND FREE ENERGY PREDICTED BY IDOCK:   -6.15 KCAL/MOL
REMARK 924 INTRA-LIGAND FREE ENERGY PREDICTED BY IDOCK:   -1.17 KCAL/MOL
REMARK 927      BINDING AFFINITY PREDICTED BY RF-SCORE:    0.00 PKD
ROOT
HETATM    1  O   UNL     1     -10.123   5.045  67.352  1.00  0.00    -0.179 OA 
HETATM    2  C   UNL     1      -9.786   6.201  67.600  1.00  0.00    -0.116 C  
HETATM    3  C   UNL     1     -10.599   7.394  67.156  1.00  0.00    -0.413 C  
HETATM    4  C   UNL     1     -10.500   8.564  68.128  1.00  0.00    -0.236 C  
HETATM    5  C   UNL     1      -9.087   8.818  68.581  1.00  0.00    -0.141 A  
HETATM    6  C   UNL     1      -8.180   7.751  68.600  1.00  0.00    -0.128 A  
HETATM    7  N   UNL     1      -8.582   6.478  68.186  1.00  0.00    -0.119 N  
HETATM    8  C   UNL     1      -6.887   7.938  69.078  1.00  0.00    -0.057 A  
HETATM    9  C   UNL     1      -6.494   9.195  69.553  1.00  0.00    -0.043 A  
HETATM   10  H   UNL     1      -7.935   5.704  68.331  1.00  0.00     0.000 HD 
HETATM   11  C   UNL     1      -7.390  10.269  69.578  1.00  0.00    -0.132 A  
HETATM   12  C   UNL     1      -8.688  10.075  69.087  1.00  0.00    -0.168 A  
ENDROOT
BRANCH  11  13
HETATM   13  O   UNL     1      -6.871  11.426  70.112  1.00  0.00    -0.103 OA 
BRANCH  13  14
HETATM   14  C   UNL     1      -6.150  12.284  69.228  1.00  0.00    -0.094 C  
BRANCH  14  15
HETATM   15  C   UNL     1      -7.103  12.964  68.216  1.00  0.00    -0.102 C  
BRANCH  15  16
HETATM   16  C   UNL     1      -7.552  14.317  68.785  1.00  0.00    -0.130 C  
BRANCH  16  17
HETATM   17  C   UNL     1      -9.043  14.671  68.740  1.00  0.00    -0.178 C  
BRANCH  17  18
HETATM   18  C   UNL     1      -9.500  15.379  67.515  1.00  0.00    -0.205 A  
HETATM   19  N   UNL     1      -8.739  16.260  66.885  1.00  0.00    -0.190 NA 
HETATM   20  N   UNL     1      -9.415  16.647  65.769  1.00  0.00    -0.519 NA 
HETATM   21  N   UNL     1     -10.585  16.044  65.703  1.00  0.00    -0.375 NA 
HETATM   22  N   UNL     1     -10.640  15.195  66.757  1.00  0.00    -0.292 NA 
BRANCH  22  23
HETATM   23  C   UNL     1     -11.856  14.400  66.910  1.00  0.00    -0.410 C  
HETATM   24  C   UNL     1     -12.365  13.831  65.557  1.00  0.00    -0.507 C  
HETATM   25  C   UNL     1     -11.423  12.751  65.019  1.00  0.00    -0.356 C  
HETATM   26  C   UNL     1     -11.306  11.592  66.004  1.00  0.00    -0.261 C  
HETATM   27  C   UNL     1     -10.948  12.060  67.415  1.00  0.00    -0.311 C  
HETATM   28  C   UNL     1     -11.830  13.217  67.892  1.00  0.00    -0.390 C  
ENDBRANCH  22  23
ENDBRANCH  17  18
ENDBRANCH  16  17
ENDBRANCH  15  16
ENDBRANCH  14  15
ENDBRANCH  13  14
ENDBRANCH  11  13
TORSDOF 7
ENDMDL
MODEL      265
REMARK 921   NORMALIZED FREE ENERGY PREDICTED BY IDOCK:   -4.45 KCAL/MOL
REMARK 922        TOTAL FREE ENERGY PREDICTED BY IDOCK:   -7.29 KCAL/MOL
REMARK 923 INTER-LIGAND FREE ENERGY PREDICTED BY IDOCK:   -6.37 KCAL/MOL
REMARK 924 INTRA-LIGAND FREE ENERGY PREDICTED BY IDOCK:   -0.92 KCAL/MOL
REMARK 927      BINDING AFFINITY PREDICTED BY RF-SCORE:    0.00 PKD
ROOT
HETATM    1  O   UNL     1     -12.211  15.665  69.954  1.00  0.00    -0.362 OA 
HETATM    2  C   UNL     1     -12.225  14.437  69.897  1.00  0.00    -0.340 C  
HETATM    3  C   UNL     1     -11.841  13.679  68.648  1.00  0.00    -0.409 C  
HETATM    4  C   UNL     1     -11.196  12.333  68.955  1.00  0.00    -0.323 C  
HETATM    5  C   UNL     1     -11.931  11.575  70.028  1.00  0.00    -0.435 A  
HETATM    6  C   UNL     1     -12.659  12.291  70.986  1.00  0.00    -0.257 A  
HETATM    7  N   UNL     1     -12.713  13.686  70.930  1.00  0.00    -0.330 N  
HETATM    8  C   UNL     1     -13.291  11.622  72.030  1.00  0.00    -0.405 A  
HETATM    9  C   UNL     1     -13.190  10.229  72.129  1.00  0.00    -0.443 A  
HETATM   10  H   UNL     1     -13.146  14.177  71.712  1.00  0.00     0.000 HD 
HETATM   11  C   UNL     1     -12.440   9.493  71.207  1.00  0.00    -0.346 A  
HETATM   12  C   UNL     1     -11.812  10.172  70.153  1.00  0.00    -0.299 A  
ENDROOT
BRANCH  11  13
HETATM   13  O   UNL     1     -12.399   8.141  71.460  1.00  0.00    -0.294 OA 
BRANCH  13  14
HETATM   14  C   UNL     1     -11.406   7.380  70.774  1.00  0.00    -0.280 C  
BRANCH  14  15
HETATM   15  C   UNL     1     -10.912   6.201  71.645  1.00  0.00    -0.320 C  
BRANCH  15  16
HETATM   16  C   UNL     1      -9.429   6.416  71.981  1.00  0.00    -0.154 C  
BRANCH  16  17
HETATM   17  C   UNL     1      -8.377   5.642  71.178  1.00  0.00    -0.122 C  
BRANCH  17  18
HETATM   18  C   UNL     1      -7.709   6.405  70.091  1.00  0.00    -0.098 A  
HETATM   19  N   UNL     1      -6.537   6.996  70.261  1.00  0.00    -0.046 NA 
HETATM   20  N   UNL     1      -6.174   7.521  69.060  1.00  0.00    -0.034 NA 
HETATM   21  N   UNL     1      -7.102   7.289  68.153  1.00  0.00    -0.079 NA 
HETATM   22  N   UNL     1      -8.051   6.537  68.759  1.00  0.00    -0.117 NA 
BRANCH  22  23
HETATM   23  C   UNL     1      -9.205   6.144  67.953  1.00  0.00    -0.115 C  
HETATM   24  C   UNL     1      -8.844   5.964  66.452  1.00  0.00    -0.134 C  
HETATM   25  C   UNL     1      -7.956   4.735  66.239  1.00  0.00    -0.103 C  
HETATM   26  C   UNL     1      -8.660   3.467  66.710  1.00  0.00    -0.113 C  
HETATM   27  C   UNL     1      -9.188   3.590  68.140  1.00  0.00    -0.228 C  
HETATM   28  C   UNL     1      -9.981   4.881  68.364  1.00  0.00    -0.183 C  
ENDBRANCH  22  23
ENDBRANCH  17  18
ENDBRANCH  16  17
ENDBRANCH  15  16
ENDBRANCH  14  15
ENDBRANCH  13  14
ENDBRANCH  11  13
TORSDOF 7
ENDMDL
MODEL      266
REMARK 921   NORMALIZED FREE ENERGY PREDICTED BY IDOCK:   -4.44 KCAL/MOL
REMARK 922        TOTAL FREE ENERGY PREDICTED BY IDOCK:   -7.27 KCAL/MOL
REMARK 923 INTER-LIGAND FREE ENERGY PREDICTED BY IDOCK:   -6.56 KCAL/MOL
REMARK 924 INTRA-LIGAND FREE ENERGY PREDICTED BY IDOCK:   -0.71 KCAL/MOL
REMARK 927      BINDING AFFINITY PREDICTED BY RF-SCORE:    0.00 PKD
ROOT
HETATM    1  O   UNL     1      -6.464   6.316  63.792  1.00  0.00    -0.029 OA 
HETATM    2  C   UNL     1      -6.962   7.378  64.160  1.00  0.00    -0.057 C  
HETATM    3  C   UNL     1      -6.382   8.720  63.781  1.00  0.00    -0.080 C  
HETATM    4  C   UNL     1      -7.448   9.800  63.640  1.00  0.00    -0.130 C  
HETATM    5  C   UNL     1      -8.448   9.771  64.765  1.00  0.00    -0.172 A  
HETATM    6  C   UNL     1      -8.694   8.558  65.422  1.00  0.00    -0.159 A  
HETATM    7  N   UNL     1      -8.004   7.402  65.045  1.00  0.00    -0.125 N  
HETATM    8  C   UNL     1      -9.662   8.485  66.418  1.00  0.00    -0.328 A  
HETATM    9  C   UNL     1     -10.401   9.624  66.759  1.00  0.00    -0.292 A  
HETATM   10  H   UNL     1      -8.299   6.518  65.458  1.00  0.00     0.000 HD 
HETATM   11  C   UNL     1     -10.200  10.838  66.096  1.00  0.00    -0.250 A  
HETATM   12  C   UNL     1      -9.218  10.908  65.098  1.00  0.00    -0.240 A  
ENDROOT
BRANCH  11  13
HETATM   13  O   UNL     1     -11.031  11.854  66.511  1.00  0.00    -0.266 OA 
BRANCH  13  14
HETATM   14  C   UNL     1     -10.606  13.191  66.246  1.00  0.00    -0.284 C  
BRANCH  14  15
HETATM   15  C   UNL     1      -9.940  13.818  67.494  1.00  0.00    -0.233 C  
BRANCH  15  16
HETATM   16  C   UNL     1     -10.534  13.172  68.754  1.00  0.00    -0.187 C  
BRANCH  16  17
HETATM   17  C   UNL     1     -12.007  13.438  69.087  1.00  0.00    -0.363 C  
BRANCH  17  18
HETATM   18  C   UNL     1     -12.432  13.069  70.463  1.00  0.00    -0.231 A  
HETATM   19  N   UNL     1     -12.571  13.969  71.424  1.00  0.00    -0.359 NA 
HETATM   20  N   UNL     1     -13.052  13.317  72.517  1.00  0.00    -0.363 NA 
HETATM   21  N   UNL     1     -13.195  12.032  72.265  1.00  0.00    -0.340 NA 
HETATM   22  N   UNL     1     -12.870  11.857  70.961  1.00  0.00    -0.258 NA 
BRANCH  22  23
HETATM   23  C   UNL     1     -12.948  10.498  70.431  1.00  0.00    -0.144 C  
HETATM   24  C   UNL     1     -11.559   9.954  69.994  1.00  0.00    -0.235 C  
HETATM   25  C   UNL     1     -10.655   9.703  71.204  1.00  0.00    -0.327 C  
HETATM   26  C   UNL     1     -11.284   8.686  72.150  1.00  0.00    -0.438 C  
HETATM   27  C   UNL     1     -12.718   9.053  72.532  1.00  0.00    -0.373 C  
HETATM   28  C   UNL     1     -13.577   9.409  71.316  1.00  0.00    -0.296 C  
ENDBRANCH  22  23
ENDBRANCH  17  18
ENDBRANCH  16  17
ENDBRANCH  15  16
ENDBRANCH  14  15
ENDBRANCH  13  14
ENDBRANCH  11  13
TORSDOF 7
ENDMDL
MODEL      267
REMARK 921   NORMALIZED FREE ENERGY PREDICTED BY IDOCK:   -4.44 KCAL/MOL
REMARK 922        TOTAL FREE ENERGY PREDICTED BY IDOCK:   -7.27 KCAL/MOL
REMARK 923 INTER-LIGAND FREE ENERGY PREDICTED BY IDOCK:   -6.34 KCAL/MOL
REMARK 924 INTRA-LIGAND FREE ENERGY PREDICTED BY IDOCK:   -0.93 KCAL/MOL
REMARK 927      BINDING AFFINITY PREDICTED BY RF-SCORE:    0.00 PKD
ROOT
HETATM    1  O   UNL     1     -10.094  20.286  66.591  1.00  0.00    -0.443 OA 
HETATM    2  C   UNL     1     -10.134  19.068  66.751  1.00  0.00    -0.379 C  
HETATM    3  C   UNL     1      -9.562  18.393  67.976  1.00  0.00    -0.316 C  
HETATM    4  C   UNL     1     -10.330  17.135  68.362  1.00  0.00    -0.362 C  
HETATM    5  C   UNL     1     -10.642  16.265  67.174  1.00  0.00    -0.291 A  
HETATM    6  C   UNL     1     -10.769  16.860  65.913  1.00  0.00    -0.149 A  
HETATM    7  N   UNL     1     -10.588  18.238  65.765  1.00  0.00    -0.331 N  
HETATM    8  C   UNL     1     -11.126  16.094  64.808  1.00  0.00    -0.345 A  
HETATM    9  C   UNL     1     -11.369  14.723  64.959  1.00  0.00    -0.391 A  
HETATM   10  H   UNL     1     -10.811  18.652  64.860  1.00  0.00     0.000 HD 
HETATM   11  C   UNL     1     -11.285  14.109  66.213  1.00  0.00    -0.329 A  
HETATM   12  C   UNL     1     -10.917  14.886  67.320  1.00  0.00    -0.323 A  
ENDROOT
BRANCH  11  13
HETATM   13  O   UNL     1     -11.594  12.769  66.209  1.00  0.00    -0.337 OA 
BRANCH  13  14
HETATM   14  C   UNL     1     -11.189  12.011  65.069  1.00  0.00    -0.320 C  
BRANCH  14  15
HETATM   15  C   UNL     1     -10.534  10.676  65.495  1.00  0.00    -0.246 C  
BRANCH  15  16
HETATM   16  C   UNL     1     -10.833  10.426  66.980  1.00  0.00    -0.269 C  
BRANCH  16  17
HETATM   17  C   UNL     1     -10.333   9.124  67.618  1.00  0.00    -0.314 C  
BRANCH  17  18
HETATM   18  C   UNL     1      -9.048   8.600  67.087  1.00  0.00    -0.133 A  
HETATM   19  N   UNL     1      -8.996   7.764  66.062  1.00  0.00    -0.166 NA 
HETATM   20  N   UNL     1      -7.682   7.557  65.779  1.00  0.00    -0.093 NA 
HETATM   21  N   UNL     1      -6.916   8.226  66.617  1.00  0.00    -0.068 NA 
HETATM   22  N   UNL     1      -7.749   8.939  67.412  1.00  0.00    -0.096 NA 
BRANCH  22  23
HETATM   23  C   UNL     1      -7.134   9.774  68.441  1.00  0.00    -0.073 C  
HETATM   24  C   UNL     1      -5.725  10.283  68.027  1.00  0.00    -0.041 C  
HETATM   25  C   UNL     1      -5.816  11.306  66.892  1.00  0.00    -0.108 C  
HETATM   26  C   UNL     1      -6.648  12.513  67.313  1.00  0.00    -0.125 C  
HETATM   27  C   UNL     1      -8.012  12.113  67.878  1.00  0.00    -0.150 C  
HETATM   28  C   UNL     1      -7.909  11.008  68.933  1.00  0.00    -0.138 C  
ENDBRANCH  22  23
ENDBRANCH  17  18
ENDBRANCH  16  17
ENDBRANCH  15  16
ENDBRANCH  14  15
ENDBRANCH  13  14
ENDBRANCH  11  13
TORSDOF 7
ENDMDL
MODEL      268
REMARK 921   NORMALIZED FREE ENERGY PREDICTED BY IDOCK:   -4.44 KCAL/MOL
REMARK 922        TOTAL FREE ENERGY PREDICTED BY IDOCK:   -7.26 KCAL/MOL
REMARK 923 INTER-LIGAND FREE ENERGY PREDICTED BY IDOCK:   -5.98 KCAL/MOL
REMARK 924 INTRA-LIGAND FREE ENERGY PREDICTED BY IDOCK:   -1.29 KCAL/MOL
REMARK 927      BINDING AFFINITY PREDICTED BY RF-SCORE:    0.00 PKD
ROOT
HETATM    1  O   UNL     1      -8.767  11.958  66.270  1.00  0.00    -0.167 OA 
HETATM    2  C   UNL     1      -9.093  10.814  66.579  1.00  0.00    -0.165 C  
HETATM    3  C   UNL     1      -9.989  10.517  67.759  1.00  0.00    -0.198 C  
HETATM    4  C   UNL     1     -10.856   9.283  67.539  1.00  0.00    -0.182 C  
HETATM    5  C   UNL     1     -10.083   8.134  66.950  1.00  0.00    -0.367 A  
HETATM    6  C   UNL     1      -8.958   8.408  66.161  1.00  0.00    -0.177 A  
HETATM    7  N   UNL     1      -8.556   9.729  65.944  1.00  0.00    -0.134 N  
HETATM    8  C   UNL     1      -8.264   7.371  65.546  1.00  0.00    -0.135 A  
HETATM    9  C   UNL     1      -8.697   6.049  65.707  1.00  0.00    -0.155 A  
HETATM   10  H   UNL     1      -7.813   9.894  65.266  1.00  0.00     0.000 HD 
HETATM   11  C   UNL     1      -9.837   5.750  66.460  1.00  0.00    -0.161 A  
HETATM   12  C   UNL     1     -10.527   6.799  67.083  1.00  0.00    -0.364 A  
ENDROOT
BRANCH  11  13
HETATM   13  O   UNL     1     -10.161   4.414  66.491  1.00  0.00    -0.232 OA 
BRANCH  13  14
HETATM   14  C   UNL     1      -9.232   3.534  67.124  1.00  0.00    -0.192 C  
BRANCH  14  15
HETATM   15  C   UNL     1      -8.747   4.118  68.473  1.00  0.00    -0.124 C  
BRANCH  15  16
HETATM   16  C   UNL     1      -9.519   3.442  69.615  1.00  0.00    -0.223 C  
BRANCH  16  17
HETATM   17  C   UNL     1      -8.940   3.515  71.033  1.00  0.00    -0.158 C  
BRANCH  17  18
HETATM   18  C   UNL     1      -9.880   3.973  72.089  1.00  0.00    -0.168 A  
HETATM   19  N   UNL     1     -10.536   3.125  72.866  1.00  0.00    -0.148 NA 
HETATM   20  N   UNL     1     -11.231   3.866  73.771  1.00  0.00    -0.202 NA 
HETATM   21  N   UNL     1     -11.041   5.153  73.561  1.00  0.00    -0.320 NA 
HETATM   22  N   UNL     1     -10.147   5.249  72.548  1.00  0.00    -0.176 NA 
BRANCH  22  23
HETATM   23  C   UNL     1      -9.767   6.592  72.120  1.00  0.00    -0.153 C  
HETATM   24  C   UNL     1     -10.100   6.854  70.625  1.00  0.00    -0.208 C  
HETATM   25  C   UNL     1     -11.612   6.935  70.399  1.00  0.00    -0.385 C  
HETATM   26  C   UNL     1     -12.225   8.062  71.223  1.00  0.00    -0.308 C  
HETATM   27  C   UNL     1     -11.837   7.983  72.699  1.00  0.00    -0.380 C  
HETATM   28  C   UNL     1     -10.332   7.790  72.902  1.00  0.00    -0.396 C  
ENDBRANCH  22  23
ENDBRANCH  17  18
ENDBRANCH  16  17
ENDBRANCH  15  16
ENDBRANCH  14  15
ENDBRANCH  13  14
ENDBRANCH  11  13
TORSDOF 7
ENDMDL
MODEL      269
REMARK 921   NORMALIZED FREE ENERGY PREDICTED BY IDOCK:   -4.40 KCAL/MOL
REMARK 922        TOTAL FREE ENERGY PREDICTED BY IDOCK:   -7.22 KCAL/MOL
REMARK 923 INTER-LIGAND FREE ENERGY PREDICTED BY IDOCK:   -6.26 KCAL/MOL
REMARK 924 INTRA-LIGAND FREE ENERGY PREDICTED BY IDOCK:   -0.96 KCAL/MOL
REMARK 927      BINDING AFFINITY PREDICTED BY RF-SCORE:    0.00 PKD
ROOT
HETATM    1  O   UNL     1     -10.751   4.589  72.241  1.00  0.00    -0.151 OA 
HETATM    2  C   UNL     1     -10.634   5.566  71.504  1.00  0.00    -0.237 C  
HETATM    3  C   UNL     1     -11.735   6.585  71.329  1.00  0.00    -0.386 C  
HETATM    4  C   UNL     1     -11.199   7.987  71.065  1.00  0.00    -0.287 C  
HETATM    5  C   UNL     1     -10.081   7.995  70.057  1.00  0.00    -0.196 A  
HETATM    6  C   UNL     1      -9.283   6.851  69.921  1.00  0.00    -0.147 A  
HETATM    7  N   UNL     1      -9.540   5.718  70.698  1.00  0.00    -0.170 N  
HETATM    8  C   UNL     1      -8.200   6.852  69.049  1.00  0.00    -0.125 A  
HETATM    9  C   UNL     1      -7.898   8.004  68.312  1.00  0.00    -0.123 A  
HETATM   10  H   UNL     1      -8.866   4.955  70.663  1.00  0.00     0.000 HD 
HETATM   11  C   UNL     1      -8.656   9.171  68.454  1.00  0.00    -0.129 A  
HETATM   12  C   UNL     1      -9.751   9.160  69.329  1.00  0.00    -0.164 A  
ENDROOT
BRANCH  11  13
HETATM   13  O   UNL     1      -8.211  10.230  67.698  1.00  0.00    -0.113 OA 
BRANCH  13  14
HETATM   14  C   UNL     1      -7.953   9.980  66.316  1.00  0.00    -0.111 C  
BRANCH  14  15
HETATM   15  C   UNL     1      -8.830  10.883  65.417  1.00  0.00    -0.192 C  
BRANCH  15  16
HETATM   16  C   UNL     1     -10.306  10.529  65.642  1.00  0.00    -0.274 C  
BRANCH  16  17
HETATM   17  C   UNL     1     -11.333  11.666  65.686  1.00  0.00    -0.233 C  
BRANCH  17  18
HETATM   18  C   UNL     1     -11.339  12.481  66.930  1.00  0.00    -0.326 A  
HETATM   19  N   UNL     1     -12.152  12.219  67.941  1.00  0.00    -0.434 NA 
HETATM   20  N   UNL     1     -11.840  13.086  68.942  1.00  0.00    -0.317 NA 
HETATM   21  N   UNL     1     -10.868  13.894  68.569  1.00  0.00    -0.251 NA 
HETATM   22  N   UNL     1     -10.492  13.496  67.330  1.00  0.00    -0.248 NA 
BRANCH  22  23
HETATM   23  C   UNL     1      -9.416  14.246  66.687  1.00  0.00    -0.286 C  
HETATM   24  C   UNL     1      -9.819  14.775  65.283  1.00  0.00    -0.235 C  
HETATM   25  C   UNL     1     -10.871  15.882  65.388  1.00  0.00    -0.361 C  
HETATM   26  C   UNL     1     -10.342  17.059  66.201  1.00  0.00    -0.326 C  
HETATM   27  C   UNL     1      -9.782  16.626  67.557  1.00  0.00    -0.247 C  
HETATM   28  C   UNL     1      -8.816  15.444  67.442  1.00  0.00    -0.196 C  
ENDBRANCH  22  23
ENDBRANCH  17  18
ENDBRANCH  16  17
ENDBRANCH  15  16
ENDBRANCH  14  15
ENDBRANCH  13  14
ENDBRANCH  11  13
TORSDOF 7
ENDMDL
MODEL      270
REMARK 921   NORMALIZED FREE ENERGY PREDICTED BY IDOCK:   -4.39 KCAL/MOL
REMARK 922        TOTAL FREE ENERGY PREDICTED BY IDOCK:   -7.20 KCAL/MOL
REMARK 923 INTER-LIGAND FREE ENERGY PREDICTED BY IDOCK:   -6.36 KCAL/MOL
REMARK 924 INTRA-LIGAND FREE ENERGY PREDICTED BY IDOCK:   -0.83 KCAL/MOL
REMARK 927      BINDING AFFINITY PREDICTED BY RF-SCORE:    0.00 PKD
ROOT
HETATM    1  O   UNL     1      -8.203   8.427  62.752  1.00  0.00    -0.178 OA 
HETATM    2  C   UNL     1      -8.780   9.142  63.568  1.00  0.00    -0.128 C  
HETATM    3  C   UNL     1      -9.144  10.578  63.274  1.00  0.00    -0.267 C  
HETATM    4  C   UNL     1     -10.423  11.015  63.978  1.00  0.00    -0.433 C  
HETATM    5  C   UNL     1     -10.469  10.569  65.415  1.00  0.00    -0.222 A  
HETATM    6  C   UNL     1      -9.763   9.419  65.791  1.00  0.00    -0.284 A  
HETATM    7  N   UNL     1      -9.016   8.712  64.845  1.00  0.00    -0.420 N  
HETATM    8  C   UNL     1      -9.842   8.943  67.096  1.00  0.00    -0.267 A  
HETATM    9  C   UNL     1     -10.638   9.610  68.035  1.00  0.00    -0.292 A  
HETATM   10  H   UNL     1      -8.621   7.815  65.125  1.00  0.00     0.000 HD 
HETATM   11  C   UNL     1     -11.380  10.740  67.678  1.00  0.00    -0.252 A  
HETATM   12  C   UNL     1     -11.290  11.219  66.364  1.00  0.00    -0.090 A  
ENDROOT
BRANCH  11  13
HETATM   13  O   UNL     1     -12.146  11.259  68.697  1.00  0.00    -0.543 OA 
BRANCH  13  14
HETATM   14  C   UNL     1     -12.095  12.672  68.895  1.00  0.00    -0.123 C  
BRANCH  14  15
HETATM   15  C   UNL     1     -11.541  13.015  70.298  1.00  0.00    -0.060 C  
BRANCH  15  16
HETATM   16  C   UNL     1     -11.884  14.475  70.626  1.00  0.00    -0.367 C  
BRANCH  16  17
HETATM   17  C   UNL     1     -10.754  15.511  70.622  1.00  0.00    -0.265 C  
BRANCH  17  18
HETATM   18  C   UNL     1     -10.423  16.096  69.296  1.00  0.00    -0.267 A  
HETATM   19  N   UNL     1     -11.351  16.363  68.391  1.00  0.00    -0.335 NA 
HETATM   20  N   UNL     1     -10.728  16.966  67.342  1.00  0.00    -0.287 NA 
HETATM   21  N   UNL     1      -9.432  17.059  67.565  1.00  0.00    -0.243 NA 
HETATM   22  N   UNL     1      -9.221  16.575  68.812  1.00  0.00    -0.244 NA 
BRANCH  22  23
HETATM   23  C   UNL     1      -7.844  16.569  69.300  1.00  0.00    -0.121 C  
HETATM   24  C   UNL     1      -7.408  15.172  69.824  1.00  0.00    -0.141 C  
HETATM   25  C   UNL     1      -7.276  14.166  68.678  1.00  0.00    -0.116 C  
HETATM   26  C   UNL     1      -6.239  14.632  67.662  1.00  0.00    -0.106 C  
HETATM   27  C   UNL     1      -6.492  16.062  67.185  1.00  0.00    -0.145 C  
HETATM   28  C   UNL     1      -6.733  17.034  68.343  1.00  0.00    -0.170 C  
ENDBRANCH  22  23
ENDBRANCH  17  18
ENDBRANCH  16  17
ENDBRANCH  15  16
ENDBRANCH  14  15
ENDBRANCH  13  14
ENDBRANCH  11  13
TORSDOF 7
ENDMDL
MODEL      271
REMARK 921   NORMALIZED FREE ENERGY PREDICTED BY IDOCK:   -4.39 KCAL/MOL
REMARK 922        TOTAL FREE ENERGY PREDICTED BY IDOCK:   -7.19 KCAL/MOL
REMARK 923 INTER-LIGAND FREE ENERGY PREDICTED BY IDOCK:   -6.11 KCAL/MOL
REMARK 924 INTRA-LIGAND FREE ENERGY PREDICTED BY IDOCK:   -1.09 KCAL/MOL
REMARK 927      BINDING AFFINITY PREDICTED BY RF-SCORE:    0.00 PKD
ROOT
HETATM    1  O   UNL     1     -13.234  11.663  62.915  1.00  0.00    -0.299 OA 
HETATM    2  C   UNL     1     -12.512  12.375  63.611  1.00  0.00    -0.508 C  
HETATM    3  C   UNL     1     -11.562  11.807  64.639  1.00  0.00    -0.270 C  
HETATM    4  C   UNL     1     -10.307  12.654  64.807  1.00  0.00    -0.335 C  
HETATM    5  C   UNL     1     -10.613  14.126  64.885  1.00  0.00    -0.449 A  
HETATM    6  C   UNL     1     -11.764  14.613  64.254  1.00  0.00    -0.275 A  
HETATM    7  N   UNL     1     -12.621  13.737  63.581  1.00  0.00    -0.857 N  
HETATM    8  C   UNL     1     -12.038  15.977  64.249  1.00  0.00     0.223 A  
HETATM    9  C   UNL     1     -11.152  16.868  64.867  1.00  0.00     0.029 A  
HETATM   10  H   UNL     1     -13.378  14.142  63.030  1.00  0.00     0.000 HD 
HETATM   11  C   UNL     1      -9.978  16.413  65.474  1.00  0.00    -0.141 A  
HETATM   12  C   UNL     1      -9.713  15.037  65.482  1.00  0.00    -0.294 A  
ENDROOT
BRANCH  11  13
HETATM   13  O   UNL     1      -9.189  17.410  66.000  1.00  0.00    -0.483 OA 
BRANCH  13  14
HETATM   14  C   UNL     1      -8.684  17.212  67.321  1.00  0.00    -0.201 C  
BRANCH  14  15
HETATM   15  C   UNL     1      -9.825  17.274  68.365  1.00  0.00    -0.309 C  
BRANCH  15  16
HETATM   16  C   UNL     1      -9.693  16.077  69.318  1.00  0.00    -0.257 C  
BRANCH  16  17
HETATM   17  C   UNL     1      -9.409  14.694  68.721  1.00  0.00    -0.191 C  
BRANCH  17  18
HETATM   18  C   UNL     1      -8.038  14.165  68.945  1.00  0.00    -0.034 A  
HETATM   19  N   UNL     1      -7.145  14.809  69.680  1.00  0.00    -0.172 NA 
HETATM   20  N   UNL     1      -6.041  14.017  69.754  1.00  0.00    -0.121 NA 
HETATM   21  N   UNL     1      -6.219  12.908  69.065  1.00  0.00    -0.088 NA 
HETATM   22  N   UNL     1      -7.489  12.947  68.595  1.00  0.00    -0.113 NA 
BRANCH  22  23
HETATM   23  C   UNL     1      -7.935  11.815  67.787  1.00  0.00    -0.141 C  
HETATM   24  C   UNL     1      -7.244  10.486  68.197  1.00  0.00    -0.087 C  
HETATM   25  C   UNL     1      -7.718  10.015  69.575  1.00  0.00    -0.146 C  
HETATM   26  C   UNL     1      -9.225   9.784  69.581  1.00  0.00    -0.239 C  
HETATM   27  C   UNL     1     -10.002  10.990  69.053  1.00  0.00    -0.184 C  
HETATM   28  C   UNL     1      -9.443  11.515  67.728  1.00  0.00    -0.168 C  
ENDBRANCH  22  23
ENDBRANCH  17  18
ENDBRANCH  16  17
ENDBRANCH  15  16
ENDBRANCH  14  15
ENDBRANCH  13  14
ENDBRANCH  11  13
TORSDOF 7
ENDMDL
MODEL      272
REMARK 921   NORMALIZED FREE ENERGY PREDICTED BY IDOCK:   -4.38 KCAL/MOL
REMARK 922        TOTAL FREE ENERGY PREDICTED BY IDOCK:   -7.19 KCAL/MOL
REMARK 923 INTER-LIGAND FREE ENERGY PREDICTED BY IDOCK:   -5.56 KCAL/MOL
REMARK 924 INTRA-LIGAND FREE ENERGY PREDICTED BY IDOCK:   -1.63 KCAL/MOL
REMARK 927      BINDING AFFINITY PREDICTED BY RF-SCORE:    0.00 PKD
ROOT
HETATM    1  O   UNL     1      -7.268   5.681  66.029  1.00  0.00    -0.070 OA 
HETATM    2  C   UNL     1      -7.532   6.725  65.436  1.00  0.00    -0.084 C  
HETATM    3  C   UNL     1      -6.664   7.269  64.326  1.00  0.00    -0.047 C  
HETATM    4  C   UNL     1      -7.464   8.026  63.274  1.00  0.00    -0.118 C  
HETATM    5  C   UNL     1      -8.477   8.959  63.882  1.00  0.00    -0.147 A  
HETATM    6  C   UNL     1      -8.999   8.661  65.148  1.00  0.00    -0.058 A  
HETATM    7  N   UNL     1      -8.567   7.523  65.836  1.00  0.00    -0.149 N  
HETATM    8  C   UNL     1      -9.986   9.466  65.706  1.00  0.00    -0.278 A  
HETATM    9  C   UNL     1     -10.469  10.573  64.997  1.00  0.00    -0.221 A  
HETATM   10  H   UNL     1      -9.058   7.272  66.693  1.00  0.00     0.000 HD 
HETATM   11  C   UNL     1      -9.991  10.873  63.718  1.00  0.00    -0.351 A  
HETATM   12  C   UNL     1      -8.990  10.062  63.164  1.00  0.00    -0.273 A  
ENDROOT
BRANCH  11  13
HETATM   13  O   UNL     1     -10.591  11.963  63.131  1.00  0.00    -0.373 OA 
BRANCH  13  14
HETATM   14  C   UNL     1     -11.836  12.395  63.681  1.00  0.00    -0.526 C  
BRANCH  14  15
HETATM   15  C   UNL     1     -11.649  13.664  64.546  1.00  0.00    -0.415 C  
BRANCH  15  16
HETATM   16  C   UNL     1     -12.256  13.415  65.934  1.00  0.00    -0.502 C  
BRANCH  16  17
HETATM   17  C   UNL     1     -11.352  13.554  67.164  1.00  0.00    -0.346 C  
BRANCH  17  18
HETATM   18  C   UNL     1     -11.176  12.322  67.976  1.00  0.00    -0.269 A  
HETATM   19  N   UNL     1     -12.149  11.440  68.139  1.00  0.00    -0.617 NA 
HETATM   20  N   UNL     1     -11.634  10.401  68.852  1.00  0.00    -0.189 NA 
HETATM   21  N   UNL     1     -10.372  10.627  69.153  1.00  0.00    -0.212 NA 
HETATM   22  N   UNL     1     -10.039  11.800  68.563  1.00  0.00    -0.210 NA 
BRANCH  22  23
HETATM   23  C   UNL     1      -8.672  12.278  68.753  1.00  0.00     0.140 C  
HETATM   24  C   UNL     1      -7.752  11.201  69.392  1.00  0.00     0.026 C  
HETATM   25  C   UNL     1      -7.485  10.050  68.419  1.00  0.00    -0.082 C  
HETATM   26  C   UNL     1      -6.807  10.557  67.151  1.00  0.00    -0.084 C  
HETATM   27  C   UNL     1      -7.559  11.726  66.514  1.00  0.00     0.072 C  
HETATM   28  C   UNL     1      -7.915  12.817  67.527  1.00  0.00    -0.177 C  
ENDBRANCH  22  23
ENDBRANCH  17  18
ENDBRANCH  16  17
ENDBRANCH  15  16
ENDBRANCH  14  15
ENDBRANCH  13  14
ENDBRANCH  11  13
TORSDOF 7
ENDMDL
MODEL      273
REMARK 921   NORMALIZED FREE ENERGY PREDICTED BY IDOCK:   -4.38 KCAL/MOL
REMARK 922        TOTAL FREE ENERGY PREDICTED BY IDOCK:   -7.18 KCAL/MOL
REMARK 923 INTER-LIGAND FREE ENERGY PREDICTED BY IDOCK:   -6.64 KCAL/MOL
REMARK 924 INTRA-LIGAND FREE ENERGY PREDICTED BY IDOCK:   -0.54 KCAL/MOL
REMARK 927      BINDING AFFINITY PREDICTED BY RF-SCORE:    0.00 PKD
ROOT
HETATM    1  O   UNL     1      -7.655   3.235  72.116  1.00  0.00    -0.054 OA 
HETATM    2  C   UNL     1      -8.292   4.209  71.721  1.00  0.00    -0.095 C  
HETATM    3  C   UNL     1      -8.926   4.262  70.351  1.00  0.00    -0.147 C  
HETATM    4  C   UNL     1     -10.209   5.083  70.330  1.00  0.00    -0.324 C  
HETATM    5  C   UNL     1     -10.074   6.381  71.082  1.00  0.00    -0.213 A  
HETATM    6  C   UNL     1      -9.151   6.462  72.132  1.00  0.00    -0.140 A  
HETATM    7  N   UNL     1      -8.358   5.359  72.459  1.00  0.00    -0.114 N  
HETATM    8  C   UNL     1      -9.052   7.625  72.889  1.00  0.00    -0.231 A  
HETATM    9  C   UNL     1      -9.886   8.714  72.609  1.00  0.00    -0.184 A  
HETATM   10  H   UNL     1      -7.790   5.414  73.304  1.00  0.00     0.000 HD 
HETATM   11  C   UNL     1     -10.841   8.647  71.589  1.00  0.00    -0.304 A  
HETATM   12  C   UNL     1     -10.930   7.475  70.825  1.00  0.00    -0.265 A  
ENDROOT
BRANCH  11  13
HETATM   13  O   UNL     1     -11.614   9.778  71.463  1.00  0.00    -0.380 OA 
BRANCH  13  14
HETATM   14  C   UNL     1     -11.865  10.249  70.139  1.00  0.00    -0.263 C  
BRANCH  14  15
HETATM   15  C   UNL     1     -10.968  11.464  69.803  1.00  0.00    -0.118 C  
BRANCH  15  16
HETATM   16  C   UNL     1     -11.850  12.713  69.666  1.00  0.00    -0.379 C  
BRANCH  16  17
HETATM   17  C   UNL     1     -11.263  13.952  68.980  1.00  0.00    -0.312 C  
BRANCH  17  18
HETATM   18  C   UNL     1     -10.154  13.693  68.025  1.00  0.00    -0.250 A  
HETATM   19  N   UNL     1      -8.937  14.179  68.209  1.00  0.00    -0.184 NA 
HETATM   20  N   UNL     1      -8.152  13.685  67.213  1.00  0.00    -0.167 NA 
HETATM   21  N   UNL     1      -8.857  12.922  66.403  1.00  0.00    -0.015 NA 
HETATM   22  N   UNL     1     -10.106  12.860  66.924  1.00  0.00    -0.237 NA 
BRANCH  22  23
HETATM   23  C   UNL     1     -11.092  12.064  66.198  1.00  0.00    -0.322 C  
HETATM   24  C   UNL     1     -12.374  12.874  65.859  1.00  0.00    -0.378 C  
HETATM   25  C   UNL     1     -12.090  13.948  64.805  1.00  0.00    -0.443 C  
HETATM   26  C   UNL     1     -11.575  13.320  63.515  1.00  0.00    -0.301 C  
HETATM   27  C   UNL     1     -10.393  12.380  63.755  1.00  0.00    -0.454 C  
HETATM   28  C   UNL     1     -10.655  11.385  64.889  1.00  0.00    -0.368 C  
ENDBRANCH  22  23
ENDBRANCH  17  18
ENDBRANCH  16  17
ENDBRANCH  15  16
ENDBRANCH  14  15
ENDBRANCH  13  14
ENDBRANCH  11  13
TORSDOF 7
ENDMDL
MODEL      274
REMARK 921   NORMALIZED FREE ENERGY PREDICTED BY IDOCK:   -4.36 KCAL/MOL
REMARK 922        TOTAL FREE ENERGY PREDICTED BY IDOCK:   -7.16 KCAL/MOL
REMARK 923 INTER-LIGAND FREE ENERGY PREDICTED BY IDOCK:   -6.51 KCAL/MOL
REMARK 924 INTRA-LIGAND FREE ENERGY PREDICTED BY IDOCK:   -0.65 KCAL/MOL
REMARK 927      BINDING AFFINITY PREDICTED BY RF-SCORE:    0.00 PKD
ROOT
HETATM    1  O   UNL     1     -12.774   8.259  72.844  1.00  0.00    -0.132 OA 
HETATM    2  C   UNL     1     -11.774   8.523  72.180  1.00  0.00    -0.378 C  
HETATM    3  C   UNL     1     -10.428   7.895  72.457  1.00  0.00    -0.363 C  
HETATM    4  C   UNL     1      -9.594   7.717  71.194  1.00  0.00    -0.168 C  
HETATM    5  C   UNL     1      -9.622   8.935  70.309  1.00  0.00    -0.212 A  
HETATM    6  C   UNL     1     -10.738   9.780  70.356  1.00  0.00    -0.308 A  
HETATM    7  N   UNL     1     -11.796   9.501  71.225  1.00  0.00    -0.344 N  
HETATM    8  C   UNL     1     -10.824  10.875  69.502  1.00  0.00    -0.286 A  
HETATM    9  C   UNL     1      -9.797  11.127  68.584  1.00  0.00    -0.207 A  
HETATM   10  H   UNL     1     -12.641  10.065  71.142  1.00  0.00     0.000 HD 
HETATM   11  C   UNL     1      -8.688  10.279  68.492  1.00  0.00    -0.130 A  
HETATM   12  C   UNL     1      -8.604   9.183  69.361  1.00  0.00    -0.138 A  
ENDROOT
BRANCH  11  13
HETATM   13  O   UNL     1      -7.786  10.632  67.515  1.00  0.00    -0.100 OA 
BRANCH  13  14
HETATM   14  C   UNL     1      -7.872  11.959  66.998  1.00  0.00    -0.152 C  
BRANCH  14  15
HETATM   15  C   UNL     1      -6.820  12.881  67.659  1.00  0.00    -0.149 C  
BRANCH  15  16
HETATM   16  C   UNL     1      -7.538  13.881  68.576  1.00  0.00    -0.134 C  
BRANCH  16  17
HETATM   17  C   UNL     1      -7.737  15.318  68.078  1.00  0.00    -0.133 C  
BRANCH  17  18
HETATM   18  C   UNL     1      -8.960  16.005  68.567  1.00  0.00    -0.200 A  
HETATM   19  N   UNL     1      -9.529  15.696  69.722  1.00  0.00    -0.240 NA 
HETATM   20  N   UNL     1     -10.560  16.564  69.906  1.00  0.00    -0.266 NA 
HETATM   21  N   UNL     1     -10.660  17.389  68.884  1.00  0.00    -0.302 NA 
HETATM   22  N   UNL     1      -9.628  17.100  68.055  1.00  0.00    -0.260 NA 
BRANCH  22  23
HETATM   23  C   UNL     1      -9.518  17.887  66.829  1.00  0.00    -0.287 C  
HETATM   24  C   UNL     1     -10.066  19.331  67.002  1.00  0.00    -0.468 C  
HETATM   25  C   UNL     1      -9.164  20.162  67.919  1.00  0.00    -0.380 C  
HETATM   26  C   UNL     1      -7.753  20.258  67.350  1.00  0.00    -0.352 C  
HETATM   27  C   UNL     1      -7.168  18.889  67.005  1.00  0.00    -0.219 C  
HETATM   28  C   UNL     1      -8.130  18.029  66.181  1.00  0.00    -0.203 C  
ENDBRANCH  22  23
ENDBRANCH  17  18
ENDBRANCH  16  17
ENDBRANCH  15  16
ENDBRANCH  14  15
ENDBRANCH  13  14
ENDBRANCH  11  13
TORSDOF 7
ENDMDL
MODEL      275
REMARK 921   NORMALIZED FREE ENERGY PREDICTED BY IDOCK:   -4.35 KCAL/MOL
REMARK 922        TOTAL FREE ENERGY PREDICTED BY IDOCK:   -7.14 KCAL/MOL
REMARK 923 INTER-LIGAND FREE ENERGY PREDICTED BY IDOCK:   -5.54 KCAL/MOL
REMARK 924 INTRA-LIGAND FREE ENERGY PREDICTED BY IDOCK:   -1.60 KCAL/MOL
REMARK 927      BINDING AFFINITY PREDICTED BY RF-SCORE:    0.00 PKD
ROOT
HETATM    1  O   UNL     1      -7.799   8.909  74.095  1.00  0.00    -0.381 OA 
HETATM    2  C   UNL     1      -7.906   8.340  73.011  1.00  0.00    -0.132 C  
HETATM    3  C   UNL     1      -6.977   8.620  71.853  1.00  0.00    -0.091 C  
HETATM    4  C   UNL     1      -6.751   7.396  70.974  1.00  0.00    -0.043 C  
HETATM    5  C   UNL     1      -8.030   6.660  70.674  1.00  0.00    -0.111 A  
HETATM    6  C   UNL     1      -9.088   6.740  71.588  1.00  0.00    -0.144 A  
HETATM    7  N   UNL     1      -8.958   7.507  72.749  1.00  0.00    -0.138 N  
HETATM    8  C   UNL     1     -10.257   6.016  71.373  1.00  0.00    -0.253 A  
HETATM    9  C   UNL     1     -10.372   5.195  70.245  1.00  0.00    -0.331 A  
HETATM   10  H   UNL     1      -9.697   7.441  73.448  1.00  0.00     0.000 HD 
HETATM   11  C   UNL     1      -9.318   5.070  69.334  1.00  0.00    -0.124 A  
HETATM   12  C   UNL     1      -8.146   5.808  69.553  1.00  0.00    -0.108 A  
ENDROOT
BRANCH  11  13
HETATM   13  O   UNL     1      -9.564   4.195  68.301  1.00  0.00    -0.158 OA 
BRANCH  13  14
HETATM   14  C   UNL     1      -9.246   4.640  66.982  1.00  0.00    -0.128 C  
BRANCH  14  15
HETATM   15  C   UNL     1     -10.285   5.670  66.479  1.00  0.00    -0.259 C  
BRANCH  15  16
HETATM   16  C   UNL     1      -9.594   7.030  66.301  1.00  0.00    -0.094 C  
BRANCH  16  17
HETATM   17  C   UNL     1     -10.037   8.198  67.190  1.00  0.00    -0.334 C  
BRANCH  17  18
HETATM   18  C   UNL     1      -9.924   9.549  66.580  1.00  0.00    -0.247 A  
HETATM   19  N   UNL     1     -10.034   9.746  65.276  1.00  0.00    -0.278 NA 
HETATM   20  N   UNL     1      -9.972  11.089  65.067  1.00  0.00    -0.263 NA 
HETATM   21  N   UNL     1      -9.805  11.729  66.207  1.00  0.00    -0.215 NA 
HETATM   22  N   UNL     1      -9.832  10.789  67.182  1.00  0.00    -0.181 NA 
BRANCH  22  23
HETATM   23  C   UNL     1      -9.664  11.251  68.558  1.00  0.00    -0.198 C  
HETATM   24  C   UNL     1     -10.623  12.422  68.910  1.00  0.00    -0.160 C  
HETATM   25  C   UNL     1     -12.077  11.948  68.979  1.00  0.00    -0.245 C  
HETATM   26  C   UNL     1     -12.245  10.865  70.040  1.00  0.00    -0.422 C  
HETATM   27  C   UNL     1     -11.243   9.722  69.871  1.00  0.00    -0.271 C  
HETATM   28  C   UNL     1      -9.807  10.222  69.692  1.00  0.00    -0.230 C  
ENDBRANCH  22  23
ENDBRANCH  17  18
ENDBRANCH  16  17
ENDBRANCH  15  16
ENDBRANCH  14  15
ENDBRANCH  13  14
ENDBRANCH  11  13
TORSDOF 7
ENDMDL
MODEL      276
REMARK 921   NORMALIZED FREE ENERGY PREDICTED BY IDOCK:   -4.35 KCAL/MOL
REMARK 922        TOTAL FREE ENERGY PREDICTED BY IDOCK:   -7.14 KCAL/MOL
REMARK 923 INTER-LIGAND FREE ENERGY PREDICTED BY IDOCK:   -6.31 KCAL/MOL
REMARK 924 INTRA-LIGAND FREE ENERGY PREDICTED BY IDOCK:   -0.83 KCAL/MOL
REMARK 927      BINDING AFFINITY PREDICTED BY RF-SCORE:    0.00 PKD
ROOT
HETATM    1  O   UNL     1      -6.094   9.411  62.947  1.00  0.00    -0.093 OA 
HETATM    2  C   UNL     1      -6.888   9.445  63.884  1.00  0.00    -0.096 C  
HETATM    3  C   UNL     1      -7.978   8.414  64.062  1.00  0.00    -0.151 C  
HETATM    4  C   UNL     1      -8.306   8.155  65.527  1.00  0.00    -0.160 C  
HETATM    5  C   UNL     1      -8.419   9.427  66.325  1.00  0.00    -0.133 A  
HETATM    6  C   UNL     1      -7.701  10.555  65.907  1.00  0.00    -0.148 A  
HETATM    7  N   UNL     1      -6.909  10.498  64.757  1.00  0.00    -0.340 N  
HETATM    8  C   UNL     1      -7.730  11.723  66.661  1.00  0.00    -0.023 A  
HETATM    9  C   UNL     1      -8.471  11.770  67.848  1.00  0.00    -0.154 A  
HETATM   10  H   UNL     1      -6.305  11.294  64.555  1.00  0.00     0.000 HD 
HETATM   11  C   UNL     1      -9.169  10.648  68.306  1.00  0.00    -0.153 A  
HETATM   12  C   UNL     1      -9.142   9.476  67.538  1.00  0.00    -0.142 A  
ENDROOT
BRANCH  11  13
HETATM   13  O   UNL     1      -9.814  10.835  69.508  1.00  0.00    -0.152 OA 
BRANCH  13  14
HETATM   14  C   UNL     1     -11.231  10.660  69.519  1.00  0.00    -0.272 C  
BRANCH  14  15
HETATM   15  C   UNL     1     -11.900  11.493  68.400  1.00  0.00    -0.353 C  
BRANCH  15  16
HETATM   16  C   UNL     1     -12.195  12.902  68.935  1.00  0.00    -0.044 C  
BRANCH  16  17
HETATM   17  C   UNL     1     -11.226  14.036  68.582  1.00  0.00    -0.294 C  
BRANCH  17  18
HETATM   18  C   UNL     1     -11.214  14.451  67.155  1.00  0.00    -0.328 A  
HETATM   19  N   UNL     1     -12.092  13.990  66.279  1.00  0.00    -0.435 NA 
HETATM   20  N   UNL     1     -11.859  14.632  65.102  1.00  0.00    -0.365 NA 
HETATM   21  N   UNL     1     -10.844  15.464  65.220  1.00  0.00    -0.384 NA 
HETATM   22  N   UNL     1     -10.457  15.415  66.518  1.00  0.00    -0.288 NA 
BRANCH  22  23
HETATM   23  C   UNL     1      -9.331  16.259  66.909  1.00  0.00    -0.224 C  
HETATM   24  C   UNL     1      -9.203  17.526  66.019  1.00  0.00    -0.071 C  
HETATM   25  C   UNL     1     -10.353  18.504  66.277  1.00  0.00    -0.459 C  
HETATM   26  C   UNL     1     -10.369  18.951  67.735  1.00  0.00    -0.490 C  
HETATM   27  C   UNL     1     -10.348  17.771  68.707  1.00  0.00    -0.332 C  
HETATM   28  C   UNL     1      -9.262  16.748  68.366  1.00  0.00    -0.229 C  
ENDBRANCH  22  23
ENDBRANCH  17  18
ENDBRANCH  16  17
ENDBRANCH  15  16
ENDBRANCH  14  15
ENDBRANCH  13  14
ENDBRANCH  11  13
TORSDOF 7
ENDMDL
MODEL      277
REMARK 921   NORMALIZED FREE ENERGY PREDICTED BY IDOCK:   -4.34 KCAL/MOL
REMARK 922        TOTAL FREE ENERGY PREDICTED BY IDOCK:   -7.14 KCAL/MOL
REMARK 923 INTER-LIGAND FREE ENERGY PREDICTED BY IDOCK:   -6.58 KCAL/MOL
REMARK 924 INTRA-LIGAND FREE ENERGY PREDICTED BY IDOCK:   -0.56 KCAL/MOL
REMARK 927      BINDING AFFINITY PREDICTED BY RF-SCORE:    0.00 PKD
ROOT
HETATM    1  O   UNL     1      -7.927  20.033  69.442  1.00  0.00    -0.001 OA 
HETATM    2  C   UNL     1      -8.661  19.315  68.767  1.00  0.00    -0.346 C  
HETATM    3  C   UNL     1     -10.130  19.610  68.575  1.00  0.00    -0.557 C  
HETATM    4  C   UNL     1     -10.648  19.151  67.217  1.00  0.00    -0.573 C  
HETATM    5  C   UNL     1     -10.165  17.772  66.854  1.00  0.00    -0.346 A  
HETATM    6  C   UNL     1      -8.950  17.318  67.384  1.00  0.00    -0.222 A  
HETATM    7  N   UNL     1      -8.214  18.130  68.251  1.00  0.00    -0.283 N  
HETATM    8  C   UNL     1      -8.444  16.076  67.013  1.00  0.00    -0.245 A  
HETATM    9  C   UNL     1      -9.145  15.282  66.098  1.00  0.00    -0.314 A  
HETATM   10  H   UNL     1      -7.280  17.819  68.516  1.00  0.00     0.000 HD 
HETATM   11  C   UNL     1     -10.341  15.726  65.526  1.00  0.00    -0.404 A  
HETATM   12  C   UNL     1     -10.849  16.974  65.910  1.00  0.00    -0.024 A  
ENDROOT
BRANCH  11  13
HETATM   13  O   UNL     1     -10.889  14.855  64.612  1.00  0.00    -0.370 OA 
BRANCH  13  14
HETATM   14  C   UNL     1     -12.008  14.080  65.043  1.00  0.00    -0.401 C  
BRANCH  14  15
HETATM   15  C   UNL     1     -12.192  12.830  64.150  1.00  0.00    -0.506 C  
BRANCH  15  16
HETATM   16  C   UNL     1     -11.344  11.682  64.716  1.00  0.00    -0.270 C  
BRANCH  16  17
HETATM   17  C   UNL     1     -10.039  12.027  65.443  1.00  0.00    -0.285 C  
BRANCH  17  18
HETATM   18  C   UNL     1      -9.694  11.155  66.596  1.00  0.00    -0.196 A  
HETATM   19  N   UNL     1     -10.484  11.036  67.651  1.00  0.00    -0.193 NA 
HETATM   20  N   UNL     1      -9.924  10.105  68.469  1.00  0.00    -0.158 NA 
HETATM   21  N   UNL     1      -8.794   9.659  67.958  1.00  0.00    -0.120 NA 
HETATM   22  N   UNL     1      -8.656  10.257  66.751  1.00  0.00    -0.126 NA 
BRANCH  22  23
HETATM   23  C   UNL     1      -7.464   9.925  65.975  1.00  0.00    -0.106 C  
HETATM   24  C   UNL     1      -7.053   8.434  66.131  1.00  0.00    -0.076 C  
HETATM   25  C   UNL     1      -8.064   7.506  65.453  1.00  0.00    -0.133 C  
HETATM   26  C   UNL     1      -8.169   7.812  63.963  1.00  0.00    -0.001 C  
HETATM   27  C   UNL     1      -8.429   9.294  63.689  1.00  0.00    -0.200 C  
HETATM   28  C   UNL     1      -7.479  10.210  64.464  1.00  0.00    -0.127 C  
ENDBRANCH  22  23
ENDBRANCH  17  18
ENDBRANCH  16  17
ENDBRANCH  15  16
ENDBRANCH  14  15
ENDBRANCH  13  14
ENDBRANCH  11  13
TORSDOF 7
ENDMDL
MODEL      278
REMARK 921   NORMALIZED FREE ENERGY PREDICTED BY IDOCK:   -4.33 KCAL/MOL
REMARK 922        TOTAL FREE ENERGY PREDICTED BY IDOCK:   -7.12 KCAL/MOL
REMARK 923 INTER-LIGAND FREE ENERGY PREDICTED BY IDOCK:   -7.18 KCAL/MOL
REMARK 924 INTRA-LIGAND FREE ENERGY PREDICTED BY IDOCK:    0.06 KCAL/MOL
REMARK 927      BINDING AFFINITY PREDICTED BY RF-SCORE:    0.00 PKD
ROOT
HETATM    1  O   UNL     1     -13.171  15.301  73.777  1.00  0.00    -0.419 OA 
HETATM    2  C   UNL     1     -13.034  14.783  72.671  1.00  0.00    -0.426 C  
HETATM    3  C   UNL     1     -13.075  15.584  71.390  1.00  0.00    -0.580 C  
HETATM    4  C   UNL     1     -12.179  14.999  70.305  1.00  0.00    -0.390 C  
HETATM    5  C   UNL     1     -12.313  13.504  70.192  1.00  0.00    -0.345 A  
HETATM    6  C   UNL     1     -12.694  12.770  71.323  1.00  0.00    -0.269 A  
HETATM    7  N   UNL     1     -12.962  13.425  72.529  1.00  0.00    -0.288 N  
HETATM    8  C   UNL     1     -12.760  11.382  71.269  1.00  0.00    -0.498 A  
HETATM    9  C   UNL     1     -12.433  10.713  70.083  1.00  0.00    -0.342 A  
HETATM   10  H   UNL     1     -13.113  12.852  73.358  1.00  0.00     0.000 HD 
HETATM   11  C   UNL     1     -12.016  11.418  68.949  1.00  0.00    -0.304 A  
HETATM   12  C   UNL     1     -11.960  12.818  69.009  1.00  0.00    -0.288 A  
ENDROOT
BRANCH  11  13
HETATM   13  O   UNL     1     -11.688  10.622  67.876  1.00  0.00    -0.506 OA 
BRANCH  13  14
HETATM   14  C   UNL     1     -10.447  10.888  67.224  1.00  0.00    -0.232 C  
BRANCH  14  15
HETATM   15  C   UNL     1     -10.316  10.059  65.924  1.00  0.00    -0.202 C  
BRANCH  15  16
HETATM   16  C   UNL     1      -8.875   9.541  65.805  1.00  0.00    -0.193 C  
BRANCH  16  17
HETATM   17  C   UNL     1      -8.436   8.386  66.712  1.00  0.00    -0.114 C  
BRANCH  17  18
HETATM   18  C   UNL     1      -9.389   7.248  66.811  1.00  0.00    -0.163 A  
HETATM   19  N   UNL     1     -10.643   7.410  67.201  1.00  0.00    -0.326 NA 
HETATM   20  N   UNL     1     -11.255   6.200  67.094  1.00  0.00    -0.223 NA 
HETATM   21  N   UNL     1     -10.406   5.287  66.669  1.00  0.00    -0.256 NA 
HETATM   22  N   UNL     1      -9.240   5.930  66.425  1.00  0.00    -0.147 NA 
BRANCH  22  23
HETATM   23  C   UNL     1      -8.123   5.124  65.939  1.00  0.00    -0.109 C  
HETATM   24  C   UNL     1      -8.537   3.656  65.643  1.00  0.00    -0.113 C  
HETATM   25  C   UNL     1      -9.457   3.575  64.422  1.00  0.00    -0.152 C  
HETATM   26  C   UNL     1      -8.765   4.129  63.182  1.00  0.00    -0.111 C  
HETATM   27  C   UNL     1      -8.186   5.525  63.411  1.00  0.00    -0.110 C  
HETATM   28  C   UNL     1      -7.360   5.615  64.697  1.00  0.00    -0.068 C  
ENDBRANCH  22  23
ENDBRANCH  17  18
ENDBRANCH  16  17
ENDBRANCH  15  16
ENDBRANCH  14  15
ENDBRANCH  13  14
ENDBRANCH  11  13
TORSDOF 7
ENDMDL
MODEL      279
REMARK 921   NORMALIZED FREE ENERGY PREDICTED BY IDOCK:   -4.31 KCAL/MOL
REMARK 922        TOTAL FREE ENERGY PREDICTED BY IDOCK:   -7.09 KCAL/MOL
REMARK 923 INTER-LIGAND FREE ENERGY PREDICTED BY IDOCK:   -6.49 KCAL/MOL
REMARK 924 INTRA-LIGAND FREE ENERGY PREDICTED BY IDOCK:   -0.61 KCAL/MOL
REMARK 927      BINDING AFFINITY PREDICTED BY RF-SCORE:    0.00 PKD
ROOT
HETATM    1  O   UNL     1      -8.292  16.428  66.682  1.00  0.00    -0.210 OA 
HETATM    2  C   UNL     1      -8.513  15.280  67.063  1.00  0.00    -0.228 C  
HETATM    3  C   UNL     1      -7.414  14.256  67.229  1.00  0.00    -0.082 C  
HETATM    4  C   UNL     1      -7.700  13.268  68.353  1.00  0.00    -0.138 C  
HETATM    5  C   UNL     1      -9.119  12.764  68.328  1.00  0.00    -0.180 A  
HETATM    6  C   UNL     1     -10.116  13.576  67.774  1.00  0.00    -0.236 A  
HETATM    7  N   UNL     1      -9.790  14.824  67.238  1.00  0.00    -0.229 N  
HETATM    8  C   UNL     1     -11.446  13.168  67.799  1.00  0.00    -0.352 A  
HETATM    9  C   UNL     1     -11.790  11.946  68.390  1.00  0.00    -0.352 A  
HETATM   10  H   UNL     1     -10.555  15.437  66.959  1.00  0.00     0.000 HD 
HETATM   11  C   UNL     1     -10.819  11.132  68.982  1.00  0.00    -0.231 A  
HETATM   12  C   UNL     1      -9.480  11.546  68.946  1.00  0.00    -0.027 A  
ENDROOT
BRANCH  11  13
HETATM   13  O   UNL     1     -11.316   9.986  69.559  1.00  0.00    -0.228 OA 
BRANCH  13  14
HETATM   14  C   UNL     1     -10.935   9.719  70.908  1.00  0.00    -0.341 C  
BRANCH  14  15
HETATM   15  C   UNL     1     -12.178   9.508  71.804  1.00  0.00    -0.465 C  
BRANCH  15  16
HETATM   16  C   UNL     1     -12.921   8.248  71.337  1.00  0.00    -0.248 C  
BRANCH  16  17
HETATM   17  C   UNL     1     -12.348   6.877  71.717  1.00  0.00    -0.401 C  
BRANCH  17  18
HETATM   18  C   UNL     1     -11.387   6.290  70.746  1.00  0.00    -0.332 A  
HETATM   19  N   UNL     1     -11.579   6.354  69.438  1.00  0.00    -0.315 NA 
HETATM   20  N   UNL     1     -10.483   5.807  68.846  1.00  0.00    -0.237 NA 
HETATM   21  N   UNL     1      -9.626   5.387  69.754  1.00  0.00    -0.156 NA 
HETATM   22  N   UNL     1     -10.141   5.733  70.958  1.00  0.00    -0.196 NA 
BRANCH  22  23
HETATM   23  C   UNL     1      -9.368   5.370  72.143  1.00  0.00    -0.143 C  
HETATM   24  C   UNL     1      -7.999   6.103  72.204  1.00  0.00    -0.109 C  
HETATM   25  C   UNL     1      -8.182   7.599  72.469  1.00  0.00    -0.148 C  
HETATM   26  C   UNL     1      -8.900   7.833  73.793  1.00  0.00    -0.326 C  
HETATM   27  C   UNL     1     -10.201   7.037  73.899  1.00  0.00    -0.388 C  
HETATM   28  C   UNL     1     -10.021   5.564  73.522  1.00  0.00    -0.188 C  
ENDBRANCH  22  23
ENDBRANCH  17  18
ENDBRANCH  16  17
ENDBRANCH  15  16
ENDBRANCH  14  15
ENDBRANCH  13  14
ENDBRANCH  11  13
TORSDOF 7
ENDMDL
MODEL      280
REMARK 921   NORMALIZED FREE ENERGY PREDICTED BY IDOCK:   -4.31 KCAL/MOL
REMARK 922        TOTAL FREE ENERGY PREDICTED BY IDOCK:   -7.08 KCAL/MOL
REMARK 923 INTER-LIGAND FREE ENERGY PREDICTED BY IDOCK:   -7.14 KCAL/MOL
REMARK 924 INTRA-LIGAND FREE ENERGY PREDICTED BY IDOCK:    0.06 KCAL/MOL
REMARK 927      BINDING AFFINITY PREDICTED BY RF-SCORE:    0.00 PKD
ROOT
HETATM    1  O   UNL     1      -9.024   3.107  65.553  1.00  0.00    -0.133 OA 
HETATM    2  C   UNL     1      -9.383   3.927  66.395  1.00  0.00    -0.182 C  
HETATM    3  C   UNL     1      -9.843   5.318  66.028  1.00  0.00    -0.155 C  
HETATM    4  C   UNL     1     -10.902   5.856  66.983  1.00  0.00    -0.379 C  
HETATM    5  C   UNL     1     -10.559   5.597  68.426  1.00  0.00    -0.249 A  
HETATM    6  C   UNL     1      -9.755   4.496  68.745  1.00  0.00    -0.143 A  
HETATM    7  N   UNL     1      -9.266   3.665  67.732  1.00  0.00    -0.167 N  
HETATM    8  C   UNL     1      -9.478   4.191  70.074  1.00  0.00    -0.260 A  
HETATM    9  C   UNL     1     -10.014   4.981  71.098  1.00  0.00    -0.276 A  
HETATM   10  H   UNL     1      -8.791   2.807  68.009  1.00  0.00     0.000 HD 
HETATM   11  C   UNL     1     -10.849   6.065  70.809  1.00  0.00    -0.292 A  
HETATM   12  C   UNL     1     -11.118   6.371  69.468  1.00  0.00    -0.460 A  
ENDROOT
BRANCH  11  13
HETATM   13  O   UNL     1     -11.333   6.718  71.920  1.00  0.00    -0.248 OA 
BRANCH  13  14
HETATM   14  C   UNL     1     -11.267   8.144  71.916  1.00  0.00    -0.290 C  
BRANCH  14  15
HETATM   15  C   UNL     1      -9.798   8.631  71.902  1.00  0.00    -0.384 C  
BRANCH  15  16
HETATM   16  C   UNL     1      -9.336   8.777  70.445  1.00  0.00    -0.205 C  
BRANCH  16  17
HETATM   17  C   UNL     1      -9.255  10.184  69.841  1.00  0.00    -0.119 C  
BRANCH  17  18
HETATM   18  C   UNL     1     -10.463  10.636  69.101  1.00  0.00    -0.222 A  
HETATM   19  N   UNL     1     -11.665  10.649  69.655  1.00  0.00    -0.286 NA 
HETATM   20  N   UNL     1     -12.519  11.196  68.747  1.00  0.00    -0.333 NA 
HETATM   21  N   UNL     1     -11.880  11.503  67.637  1.00  0.00    -0.629 NA 
HETATM   22  N   UNL     1     -10.573  11.218  67.853  1.00  0.00    -0.185 NA 
BRANCH  22  23
HETATM   23  C   UNL     1      -9.645  11.472  66.755  1.00  0.00    -0.186 C  
HETATM   24  C   UNL     1     -10.374  11.895  65.449  1.00  0.00    -0.306 C  
HETATM   25  C   UNL     1     -10.993  13.289  65.586  1.00  0.00    -0.292 C  
HETATM   26  C   UNL     1      -9.922  14.332  65.886  1.00  0.00    -0.340 C  
HETATM   27  C   UNL     1      -9.044  13.940  67.076  1.00  0.00    -0.259 C  
HETATM   28  C   UNL     1      -8.525  12.503  66.975  1.00  0.00    -0.161 C  
ENDBRANCH  22  23
ENDBRANCH  17  18
ENDBRANCH  16  17
ENDBRANCH  15  16
ENDBRANCH  14  15
ENDBRANCH  13  14
ENDBRANCH  11  13
TORSDOF 7
ENDMDL
MODEL      281
REMARK 921   NORMALIZED FREE ENERGY PREDICTED BY IDOCK:   -4.29 KCAL/MOL
REMARK 922        TOTAL FREE ENERGY PREDICTED BY IDOCK:   -7.06 KCAL/MOL
REMARK 923 INTER-LIGAND FREE ENERGY PREDICTED BY IDOCK:   -6.17 KCAL/MOL
REMARK 924 INTRA-LIGAND FREE ENERGY PREDICTED BY IDOCK:   -0.89 KCAL/MOL
REMARK 927      BINDING AFFINITY PREDICTED BY RF-SCORE:    0.00 PKD
ROOT
HETATM    1  O   UNL     1      -6.739   8.957  74.318  1.00  0.00    -0.327 OA 
HETATM    2  C   UNL     1      -7.468   8.303  73.575  1.00  0.00    -0.124 C  
HETATM    3  C   UNL     1      -8.876   7.913  73.959  1.00  0.00    -0.270 C  
HETATM    4  C   UNL     1      -9.810   7.833  72.758  1.00  0.00    -0.307 C  
HETATM    5  C   UNL     1      -9.186   7.116  71.590  1.00  0.00    -0.149 A  
HETATM    6  C   UNL     1      -7.792   7.128  71.454  1.00  0.00    -0.097 A  
HETATM    7  N   UNL     1      -6.998   7.782  72.402  1.00  0.00    -0.064 N  
HETATM    8  C   UNL     1      -7.190   6.534  70.350  1.00  0.00    -0.080 A  
HETATM    9  C   UNL     1      -7.980   5.930  69.365  1.00  0.00    -0.102 A  
HETATM   10  H   UNL     1      -6.003   7.877  72.204  1.00  0.00     0.000 HD 
HETATM   11  C   UNL     1      -9.376   5.934  69.457  1.00  0.00    -0.134 A  
HETATM   12  C   UNL     1      -9.975   6.528  70.577  1.00  0.00    -0.206 A  
ENDROOT
BRANCH  11  13
HETATM   13  O   UNL     1     -10.016   5.342  68.393  1.00  0.00    -0.148 OA 
BRANCH  13  14
HETATM   14  C   UNL     1     -10.949   6.142  67.667  1.00  0.00    -0.302 C  
BRANCH  14  15
HETATM   15  C   UNL     1     -10.226   7.028  66.625  1.00  0.00    -0.218 C  
BRANCH  15  16
HETATM   16  C   UNL     1     -10.415   8.503  67.007  1.00  0.00    -0.362 C  
BRANCH  16  17
HETATM   17  C   UNL     1     -10.020   9.579  65.988  1.00  0.00    -0.348 C  
BRANCH  17  18
HETATM   18  C   UNL     1      -9.088  10.625  66.486  1.00  0.00    -0.162 A  
HETATM   19  N   UNL     1      -7.778  10.440  66.528  1.00  0.00    -0.116 NA 
HETATM   20  N   UNL     1      -7.222  11.610  66.944  1.00  0.00    -0.143 NA 
HETATM   21  N   UNL     1      -8.155  12.509  67.181  1.00  0.00    -0.177 NA 
HETATM   22  N   UNL     1      -9.335  11.936  66.843  1.00  0.00    -0.191 NA 
BRANCH  22  23
HETATM   23  C   UNL     1     -10.542  12.741  67.020  1.00  0.00    -0.240 C  
HETATM   24  C   UNL     1     -10.345  14.211  66.556  1.00  0.00    -0.284 C  
HETATM   25  C   UNL     1     -10.202  14.299  65.035  1.00  0.00    -0.402 C  
HETATM   26  C   UNL     1     -11.443  13.748  64.340  1.00  0.00    -0.392 C  
HETATM   27  C   UNL     1     -11.814  12.349  64.833  1.00  0.00    -0.442 C  
HETATM   28  C   UNL     1     -11.842  12.252  66.360  1.00  0.00    -0.382 C  
ENDBRANCH  22  23
ENDBRANCH  17  18
ENDBRANCH  16  17
ENDBRANCH  15  16
ENDBRANCH  14  15
ENDBRANCH  13  14
ENDBRANCH  11  13
TORSDOF 7
ENDMDL
MODEL      282
REMARK 921   NORMALIZED FREE ENERGY PREDICTED BY IDOCK:   -4.29 KCAL/MOL
REMARK 922        TOTAL FREE ENERGY PREDICTED BY IDOCK:   -7.05 KCAL/MOL
REMARK 923 INTER-LIGAND FREE ENERGY PREDICTED BY IDOCK:   -6.75 KCAL/MOL
REMARK 924 INTRA-LIGAND FREE ENERGY PREDICTED BY IDOCK:   -0.30 KCAL/MOL
REMARK 927      BINDING AFFINITY PREDICTED BY RF-SCORE:    0.00 PKD
ROOT
HETATM    1  O   UNL     1     -10.627   8.369  72.296  1.00  0.00    -0.297 OA 
HETATM    2  C   UNL     1     -10.576   8.892  71.185  1.00  0.00    -0.265 C  
HETATM    3  C   UNL     1      -9.753   8.317  70.056  1.00  0.00    -0.176 C  
HETATM    4  C   UNL     1     -10.371   8.581  68.688  1.00  0.00    -0.224 C  
HETATM    5  C   UNL     1     -10.856   9.998  68.540  1.00  0.00    -0.270 A  
HETATM    6  C   UNL     1     -11.245  10.705  69.685  1.00  0.00    -0.289 A  
HETATM    7  N   UNL     1     -11.164  10.102  70.944  1.00  0.00    -0.341 N  
HETATM    8  C   UNL     1     -11.762  11.991  69.573  1.00  0.00    -0.408 A  
HETATM    9  C   UNL     1     -11.904  12.579  68.311  1.00  0.00    -0.361 A  
HETATM   10  H   UNL     1     -11.571  10.599  71.736  1.00  0.00     0.000 HD 
HETATM   11  C   UNL     1     -11.557  11.883  67.148  1.00  0.00    -0.290 A  
HETATM   12  C   UNL     1     -11.029  10.590  67.269  1.00  0.00    -0.325 A  
ENDROOT
BRANCH  11  13
HETATM   13  O   UNL     1     -11.794  12.575  65.983  1.00  0.00    -0.407 OA 
BRANCH  13  14
HETATM   14  C   UNL     1     -11.568  13.984  66.005  1.00  0.00    -0.357 C  
BRANCH  14  15
HETATM   15  C   UNL     1     -10.243  14.344  65.290  1.00  0.00    -0.416 C  
BRANCH  15  16
HETATM   16  C   UNL     1      -9.737  15.690  65.826  1.00  0.00    -0.380 C  
BRANCH  16  17
HETATM   17  C   UNL     1      -8.295  15.777  66.341  1.00  0.00    -0.267 C  
BRANCH  17  18
HETATM   18  C   UNL     1      -7.701  17.140  66.363  1.00  0.00    -0.310 A  
HETATM   19  N   UNL     1      -7.235  17.724  65.271  1.00  0.00     0.041 NA 
HETATM   20  N   UNL     1      -6.851  18.981  65.622  1.00  0.00    -0.342 NA 
HETATM   21  N   UNL     1      -7.047  19.184  66.909  1.00  0.00    -0.204 NA 
HETATM   22  N   UNL     1      -7.638  18.063  67.389  1.00  0.00    -0.202 NA 
BRANCH  22  23
HETATM   23  C   UNL     1      -7.961  18.038  68.813  1.00  0.00    -0.245 C  
HETATM   24  C   UNL     1      -6.952  17.186  69.633  1.00  0.00     0.107 C  
HETATM   25  C   UNL     1      -5.580  17.861  69.697  1.00  0.00    -0.217 C  
HETATM   26  C   UNL     1      -5.679  19.235  70.352  1.00  0.00    -0.254 C  
HETATM   27  C   UNL     1      -6.755  20.111  69.709  1.00  0.00    -0.225 C  
HETATM   28  C   UNL     1      -8.091  19.380  69.552  1.00  0.00     0.170 C  
ENDBRANCH  22  23
ENDBRANCH  17  18
ENDBRANCH  16  17
ENDBRANCH  15  16
ENDBRANCH  14  15
ENDBRANCH  13  14
ENDBRANCH  11  13
TORSDOF 7
ENDMDL
MODEL      283
REMARK 921   NORMALIZED FREE ENERGY PREDICTED BY IDOCK:   -4.28 KCAL/MOL
REMARK 922        TOTAL FREE ENERGY PREDICTED BY IDOCK:   -7.04 KCAL/MOL
REMARK 923 INTER-LIGAND FREE ENERGY PREDICTED BY IDOCK:   -6.21 KCAL/MOL
REMARK 924 INTRA-LIGAND FREE ENERGY PREDICTED BY IDOCK:   -0.83 KCAL/MOL
REMARK 927      BINDING AFFINITY PREDICTED BY RF-SCORE:    0.00 PKD
ROOT
HETATM    1  O   UNL     1     -13.958  14.614  73.020  1.00  0.00    -0.471 OA 
HETATM    2  C   UNL     1     -13.423  14.349  71.946  1.00  0.00    -0.393 C  
HETATM    3  C   UNL     1     -13.261  15.372  70.846  1.00  0.00    -0.512 C  
HETATM    4  C   UNL     1     -12.004  15.145  70.015  1.00  0.00    -0.374 C  
HETATM    5  C   UNL     1     -11.811  13.697  69.648  1.00  0.00    -0.396 A  
HETATM    6  C   UNL     1     -12.342  12.709  70.487  1.00  0.00    -0.268 A  
HETATM    7  N   UNL     1     -13.054  13.070  71.635  1.00  0.00    -0.385 N  
HETATM    8  C   UNL     1     -12.121  11.364  70.213  1.00  0.00    -0.459 A  
HETATM    9  C   UNL     1     -11.356  10.995  69.099  1.00  0.00    -0.348 A  
HETATM   10  H   UNL     1     -13.316  12.328  72.284  1.00  0.00     0.000 HD 
HETATM   11  C   UNL     1     -10.785  11.961  68.265  1.00  0.00    -0.223 A  
HETATM   12  C   UNL     1     -11.018  13.315  68.543  1.00  0.00    -0.291 A  
ENDROOT
BRANCH  11  13
HETATM   13  O   UNL     1     -10.026  11.446  67.240  1.00  0.00    -0.191 OA 
BRANCH  13  14
HETATM   14  C   UNL     1     -10.615  10.412  66.450  1.00  0.00    -0.127 C  
BRANCH  14  15
HETATM   15  C   UNL     1      -9.727   9.145  66.446  1.00  0.00    -0.330 C  
BRANCH  15  16
HETATM   16  C   UNL     1     -10.535   7.969  67.012  1.00  0.00    -0.410 C  
BRANCH  16  17
HETATM   17  C   UNL     1     -10.200   7.461  68.419  1.00  0.00    -0.207 C  
BRANCH  17  18
HETATM   18  C   UNL     1      -9.577   6.114  68.486  1.00  0.00    -0.119 A  
HETATM   19  N   UNL     1     -10.270   5.031  68.800  1.00  0.00    -0.136 NA 
HETATM   20  N   UNL     1      -9.428   3.968  68.683  1.00  0.00    -0.160 NA 
HETATM   21  N   UNL     1      -8.225   4.367  68.326  1.00  0.00    -0.089 NA 
HETATM   22  N   UNL     1      -8.304   5.706  68.136  1.00  0.00    -0.100 NA 
BRANCH  22  23
HETATM   23  C   UNL     1      -7.082   6.396  67.732  1.00  0.00    -0.085 C  
HETATM   24  C   UNL     1      -6.896   7.752  68.468  1.00  0.00    -0.066 C  
HETATM   25  C   UNL     1      -6.588   7.540  69.952  1.00  0.00    -0.039 C  
HETATM   26  C   UNL     1      -5.310   6.727  70.131  1.00  0.00    -0.018 C  
HETATM   27  C   UNL     1      -5.327   5.428  69.326  1.00  0.00    -0.003 C  
HETATM   28  C   UNL     1      -5.746   5.646  67.869  1.00  0.00    -0.013 C  
ENDBRANCH  22  23
ENDBRANCH  17  18
ENDBRANCH  16  17
ENDBRANCH  15  16
ENDBRANCH  14  15
ENDBRANCH  13  14
ENDBRANCH  11  13
TORSDOF 7
ENDMDL
MODEL      284
REMARK 921   NORMALIZED FREE ENERGY PREDICTED BY IDOCK:   -4.27 KCAL/MOL
REMARK 922        TOTAL FREE ENERGY PREDICTED BY IDOCK:   -7.04 KCAL/MOL
REMARK 923 INTER-LIGAND FREE ENERGY PREDICTED BY IDOCK:   -6.63 KCAL/MOL
REMARK 924 INTRA-LIGAND FREE ENERGY PREDICTED BY IDOCK:   -0.41 KCAL/MOL
REMARK 927      BINDING AFFINITY PREDICTED BY RF-SCORE:    0.00 PKD
ROOT
HETATM    1  O   UNL     1     -12.987  15.142  70.608  1.00  0.00    -0.385 OA 
HETATM    2  C   UNL     1     -12.471  14.164  70.070  1.00  0.00    -0.296 C  
HETATM    3  C   UNL     1     -12.148  12.898  70.828  1.00  0.00    -0.252 C  
HETATM    4  C   UNL     1     -12.265  11.650  69.961  1.00  0.00    -0.338 C  
HETATM    5  C   UNL     1     -11.630  11.829  68.608  1.00  0.00    -0.367 A  
HETATM    6  C   UNL     1     -11.553  13.115  68.060  1.00  0.00    -0.334 A  
HETATM    7  N   UNL     1     -12.043  14.214  68.773  1.00  0.00    -0.498 N  
HETATM    8  C   UNL     1     -11.035  13.303  66.783  1.00  0.00    -0.302 A  
HETATM    9  C   UNL     1     -10.599  12.201  66.037  1.00  0.00    -0.292 A  
HETATM   10  H   UNL     1     -12.083  15.112  68.292  1.00  0.00     0.000 HD 
HETATM   11  C   UNL     1     -10.697  10.902  66.546  1.00  0.00    -0.209 A  
HETATM   12  C   UNL     1     -11.213  10.721  67.836  1.00  0.00    -0.386 A  
ENDROOT
BRANCH  11  13
HETATM   13  O   UNL     1     -10.270   9.922  65.680  1.00  0.00    -0.269 OA 
BRANCH  13  14
HETATM   14  C   UNL     1      -8.925  10.012  65.208  1.00  0.00    -0.186 C  
BRANCH  14  15
HETATM   15  C   UNL     1      -7.964  10.423  66.349  1.00  0.00    -0.130 C  
BRANCH  15  16
HETATM   16  C   UNL     1      -8.002   9.348  67.445  1.00  0.00    -0.106 C  
BRANCH  16  17
HETATM   17  C   UNL     1      -7.984   7.874  67.024  1.00  0.00    -0.112 C  
BRANCH  17  18
HETATM   18  C   UNL     1      -9.243   7.121  67.266  1.00  0.00    -0.130 A  
HETATM   19  N   UNL     1      -9.796   6.354  66.339  1.00  0.00    -0.113 NA 
HETATM   20  N   UNL     1     -10.872   5.748  66.910  1.00  0.00    -0.292 NA 
HETATM   21  N   UNL     1     -11.013   6.136  68.161  1.00  0.00    -0.326 NA 
HETATM   22  N   UNL     1      -9.967   6.953  68.430  1.00  0.00    -0.143 NA 
BRANCH  22  23
HETATM   23  C   UNL     1      -9.896   7.524  69.773  1.00  0.00    -0.180 C  
HETATM   24  C   UNL     1     -10.898   6.855  70.754  1.00  0.00    -0.279 C  
HETATM   25  C   UNL     1     -10.488   5.415  71.070  1.00  0.00    -0.302 C  
HETATM   26  C   UNL     1      -9.104   5.371  71.708  1.00  0.00    -0.152 C  
HETATM   27  C   UNL     1      -8.060   6.132  70.889  1.00  0.00    -0.121 C  
HETATM   28  C   UNL     1      -8.534   7.531  70.487  1.00  0.00    -0.133 C  
ENDBRANCH  22  23
ENDBRANCH  17  18
ENDBRANCH  16  17
ENDBRANCH  15  16
ENDBRANCH  14  15
ENDBRANCH  13  14
ENDBRANCH  11  13
TORSDOF 7
ENDMDL
MODEL      285
REMARK 921   NORMALIZED FREE ENERGY PREDICTED BY IDOCK:   -4.27 KCAL/MOL
REMARK 922        TOTAL FREE ENERGY PREDICTED BY IDOCK:   -7.03 KCAL/MOL
REMARK 923 INTER-LIGAND FREE ENERGY PREDICTED BY IDOCK:   -5.84 KCAL/MOL
REMARK 924 INTRA-LIGAND FREE ENERGY PREDICTED BY IDOCK:   -1.19 KCAL/MOL
REMARK 927      BINDING AFFINITY PREDICTED BY RF-SCORE:    0.00 PKD
ROOT
HETATM    1  O   UNL     1      -6.051  10.105  64.287  1.00  0.00    -0.123 OA 
HETATM    2  C   UNL     1      -6.636  10.060  65.368  1.00  0.00    -0.110 C  
HETATM    3  C   UNL     1      -5.931  10.304  66.682  1.00  0.00    -0.062 C  
HETATM    4  C   UNL     1      -6.839  10.948  67.722  1.00  0.00    -0.072 C  
HETATM    5  C   UNL     1      -8.200  10.307  67.775  1.00  0.00    -0.110 A  
HETATM    6  C   UNL     1      -8.703   9.691  66.622  1.00  0.00    -0.134 A  
HETATM    7  N   UNL     1      -7.940   9.660  65.451  1.00  0.00    -0.116 N  
HETATM    8  C   UNL     1      -9.985   9.150  66.619  1.00  0.00    -0.343 A  
HETATM    9  C   UNL     1     -10.780   9.232  67.769  1.00  0.00    -0.270 A  
HETATM   10  H   UNL     1      -8.387   9.316  64.601  1.00  0.00     0.000 HD 
HETATM   11  C   UNL     1     -10.315   9.872  68.922  1.00  0.00    -0.205 A  
HETATM   12  C   UNL     1      -9.020  10.408  68.921  1.00  0.00    -0.170 A  
ENDROOT
BRANCH  11  13
HETATM   13  O   UNL     1     -11.225   9.910  69.953  1.00  0.00    -0.242 OA 
BRANCH  13  14
HETATM   14  C   UNL     1     -12.283  10.863  69.853  1.00  0.00    -0.336 C  
BRANCH  14  15
HETATM   15  C   UNL     1     -12.361  11.741  71.125  1.00  0.00    -0.329 C  
BRANCH  15  16
HETATM   16  C   UNL     1     -12.133  13.208  70.734  1.00  0.00    -0.290 C  
BRANCH  16  17
HETATM   17  C   UNL     1     -11.841  13.536  69.265  1.00  0.00    -0.392 C  
BRANCH  17  18
HETATM   18  C   UNL     1     -11.482  14.950  68.981  1.00  0.00    -0.301 A  
HETATM   19  N   UNL     1     -11.816  15.940  69.793  1.00  0.00    -0.324 NA 
HETATM   20  N   UNL     1     -11.263  17.076  69.290  1.00  0.00     0.103 NA 
HETATM   21  N   UNL     1     -10.611  16.820  68.174  1.00  0.00    -0.336 NA 
HETATM   22  N   UNL     1     -10.681  15.480  67.987  1.00  0.00    -0.274 NA 
BRANCH  22  23
HETATM   23  C   UNL     1     -10.027  14.937  66.799  1.00  0.00    -0.246 C  
HETATM   24  C   UNL     1      -9.327  16.038  65.954  1.00  0.00    -0.335 C  
HETATM   25  C   UNL     1      -8.104  16.602  66.681  1.00  0.00    -0.309 C  
HETATM   26  C   UNL     1      -7.084  15.503  66.961  1.00  0.00    -0.072 C  
HETATM   27  C   UNL     1      -7.705  14.298  67.668  1.00  0.00    -0.190 C  
HETATM   28  C   UNL     1      -8.991  13.817  66.989  1.00  0.00    -0.247 C  
ENDBRANCH  22  23
ENDBRANCH  17  18
ENDBRANCH  16  17
ENDBRANCH  15  16
ENDBRANCH  14  15
ENDBRANCH  13  14
ENDBRANCH  11  13
TORSDOF 7
ENDMDL
MODEL      286
REMARK 921   NORMALIZED FREE ENERGY PREDICTED BY IDOCK:   -4.27 KCAL/MOL
REMARK 922        TOTAL FREE ENERGY PREDICTED BY IDOCK:   -7.02 KCAL/MOL
REMARK 923 INTER-LIGAND FREE ENERGY PREDICTED BY IDOCK:   -6.22 KCAL/MOL
REMARK 924 INTRA-LIGAND FREE ENERGY PREDICTED BY IDOCK:   -0.80 KCAL/MOL
REMARK 927      BINDING AFFINITY PREDICTED BY RF-SCORE:    0.00 PKD
ROOT
HETATM    1  O   UNL     1      -7.892  20.098  66.573  1.00  0.00    -0.294 OA 
HETATM    2  C   UNL     1      -7.982  18.878  66.453  1.00  0.00    -0.285 C  
HETATM    3  C   UNL     1      -6.771  17.975  66.416  1.00  0.00    -0.261 C  
HETATM    4  C   UNL     1      -7.044  16.603  67.020  1.00  0.00    -0.238 C  
HETATM    5  C   UNL     1      -8.355  16.023  66.560  1.00  0.00    -0.348 A  
HETATM    6  C   UNL     1      -9.386  16.893  66.182  1.00  0.00    -0.236 A  
HETATM    7  N   UNL     1      -9.187  18.276  66.217  1.00  0.00    -0.252 N  
HETATM    8  C   UNL     1     -10.631  16.389  65.819  1.00  0.00    -0.327 A  
HETATM    9  C   UNL     1     -10.858  15.008  65.840  1.00  0.00    -0.339 A  
HETATM   10  H   UNL     1      -9.995  18.877  66.057  1.00  0.00     0.000 HD 
HETATM   11  C   UNL     1      -9.858  14.119  66.247  1.00  0.00    -0.306 A  
HETATM   12  C   UNL     1      -8.604  14.633  66.605  1.00  0.00    -0.129 A  
ENDROOT
BRANCH  11  13
HETATM   13  O   UNL     1     -10.244  12.798  66.257  1.00  0.00    -0.244 OA 
BRANCH  13  14
HETATM   14  C   UNL     1     -11.594  12.518  66.630  1.00  0.00    -0.380 C  
BRANCH  14  15
HETATM   15  C   UNL     1     -11.739  12.442  68.169  1.00  0.00    -0.408 C  
BRANCH  15  16
HETATM   16  C   UNL     1     -10.374  12.099  68.782  1.00  0.00    -0.168 C  
BRANCH  16  17
HETATM   17  C   UNL     1     -10.053  10.628  69.075  1.00  0.00    -0.226 C  
BRANCH  17  18
HETATM   18  C   UNL     1      -8.636  10.226  68.871  1.00  0.00    -0.150 A  
HETATM   19  N   UNL     1      -7.716  10.384  69.808  1.00  0.00    -0.148 NA 
HETATM   20  N   UNL     1      -6.564   9.837  69.335  1.00  0.00    -0.048 NA 
HETATM   21  N   UNL     1      -6.741   9.362  68.119  1.00  0.00    -0.059 NA 
HETATM   22  N   UNL     1      -8.051   9.539  67.825  1.00  0.00    -0.106 NA 
BRANCH  22  23
HETATM   23  C   UNL     1      -8.505   9.090  66.511  1.00  0.00    -0.119 C  
HETATM   24  C   UNL     1      -7.848   7.748  66.084  1.00  0.00    -0.095 C  
HETATM   25  C   UNL     1      -8.356   6.584  66.939  1.00  0.00    -0.113 C  
HETATM   26  C   UNL     1      -9.868   6.432  66.806  1.00  0.00    -0.209 C  
HETATM   27  C   UNL     1     -10.611   7.743  67.065  1.00  0.00    -0.396 C  
HETATM   28  C   UNL     1     -10.017   8.919  66.286  1.00  0.00    -0.337 C  
ENDBRANCH  22  23
ENDBRANCH  17  18
ENDBRANCH  16  17
ENDBRANCH  15  16
ENDBRANCH  14  15
ENDBRANCH  13  14
ENDBRANCH  11  13
TORSDOF 7
ENDMDL
MODEL      287
REMARK 921   NORMALIZED FREE ENERGY PREDICTED BY IDOCK:   -4.26 KCAL/MOL
REMARK 922        TOTAL FREE ENERGY PREDICTED BY IDOCK:   -7.02 KCAL/MOL
REMARK 923 INTER-LIGAND FREE ENERGY PREDICTED BY IDOCK:   -6.11 KCAL/MOL
REMARK 924 INTRA-LIGAND FREE ENERGY PREDICTED BY IDOCK:   -0.90 KCAL/MOL
REMARK 927      BINDING AFFINITY PREDICTED BY RF-SCORE:    0.00 PKD
ROOT
HETATM    1  O   UNL     1     -12.501  13.306  63.346  1.00  0.00    -0.741 OA 
HETATM    2  C   UNL     1     -11.665  12.684  63.998  1.00  0.00    -0.424 C  
HETATM    3  C   UNL     1     -11.295  11.253  63.685  1.00  0.00    -0.134 C  
HETATM    4  C   UNL     1      -9.841  10.939  64.015  1.00  0.00    -0.377 C  
HETATM    5  C   UNL     1      -9.424  11.486  65.354  1.00  0.00    -0.220 A  
HETATM    6  C   UNL     1     -10.077  12.618  65.857  1.00  0.00    -0.264 A  
HETATM    7  N   UNL     1     -11.111  13.214  65.129  1.00  0.00    -0.282 N  
HETATM    8  C   UNL     1      -9.668  13.187  67.059  1.00  0.00    -0.241 A  
HETATM    9  C   UNL     1      -8.593  12.633  67.763  1.00  0.00    -0.179 A  
HETATM   10  H   UNL     1     -11.476  14.105  65.465  1.00  0.00     0.000 HD 
HETATM   11  C   UNL     1      -7.900  11.524  67.267  1.00  0.00    -0.153 A  
HETATM   12  C   UNL     1      -8.322  10.951  66.060  1.00  0.00    -0.165 A  
ENDROOT
BRANCH  11  13
HETATM   13  O   UNL     1      -6.842  11.122  68.049  1.00  0.00    -0.065 OA 
BRANCH  13  14
HETATM   14  C   UNL     1      -6.613  11.846  69.258  1.00  0.00    -0.110 C  
BRANCH  14  15
HETATM   15  C   UNL     1      -6.330  10.883  70.435  1.00  0.00    -0.090 C  
BRANCH  15  16
HETATM   16  C   UNL     1      -7.475   9.865  70.533  1.00  0.00    -0.057 C  
BRANCH  16  17
HETATM   17  C   UNL     1      -7.195   8.409  70.143  1.00  0.00    -0.050 C  
BRANCH  17  18
HETATM   18  C   UNL     1      -8.313   7.696  69.472  1.00  0.00    -0.130 A  
HETATM   19  N   UNL     1      -8.473   7.713  68.158  1.00  0.00    -0.124 NA 
HETATM   20  N   UNL     1      -9.525   6.898  67.872  1.00  0.00    -0.121 NA 
HETATM   21  N   UNL     1     -10.034   6.393  68.977  1.00  0.00    -0.144 NA 
HETATM   22  N   UNL     1      -9.254   6.830  69.995  1.00  0.00    -0.158 NA 
BRANCH  22  23
HETATM   23  C   UNL     1      -9.618   6.404  71.344  1.00  0.00    -0.162 C  
HETATM   24  C   UNL     1      -9.383   7.519  72.400  1.00  0.00    -0.192 C  
HETATM   25  C   UNL     1     -10.376   8.670  72.223  1.00  0.00    -0.376 C  
HETATM   26  C   UNL     1     -11.811   8.177  72.369  1.00  0.00    -0.448 C  
HETATM   27  C   UNL     1     -12.110   6.976  71.470  1.00  0.00    -0.392 C  
HETATM   28  C   UNL     1     -11.045   5.882  71.579  1.00  0.00    -0.314 C  
ENDBRANCH  22  23
ENDBRANCH  17  18
ENDBRANCH  16  17
ENDBRANCH  15  16
ENDBRANCH  14  15
ENDBRANCH  13  14
ENDBRANCH  11  13
TORSDOF 7
ENDMDL
MODEL      288
REMARK 921   NORMALIZED FREE ENERGY PREDICTED BY IDOCK:   -4.26 KCAL/MOL
REMARK 922        TOTAL FREE ENERGY PREDICTED BY IDOCK:   -7.01 KCAL/MOL
REMARK 923 INTER-LIGAND FREE ENERGY PREDICTED BY IDOCK:   -6.54 KCAL/MOL
REMARK 924 INTRA-LIGAND FREE ENERGY PREDICTED BY IDOCK:   -0.47 KCAL/MOL
REMARK 927      BINDING AFFINITY PREDICTED BY RF-SCORE:    0.00 PKD
ROOT
HETATM    1  O   UNL     1      -6.576   2.551  71.356  1.00  0.00    -0.022 OA 
HETATM    2  C   UNL     1      -7.501   3.360  71.344  1.00  0.00    -0.044 C  
HETATM    3  C   UNL     1      -8.687   3.221  70.418  1.00  0.00    -0.124 C  
HETATM    4  C   UNL     1      -9.972   3.771  71.026  1.00  0.00    -0.118 C  
HETATM    5  C   UNL     1      -9.767   5.104  71.695  1.00  0.00    -0.217 A  
HETATM    6  C   UNL     1      -8.502   5.417  72.210  1.00  0.00    -0.122 A  
HETATM    7  N   UNL     1      -7.447   4.508  72.084  1.00  0.00    -0.078 N  
HETATM    8  C   UNL     1      -8.299   6.611  72.894  1.00  0.00    -0.121 A  
HETATM    9  C   UNL     1      -9.365   7.500  73.078  1.00  0.00    -0.242 A  
HETATM   10  H   UNL     1      -6.580   4.715  72.578  1.00  0.00     0.000 HD 
HETATM   11  C   UNL     1     -10.646   7.197  72.605  1.00  0.00    -0.256 A  
HETATM   12  C   UNL     1     -10.842   5.996  71.910  1.00  0.00    -0.304 A  
ENDROOT
BRANCH  11  13
HETATM   13  O   UNL     1     -11.597   8.146  72.901  1.00  0.00    -0.386 OA 
BRANCH  13  14
HETATM   14  C   UNL     1     -12.280   8.748  71.800  1.00  0.00    -0.349 C  
BRANCH  14  15
HETATM   15  C   UNL     1     -11.456   9.918  71.211  1.00  0.00    -0.435 C  
BRANCH  15  16
HETATM   16  C   UNL     1     -12.417  10.933  70.575  1.00  0.00    -0.438 C  
BRANCH  16  17
HETATM   17  C   UNL     1     -12.032  11.561  69.231  1.00  0.00    -0.397 C  
BRANCH  17  18
HETATM   18  C   UNL     1     -11.975  13.046  69.207  1.00  0.00    -0.278 A  
HETATM   19  N   UNL     1     -12.343  13.783  70.244  1.00  0.00    -0.343 NA 
HETATM   20  N   UNL     1     -12.083  15.080  69.926  1.00  0.00    -0.324 NA 
HETATM   21  N   UNL     1     -11.585  15.169  68.709  1.00  0.00    -0.333 NA 
HETATM   22  N   UNL     1     -11.449  13.899  68.256  1.00  0.00    -0.291 NA 
BRANCH  22  23
HETATM   23  C   UNL     1     -10.910  13.726  66.910  1.00  0.00    -0.285 C  
HETATM   24  C   UNL     1      -9.745  14.709  66.608  1.00  0.00    -0.283 C  
HETATM   25  C   UNL     1      -8.499  14.362  67.426  1.00  0.00    -0.216 C  
HETATM   26  C   UNL     1      -8.018  12.950  67.110  1.00  0.00    -0.104 C  
HETATM   27  C   UNL     1      -9.133  11.912  67.236  1.00  0.00    -0.178 C  
HETATM   28  C   UNL     1     -10.410  12.330  66.502  1.00  0.00    -0.250 C  
ENDBRANCH  22  23
ENDBRANCH  17  18
ENDBRANCH  16  17
ENDBRANCH  15  16
ENDBRANCH  14  15
ENDBRANCH  13  14
ENDBRANCH  11  13
TORSDOF 7
ENDMDL
MODEL      289
REMARK 921   NORMALIZED FREE ENERGY PREDICTED BY IDOCK:   -4.25 KCAL/MOL
REMARK 922        TOTAL FREE ENERGY PREDICTED BY IDOCK:   -7.00 KCAL/MOL
REMARK 923 INTER-LIGAND FREE ENERGY PREDICTED BY IDOCK:   -6.45 KCAL/MOL
REMARK 924 INTRA-LIGAND FREE ENERGY PREDICTED BY IDOCK:   -0.55 KCAL/MOL
REMARK 927      BINDING AFFINITY PREDICTED BY RF-SCORE:    0.00 PKD
ROOT
HETATM    1  O   UNL     1      -7.456   1.824  64.710  1.00  0.00    -0.059 OA 
HETATM    2  C   UNL     1      -8.121   2.804  65.039  1.00  0.00    -0.083 C  
HETATM    3  C   UNL     1      -9.289   3.303  64.220  1.00  0.00    -0.136 C  
HETATM    4  C   UNL     1     -10.378   3.935  65.079  1.00  0.00    -0.116 C  
HETATM    5  C   UNL     1      -9.820   4.861  66.126  1.00  0.00    -0.222 A  
HETATM    6  C   UNL     1      -8.524   4.637  66.608  1.00  0.00    -0.105 A  
HETATM    7  N   UNL     1      -7.760   3.579  66.106  1.00  0.00    -0.081 N  
HETATM    8  C   UNL     1      -8.007   5.433  67.625  1.00  0.00    -0.100 A  
HETATM    9  C   UNL     1      -8.788   6.455  68.177  1.00  0.00    -0.114 A  
HETATM   10  H   UNL     1      -6.875   3.371  66.567  1.00  0.00     0.000 HD 
HETATM   11  C   UNL     1     -10.097   6.679  67.739  1.00  0.00    -0.148 A  
HETATM   12  C   UNL     1     -10.609   5.878  66.709  1.00  0.00    -0.368 A  
ENDROOT
BRANCH  11  13
HETATM   13  O   UNL     1     -10.752   7.689  68.406  1.00  0.00    -0.155 OA 
BRANCH  13  14
HETATM   14  C   UNL     1      -9.984   8.837  68.763  1.00  0.00    -0.185 C  
BRANCH  14  15
HETATM   15  C   UNL     1     -10.391  10.063  67.911  1.00  0.00    -0.249 C  
BRANCH  15  16
HETATM   16  C   UNL     1     -10.559  11.278  68.834  1.00  0.00    -0.239 C  
BRANCH  16  17
HETATM   17  C   UNL     1     -11.850  12.099  68.735  1.00  0.00    -0.356 C  
BRANCH  17  18
HETATM   18  C   UNL     1     -11.669  13.564  68.554  1.00  0.00    -0.357 A  
HETATM   19  N   UNL     1     -11.167  14.335  69.505  1.00  0.00    -0.256 NA 
HETATM   20  N   UNL     1     -11.055  15.588  68.987  1.00  0.00    -0.249 NA 
HETATM   21  N   UNL     1     -11.496  15.618  67.746  1.00  0.00    -0.267 NA 
HETATM   22  N   UNL     1     -11.832  14.345  67.427  1.00  0.00    -0.399 NA 
BRANCH  22  23
HETATM   23  C   UNL     1     -12.357  14.111  66.084  1.00  0.00    -0.436 C  
HETATM   24  C   UNL     1     -11.606  14.937  65.003  1.00  0.00    -0.357 C  
HETATM   25  C   UNL     1     -10.177  14.426  64.807  1.00  0.00    -0.259 C  
HETATM   26  C   UNL     1     -10.177  12.965  64.370  1.00  0.00    -0.342 C  
HETATM   27  C   UNL     1     -11.015  12.080  65.292  1.00  0.00    -0.356 C  
HETATM   28  C   UNL     1     -12.403  12.664  65.565  1.00  0.00    -0.455 C  
ENDBRANCH  22  23
ENDBRANCH  17  18
ENDBRANCH  16  17
ENDBRANCH  15  16
ENDBRANCH  14  15
ENDBRANCH  13  14
ENDBRANCH  11  13
TORSDOF 7
ENDMDL
MODEL      290
REMARK 921   NORMALIZED FREE ENERGY PREDICTED BY IDOCK:   -4.24 KCAL/MOL
REMARK 922        TOTAL FREE ENERGY PREDICTED BY IDOCK:   -6.98 KCAL/MOL
REMARK 923 INTER-LIGAND FREE ENERGY PREDICTED BY IDOCK:   -6.10 KCAL/MOL
REMARK 924 INTRA-LIGAND FREE ENERGY PREDICTED BY IDOCK:   -0.89 KCAL/MOL
REMARK 927      BINDING AFFINITY PREDICTED BY RF-SCORE:    0.00 PKD
ROOT
HETATM    1  O   UNL     1      -6.727   8.956  74.354  1.00  0.00    -0.316 OA 
HETATM    2  C   UNL     1      -7.405   8.447  73.464  1.00  0.00    -0.071 C  
HETATM    3  C   UNL     1      -8.813   7.953  73.699  1.00  0.00    -0.336 C  
HETATM    4  C   UNL     1      -9.697   8.092  72.466  1.00  0.00    -0.357 C  
HETATM    5  C   UNL     1      -9.004   7.638  71.208  1.00  0.00    -0.141 A  
HETATM    6  C   UNL     1      -7.607   7.711  71.140  1.00  0.00    -0.080 A  
HETATM    7  N   UNL     1      -6.873   8.182  72.233  1.00  0.00    -0.077 N  
HETATM    8  C   UNL     1      -6.944   7.364  69.968  1.00  0.00    -0.060 A  
HETATM    9  C   UNL     1      -7.675   6.950  68.848  1.00  0.00    -0.110 A  
HETATM   10  H   UNL     1      -5.874   8.339  72.102  1.00  0.00     0.000 HD 
HETATM   11  C   UNL     1      -9.073   6.902  68.877  1.00  0.00    -0.134 A  
HETATM   12  C   UNL     1      -9.734   7.246  70.064  1.00  0.00    -0.175 A  
ENDROOT
BRANCH  11  13
HETATM   13  O   UNL     1      -9.651   6.519  67.689  1.00  0.00    -0.123 OA 
BRANCH  13  14
HETATM   14  C   UNL     1     -10.646   7.383  67.141  1.00  0.00    -0.342 C  
BRANCH  14  15
HETATM   15  C   UNL     1      -9.998   8.545  66.352  1.00  0.00    -0.314 C  
BRANCH  15  16
HETATM   16  C   UNL     1     -10.299   9.867  67.073  1.00  0.00    -0.303 C  
BRANCH  16  17
HETATM   17  C   UNL     1     -10.192  11.174  66.280  1.00  0.00    -0.286 C  
BRANCH  17  18
HETATM   18  C   UNL     1      -9.270  12.195  66.844  1.00  0.00    -0.203 A  
HETATM   19  N   UNL     1      -7.987  11.949  67.054  1.00  0.00    -0.164 NA 
HETATM   20  N   UNL     1      -7.421  13.108  67.485  1.00  0.00    -0.161 NA 
HETATM   21  N   UNL     1      -8.326  14.062  67.569  1.00  0.00    -0.179 NA 
HETATM   22  N   UNL     1      -9.487  13.533  67.114  1.00  0.00    -0.235 NA 
BRANCH  22  23
HETATM   23  C   UNL     1     -10.659  14.404  67.107  1.00  0.00    -0.277 C  
HETATM   24  C   UNL     1     -11.970  13.634  67.432  1.00  0.00    -0.413 C  
HETATM   25  C   UNL     1     -11.999  13.180  68.894  1.00  0.00    -0.317 C  
HETATM   26  C   UNL     1     -11.909  14.376  69.836  1.00  0.00    -0.382 C  
HETATM   27  C   UNL     1     -10.726  15.288  69.509  1.00  0.00    -0.270 C  
HETATM   28  C   UNL     1     -10.649  15.640  68.021  1.00  0.00    -0.271 C  
ENDBRANCH  22  23
ENDBRANCH  17  18
ENDBRANCH  16  17
ENDBRANCH  15  16
ENDBRANCH  14  15
ENDBRANCH  13  14
ENDBRANCH  11  13
TORSDOF 7
ENDMDL
MODEL      291
REMARK 921   NORMALIZED FREE ENERGY PREDICTED BY IDOCK:   -4.23 KCAL/MOL
REMARK 922        TOTAL FREE ENERGY PREDICTED BY IDOCK:   -6.98 KCAL/MOL
REMARK 923 INTER-LIGAND FREE ENERGY PREDICTED BY IDOCK:   -6.45 KCAL/MOL
REMARK 924 INTRA-LIGAND FREE ENERGY PREDICTED BY IDOCK:   -0.53 KCAL/MOL
REMARK 927      BINDING AFFINITY PREDICTED BY RF-SCORE:    0.00 PKD
ROOT
HETATM    1  O   UNL     1     -12.650  15.982  70.920  1.00  0.00    -0.362 OA 
HETATM    2  C   UNL     1     -12.276  15.101  70.149  1.00  0.00    -0.352 C  
HETATM    3  C   UNL     1     -11.847  15.394  68.730  1.00  0.00    -0.339 C  
HETATM    4  C   UNL     1     -10.768  14.439  68.236  1.00  0.00    -0.246 C  
HETATM    5  C   UNL     1     -11.062  13.005  68.589  1.00  0.00    -0.305 A  
HETATM    6  C   UNL     1     -11.841  12.732  69.720  1.00  0.00    -0.310 A  
HETATM    7  N   UNL     1     -12.348  13.780  70.494  1.00  0.00    -0.349 N  
HETATM    8  C   UNL     1     -12.073  11.418  70.112  1.00  0.00    -0.439 A  
HETATM    9  C   UNL     1     -11.516  10.363  69.378  1.00  0.00    -0.292 A  
HETATM   10  H   UNL     1     -12.802  13.543  71.376  1.00  0.00     0.000 HD 
HETATM   11  C   UNL     1     -10.706  10.607  68.265  1.00  0.00    -0.219 A  
HETATM   12  C   UNL     1     -10.483  11.934  67.872  1.00  0.00    -0.225 A  
ENDROOT
BRANCH  11  13
HETATM   13  O   UNL     1     -10.198   9.473  67.674  1.00  0.00    -0.191 OA 
BRANCH  13  14
HETATM   14  C   UNL     1      -8.788   9.429  67.457  1.00  0.00    -0.118 C  
BRANCH  14  15
HETATM   15  C   UNL     1      -8.405   8.239  66.545  1.00  0.00    -0.112 C  
BRANCH  15  16
HETATM   16  C   UNL     1      -8.563   6.933  67.337  1.00  0.00    -0.121 C  
BRANCH  16  17
HETATM   17  C   UNL     1      -7.425   6.499  68.268  1.00  0.00    -0.095 C  
BRANCH  17  18
HETATM   18  C   UNL     1      -7.624   6.798  69.710  1.00  0.00    -0.104 A  
HETATM   19  N   UNL     1      -6.901   7.704  70.349  1.00  0.00    -0.046 NA 
HETATM   20  N   UNL     1      -7.394   7.791  71.614  1.00  0.00    -0.064 NA 
HETATM   21  N   UNL     1      -8.391   6.947  71.783  1.00  0.00    -0.109 NA 
HETATM   22  N   UNL     1      -8.597   6.352  70.583  1.00  0.00    -0.138 NA 
BRANCH  22  23
HETATM   23  C   UNL     1      -9.664   5.357  70.507  1.00  0.00    -0.185 C  
HETATM   24  C   UNL     1     -10.119   4.869  71.911  1.00  0.00    -0.262 C  
HETATM   25  C   UNL     1     -10.857   5.974  72.671  1.00  0.00    -0.280 C  
HETATM   26  C   UNL     1     -12.095   6.427  71.906  1.00  0.00    -0.362 C  
HETATM   27  C   UNL     1     -11.782   6.796  70.455  1.00  0.00    -0.430 C  
HETATM   28  C   UNL     1     -10.948   5.727  69.744  1.00  0.00    -0.397 C  
ENDBRANCH  22  23
ENDBRANCH  17  18
ENDBRANCH  16  17
ENDBRANCH  15  16
ENDBRANCH  14  15
ENDBRANCH  13  14
ENDBRANCH  11  13
TORSDOF 7
ENDMDL
MODEL      292
REMARK 921   NORMALIZED FREE ENERGY PREDICTED BY IDOCK:   -4.23 KCAL/MOL
REMARK 922        TOTAL FREE ENERGY PREDICTED BY IDOCK:   -6.98 KCAL/MOL
REMARK 923 INTER-LIGAND FREE ENERGY PREDICTED BY IDOCK:   -6.23 KCAL/MOL
REMARK 924 INTRA-LIGAND FREE ENERGY PREDICTED BY IDOCK:   -0.75 KCAL/MOL
REMARK 927      BINDING AFFINITY PREDICTED BY RF-SCORE:    0.00 PKD
ROOT
HETATM    1  O   UNL     1      -6.455   6.518  72.322  1.00  0.00    -0.056 OA 
HETATM    2  C   UNL     1      -7.522   7.085  72.096  1.00  0.00    -0.090 C  
HETATM    3  C   UNL     1      -8.738   6.904  72.974  1.00  0.00    -0.135 C  
HETATM    4  C   UNL     1      -9.611   8.152  73.030  1.00  0.00    -0.336 C  
HETATM    5  C   UNL     1      -9.822   8.768  71.672  1.00  0.00    -0.378 A  
HETATM    6  C   UNL     1      -8.847   8.581  70.684  1.00  0.00    -0.155 A  
HETATM    7  N   UNL     1      -7.707   7.818  70.957  1.00  0.00    -0.082 N  
HETATM    8  C   UNL     1      -8.980   9.194  69.443  1.00  0.00    -0.147 A  
HETATM    9  C   UNL     1     -10.087  10.010  69.182  1.00  0.00    -0.219 A  
HETATM   10  H   UNL     1      -6.964   7.808  70.259  1.00  0.00     0.000 HD 
HETATM   11  C   UNL     1     -11.058  10.242  70.162  1.00  0.00    -0.319 A  
HETATM   12  C   UNL     1     -10.921   9.615  71.408  1.00  0.00    -0.354 A  
ENDROOT
BRANCH  11  13
HETATM   13  O   UNL     1     -12.061  11.100  69.773  1.00  0.00    -0.315 OA 
BRANCH  13  14
HETATM   14  C   UNL     1     -11.864  12.490  70.028  1.00  0.00    -0.289 C  
BRANCH  14  15
HETATM   15  C   UNL     1     -11.431  13.233  68.742  1.00  0.00    -0.346 C  
BRANCH  15  16
HETATM   16  C   UNL     1     -11.621  14.743  68.950  1.00  0.00    -0.340 C  
BRANCH  16  17
HETATM   17  C   UNL     1     -11.335  15.685  67.775  1.00  0.00    -0.261 C  
BRANCH  17  18
HETATM   18  C   UNL     1     -10.310  16.732  68.025  1.00  0.00    -0.317 A  
HETATM   19  N   UNL     1     -10.579  17.836  68.702  1.00  0.00    -0.273 NA 
HETATM   20  N   UNL     1      -9.414  18.527  68.824  1.00  0.00    -0.327 NA 
HETATM   21  N   UNL     1      -8.432  17.889  68.219  1.00  0.00    -0.271 NA 
HETATM   22  N   UNL     1      -8.954  16.727  67.760  1.00  0.00    -0.214 NA 
BRANCH  22  23
HETATM   23  C   UNL     1      -8.053  15.830  67.040  1.00  0.00    -0.236 C  
HETATM   24  C   UNL     1      -6.557  16.167  67.292  1.00  0.00    -0.231 C  
HETATM   25  C   UNL     1      -6.148  15.836  68.730  1.00  0.00    -0.101 C  
HETATM   26  C   UNL     1      -6.354  14.354  69.026  1.00  0.00    -0.097 C  
HETATM   27  C   UNL     1      -7.764  13.880  68.674  1.00  0.00    -0.128 C  
HETATM   28  C   UNL     1      -8.198  14.317  67.272  1.00  0.00    -0.212 C  
ENDBRANCH  22  23
ENDBRANCH  17  18
ENDBRANCH  16  17
ENDBRANCH  15  16
ENDBRANCH  14  15
ENDBRANCH  13  14
ENDBRANCH  11  13
TORSDOF 7
ENDMDL
MODEL      293
REMARK 921   NORMALIZED FREE ENERGY PREDICTED BY IDOCK:   -4.22 KCAL/MOL
REMARK 922        TOTAL FREE ENERGY PREDICTED BY IDOCK:   -6.96 KCAL/MOL
REMARK 923 INTER-LIGAND FREE ENERGY PREDICTED BY IDOCK:   -6.34 KCAL/MOL
REMARK 924 INTRA-LIGAND FREE ENERGY PREDICTED BY IDOCK:   -0.62 KCAL/MOL
REMARK 927      BINDING AFFINITY PREDICTED BY RF-SCORE:    0.00 PKD
ROOT
HETATM    1  O   UNL     1      -9.615  19.479  68.409  1.00  0.00    -0.350 OA 
HETATM    2  C   UNL     1     -10.093  18.410  68.036  1.00  0.00    -0.368 C  
HETATM    3  C   UNL     1     -10.314  18.086  66.577  1.00  0.00    -0.376 C  
HETATM    4  C   UNL     1     -10.157  16.601  66.277  1.00  0.00    -0.342 C  
HETATM    5  C   UNL     1     -10.852  15.732  67.292  1.00  0.00    -0.298 A  
HETATM    6  C   UNL     1     -11.024  16.218  68.594  1.00  0.00    -0.340 A  
HETATM    7  N   UNL     1     -10.572  17.497  68.934  1.00  0.00    -0.346 N  
HETATM    8  C   UNL     1     -11.599  15.413  69.572  1.00  0.00    -0.346 A  
HETATM    9  C   UNL     1     -11.998  14.109  69.257  1.00  0.00    -0.382 A  
HETATM   10  H   UNL     1     -10.601  17.766  69.916  1.00  0.00     0.000 HD 
HETATM   11  C   UNL     1     -11.806  13.586  67.974  1.00  0.00    -0.365 A  
HETATM   12  C   UNL     1     -11.233  14.405  66.992  1.00  0.00    -0.336 A  
ENDROOT
BRANCH  11  13
HETATM   13  O   UNL     1     -12.209  12.279  67.830  1.00  0.00    -0.425 OA 
BRANCH  13  14
HETATM   14  C   UNL     1     -11.305  11.267  68.274  1.00  0.00    -0.289 C  
BRANCH  14  15
HETATM   15  C   UNL     1     -10.842  10.380  67.094  1.00  0.00    -0.301 C  
BRANCH  15  16
HETATM   16  C   UNL     1     -10.571   8.961  67.613  1.00  0.00    -0.292 C  
BRANCH  16  17
HETATM   17  C   UNL     1     -10.480   8.741  69.127  1.00  0.00    -0.230 C  
BRANCH  17  18
HETATM   18  C   UNL     1      -9.638   7.595  69.562  1.00  0.00    -0.163 A  
HETATM   19  N   UNL     1     -10.092   6.351  69.573  1.00  0.00    -0.164 NA 
HETATM   20  N   UNL     1      -9.053   5.549  69.932  1.00  0.00    -0.132 NA 
HETATM   21  N   UNL     1      -7.973   6.266  70.165  1.00  0.00    -0.106 NA 
HETATM   22  N   UNL     1      -8.295   7.551  69.881  1.00  0.00    -0.131 NA 
BRANCH  22  23
HETATM   23  C   UNL     1      -7.251   8.556  70.064  1.00  0.00    -0.051 C  
HETATM   24  C   UNL     1      -5.840   7.923  70.210  1.00  0.00    -0.022 C  
HETATM   25  C   UNL     1      -5.368   7.307  68.890  1.00  0.00    -0.018 C  
HETATM   26  C   UNL     1      -5.301   8.362  67.792  1.00  0.00    -0.035 C  
HETATM   27  C   UNL     1      -6.604   9.151  67.660  1.00  0.00    -0.064 C  
HETATM   28  C   UNL     1      -7.118   9.665  69.007  1.00  0.00    -0.066 C  
ENDBRANCH  22  23
ENDBRANCH  17  18
ENDBRANCH  16  17
ENDBRANCH  15  16
ENDBRANCH  14  15
ENDBRANCH  13  14
ENDBRANCH  11  13
TORSDOF 7
ENDMDL
MODEL      294
REMARK 921   NORMALIZED FREE ENERGY PREDICTED BY IDOCK:   -4.21 KCAL/MOL
REMARK 922        TOTAL FREE ENERGY PREDICTED BY IDOCK:   -6.95 KCAL/MOL
REMARK 923 INTER-LIGAND FREE ENERGY PREDICTED BY IDOCK:   -5.87 KCAL/MOL
REMARK 924 INTRA-LIGAND FREE ENERGY PREDICTED BY IDOCK:   -1.08 KCAL/MOL
REMARK 927      BINDING AFFINITY PREDICTED BY RF-SCORE:    0.00 PKD
ROOT
HETATM    1  O   UNL     1      -8.809   2.926  67.650  1.00  0.00    -0.109 OA 
HETATM    2  C   UNL     1      -9.356   3.956  68.037  1.00  0.00    -0.174 C  
HETATM    3  C   UNL     1      -9.645   5.117  67.114  1.00  0.00    -0.156 C  
HETATM    4  C   UNL     1     -10.905   5.878  67.507  1.00  0.00    -0.335 C  
HETATM    5  C   UNL     1     -10.983   6.135  68.988  1.00  0.00    -0.436 A  
HETATM    6  C   UNL     1     -10.339   5.252  69.864  1.00  0.00    -0.304 A  
HETATM    7  N   UNL     1      -9.621   4.162  69.362  1.00  0.00    -0.191 N  
HETATM    8  C   UNL     1     -10.450   5.423  71.240  1.00  0.00    -0.296 A  
HETATM    9  C   UNL     1     -11.217   6.476  71.752  1.00  0.00    -0.312 A  
HETATM   10  H   UNL     1      -9.274   3.474  70.029  1.00  0.00     0.000 HD 
HETATM   11  C   UNL     1     -11.900   7.352  70.902  1.00  0.00    -0.290 A  
HETATM   12  C   UNL     1     -11.777   7.178  69.516  1.00  0.00     0.204 A  
ENDROOT
BRANCH  11  13
HETATM   13  O   UNL     1     -12.646   8.307  71.553  1.00  0.00    -0.304 OA 
BRANCH  13  14
HETATM   14  C   UNL     1     -12.073   9.610  71.672  1.00  0.00    -0.402 C  
BRANCH  14  15
HETATM   15  C   UNL     1     -12.198  10.393  70.343  1.00  0.00    -0.389 C  
BRANCH  15  16
HETATM   16  C   UNL     1     -10.790  10.717  69.822  1.00  0.00    -0.284 C  
BRANCH  16  17
HETATM   17  C   UNL     1     -10.656  11.624  68.593  1.00  0.00    -0.236 C  
BRANCH  17  18
HETATM   18  C   UNL     1      -9.274  11.807  68.076  1.00  0.00    -0.181 A  
HETATM   19  N   UNL     1      -8.613  12.944  68.217  1.00  0.00    -0.183 NA 
HETATM   20  N   UNL     1      -7.362  12.745  67.718  1.00  0.00    -0.115 NA 
HETATM   21  N   UNL     1      -7.239  11.519  67.251  1.00  0.00    -0.122 NA 
HETATM   22  N   UNL     1      -8.407  10.887  67.518  1.00  0.00    -0.116 NA 
BRANCH  22  23
HETATM   23  C   UNL     1      -8.524   9.495  67.091  1.00  0.00    -0.131 C  
HETATM   24  C   UNL     1      -9.688   9.281  66.084  1.00  0.00    -0.349 C  
HETATM   25  C   UNL     1      -9.381   9.935  64.734  1.00  0.00    -0.339 C  
HETATM   26  C   UNL     1      -8.114   9.349  64.122  1.00  0.00    -0.145 C  
HETATM   27  C   UNL     1      -6.931   9.377  65.090  1.00  0.00    -0.092 C  
HETATM   28  C   UNL     1      -7.289   8.821  66.471  1.00  0.00    -0.081 C  
ENDBRANCH  22  23
ENDBRANCH  17  18
ENDBRANCH  16  17
ENDBRANCH  15  16
ENDBRANCH  14  15
ENDBRANCH  13  14
ENDBRANCH  11  13
TORSDOF 7
ENDMDL
MODEL      295
REMARK 921   NORMALIZED FREE ENERGY PREDICTED BY IDOCK:   -4.20 KCAL/MOL
REMARK 922        TOTAL FREE ENERGY PREDICTED BY IDOCK:   -6.94 KCAL/MOL
REMARK 923 INTER-LIGAND FREE ENERGY PREDICTED BY IDOCK:   -6.32 KCAL/MOL
REMARK 924 INTRA-LIGAND FREE ENERGY PREDICTED BY IDOCK:   -0.62 KCAL/MOL
REMARK 927      BINDING AFFINITY PREDICTED BY RF-SCORE:    0.00 PKD
ROOT
HETATM    1  O   UNL     1      -8.770   4.615  64.873  1.00  0.00    -0.133 OA 
HETATM    2  C   UNL     1      -9.248   5.260  65.804  1.00  0.00    -0.151 C  
HETATM    3  C   UNL     1     -10.478   4.808  66.556  1.00  0.00    -0.251 C  
HETATM    4  C   UNL     1     -10.457   5.232  68.020  1.00  0.00    -0.143 C  
HETATM    5  C   UNL     1     -10.022   6.662  68.198  1.00  0.00    -0.156 A  
HETATM    6  C   UNL     1      -9.177   7.238  67.241  1.00  0.00    -0.131 A  
HETATM    7  N   UNL     1      -8.763   6.496  66.131  1.00  0.00    -0.144 N  
HETATM    8  C   UNL     1      -8.703   8.534  67.414  1.00  0.00    -0.136 A  
HETATM    9  C   UNL     1      -9.062   9.263  68.555  1.00  0.00    -0.132 A  
HETATM   10  H   UNL     1      -8.052   6.904  65.525  1.00  0.00     0.000 HD 
HETATM   11  C   UNL     1      -9.876   8.700  69.543  1.00  0.00    -0.187 A  
HETATM   12  C   UNL     1     -10.357   7.396  69.359  1.00  0.00    -0.211 A  
ENDROOT
BRANCH  11  13
HETATM   13  O   UNL     1     -10.105   9.521  70.623  1.00  0.00    -0.263 OA 
BRANCH  13  14
HETATM   14  C   UNL     1     -11.455   9.641  71.073  1.00  0.00    -0.371 C  
BRANCH  14  15
HETATM   15  C   UNL     1     -12.270  10.568  70.140  1.00  0.00    -0.358 C  
BRANCH  15  16
HETATM   16  C   UNL     1     -11.359  11.697  69.638  1.00  0.00    -0.308 C  
BRANCH  16  17
HETATM   17  C   UNL     1     -12.005  12.912  68.963  1.00  0.00    -0.297 C  
BRANCH  17  18
HETATM   18  C   UNL     1     -11.716  13.072  67.513  1.00  0.00    -0.370 A  
HETATM   19  N   UNL     1     -11.786  12.060  66.664  1.00  0.00    -0.577 NA 
HETATM   20  N   UNL     1     -11.553  12.562  65.421  1.00  0.00    -0.357 NA 
HETATM   21  N   UNL     1     -11.320  13.857  65.481  1.00  0.00    -0.304 NA 
HETATM   22  N   UNL     1     -11.475  14.217  66.778  1.00  0.00    -0.352 NA 
BRANCH  22  23
HETATM   23  C   UNL     1     -11.265  15.623  67.109  1.00  0.00    -0.152 C  
HETATM   24  C   UNL     1     -10.334  15.809  68.339  1.00  0.00    -0.233 C  
HETATM   25  C   UNL     1      -8.893  15.408  68.010  1.00  0.00    -0.165 C  
HETATM   26  C   UNL     1      -8.341  16.255  66.869  1.00  0.00    -0.267 C  
HETATM   27  C   UNL     1      -9.261  16.260  65.648  1.00  0.00     0.012 C  
HETATM   28  C   UNL     1     -10.719  16.553  66.013  1.00  0.00    -0.180 C  
ENDBRANCH  22  23
ENDBRANCH  17  18
ENDBRANCH  16  17
ENDBRANCH  15  16
ENDBRANCH  14  15
ENDBRANCH  13  14
ENDBRANCH  11  13
TORSDOF 7
ENDMDL
MODEL      296
REMARK 921   NORMALIZED FREE ENERGY PREDICTED BY IDOCK:   -4.19 KCAL/MOL
REMARK 922        TOTAL FREE ENERGY PREDICTED BY IDOCK:   -6.91 KCAL/MOL
REMARK 923 INTER-LIGAND FREE ENERGY PREDICTED BY IDOCK:   -6.38 KCAL/MOL
REMARK 924 INTRA-LIGAND FREE ENERGY PREDICTED BY IDOCK:   -0.54 KCAL/MOL
REMARK 927      BINDING AFFINITY PREDICTED BY RF-SCORE:    0.00 PKD
ROOT
HETATM    1  O   UNL     1     -13.125  15.878  71.048  1.00  0.00    -0.508 OA 
HETATM    2  C   UNL     1     -12.842  14.734  70.696  1.00  0.00    -0.343 C  
HETATM    3  C   UNL     1     -12.260  14.425  69.337  1.00  0.00    -0.305 C  
HETATM    4  C   UNL     1     -11.317  13.228  69.363  1.00  0.00    -0.280 C  
HETATM    5  C   UNL     1     -11.870  12.076  70.158  1.00  0.00    -0.383 A  
HETATM    6  C   UNL     1     -12.770  12.341  71.198  1.00  0.00    -0.243 A  
HETATM    7  N   UNL     1     -13.158  13.656  71.475  1.00  0.00    -0.354 N  
HETATM    8  C   UNL     1     -13.246  11.305  71.995  1.00  0.00    -0.437 A  
HETATM    9  C   UNL     1     -12.815   9.993  71.764  1.00  0.00    -0.546 A  
HETATM   10  H   UNL     1     -13.713  13.821  72.314  1.00  0.00     0.000 HD 
HETATM   11  C   UNL     1     -11.890   9.704  70.756  1.00  0.00    -0.300 A  
HETATM   12  C   UNL     1     -11.421  10.752  69.951  1.00  0.00    -0.398 A  
ENDROOT
BRANCH  11  13
HETATM   13  O   UNL     1     -11.531   8.378  70.679  1.00  0.00    -0.267 OA 
BRANCH  13  14
HETATM   14  C   UNL     1     -10.284   8.077  70.053  1.00  0.00    -0.205 C  
BRANCH  14  15
HETATM   15  C   UNL     1     -10.503   7.400  68.679  1.00  0.00    -0.211 C  
BRANCH  15  16
HETATM   16  C   UNL     1     -10.669   5.889  68.889  1.00  0.00    -0.370 C  
BRANCH  16  17
HETATM   17  C   UNL     1      -9.427   5.056  69.227  1.00  0.00    -0.197 C  
BRANCH  17  18
HETATM   18  C   UNL     1      -9.474   4.327  70.522  1.00  0.00    -0.174 A  
HETATM   19  N   UNL     1      -9.847   3.059  70.604  1.00  0.00    -0.032 NA 
HETATM   20  N   UNL     1      -9.692   2.680  71.902  1.00  0.00    -0.142 NA 
HETATM   21  N   UNL     1      -9.252   3.686  72.630  1.00  0.00    -0.103 NA 
HETATM   22  N   UNL     1      -9.048   4.718  71.776  1.00  0.00    -0.133 NA 
BRANCH  22  23
HETATM   23  C   UNL     1      -8.556   5.968  72.348  1.00  0.00    -0.120 C  
HETATM   24  C   UNL     1      -7.974   5.777  73.776  1.00  0.00    -0.107 C  
HETATM   25  C   UNL     1      -6.666   4.983  73.741  1.00  0.00    -0.074 C  
HETATM   26  C   UNL     1      -5.618   5.700  72.897  1.00  0.00    -0.023 C  
HETATM   27  C   UNL     1      -6.140   6.068  71.508  1.00  0.00    -0.035 C  
HETATM   28  C   UNL     1      -7.503   6.763  71.558  1.00  0.00    -0.087 C  
ENDBRANCH  22  23
ENDBRANCH  17  18
ENDBRANCH  16  17
ENDBRANCH  15  16
ENDBRANCH  14  15
ENDBRANCH  13  14
ENDBRANCH  11  13
TORSDOF 7
ENDMDL
MODEL      297
REMARK 921   NORMALIZED FREE ENERGY PREDICTED BY IDOCK:   -4.18 KCAL/MOL
REMARK 922        TOTAL FREE ENERGY PREDICTED BY IDOCK:   -6.90 KCAL/MOL
REMARK 923 INTER-LIGAND FREE ENERGY PREDICTED BY IDOCK:   -6.31 KCAL/MOL
REMARK 924 INTRA-LIGAND FREE ENERGY PREDICTED BY IDOCK:   -0.59 KCAL/MOL
REMARK 927      BINDING AFFINITY PREDICTED BY RF-SCORE:    0.00 PKD
ROOT
HETATM    1  O   UNL     1      -5.522  14.100  71.651  1.00  0.00    -0.184 OA 
HETATM    2  C   UNL     1      -6.078  13.842  70.586  1.00  0.00    -0.131 C  
HETATM    3  C   UNL     1      -5.753  12.606  69.780  1.00  0.00    -0.112 C  
HETATM    4  C   UNL     1      -6.956  12.075  69.011  1.00  0.00    -0.094 C  
HETATM    5  C   UNL     1      -7.725  13.169  68.320  1.00  0.00    -0.141 A  
HETATM    6  C   UNL     1      -7.691  14.463  68.855  1.00  0.00    -0.128 A  
HETATM    7  N   UNL     1      -6.938  14.730  70.002  1.00  0.00    -0.317 N  
HETATM    8  C   UNL     1      -8.447  15.479  68.280  1.00  0.00    -0.156 A  
HETATM    9  C   UNL     1      -9.253  15.206  67.168  1.00  0.00    -0.226 A  
HETATM   10  H   UNL     1      -7.037  15.649  70.432  1.00  0.00     0.000 HD 
HETATM   11  C   UNL     1      -9.333  13.916  66.635  1.00  0.00    -0.268 A  
HETATM   12  C   UNL     1      -8.563  12.898  67.215  1.00  0.00    -0.205 A  
ENDROOT
BRANCH  11  13
HETATM   13  O   UNL     1     -10.199  13.795  65.573  1.00  0.00    -0.302 OA 
BRANCH  13  14
HETATM   14  C   UNL     1     -11.513  14.326  65.741  1.00  0.00    -0.335 C  
BRANCH  14  15
HETATM   15  C   UNL     1     -12.158  13.804  67.047  1.00  0.00    -0.436 C  
BRANCH  15  16
HETATM   16  C   UNL     1     -12.106  12.269  67.050  1.00  0.00    -0.019 C  
BRANCH  16  17
HETATM   17  C   UNL     1     -11.889  11.548  68.385  1.00  0.00    -0.353 C  
BRANCH  17  18
HETATM   18  C   UNL     1     -11.208  10.229  68.300  1.00  0.00    -0.232 A  
HETATM   19  N   UNL     1     -11.018   9.606  67.148  1.00  0.00    -0.112 NA 
HETATM   20  N   UNL     1     -10.296   8.484  67.413  1.00  0.00    -0.265 NA 
HETATM   21  N   UNL     1     -10.052   8.384  68.704  1.00  0.00    -0.189 NA 
HETATM   22  N   UNL     1     -10.562   9.499  69.279  1.00  0.00    -0.216 NA 
BRANCH  22  23
HETATM   23  C   UNL     1     -10.419   9.627  70.727  1.00  0.00    -0.305 C  
HETATM   24  C   UNL     1     -11.777   9.485  71.470  1.00  0.00    -0.472 C  
HETATM   25  C   UNL     1     -12.304   8.050  71.394  1.00  0.00    -0.328 C  
HETATM   26  C   UNL     1     -11.317   7.074  72.024  1.00  0.00    -0.300 C  
HETATM   27  C   UNL     1      -9.904   7.229  71.463  1.00  0.00    -0.182 C  
HETATM   28  C   UNL     1      -9.436   8.687  71.445  1.00  0.00    -0.306 C  
ENDBRANCH  22  23
ENDBRANCH  17  18
ENDBRANCH  16  17
ENDBRANCH  15  16
ENDBRANCH  14  15
ENDBRANCH  13  14
ENDBRANCH  11  13
TORSDOF 7
ENDMDL
MODEL      298
REMARK 921   NORMALIZED FREE ENERGY PREDICTED BY IDOCK:   -4.18 KCAL/MOL
REMARK 922        TOTAL FREE ENERGY PREDICTED BY IDOCK:   -6.90 KCAL/MOL
REMARK 923 INTER-LIGAND FREE ENERGY PREDICTED BY IDOCK:   -6.17 KCAL/MOL
REMARK 924 INTRA-LIGAND FREE ENERGY PREDICTED BY IDOCK:   -0.73 KCAL/MOL
REMARK 927      BINDING AFFINITY PREDICTED BY RF-SCORE:    0.00 PKD
ROOT
HETATM    1  O   UNL     1     -12.708  15.056  63.769  1.00  0.00    -0.741 OA 
HETATM    2  C   UNL     1     -12.237  14.002  64.190  1.00  0.00    -0.396 C  
HETATM    3  C   UNL     1     -11.977  12.815  63.292  1.00  0.00    -0.522 C  
HETATM    4  C   UNL     1     -10.779  11.989  63.745  1.00  0.00    -0.478 C  
HETATM    5  C   UNL     1     -10.776  11.747  65.231  1.00  0.00    -0.338 A  
HETATM    6  C   UNL     1     -11.404  12.677  66.070  1.00  0.00    -0.327 A  
HETATM    7  N   UNL     1     -12.038  13.799  65.527  1.00  0.00    -0.385 N  
HETATM    8  C   UNL     1     -11.359  12.517  67.451  1.00  0.00    -0.371 A  
HETATM    9  C   UNL     1     -10.674  11.429  68.006  1.00  0.00    -0.240 A  
HETATM   10  H   UNL     1     -12.373  14.514  66.172  1.00  0.00     0.000 HD 
HETATM   11  C   UNL     1     -10.008  10.506  67.193  1.00  0.00    -0.193 A  
HETATM   12  C   UNL     1     -10.064  10.669  65.802  1.00  0.00    -0.327 A  
ENDROOT
BRANCH  11  13
HETATM   13  O   UNL     1      -9.345   9.519  67.885  1.00  0.00    -0.132 OA 
BRANCH  13  14
HETATM   14  C   UNL     1      -8.828   9.860  69.171  1.00  0.00    -0.164 C  
BRANCH  14  15
HETATM   15  C   UNL     1      -8.586   8.593  70.025  1.00  0.00    -0.132 C  
BRANCH  15  16
HETATM   16  C   UNL     1      -8.586   7.364  69.104  1.00  0.00    -0.136 C  
BRANCH  16  17
HETATM   17  C   UNL     1      -9.691   6.316  69.281  1.00  0.00    -0.157 C  
BRANCH  17  18
HETATM   18  C   UNL     1      -9.471   5.024  68.581  1.00  0.00    -0.139 A  
HETATM   19  N   UNL     1      -9.139   3.918  69.228  1.00  0.00    -0.118 NA 
HETATM   20  N   UNL     1      -9.104   2.913  68.312  1.00  0.00    -0.152 NA 
HETATM   21  N   UNL     1      -9.385   3.371  67.109  1.00  0.00    -0.196 NA 
HETATM   22  N   UNL     1      -9.680   4.685  67.258  1.00  0.00    -0.175 NA 
BRANCH  22  23
HETATM   23  C   UNL     1     -10.028   5.431  66.051  1.00  0.00    -0.084 C  
HETATM   24  C   UNL     1      -8.979   6.524  65.708  1.00  0.00    -0.060 C  
HETATM   25  C   UNL     1      -7.658   5.902  65.248  1.00  0.00    -0.086 C  
HETATM   26  C   UNL     1      -7.866   5.042  64.006  1.00  0.00    -0.095 C  
HETATM   27  C   UNL     1      -8.987   4.017  64.187  1.00  0.00    -0.135 C  
HETATM   28  C   UNL     1     -10.265   4.640  64.753  1.00  0.00     0.108 C  
ENDBRANCH  22  23
ENDBRANCH  17  18
ENDBRANCH  16  17
ENDBRANCH  15  16
ENDBRANCH  14  15
ENDBRANCH  13  14
ENDBRANCH  11  13
TORSDOF 7
ENDMDL
MODEL      299
REMARK 921   NORMALIZED FREE ENERGY PREDICTED BY IDOCK:   -4.17 KCAL/MOL
REMARK 922        TOTAL FREE ENERGY PREDICTED BY IDOCK:   -6.89 KCAL/MOL
REMARK 923 INTER-LIGAND FREE ENERGY PREDICTED BY IDOCK:   -6.05 KCAL/MOL
REMARK 924 INTRA-LIGAND FREE ENERGY PREDICTED BY IDOCK:   -0.84 KCAL/MOL
REMARK 927      BINDING AFFINITY PREDICTED BY RF-SCORE:    0.00 PKD
ROOT
HETATM    1  O   UNL     1      -7.028  19.444  67.851  1.00  0.00    -0.237 OA 
HETATM    2  C   UNL     1      -7.771  18.504  67.578  1.00  0.00    -0.229 C  
HETATM    3  C   UNL     1      -7.774  17.842  66.220  1.00  0.00    -0.308 C  
HETATM    4  C   UNL     1      -8.111  16.357  66.294  1.00  0.00    -0.311 C  
HETATM    5  C   UNL     1      -9.276  16.077  67.204  1.00  0.00    -0.221 A  
HETATM    6  C   UNL     1      -9.536  16.956  68.263  1.00  0.00    -0.258 A  
HETATM    7  N   UNL     1      -8.733  18.084  68.454  1.00  0.00    -0.289 N  
HETATM    8  C   UNL     1     -10.563  16.686  69.162  1.00  0.00    -0.340 A  
HETATM    9  C   UNL     1     -11.333  15.526  69.015  1.00  0.00    -0.331 A  
HETATM   10  H   UNL     1      -8.873  18.629  69.304  1.00  0.00     0.000 HD 
HETATM   11  C   UNL     1     -11.073  14.614  67.988  1.00  0.00    -0.281 A  
HETATM   12  C   UNL     1     -10.042  14.895  67.081  1.00  0.00    -0.240 A  
ENDROOT
BRANCH  11  13
HETATM   13  O   UNL     1     -11.884  13.502  67.999  1.00  0.00    -0.341 OA 
BRANCH  13  14
HETATM   14  C   UNL     1     -12.130  12.889  69.265  1.00  0.00    -0.182 C  
BRANCH  14  15
HETATM   15  C   UNL     1     -11.508  11.474  69.325  1.00  0.00    -0.370 C  
BRANCH  15  16
HETATM   16  C   UNL     1     -10.675  11.241  68.056  1.00  0.00    -0.245 C  
BRANCH  16  17
HETATM   17  C   UNL     1     -11.026  10.047  67.160  1.00  0.00    -0.177 C  
BRANCH  17  18
HETATM   18  C   UNL     1     -10.170   9.872  65.958  1.00  0.00    -0.198 A  
HETATM   19  N   UNL     1     -10.307  10.624  64.878  1.00  0.00    -0.313 NA 
HETATM   20  N   UNL     1      -9.321  10.266  64.011  1.00  0.00    -0.268 NA 
HETATM   21  N   UNL     1      -8.589   9.295  64.518  1.00  0.00    -0.189 NA 
HETATM   22  N   UNL     1      -9.062   9.069  65.767  1.00  0.00    -0.205 NA 
BRANCH  22  23
HETATM   23  C   UNL     1      -8.408   8.021  66.548  1.00  0.00    -0.121 C  
HETATM   24  C   UNL     1      -6.879   7.952  66.282  1.00  0.00    -0.058 C  
HETATM   25  C   UNL     1      -6.161   9.178  66.852  1.00  0.00    -0.061 C  
HETATM   26  C   UNL     1      -6.373   9.280  68.358  1.00  0.00    -0.053 C  
HETATM   27  C   UNL     1      -7.851   9.211  68.745  1.00  0.00    -0.096 C  
HETATM   28  C   UNL     1      -8.579   8.042  68.076  1.00  0.00    -0.129 C  
ENDBRANCH  22  23
ENDBRANCH  17  18
ENDBRANCH  16  17
ENDBRANCH  15  16
ENDBRANCH  14  15
ENDBRANCH  13  14
ENDBRANCH  11  13
TORSDOF 7
ENDMDL
MODEL      300
REMARK 921   NORMALIZED FREE ENERGY PREDICTED BY IDOCK:   -4.16 KCAL/MOL
REMARK 922        TOTAL FREE ENERGY PREDICTED BY IDOCK:   -6.88 KCAL/MOL
REMARK 923 INTER-LIGAND FREE ENERGY PREDICTED BY IDOCK:   -6.25 KCAL/MOL
REMARK 924 INTRA-LIGAND FREE ENERGY PREDICTED BY IDOCK:   -0.63 KCAL/MOL
REMARK 927      BINDING AFFINITY PREDICTED BY RF-SCORE:    0.00 PKD
ROOT
HETATM    1  O   UNL     1     -10.399   7.580  73.694  1.00  0.00    -0.344 OA 
HETATM    2  C   UNL     1     -10.430   7.710  72.472  1.00  0.00    -0.268 C  
HETATM    3  C   UNL     1     -11.684   8.113  71.732  1.00  0.00    -0.343 C  
HETATM    4  C   UNL     1     -11.389   8.930  70.480  1.00  0.00    -0.268 C  
HETATM    5  C   UNL     1     -10.261   8.351  69.669  1.00  0.00    -0.209 A  
HETATM    6  C   UNL     1      -9.277   7.595  70.318  1.00  0.00    -0.157 A  
HETATM    7  N   UNL     1      -9.357   7.372  71.696  1.00  0.00    -0.150 N  
HETATM    8  C   UNL     1      -8.186   7.106  69.608  1.00  0.00    -0.131 A  
HETATM    9  C   UNL     1      -8.065   7.378  68.239  1.00  0.00    -0.125 A  
HETATM   10  H   UNL     1      -8.561   6.927  72.152  1.00  0.00     0.000 HD 
HETATM   11  C   UNL     1      -9.014   8.159  67.573  1.00  0.00    -0.137 A  
HETATM   12  C   UNL     1     -10.115   8.643  68.294  1.00  0.00    -0.225 A  
ENDROOT
BRANCH  11  13
HETATM   13  O   UNL     1      -8.737   8.375  66.243  1.00  0.00    -0.126 OA 
BRANCH  13  14
HETATM   14  C   UNL     1      -9.149   9.623  65.687  1.00  0.00    -0.189 C  
BRANCH  14  15
HETATM   15  C   UNL     1      -8.005  10.663  65.750  1.00  0.00    -0.152 C  
BRANCH  15  16
HETATM   16  C   UNL     1      -8.391  11.769  66.742  1.00  0.00    -0.165 C  
BRANCH  16  17
HETATM   17  C   UNL     1      -9.820  12.324  66.700  1.00  0.00    -0.230 C  
BRANCH  17  18
HETATM   18  C   UNL     1      -9.985  13.623  65.996  1.00  0.00    -0.302 A  
HETATM   19  N   UNL     1     -10.989  13.852  65.164  1.00  0.00    -0.332 NA 
HETATM   20  N   UNL     1     -10.893  15.150  64.768  1.00  0.00    -0.397 NA 
HETATM   21  N   UNL     1      -9.843  15.726  65.317  1.00  0.00    -0.382 NA 
HETATM   22  N   UNL     1      -9.287  14.806  66.142  1.00  0.00    -0.286 NA 
BRANCH  22  23
HETATM   23  C   UNL     1      -8.090  15.207  66.876  1.00  0.00    -0.159 C  
HETATM   24  C   UNL     1      -7.693  16.684  66.601  1.00  0.00    -0.316 C  
HETATM   25  C   UNL     1      -8.704  17.654  67.218  1.00  0.00    -0.241 C  
HETATM   26  C   UNL     1      -8.790  17.462  68.728  1.00  0.00    -0.220 C  
HETATM   27  C   UNL     1      -9.035  16.004  69.118  1.00  0.00    -0.252 C  
HETATM   28  C   UNL     1      -8.086  15.038  68.405  1.00  0.00    -0.141 C  
ENDBRANCH  22  23
ENDBRANCH  17  18
ENDBRANCH  16  17
ENDBRANCH  15  16
ENDBRANCH  14  15
ENDBRANCH  13  14
ENDBRANCH  11  13
TORSDOF 7
ENDMDL
MODEL      301
REMARK 921   NORMALIZED FREE ENERGY PREDICTED BY IDOCK:   -4.16 KCAL/MOL
REMARK 922        TOTAL FREE ENERGY PREDICTED BY IDOCK:   -6.87 KCAL/MOL
REMARK 923 INTER-LIGAND FREE ENERGY PREDICTED BY IDOCK:   -6.21 KCAL/MOL
REMARK 924 INTRA-LIGAND FREE ENERGY PREDICTED BY IDOCK:   -0.66 KCAL/MOL
REMARK 927      BINDING AFFINITY PREDICTED BY RF-SCORE:    0.00 PKD
ROOT
HETATM    1  O   UNL     1     -12.608  15.901  70.449  1.00  0.00    -0.351 OA 
HETATM    2  C   UNL     1     -12.120  14.973  69.807  1.00  0.00    -0.314 C  
HETATM    3  C   UNL     1     -11.960  13.585  70.381  1.00  0.00    -0.367 C  
HETATM    4  C   UNL     1     -12.090  12.495  69.325  1.00  0.00    -0.214 C  
HETATM    5  C   UNL     1     -11.325  12.817  68.068  1.00  0.00    -0.335 A  
HETATM    6  C   UNL     1     -11.105  14.160  67.735  1.00  0.00    -0.276 A  
HETATM    7  N   UNL     1     -11.574  15.178  68.570  1.00  0.00    -0.325 N  
HETATM    8  C   UNL     1     -10.462  14.490  66.546  1.00  0.00    -0.285 A  
HETATM    9  C   UNL     1     -10.044  13.478  65.674  1.00  0.00    -0.292 A  
HETATM   10  H   UNL     1     -11.506  16.138  68.233  1.00  0.00     0.000 HD 
HETATM   11  C   UNL     1     -10.282  12.131  65.965  1.00  0.00    -0.237 A  
HETATM   12  C   UNL     1     -10.923  11.805  67.168  1.00  0.00    -0.326 A  
ENDROOT
BRANCH  11  13
HETATM   13  O   UNL     1      -9.852  11.257  64.994  1.00  0.00    -0.237 OA 
BRANCH  13  14
HETATM   14  C   UNL     1      -8.460  10.940  64.974  1.00  0.00    -0.009 C  
BRANCH  14  15
HETATM   15  C   UNL     1      -7.837  11.094  66.382  1.00  0.00    -0.136 C  
BRANCH  15  16
HETATM   16  C   UNL     1      -7.917   9.746  67.112  1.00  0.00    -0.102 C  
BRANCH  16  17
HETATM   17  C   UNL     1      -8.777   9.649  68.377  1.00  0.00    -0.120 C  
BRANCH  17  18
HETATM   18  C   UNL     1      -8.044   9.338  69.632  1.00  0.00    -0.116 A  
HETATM   19  N   UNL     1      -7.025  10.071  70.054  1.00  0.00    -0.117 NA 
HETATM   20  N   UNL     1      -6.646   9.573  71.262  1.00  0.00    -0.279 NA 
HETATM   21  N   UNL     1      -7.390   8.536  71.590  1.00  0.00    -0.094 NA 
HETATM   22  N   UNL     1      -8.317   8.403  70.612  1.00  0.00    -0.117 NA 
BRANCH  22  23
HETATM   23  C   UNL     1      -9.274   7.308  70.745  1.00  0.00    -0.156 C  
HETATM   24  C   UNL     1      -9.649   7.027  72.226  1.00  0.00    -0.165 C  
HETATM   25  C   UNL     1     -10.486   8.166  72.813  1.00  0.00    -0.385 C  
HETATM   26  C   UNL     1     -11.779   8.352  72.026  1.00  0.00    -0.417 C  
HETATM   27  C   UNL     1     -11.533   8.493  70.524  1.00  0.00    -0.198 C  
HETATM   28  C   UNL     1     -10.602   7.408  69.976  1.00  0.00    -0.241 C  
ENDBRANCH  22  23
ENDBRANCH  17  18
ENDBRANCH  16  17
ENDBRANCH  15  16
ENDBRANCH  14  15
ENDBRANCH  13  14
ENDBRANCH  11  13
TORSDOF 7
ENDMDL
MODEL      302
REMARK 921   NORMALIZED FREE ENERGY PREDICTED BY IDOCK:   -4.13 KCAL/MOL
REMARK 922        TOTAL FREE ENERGY PREDICTED BY IDOCK:   -6.84 KCAL/MOL
REMARK 923 INTER-LIGAND FREE ENERGY PREDICTED BY IDOCK:   -6.38 KCAL/MOL
REMARK 924 INTRA-LIGAND FREE ENERGY PREDICTED BY IDOCK:   -0.45 KCAL/MOL
REMARK 927      BINDING AFFINITY PREDICTED BY RF-SCORE:    0.00 PKD
ROOT
HETATM    1  O   UNL     1     -10.067  19.673  68.731  1.00  0.00    -0.445 OA 
HETATM    2  C   UNL     1     -10.021  18.686  68.000  1.00  0.00    -0.351 C  
HETATM    3  C   UNL     1      -9.210  18.659  66.725  1.00  0.00    -0.308 C  
HETATM    4  C   UNL     1      -8.663  17.273  66.408  1.00  0.00    -0.285 C  
HETATM    5  C   UNL     1      -9.693  16.191  66.597  1.00  0.00    -0.260 A  
HETATM    6  C   UNL     1     -10.728  16.394  67.519  1.00  0.00    -0.298 A  
HETATM    7  N   UNL     1     -10.806  17.592  68.236  1.00  0.00    -0.295 N  
HETATM    8  C   UNL     1     -11.654  15.386  67.766  1.00  0.00    -0.237 A  
HETATM    9  C   UNL     1     -11.547  14.160  67.099  1.00  0.00    -0.400 A  
HETATM   10  H   UNL     1     -11.495  17.653  68.985  1.00  0.00     0.000 HD 
HETATM   11  C   UNL     1     -10.504  13.918  66.199  1.00  0.00    -0.297 A  
HETATM   12  C   UNL     1      -9.578  14.941  65.949  1.00  0.00    -0.343 A  
ENDROOT
BRANCH  11  13
HETATM   13  O   UNL     1     -10.507  12.654  65.656  1.00  0.00    -0.265 OA 
BRANCH  13  14
HETATM   14  C   UNL     1     -10.122  11.578  66.511  1.00  0.00    -0.213 C  
BRANCH  14  15
HETATM   15  C   UNL     1      -8.584  11.410  66.532  1.00  0.00    -0.175 C  
BRANCH  15  16
HETATM   16  C   UNL     1      -8.247   9.915  66.621  1.00  0.00    -0.121 C  
BRANCH  16  17
HETATM   17  C   UNL     1      -9.237   8.983  67.329  1.00  0.00    -0.159 C  
BRANCH  17  18
HETATM   18  C   UNL     1      -8.705   8.258  68.513  1.00  0.00    -0.133 A  
HETATM   19  N   UNL     1      -7.568   8.601  69.098  1.00  0.00    -0.087 NA 
HETATM   20  N   UNL     1      -7.422   7.802  70.189  1.00  0.00    -0.081 NA 
HETATM   21  N   UNL     1      -8.428   6.956  70.283  1.00  0.00    -0.137 NA 
HETATM   22  N   UNL     1      -9.281   7.261  69.276  1.00  0.00    -0.144 NA 
BRANCH  22  23
HETATM   23  C   UNL     1     -10.492   6.453  69.161  1.00  0.00    -0.229 C  
HETATM   24  C   UNL     1     -10.863   6.147  67.683  1.00  0.00    -0.421 C  
HETATM   25  C   UNL     1      -9.856   5.186  67.046  1.00  0.00    -0.197 C  
HETATM   26  C   UNL     1      -9.813   3.864  67.804  1.00  0.00    -0.060 C  
HETATM   27  C   UNL     1      -9.596   4.058  69.305  1.00  0.00    -0.247 C  
HETATM   28  C   UNL     1     -10.539   5.106  69.903  1.00  0.00    -0.196 C  
ENDBRANCH  22  23
ENDBRANCH  17  18
ENDBRANCH  16  17
ENDBRANCH  15  16
ENDBRANCH  14  15
ENDBRANCH  13  14
ENDBRANCH  11  13
TORSDOF 7
ENDMDL
MODEL      303
REMARK 921   NORMALIZED FREE ENERGY PREDICTED BY IDOCK:   -4.13 KCAL/MOL
REMARK 922        TOTAL FREE ENERGY PREDICTED BY IDOCK:   -6.83 KCAL/MOL
REMARK 923 INTER-LIGAND FREE ENERGY PREDICTED BY IDOCK:   -6.36 KCAL/MOL
REMARK 924 INTRA-LIGAND FREE ENERGY PREDICTED BY IDOCK:   -0.46 KCAL/MOL
REMARK 927      BINDING AFFINITY PREDICTED BY RF-SCORE:    0.00 PKD
ROOT
HETATM    1  O   UNL     1     -12.732  15.064  63.772  1.00  0.00    -0.741 OA 
HETATM    2  C   UNL     1     -12.312  14.024  64.275  1.00  0.00    -0.355 C  
HETATM    3  C   UNL     1     -11.948  12.814  63.447  1.00  0.00    -0.613 C  
HETATM    4  C   UNL     1     -10.810  12.006  64.059  1.00  0.00    -0.433 C  
HETATM    5  C   UNL     1     -10.979  11.807  65.542  1.00  0.00    -0.344 A  
HETATM    6  C   UNL     1     -11.700  12.757  66.276  1.00  0.00    -0.402 A  
HETATM    7  N   UNL     1     -12.268  13.860  65.631  1.00  0.00    -0.424 N  
HETATM    8  C   UNL     1     -11.815  12.638  67.657  1.00  0.00    -0.390 A  
HETATM    9  C   UNL     1     -11.197  11.569  68.318  1.00  0.00    -0.322 A  
HETATM   10  H   UNL     1     -12.676  14.592  66.212  1.00  0.00     0.000 HD 
HETATM   11  C   UNL     1     -10.441  10.626  67.615  1.00  0.00    -0.227 A  
HETATM   12  C   UNL     1     -10.336  10.749  66.223  1.00  0.00    -0.303 A  
ENDROOT
BRANCH  11  13
HETATM   13  O   UNL     1      -9.861   9.662  68.407  1.00  0.00    -0.148 OA 
BRANCH  13  14
HETATM   14  C   UNL     1      -9.524  10.034  69.743  1.00  0.00    -0.207 C  
BRANCH  14  15
HETATM   15  C   UNL     1      -9.266   8.784  70.618  1.00  0.00    -0.233 C  
BRANCH  15  16
HETATM   16  C   UNL     1      -8.960   7.589  69.703  1.00  0.00    -0.141 C  
BRANCH  16  17
HETATM   17  C   UNL     1      -7.582   7.512  69.037  1.00  0.00    -0.108 C  
BRANCH  17  18
HETATM   18  C   UNL     1      -7.435   6.479  67.979  1.00  0.00    -0.095 A  
HETATM   19  N   UNL     1      -7.472   6.779  66.690  1.00  0.00    -0.077 NA 
HETATM   20  N   UNL     1      -7.219   5.631  66.004  1.00  0.00    -0.071 NA 
HETATM   21  N   UNL     1      -7.049   4.622  66.835  1.00  0.00    -0.073 NA 
HETATM   22  N   UNL     1      -7.119   5.138  68.085  1.00  0.00    -0.061 NA 
BRANCH  22  23
HETATM   23  C   UNL     1      -6.961   4.208  69.200  1.00  0.00    -0.047 C  
HETATM   24  C   UNL     1      -8.255   4.077  70.050  1.00  0.00    -0.069 C  
HETATM   25  C   UNL     1      -9.359   3.356  69.273  1.00  0.00    -0.240 C  
HETATM   26  C   UNL     1      -8.915   1.954  68.873  1.00  0.00    -0.155 C  
HETATM   27  C   UNL     1      -7.568   1.952  68.150  1.00  0.00    -0.054 C  
HETATM   28  C   UNL     1      -6.505   2.772  68.887  1.00  0.00    -0.029 C  
ENDBRANCH  22  23
ENDBRANCH  17  18
ENDBRANCH  16  17
ENDBRANCH  15  16
ENDBRANCH  14  15
ENDBRANCH  13  14
ENDBRANCH  11  13
TORSDOF 7
ENDMDL
MODEL      304
REMARK 921   NORMALIZED FREE ENERGY PREDICTED BY IDOCK:   -4.12 KCAL/MOL
REMARK 922        TOTAL FREE ENERGY PREDICTED BY IDOCK:   -6.82 KCAL/MOL
REMARK 923 INTER-LIGAND FREE ENERGY PREDICTED BY IDOCK:   -6.11 KCAL/MOL
REMARK 924 INTRA-LIGAND FREE ENERGY PREDICTED BY IDOCK:   -0.71 KCAL/MOL
REMARK 927      BINDING AFFINITY PREDICTED BY RF-SCORE:    0.00 PKD
ROOT
HETATM    1  O   UNL     1     -13.289  11.855  63.036  1.00  0.00    -0.400 OA 
HETATM    2  C   UNL     1     -12.466  12.105  63.915  1.00  0.00    -0.478 C  
HETATM    3  C   UNL     1     -12.600  13.295  64.835  1.00  0.00    -0.444 C  
HETATM    4  C   UNL     1     -12.024  13.032  66.221  1.00  0.00    -0.477 C  
HETATM    5  C   UNL     1     -10.685  12.345  66.166  1.00  0.00    -0.292 A  
HETATM    6  C   UNL     1     -10.384  11.535  65.065  1.00  0.00    -0.281 A  
HETATM    7  N   UNL     1     -11.310  11.385  64.028  1.00  0.00    -0.408 N  
HETATM    8  C   UNL     1      -9.184  10.832  65.018  1.00  0.00    -0.241 A  
HETATM    9  C   UNL     1      -8.278  10.927  66.081  1.00  0.00    -0.168 A  
HETATM   10  H   UNL     1     -11.109  10.692  63.308  1.00  0.00     0.000 HD 
HETATM   11  C   UNL     1      -8.568  11.702  67.209  1.00  0.00    -0.154 A  
HETATM   12  C   UNL     1      -9.776  12.413  67.246  1.00  0.00    -0.201 A  
ENDROOT
BRANCH  11  13
HETATM   13  O   UNL     1      -7.602  11.661  68.187  1.00  0.00    -0.101 OA 
BRANCH  13  14
HETATM   14  C   UNL     1      -7.346  10.396  68.797  1.00  0.00    -0.089 C  
BRANCH  14  15
HETATM   15  C   UNL     1      -8.590   9.890  69.565  1.00  0.00    -0.194 C  
BRANCH  15  16
HETATM   16  C   UNL     1      -8.129   9.003  70.731  1.00  0.00    -0.194 C  
BRANCH  16  17
HETATM   17  C   UNL     1      -9.191   8.424  71.673  1.00  0.00    -0.271 C  
BRANCH  17  18
HETATM   18  C   UNL     1      -9.975   7.281  71.134  1.00  0.00    -0.186 A  
HETATM   19  N   UNL     1     -10.951   7.447  70.256  1.00  0.00    -0.253 NA 
HETATM   20  N   UNL     1     -11.393   6.208  69.909  1.00  0.00    -0.421 NA 
HETATM   21  N   UNL     1     -10.730   5.278  70.566  1.00  0.00    -0.200 NA 
HETATM   22  N   UNL     1      -9.790   5.922  71.298  1.00  0.00    -0.173 NA 
BRANCH  22  23
HETATM   23  C   UNL     1      -8.913   5.100  72.128  1.00  0.00    -0.129 C  
HETATM   24  C   UNL     1      -8.761   3.655  71.577  1.00  0.00    -0.129 C  
HETATM   25  C   UNL     1      -7.961   3.640  70.272  1.00  0.00    -0.051 C  
HETATM   26  C   UNL     1      -6.564   4.213  70.484  1.00  0.00    -0.032 C  
HETATM   27  C   UNL     1      -6.592   5.584  71.161  1.00  0.00    -0.044 C  
HETATM   28  C   UNL     1      -7.488   5.608  72.403  1.00  0.00    -0.097 C  
ENDBRANCH  22  23
ENDBRANCH  17  18
ENDBRANCH  16  17
ENDBRANCH  15  16
ENDBRANCH  14  15
ENDBRANCH  13  14
ENDBRANCH  11  13
TORSDOF 7
ENDMDL
MODEL      305
REMARK 921   NORMALIZED FREE ENERGY PREDICTED BY IDOCK:   -4.12 KCAL/MOL
REMARK 922        TOTAL FREE ENERGY PREDICTED BY IDOCK:   -6.82 KCAL/MOL
REMARK 923 INTER-LIGAND FREE ENERGY PREDICTED BY IDOCK:   -6.28 KCAL/MOL
REMARK 924 INTRA-LIGAND FREE ENERGY PREDICTED BY IDOCK:   -0.53 KCAL/MOL
REMARK 927      BINDING AFFINITY PREDICTED BY RF-SCORE:    0.00 PKD
ROOT
HETATM    1  O   UNL     1      -6.846  20.135  68.348  1.00  0.00    -0.293 OA 
HETATM    2  C   UNL     1      -7.467  19.262  67.747  1.00  0.00    -0.257 C  
HETATM    3  C   UNL     1      -7.243  18.971  66.281  1.00  0.00    -0.269 C  
HETATM    4  C   UNL     1      -7.461  17.503  65.935  1.00  0.00    -0.162 C  
HETATM    5  C   UNL     1      -8.704  16.940  66.571  1.00  0.00    -0.304 A  
HETATM    6  C   UNL     1      -9.168  17.504  67.767  1.00  0.00    -0.253 A  
HETATM    7  N   UNL     1      -8.492  18.583  68.344  1.00  0.00    -0.321 N  
HETATM    8  C   UNL     1     -10.273  16.962  68.415  1.00  0.00    -0.322 A  
HETATM    9  C   UNL     1     -10.919  15.843  67.876  1.00  0.00    -0.327 A  
HETATM   10  H   UNL     1      -8.784  18.884  69.274  1.00  0.00     0.000 HD 
HETATM   11  C   UNL     1     -10.456  15.239  66.703  1.00  0.00    -0.290 A  
HETATM   12  C   UNL     1      -9.346  15.794  66.051  1.00  0.00    -0.384 A  
ENDROOT
BRANCH  11  13
HETATM   13  O   UNL     1     -11.166  14.123  66.322  1.00  0.00    -0.317 OA 
BRANCH  13  14
HETATM   14  C   UNL     1     -10.544  12.855  66.527  1.00  0.00    -0.259 C  
BRANCH  14  15
HETATM   15  C   UNL     1     -10.110  12.227  65.182  1.00  0.00    -0.284 C  
BRANCH  15  16
HETATM   16  C   UNL     1     -10.504  10.743  65.173  1.00  0.00    -0.299 C  
BRANCH  16  17
HETATM   17  C   UNL     1     -10.284   9.921  66.448  1.00  0.00    -0.292 C  
BRANCH  17  18
HETATM   18  C   UNL     1      -9.162   8.946  66.400  1.00  0.00    -0.189 A  
HETATM   19  N   UNL     1      -8.259   8.958  65.433  1.00  0.00    -0.122 NA 
HETATM   20  N   UNL     1      -7.335   8.006  65.735  1.00  0.00    -0.077 NA 
HETATM   21  N   UNL     1      -7.654   7.389  66.855  1.00  0.00    -0.100 NA 
HETATM   22  N   UNL     1      -8.767   8.001  67.326  1.00  0.00    -0.130 NA 
BRANCH  22  23
HETATM   23  C   UNL     1      -9.329   7.492  68.575  1.00  0.00    -0.142 C  
HETATM   24  C   UNL     1      -8.241   6.903  69.516  1.00  0.00    -0.131 C  
HETATM   25  C   UNL     1      -7.336   8.003  70.076  1.00  0.00    -0.062 C  
HETATM   26  C   UNL     1      -8.147   9.021  70.871  1.00  0.00    -0.203 C  
HETATM   27  C   UNL     1      -9.339   9.562  70.082  1.00  0.00    -0.286 C  
HETATM   28  C   UNL     1     -10.169   8.449  69.436  1.00  0.00    -0.208 C  
ENDBRANCH  22  23
ENDBRANCH  17  18
ENDBRANCH  16  17
ENDBRANCH  15  16
ENDBRANCH  14  15
ENDBRANCH  13  14
ENDBRANCH  11  13
TORSDOF 7
ENDMDL
MODEL      306
REMARK 921   NORMALIZED FREE ENERGY PREDICTED BY IDOCK:   -4.11 KCAL/MOL
REMARK 922        TOTAL FREE ENERGY PREDICTED BY IDOCK:   -6.81 KCAL/MOL
REMARK 923 INTER-LIGAND FREE ENERGY PREDICTED BY IDOCK:   -5.21 KCAL/MOL
REMARK 924 INTRA-LIGAND FREE ENERGY PREDICTED BY IDOCK:   -1.60 KCAL/MOL
REMARK 927      BINDING AFFINITY PREDICTED BY RF-SCORE:    0.00 PKD
ROOT
HETATM    1  O   UNL     1      -7.892   2.388  70.329  1.00  0.00    -0.043 OA 
HETATM    2  C   UNL     1      -7.974   3.063  69.305  1.00  0.00    -0.048 C  
HETATM    3  C   UNL     1      -8.624   2.545  68.043  1.00  0.00    -0.117 C  
HETATM    4  C   UNL     1      -9.298   3.648  67.237  1.00  0.00    -0.235 C  
HETATM    5  C   UNL     1      -8.442   4.881  67.120  1.00  0.00    -0.105 A  
HETATM    6  C   UNL     1      -7.508   5.155  68.127  1.00  0.00    -0.076 A  
HETATM    7  N   UNL     1      -7.366   4.283  69.211  1.00  0.00    -0.054 N  
HETATM    8  C   UNL     1      -6.751   6.321  68.082  1.00  0.00    -0.068 A  
HETATM    9  C   UNL     1      -6.930   7.230  67.033  1.00  0.00    -0.081 A  
HETATM   10  H   UNL     1      -6.769   4.578  69.983  1.00  0.00     0.000 HD 
HETATM   11  C   UNL     1      -7.880   6.999  66.033  1.00  0.00    -0.104 A  
HETATM   12  C   UNL     1      -8.634   5.818  66.080  1.00  0.00    -0.139 A  
ENDROOT
BRANCH  11  13
HETATM   13  O   UNL     1      -7.971   8.001  65.095  1.00  0.00    -0.112 OA 
BRANCH  13  14
HETATM   14  C   UNL     1      -8.976   8.994  65.299  1.00  0.00    -0.183 C  
BRANCH  14  15
HETATM   15  C   UNL     1      -8.368  10.280  65.909  1.00  0.00    -0.145 C  
BRANCH  15  16
HETATM   16  C   UNL     1      -9.249  10.742  67.078  1.00  0.00    -0.166 C  
BRANCH  16  17
HETATM   17  C   UNL     1     -10.496   9.920  67.425  1.00  0.00    -0.325 C  
BRANCH  17  18
HETATM   18  C   UNL     1     -11.150  10.256  68.716  1.00  0.00    -0.228 A  
HETATM   19  N   UNL     1     -12.160  11.107  68.795  1.00  0.00    -0.552 NA 
HETATM   20  N   UNL     1     -12.576  11.118  70.090  1.00  0.00    -0.224 NA 
HETATM   21  N   UNL     1     -11.834  10.312  70.822  1.00  0.00    -0.336 NA 
HETATM   22  N   UNL     1     -10.968   9.710  69.972  1.00  0.00    -0.247 NA 
BRANCH  22  23
HETATM   23  C   UNL     1     -10.023   8.757  70.549  1.00  0.00    -0.189 C  
HETATM   24  C   UNL     1     -10.538   8.145  71.881  1.00  0.00    -0.324 C  
HETATM   25  C   UNL     1     -11.726   7.209  71.640  1.00  0.00    -0.324 C  
HETATM   26  C   UNL     1     -11.335   6.062  70.714  1.00  0.00    -0.295 C  
HETATM   27  C   UNL     1     -10.678   6.552  69.423  1.00  0.00    -0.328 C  
HETATM   28  C   UNL     1      -9.566   7.572  69.680  1.00  0.00    -0.159 C  
ENDBRANCH  22  23
ENDBRANCH  17  18
ENDBRANCH  16  17
ENDBRANCH  15  16
ENDBRANCH  14  15
ENDBRANCH  13  14
ENDBRANCH  11  13
TORSDOF 7
ENDMDL
MODEL      307
REMARK 921   NORMALIZED FREE ENERGY PREDICTED BY IDOCK:   -4.11 KCAL/MOL
REMARK 922        TOTAL FREE ENERGY PREDICTED BY IDOCK:   -6.81 KCAL/MOL
REMARK 923 INTER-LIGAND FREE ENERGY PREDICTED BY IDOCK:   -6.26 KCAL/MOL
REMARK 924 INTRA-LIGAND FREE ENERGY PREDICTED BY IDOCK:   -0.55 KCAL/MOL
REMARK 927      BINDING AFFINITY PREDICTED BY RF-SCORE:    0.00 PKD
ROOT
HETATM    1  O   UNL     1     -13.021  15.783  71.191  1.00  0.00    -0.491 OA 
HETATM    2  C   UNL     1     -12.723  14.662  70.783  1.00  0.00    -0.359 C  
HETATM    3  C   UNL     1     -12.130  14.431  69.413  1.00  0.00    -0.338 C  
HETATM    4  C   UNL     1     -11.172  13.245  69.381  1.00  0.00    -0.220 C  
HETATM    5  C   UNL     1     -11.717  12.047  70.112  1.00  0.00    -0.316 A  
HETATM    6  C   UNL     1     -12.626  12.247  71.159  1.00  0.00    -0.253 A  
HETATM    7  N   UNL     1     -13.030  13.541  71.502  1.00  0.00    -0.360 N  
HETATM    8  C   UNL     1     -13.093  11.166  71.898  1.00  0.00    -0.513 A  
HETATM    9  C   UNL     1     -12.646   9.872  71.602  1.00  0.00    -0.519 A  
HETATM   10  H   UNL     1     -13.592  13.656  72.345  1.00  0.00     0.000 HD 
HETATM   11  C   UNL     1     -11.712   9.648  70.586  1.00  0.00    -0.280 A  
HETATM   12  C   UNL     1     -11.251  10.741  69.840  1.00  0.00    -0.371 A  
ENDROOT
BRANCH  11  13
HETATM   13  O   UNL     1     -11.337   8.332  70.443  1.00  0.00    -0.254 OA 
BRANCH  13  14
HETATM   14  C   UNL     1     -10.164   8.070  69.672  1.00  0.00    -0.208 C  
BRANCH  14  15
HETATM   15  C   UNL     1     -10.513   7.894  68.175  1.00  0.00    -0.227 C  
BRANCH  15  16
HETATM   16  C   UNL     1     -10.822   6.415  67.905  1.00  0.00    -0.404 C  
BRANCH  16  17
HETATM   17  C   UNL     1     -10.554   5.856  66.503  1.00  0.00    -0.266 C  
BRANCH  17  18
HETATM   18  C   UNL     1      -9.533   4.777  66.425  1.00  0.00    -0.158 A  
HETATM   19  N   UNL     1      -9.863   3.503  66.290  1.00  0.00    -0.017 NA 
HETATM   20  N   UNL     1      -8.705   2.800  66.162  1.00  0.00    -0.125 NA 
HETATM   21  N   UNL     1      -7.664   3.605  66.235  1.00  0.00    -0.087 NA 
HETATM   22  N   UNL     1      -8.157   4.863  66.340  1.00  0.00    -0.107 NA 
BRANCH  22  23
HETATM   23  C   UNL     1      -7.189   5.952  66.440  1.00  0.00    -0.077 C  
HETATM   24  C   UNL     1      -5.887   5.662  65.642  1.00  0.00    -0.021 C  
HETATM   25  C   UNL     1      -6.144   5.688  64.133  1.00  0.00    -0.025 C  
HETATM   26  C   UNL     1      -6.671   7.050  63.695  1.00  0.00    -0.044 C  
HETATM   27  C   UNL     1      -7.876   7.503  64.521  1.00  0.00    -0.130 C  
HETATM   28  C   UNL     1      -7.640   7.363  66.028  1.00  0.00    -0.088 C  
ENDBRANCH  22  23
ENDBRANCH  17  18
ENDBRANCH  16  17
ENDBRANCH  15  16
ENDBRANCH  14  15
ENDBRANCH  13  14
ENDBRANCH  11  13
TORSDOF 7
ENDMDL
MODEL      308
REMARK 921   NORMALIZED FREE ENERGY PREDICTED BY IDOCK:   -4.10 KCAL/MOL
REMARK 922        TOTAL FREE ENERGY PREDICTED BY IDOCK:   -6.80 KCAL/MOL
REMARK 923 INTER-LIGAND FREE ENERGY PREDICTED BY IDOCK:   -6.34 KCAL/MOL
REMARK 924 INTRA-LIGAND FREE ENERGY PREDICTED BY IDOCK:   -0.46 KCAL/MOL
REMARK 927      BINDING AFFINITY PREDICTED BY RF-SCORE:    0.00 PKD
ROOT
HETATM    1  O   UNL     1     -12.387  16.402  63.890  1.00  0.00    -0.786 OA 
HETATM    2  C   UNL     1     -11.636  15.604  64.447  1.00  0.00    -0.249 C  
HETATM    3  C   UNL     1     -10.526  16.045  65.371  1.00  0.00    -0.415 C  
HETATM    4  C   UNL     1     -10.254  15.039  66.482  1.00  0.00    -0.281 C  
HETATM    5  C   UNL     1     -10.213  13.621  65.977  1.00  0.00    -0.312 A  
HETATM    6  C   UNL     1     -10.945  13.289  64.829  1.00  0.00    -0.350 A  
HETATM    7  N   UNL     1     -11.684  14.268  64.159  1.00  0.00    -0.641 N  
HETATM    8  C   UNL     1     -10.982  11.974  64.377  1.00  0.00    -0.385 A  
HETATM    9  C   UNL     1     -10.295  10.976  65.078  1.00  0.00    -0.360 A  
HETATM   10  H   UNL     1     -12.301  13.966  63.406  1.00  0.00     0.000 HD 
HETATM   11  C   UNL     1      -9.585  11.273  66.246  1.00  0.00    -0.209 A  
HETATM   12  C   UNL     1      -9.546  12.601  66.691  1.00  0.00    -0.249 A  
ENDROOT
BRANCH  11  13
HETATM   13  O   UNL     1      -8.999  10.181  66.845  1.00  0.00    -0.132 OA 
BRANCH  13  14
HETATM   14  C   UNL     1      -8.395   9.214  65.986  1.00  0.00    -0.121 C  
BRANCH  14  15
HETATM   15  C   UNL     1      -7.046   8.725  66.566  1.00  0.00    -0.080 C  
BRANCH  15  16
HETATM   16  C   UNL     1      -6.926   9.201  68.021  1.00  0.00    -0.077 C  
BRANCH  16  17
HETATM   17  C   UNL     1      -6.859   8.148  69.132  1.00  0.00    -0.055 C  
BRANCH  17  18
HETATM   18  C   UNL     1      -6.632   8.673  70.504  1.00  0.00    -0.039 A  
HETATM   19  N   UNL     1      -5.736   9.613  70.760  1.00  0.00    -0.059 NA 
HETATM   20  N   UNL     1      -5.847   9.924  72.080  1.00  0.00    -0.289 NA 
HETATM   21  N   UNL     1      -6.773   9.184  72.654  1.00  0.00    -0.297 NA 
HETATM   22  N   UNL     1      -7.326   8.431  71.673  1.00  0.00    -0.090 NA 
BRANCH  22  23
HETATM   23  C   UNL     1      -8.393   7.511  72.060  1.00  0.00    -0.107 C  
HETATM   24  C   UNL     1      -8.004   6.024  71.833  1.00  0.00    -0.107 C  
HETATM   25  C   UNL     1      -6.917   5.578  72.815  1.00  0.00    -0.083 C  
HETATM   26  C   UNL     1      -7.392   5.726  74.256  1.00  0.00    -0.088 C  
HETATM   27  C   UNL     1      -7.937   7.124  74.550  1.00  0.00    -0.182 C  
HETATM   28  C   UNL     1      -8.940   7.597  73.495  1.00  0.00    -0.295 C  
ENDBRANCH  22  23
ENDBRANCH  17  18
ENDBRANCH  16  17
ENDBRANCH  15  16
ENDBRANCH  14  15
ENDBRANCH  13  14
ENDBRANCH  11  13
TORSDOF 7
ENDMDL
MODEL      309
REMARK 921   NORMALIZED FREE ENERGY PREDICTED BY IDOCK:   -4.10 KCAL/MOL
REMARK 922        TOTAL FREE ENERGY PREDICTED BY IDOCK:   -6.79 KCAL/MOL
REMARK 923 INTER-LIGAND FREE ENERGY PREDICTED BY IDOCK:   -5.69 KCAL/MOL
REMARK 924 INTRA-LIGAND FREE ENERGY PREDICTED BY IDOCK:   -1.10 KCAL/MOL
REMARK 927      BINDING AFFINITY PREDICTED BY RF-SCORE:    0.00 PKD
ROOT
HETATM    1  O   UNL     1      -7.296   7.361  69.180  1.00  0.00    -0.085 OA 
HETATM    2  C   UNL     1      -8.327   7.904  69.569  1.00  0.00    -0.131 C  
HETATM    3  C   UNL     1      -9.069   7.445  70.803  1.00  0.00    -0.151 C  
HETATM    4  C   UNL     1      -9.770   8.589  71.525  1.00  0.00    -0.303 C  
HETATM    5  C   UNL     1     -10.500   9.505  70.579  1.00  0.00    -0.358 A  
HETATM    6  C   UNL     1     -10.041   9.622  69.260  1.00  0.00    -0.193 A  
HETATM    7  N   UNL     1      -8.935   8.882  68.832  1.00  0.00    -0.136 N  
HETATM    8  C   UNL     1     -10.652  10.512  68.382  1.00  0.00    -0.230 A  
HETATM    9  C   UNL     1     -11.721  11.302  68.821  1.00  0.00    -0.405 A  
HETATM   10  H   UNL     1      -8.556   9.086  67.908  1.00  0.00     0.000 HD 
HETATM   11  C   UNL     1     -12.176  11.231  70.141  1.00  0.00    -0.330 A  
HETATM   12  C   UNL     1     -11.562  10.327  71.018  1.00  0.00    -0.430 A  
ENDROOT
BRANCH  11  13
HETATM   13  O   UNL     1     -13.203  12.099  70.433  1.00  0.00     0.442 OA 
BRANCH  13  14
HETATM   14  C   UNL     1     -12.993  13.019  71.504  1.00  0.00    -0.305 C  
BRANCH  14  15
HETATM   15  C   UNL     1     -11.966  14.106  71.107  1.00  0.00    -0.316 C  
BRANCH  15  16
HETATM   16  C   UNL     1     -12.715  15.308  70.515  1.00  0.00    -0.440 C  
BRANCH  16  17
HETATM   17  C   UNL     1     -11.979  16.209  69.517  1.00  0.00    -0.068 C  
BRANCH  17  18
HETATM   18  C   UNL     1     -11.500  15.541  68.278  1.00  0.00    -0.353 A  
HETATM   19  N   UNL     1     -12.258  14.701  67.592  1.00  0.00    -0.178 NA 
HETATM   20  N   UNL     1     -11.558  14.345  66.481  1.00  0.00    -0.367 NA 
HETATM   21  N   UNL     1     -10.375  14.926  66.472  1.00  0.00    -0.285 NA 
HETATM   22  N   UNL     1     -10.335  15.732  67.560  1.00  0.00    -0.274 NA 
BRANCH  22  23
HETATM   23  C   UNL     1      -9.110  16.495  67.779  1.00  0.00    -0.204 C  
HETATM   24  C   UNL     1      -8.654  16.470  69.265  1.00  0.00    -0.061 C  
HETATM   25  C   UNL     1      -8.161  15.079  69.671  1.00  0.00    -0.029 C  
HETATM   26  C   UNL     1      -6.980  14.648  68.808  1.00  0.00    -0.102 C  
HETATM   27  C   UNL     1      -7.274  14.773  67.313  1.00  0.00    -0.114 C  
HETATM   28  C   UNL     1      -7.871  16.134  66.943  1.00  0.00    -0.283 C  
ENDBRANCH  22  23
ENDBRANCH  17  18
ENDBRANCH  16  17
ENDBRANCH  15  16
ENDBRANCH  14  15
ENDBRANCH  13  14
ENDBRANCH  11  13
TORSDOF 7
ENDMDL
MODEL      310
REMARK 921   NORMALIZED FREE ENERGY PREDICTED BY IDOCK:   -4.10 KCAL/MOL
REMARK 922        TOTAL FREE ENERGY PREDICTED BY IDOCK:   -6.79 KCAL/MOL
REMARK 923 INTER-LIGAND FREE ENERGY PREDICTED BY IDOCK:   -6.24 KCAL/MOL
REMARK 924 INTRA-LIGAND FREE ENERGY PREDICTED BY IDOCK:   -0.54 KCAL/MOL
REMARK 927      BINDING AFFINITY PREDICTED BY RF-SCORE:    0.00 PKD
ROOT
HETATM    1  O   UNL     1      -5.303  17.868  70.131  1.00  0.00    -0.205 OA 
HETATM    2  C   UNL     1      -5.937  17.173  69.340  1.00  0.00    -0.222 C  
HETATM    3  C   UNL     1      -5.276  16.432  68.202  1.00  0.00    -0.113 C  
HETATM    4  C   UNL     1      -5.986  15.127  67.862  1.00  0.00    -0.165 C  
HETATM    5  C   UNL     1      -7.482  15.282  67.812  1.00  0.00    -0.178 A  
HETATM    6  C   UNL     1      -8.086  16.282  68.584  1.00  0.00    -0.213 A  
HETATM    7  N   UNL     1      -7.303  17.131  69.372  1.00  0.00    -0.095 N  
HETATM    8  C   UNL     1      -9.471  16.406  68.613  1.00  0.00    -0.239 A  
HETATM    9  C   UNL     1     -10.266  15.520  67.876  1.00  0.00    -0.238 A  
HETATM   10  H   UNL     1      -7.784  17.762  70.013  1.00  0.00     0.000 HD 
HETATM   11  C   UNL     1      -9.692  14.490  67.124  1.00  0.00    -0.240 A  
HETATM   12  C   UNL     1      -8.295  14.376  67.094  1.00  0.00    -0.214 A  
ENDROOT
BRANCH  11  13
HETATM   13  O   UNL     1     -10.602  13.676  66.490  1.00  0.00    -0.278 OA 
BRANCH  13  14
HETATM   14  C   UNL     1     -11.775  13.319  67.221  1.00  0.00    -0.377 C  
BRANCH  14  15
HETATM   15  C   UNL     1     -11.693  11.856  67.719  1.00  0.00    -0.362 C  
BRANCH  15  16
HETATM   16  C   UNL     1     -10.529  11.151  67.008  1.00  0.00    -0.277 C  
BRANCH  16  17
HETATM   17  C   UNL     1      -9.667  10.171  67.812  1.00  0.00    -0.176 C  
BRANCH  17  18
HETATM   18  C   UNL     1     -10.186   8.780  67.899  1.00  0.00    -0.219 A  
HETATM   19  N   UNL     1     -10.007   7.898  66.929  1.00  0.00    -0.236 NA 
HETATM   20  N   UNL     1     -10.521   6.716  67.363  1.00  0.00    -0.222 NA 
HETATM   21  N   UNL     1     -11.034   6.847  68.569  1.00  0.00    -0.174 NA 
HETATM   22  N   UNL     1     -10.783   8.121  68.956  1.00  0.00    -0.140 NA 
BRANCH  22  23
HETATM   23  C   UNL     1     -11.260   8.522  70.277  1.00  0.00    -0.179 C  
HETATM   24  C   UNL     1     -11.892   7.339  71.063  1.00  0.00    -0.352 C  
HETATM   25  C   UNL     1     -10.829   6.318  71.477  1.00  0.00    -0.303 C  
HETATM   26  C   UNL     1      -9.772   6.964  72.367  1.00  0.00    -0.168 C  
HETATM   27  C   UNL     1      -9.184   8.232  71.747  1.00  0.00    -0.261 C  
HETATM   28  C   UNL     1     -10.262   9.192  71.237  1.00  0.00    -0.400 C  
ENDBRANCH  22  23
ENDBRANCH  17  18
ENDBRANCH  16  17
ENDBRANCH  15  16
ENDBRANCH  14  15
ENDBRANCH  13  14
ENDBRANCH  11  13
TORSDOF 7
ENDMDL
MODEL      311
REMARK 921   NORMALIZED FREE ENERGY PREDICTED BY IDOCK:   -4.09 KCAL/MOL
REMARK 922        TOTAL FREE ENERGY PREDICTED BY IDOCK:   -6.77 KCAL/MOL
REMARK 923 INTER-LIGAND FREE ENERGY PREDICTED BY IDOCK:   -5.86 KCAL/MOL
REMARK 924 INTRA-LIGAND FREE ENERGY PREDICTED BY IDOCK:   -0.92 KCAL/MOL
REMARK 927      BINDING AFFINITY PREDICTED BY RF-SCORE:    0.00 PKD
ROOT
HETATM    1  O   UNL     1     -13.150  13.053  65.196  1.00  0.00    -0.740 OA 
HETATM    2  C   UNL     1     -12.104  13.369  65.760  1.00  0.00    -0.436 C  
HETATM    3  C   UNL     1     -11.049  12.355  66.138  1.00  0.00    -0.340 C  
HETATM    4  C   UNL     1      -9.639  12.930  66.085  1.00  0.00    -0.215 C  
HETATM    5  C   UNL     1      -9.550  14.293  66.718  1.00  0.00    -0.290 A  
HETATM    6  C   UNL     1     -10.689  15.108  66.738  1.00  0.00    -0.311 A  
HETATM    7  N   UNL     1     -11.892  14.648  66.193  1.00  0.00    -0.323 N  
HETATM    8  C   UNL     1     -10.620  16.398  67.253  1.00  0.00    -0.293 A  
HETATM    9  C   UNL     1      -9.405  16.889  67.745  1.00  0.00    -0.235 A  
HETATM   10  H   UNL     1     -12.661  15.311  66.112  1.00  0.00     0.000 HD 
HETATM   11  C   UNL     1      -8.244  16.111  67.705  1.00  0.00    -0.152 A  
HETATM   12  C   UNL     1      -8.322  14.809  67.192  1.00  0.00    -0.240 A  
ENDROOT
BRANCH  11  13
HETATM   13  O   UNL     1      -7.120  16.745  68.183  1.00  0.00    -0.151 OA 
BRANCH  13  14
HETATM   14  C   UNL     1      -6.842  16.612  69.577  1.00  0.00    -0.157 C  
BRANCH  14  15
HETATM   15  C   UNL     1      -5.371  16.194  69.811  1.00  0.00    -0.133 C  
BRANCH  15  16
HETATM   16  C   UNL     1      -5.197  14.727  69.392  1.00  0.00    -0.087 C  
BRANCH  16  17
HETATM   17  C   UNL     1      -6.370  13.763  69.600  1.00  0.00    -0.116 C  
BRANCH  17  18
HETATM   18  C   UNL     1      -6.056  12.521  70.356  1.00  0.00    -0.014 A  
HETATM   19  N   UNL     1      -5.199  12.507  71.365  1.00  0.00    -0.297 NA 
HETATM   20  N   UNL     1      -5.212  11.250  71.884  1.00  0.00    -0.331 NA 
HETATM   21  N   UNL     1      -6.039  10.478  71.208  1.00  0.00    -0.329 NA 
HETATM   22  N   UNL     1      -6.629  11.267  70.279  1.00  0.00    -0.212 NA 
BRANCH  22  23
HETATM   23  C   UNL     1      -7.601  10.636  69.390  1.00  0.00    -0.134 C  
HETATM   24  C   UNL     1      -7.266  10.866  67.890  1.00  0.00    -0.086 C  
HETATM   25  C   UNL     1      -6.009  10.097  67.477  1.00  0.00    -0.053 C  
HETATM   26  C   UNL     1      -6.192   8.599  67.695  1.00  0.00    -0.052 C  
HETATM   27  C   UNL     1      -6.666   8.269  69.110  1.00  0.00    -0.047 C  
HETATM   28  C   UNL     1      -7.856   9.128  69.547  1.00  0.00    -0.082 C  
ENDBRANCH  22  23
ENDBRANCH  17  18
ENDBRANCH  16  17
ENDBRANCH  15  16
ENDBRANCH  14  15
ENDBRANCH  13  14
ENDBRANCH  11  13
TORSDOF 7
ENDMDL
MODEL      312
REMARK 921   NORMALIZED FREE ENERGY PREDICTED BY IDOCK:   -4.08 KCAL/MOL
REMARK 922        TOTAL FREE ENERGY PREDICTED BY IDOCK:   -6.77 KCAL/MOL
REMARK 923 INTER-LIGAND FREE ENERGY PREDICTED BY IDOCK:   -6.30 KCAL/MOL
REMARK 924 INTRA-LIGAND FREE ENERGY PREDICTED BY IDOCK:   -0.47 KCAL/MOL
REMARK 927      BINDING AFFINITY PREDICTED BY RF-SCORE:    0.00 PKD
ROOT
HETATM    1  O   UNL     1      -9.990  12.201  63.268  1.00  0.00    -0.396 OA 
HETATM    2  C   UNL     1      -9.709  11.146  63.835  1.00  0.00    -0.286 C  
HETATM    3  C   UNL     1      -8.901  10.058  63.168  1.00  0.00    -0.244 C  
HETATM    4  C   UNL     1      -8.046   9.274  64.156  1.00  0.00    -0.145 C  
HETATM    5  C   UNL     1      -8.802   8.909  65.406  1.00  0.00    -0.234 A  
HETATM    6  C   UNL     1      -9.865   9.723  65.818  1.00  0.00    -0.290 A  
HETATM    7  N   UNL     1     -10.224  10.844  65.064  1.00  0.00    -0.289 N  
HETATM    8  C   UNL     1     -10.537   9.451  67.005  1.00  0.00    -0.272 A  
HETATM    9  C   UNL     1     -10.143   8.366  67.797  1.00  0.00    -0.263 A  
HETATM   10  H   UNL     1     -10.917  11.480  65.459  1.00  0.00     0.000 HD 
HETATM   11  C   UNL     1      -9.063   7.558  67.428  1.00  0.00    -0.126 A  
HETATM   12  C   UNL     1      -8.395   7.833  66.227  1.00  0.00    -0.131 A  
ENDROOT
BRANCH  11  13
HETATM   13  O   UNL     1      -8.769   6.560  68.328  1.00  0.00    -0.118 OA 
BRANCH  13  14
HETATM   14  C   UNL     1      -8.176   5.369  67.809  1.00  0.00    -0.100 C  
BRANCH  14  15
HETATM   15  C   UNL     1      -8.961   4.116  68.264  1.00  0.00    -0.154 C  
BRANCH  15  16
HETATM   16  C   UNL     1      -9.781   4.467  69.513  1.00  0.00    -0.280 C  
BRANCH  16  17
HETATM   17  C   UNL     1      -9.118   4.323  70.888  1.00  0.00    -0.186 C  
BRANCH  17  18
HETATM   18  C   UNL     1      -9.868   4.910  72.029  1.00  0.00    -0.177 A  
HETATM   19  N   UNL     1      -9.902   4.336  73.221  1.00  0.00    -0.129 NA 
HETATM   20  N   UNL     1     -10.591   5.168  74.048  1.00  0.00    -0.284 NA 
HETATM   21  N   UNL     1     -11.003   6.235  73.393  1.00  0.00    -0.211 NA 
HETATM   22  N   UNL     1     -10.511   6.128  72.135  1.00  0.00    -0.198 NA 
BRANCH  22  23
HETATM   23  C   UNL     1     -10.835   7.201  71.200  1.00  0.00    -0.239 C  
HETATM   24  C   UNL     1     -12.136   6.916  70.399  1.00  0.00    -0.250 C  
HETATM   25  C   UNL     1     -13.370   6.986  71.302  1.00  0.00    -0.282 C  
HETATM   26  C   UNL     1     -13.501   8.366  71.937  1.00  0.00    -0.385 C  
HETATM   27  C   UNL     1     -12.215   8.811  72.634  1.00  0.00    -0.239 C  
HETATM   28  C   UNL     1     -10.976   8.629  71.754  1.00  0.00    -0.396 C  
ENDBRANCH  22  23
ENDBRANCH  17  18
ENDBRANCH  16  17
ENDBRANCH  15  16
ENDBRANCH  14  15
ENDBRANCH  13  14
ENDBRANCH  11  13
TORSDOF 7
ENDMDL
MODEL      313
REMARK 921   NORMALIZED FREE ENERGY PREDICTED BY IDOCK:   -4.07 KCAL/MOL
REMARK 922        TOTAL FREE ENERGY PREDICTED BY IDOCK:   -6.76 KCAL/MOL
REMARK 923 INTER-LIGAND FREE ENERGY PREDICTED BY IDOCK:   -6.51 KCAL/MOL
REMARK 924 INTRA-LIGAND FREE ENERGY PREDICTED BY IDOCK:   -0.24 KCAL/MOL
REMARK 927      BINDING AFFINITY PREDICTED BY RF-SCORE:    0.00 PKD
ROOT
HETATM    1  O   UNL     1     -12.379  14.499  67.293  1.00  0.00    -0.276 OA 
HETATM    2  C   UNL     1     -11.854  13.393  67.399  1.00  0.00    -0.375 C  
HETATM    3  C   UNL     1     -11.764  12.661  68.718  1.00  0.00    -0.364 C  
HETATM    4  C   UNL     1     -11.824  11.148  68.553  1.00  0.00    -0.330 C  
HETATM    5  C   UNL     1     -10.953  10.657  67.427  1.00  0.00    -0.361 A  
HETATM    6  C   UNL     1     -10.684  11.516  66.355  1.00  0.00    -0.273 A  
HETATM    7  N   UNL     1     -11.205  12.813  66.345  1.00  0.00    -0.286 N  
HETATM    8  C   UNL     1      -9.940  11.069  65.268  1.00  0.00    -0.320 A  
HETATM    9  C   UNL     1      -9.467   9.752  65.240  1.00  0.00    -0.343 A  
HETATM   10  H   UNL     1     -11.094  13.364  65.494  1.00  0.00     0.000 HD 
HETATM   11  C   UNL     1      -9.750   8.862  66.282  1.00  0.00    -0.275 A  
HETATM   12  C   UNL     1     -10.494   9.322  67.377  1.00  0.00    -0.340 A  
ENDROOT
BRANCH  11  13
HETATM   13  O   UNL     1      -9.255   7.592  66.092  1.00  0.00    -0.171 OA 
BRANCH  13  14
HETATM   14  C   UNL     1      -7.888   7.369  66.438  1.00  0.00    -0.102 C  
BRANCH  14  15
HETATM   15  C   UNL     1      -7.262   8.636  67.069  1.00  0.00    -0.076 C  
BRANCH  15  16
HETATM   16  C   UNL     1      -7.517   8.617  68.583  1.00  0.00    -0.096 C  
BRANCH  16  17
HETATM   17  C   UNL     1      -6.669   7.684  69.456  1.00  0.00    -0.036 C  
BRANCH  17  18
HETATM   18  C   UNL     1      -7.427   6.684  70.253  1.00  0.00    -0.094 A  
HETATM   19  N   UNL     1      -7.401   5.391  69.971  1.00  0.00    -0.066 NA 
HETATM   20  N   UNL     1      -8.119   4.756  70.936  1.00  0.00    -0.081 NA 
HETATM   21  N   UNL     1      -8.608   5.624  71.798  1.00  0.00    -0.134 NA 
HETATM   22  N   UNL     1      -8.137   6.839  71.427  1.00  0.00    -0.110 NA 
BRANCH  22  23
HETATM   23  C   UNL     1      -8.544   7.986  72.235  1.00  0.00    -0.157 C  
HETATM   24  C   UNL     1      -9.458   8.969  71.451  1.00  0.00    -0.334 C  
HETATM   25  C   UNL     1     -10.832   8.351  71.178  1.00  0.00    -0.286 C  
HETATM   26  C   UNL     1     -11.535   7.993  72.483  1.00  0.00    -0.471 C  
HETATM   27  C   UNL     1     -10.661   7.140  73.402  1.00  0.00    -0.424 C  
HETATM   28  C   UNL     1      -9.253   7.716  73.574  1.00  0.00    -0.331 C  
ENDBRANCH  22  23
ENDBRANCH  17  18
ENDBRANCH  16  17
ENDBRANCH  15  16
ENDBRANCH  14  15
ENDBRANCH  13  14
ENDBRANCH  11  13
TORSDOF 7
ENDMDL
MODEL      314
REMARK 921   NORMALIZED FREE ENERGY PREDICTED BY IDOCK:   -4.05 KCAL/MOL
REMARK 922        TOTAL FREE ENERGY PREDICTED BY IDOCK:   -6.72 KCAL/MOL
REMARK 923 INTER-LIGAND FREE ENERGY PREDICTED BY IDOCK:   -6.90 KCAL/MOL
REMARK 924 INTRA-LIGAND FREE ENERGY PREDICTED BY IDOCK:    0.18 KCAL/MOL
REMARK 927      BINDING AFFINITY PREDICTED BY RF-SCORE:    0.00 PKD
ROOT
HETATM    1  O   UNL     1      -6.744   7.287  70.327  1.00  0.00    -0.049 OA 
HETATM    2  C   UNL     1      -7.281   8.238  69.763  1.00  0.00    -0.060 C  
HETATM    3  C   UNL     1      -7.512   9.563  70.451  1.00  0.00    -0.158 C  
HETATM    4  C   UNL     1      -7.440  10.743  69.490  1.00  0.00    -0.113 C  
HETATM    5  C   UNL     1      -8.188  10.488  68.208  1.00  0.00    -0.117 A  
HETATM    6  C   UNL     1      -8.339   9.168  67.763  1.00  0.00    -0.117 A  
HETATM    7  N   UNL     1      -7.816   8.109  68.511  1.00  0.00    -0.116 N  
HETATM    8  C   UNL     1      -8.965   8.905  66.549  1.00  0.00    -0.187 A  
HETATM    9  C   UNL     1      -9.436   9.964  65.763  1.00  0.00    -0.280 A  
HETATM   10  H   UNL     1      -7.835   7.179  68.096  1.00  0.00     0.000 HD 
HETATM   11  C   UNL     1      -9.268  11.292  66.167  1.00  0.00    -0.206 A  
HETATM   12  C   UNL     1      -8.643  11.549  67.395  1.00  0.00    -0.145 A  
ENDROOT
BRANCH  11  13
HETATM   13  O   UNL     1      -9.744  12.221  65.270  1.00  0.00    -0.218 OA 
BRANCH  13  14
HETATM   14  C   UNL     1     -11.160  12.379  65.187  1.00  0.00    -0.309 C  
BRANCH  14  15
HETATM   15  C   UNL     1     -11.815  12.246  66.583  1.00  0.00    -0.362 C  
BRANCH  15  16
HETATM   16  C   UNL     1     -12.368  13.614  67.006  1.00  0.00    -0.277 C  
BRANCH  16  17
HETATM   17  C   UNL     1     -11.385  14.776  67.188  1.00  0.00    -0.363 C  
BRANCH  17  18
HETATM   18  C   UNL     1     -11.412  15.439  68.519  1.00  0.00    -0.350 A  
HETATM   19  N   UNL     1     -12.255  15.074  69.472  1.00  0.00    -0.266 NA 
HETATM   20  N   UNL     1     -11.957  15.812  70.575  1.00  0.00    -0.365 NA 
HETATM   21  N   UNL     1     -10.964  16.642  70.324  1.00  0.00    -0.203 NA 
HETATM   22  N   UNL     1     -10.562  16.386  69.056  1.00  0.00    -0.286 NA 
BRANCH  22  23
HETATM   23  C   UNL     1      -9.459  17.188  68.533  1.00  0.00    -0.282 C  
HETATM   24  C   UNL     1      -9.146  16.864  67.045  1.00  0.00    -0.240 C  
HETATM   25  C   UNL     1     -10.269  17.348  66.124  1.00  0.00    -0.334 C  
HETATM   26  C   UNL     1     -10.463  18.855  66.248  1.00  0.00    -0.510 C  
HETATM   27  C   UNL     1     -10.636  19.303  67.699  1.00  0.00    -0.553 C  
HETATM   28  C   UNL     1      -9.567  18.719  68.626  1.00  0.00    -0.432 C  
ENDBRANCH  22  23
ENDBRANCH  17  18
ENDBRANCH  16  17
ENDBRANCH  15  16
ENDBRANCH  14  15
ENDBRANCH  13  14
ENDBRANCH  11  13
TORSDOF 7
ENDMDL
MODEL      315
REMARK 921   NORMALIZED FREE ENERGY PREDICTED BY IDOCK:   -4.05 KCAL/MOL
REMARK 922        TOTAL FREE ENERGY PREDICTED BY IDOCK:   -6.72 KCAL/MOL
REMARK 923 INTER-LIGAND FREE ENERGY PREDICTED BY IDOCK:   -5.80 KCAL/MOL
REMARK 924 INTRA-LIGAND FREE ENERGY PREDICTED BY IDOCK:   -0.92 KCAL/MOL
REMARK 927      BINDING AFFINITY PREDICTED BY RF-SCORE:    0.00 PKD
ROOT
HETATM    1  O   UNL     1      -8.557  17.225  66.256  1.00  0.00    -0.338 OA 
HETATM    2  C   UNL     1      -8.977  16.345  67.004  1.00  0.00    -0.212 C  
HETATM    3  C   UNL     1      -8.582  16.261  68.460  1.00  0.00    -0.211 C  
HETATM    4  C   UNL     1      -9.689  15.687  69.335  1.00  0.00    -0.292 C  
HETATM    5  C   UNL     1     -10.336  14.473  68.722  1.00  0.00    -0.243 A  
HETATM    6  C   UNL     1     -10.339  14.339  67.328  1.00  0.00    -0.260 A  
HETATM    7  N   UNL     1      -9.733  15.311  66.526  1.00  0.00    -0.252 N  
HETATM    8  C   UNL     1     -10.989  13.265  66.729  1.00  0.00    -0.302 A  
HETATM    9  C   UNL     1     -11.652  12.320  67.521  1.00  0.00    -0.422 A  
HETATM   10  H   UNL     1      -9.864  15.244  65.518  1.00  0.00     0.000 HD 
HETATM   11  C   UNL     1     -11.695  12.449  68.913  1.00  0.00    -0.324 A  
HETATM   12  C   UNL     1     -11.031  13.529  69.511  1.00  0.00    -0.028 A  
ENDROOT
BRANCH  11  13
HETATM   13  O   UNL     1     -12.419  11.468  69.551  1.00  0.00    -0.163 OA 
BRANCH  13  14
HETATM   14  C   UNL     1     -12.291  11.383  70.970  1.00  0.00    -0.343 C  
BRANCH  14  15
HETATM   15  C   UNL     1     -12.514   9.932  71.460  1.00  0.00    -0.506 C  
BRANCH  15  16
HETATM   16  C   UNL     1     -11.681   8.979  70.592  1.00  0.00    -0.237 C  
BRANCH  16  17
HETATM   17  C   UNL     1     -10.157   8.980  70.758  1.00  0.00    -0.303 C  
BRANCH  17  18
HETATM   18  C   UNL     1      -9.397   9.724  69.720  1.00  0.00    -0.226 A  
HETATM   19  N   UNL     1      -8.486  10.634  70.028  1.00  0.00     0.354 NA 
HETATM   20  N   UNL     1      -7.925  11.051  68.861  1.00  0.00    -0.143 NA 
HETATM   21  N   UNL     1      -8.480  10.438  67.835  1.00  0.00    -0.114 NA 
HETATM   22  N   UNL     1      -9.367   9.553  68.349  1.00  0.00    -0.133 NA 
BRANCH  22  23
HETATM   23  C   UNL     1     -10.125   8.741  67.401  1.00  0.00    -0.226 C  
HETATM   24  C   UNL     1     -10.440   9.507  66.086  1.00  0.00    -0.077 C  
HETATM   25  C   UNL     1      -9.172   9.741  65.262  1.00  0.00    -0.294 C  
HETATM   26  C   UNL     1      -8.513   8.417  64.890  1.00  0.00    -0.141 C  
HETATM   27  C   UNL     1      -8.287   7.516  66.104  1.00  0.00    -0.138 C  
HETATM   28  C   UNL     1      -9.538   7.384  66.977  1.00  0.00    -0.221 C  
ENDBRANCH  22  23
ENDBRANCH  17  18
ENDBRANCH  16  17
ENDBRANCH  15  16
ENDBRANCH  14  15
ENDBRANCH  13  14
ENDBRANCH  11  13
TORSDOF 7
ENDMDL
MODEL      316
REMARK 921   NORMALIZED FREE ENERGY PREDICTED BY IDOCK:   -4.04 KCAL/MOL
REMARK 922        TOTAL FREE ENERGY PREDICTED BY IDOCK:   -6.71 KCAL/MOL
REMARK 923 INTER-LIGAND FREE ENERGY PREDICTED BY IDOCK:   -6.37 KCAL/MOL
REMARK 924 INTRA-LIGAND FREE ENERGY PREDICTED BY IDOCK:   -0.34 KCAL/MOL
REMARK 927      BINDING AFFINITY PREDICTED BY RF-SCORE:    0.00 PKD
ROOT
HETATM    1  O   UNL     1      -9.586   5.641  66.529  1.00  0.00    -0.146 OA 
HETATM    2  C   UNL     1      -8.929   6.661  66.333  1.00  0.00    -0.148 C  
HETATM    3  C   UNL     1      -8.237   6.940  65.019  1.00  0.00    -0.096 C  
HETATM    4  C   UNL     1      -8.170   8.428  64.697  1.00  0.00    -0.157 C  
HETATM    5  C   UNL     1      -7.759   9.256  65.886  1.00  0.00    -0.098 A  
HETATM    6  C   UNL     1      -8.044   8.781  67.173  1.00  0.00    -0.100 A  
HETATM    7  N   UNL     1      -8.682   7.549  67.343  1.00  0.00    -0.124 N  
HETATM    8  C   UNL     1      -7.739   9.554  68.289  1.00  0.00    -0.086 A  
HETATM    9  C   UNL     1      -7.156  10.816  68.125  1.00  0.00    -0.078 A  
HETATM   10  H   UNL     1      -8.984   7.296  68.283  1.00  0.00     0.000 HD 
HETATM   11  C   UNL     1      -6.894  11.330  66.851  1.00  0.00    -0.134 A  
HETATM   12  C   UNL     1      -7.196  10.542  65.731  1.00  0.00    -0.135 A  
ENDROOT
BRANCH  11  13
HETATM   13  O   UNL     1      -6.361  12.598  66.850  1.00  0.00    -0.170 OA 
BRANCH  13  14
HETATM   14  C   UNL     1      -6.372  13.309  68.088  1.00  0.00    -0.110 C  
BRANCH  14  15
HETATM   15  C   UNL     1      -5.948  14.783  67.885  1.00  0.00    -0.157 C  
BRANCH  15  16
HETATM   16  C   UNL     1      -6.989  15.483  66.998  1.00  0.00    -0.003 C  
BRANCH  16  17
HETATM   17  C   UNL     1      -8.475  15.276  67.312  1.00  0.00    -0.216 C  
BRANCH  17  18
HETATM   18  C   UNL     1      -9.422  15.687  66.243  1.00  0.00    -0.319 A  
HETATM   19  N   UNL     1     -10.252  14.831  65.668  1.00  0.00    -0.334 NA 
HETATM   20  N   UNL     1     -11.030  15.542  64.808  1.00  0.00    -0.428 NA 
HETATM   21  N   UNL     1     -10.689  16.815  64.819  1.00  0.00    -0.738 NA 
HETATM   22  N   UNL     1      -9.720  16.945  65.757  1.00  0.00    -0.548 NA 
BRANCH  22  23
HETATM   23  C   UNL     1      -9.166  18.281  65.962  1.00  0.00     0.016 C  
HETATM   24  C   UNL     1     -10.270  19.354  66.173  1.00  0.00    -0.570 C  
HETATM   25  C   UNL     1     -10.978  19.165  67.517  1.00  0.00    -0.405 C  
HETATM   26  C   UNL     1      -9.989  19.274  68.672  1.00  0.00    -0.506 C  
HETATM   27  C   UNL     1      -8.779  18.357  68.492  1.00  0.00    -0.336 C  
HETATM   28  C   UNL     1      -8.152  18.479  67.101  1.00  0.00    -0.248 C  
ENDBRANCH  22  23
ENDBRANCH  17  18
ENDBRANCH  16  17
ENDBRANCH  15  16
ENDBRANCH  14  15
ENDBRANCH  13  14
ENDBRANCH  11  13
TORSDOF 7
ENDMDL
MODEL      317
REMARK 921   NORMALIZED FREE ENERGY PREDICTED BY IDOCK:   -4.04 KCAL/MOL
REMARK 922        TOTAL FREE ENERGY PREDICTED BY IDOCK:   -6.71 KCAL/MOL
REMARK 923 INTER-LIGAND FREE ENERGY PREDICTED BY IDOCK:   -5.70 KCAL/MOL
REMARK 924 INTRA-LIGAND FREE ENERGY PREDICTED BY IDOCK:   -1.01 KCAL/MOL
REMARK 927      BINDING AFFINITY PREDICTED BY RF-SCORE:    0.00 PKD
ROOT
HETATM    1  O   UNL     1      -7.171   2.817  65.144  1.00  0.00    -0.059 OA 
HETATM    2  C   UNL     1      -7.836   3.126  66.130  1.00  0.00    -0.078 C  
HETATM    3  C   UNL     1      -9.115   2.413  66.501  1.00  0.00    -0.095 C  
HETATM    4  C   UNL     1      -9.347   2.371  68.007  1.00  0.00    -0.253 C  
HETATM    5  C   UNL     1      -9.076   3.696  68.668  1.00  0.00    -0.199 A  
HETATM    6  C   UNL     1      -8.158   4.573  68.076  1.00  0.00    -0.091 A  
HETATM    7  N   UNL     1      -7.521   4.224  66.882  1.00  0.00    -0.080 N  
HETATM    8  C   UNL     1      -7.835   5.774  68.699  1.00  0.00    -0.097 A  
HETATM    9  C   UNL     1      -8.421   6.104  69.926  1.00  0.00    -0.129 A  
HETATM   10  H   UNL     1      -6.770   4.828  66.550  1.00  0.00     0.000 HD 
HETATM   11  C   UNL     1      -9.315   5.232  70.556  1.00  0.00    -0.157 A  
HETATM   12  C   UNL     1      -9.641   4.027  69.920  1.00  0.00    -0.281 A  
ENDROOT
BRANCH  11  13
HETATM   13  O   UNL     1      -9.773   5.675  71.776  1.00  0.00    -0.155 OA 
BRANCH  13  14
HETATM   14  C   UNL     1     -10.966   6.459  71.776  1.00  0.00    -0.255 C  
BRANCH  14  15
HETATM   15  C   UNL     1     -10.808   7.706  72.679  1.00  0.00    -0.395 C  
BRANCH  15  16
HETATM   16  C   UNL     1     -11.035   8.967  71.832  1.00  0.00    -0.439 C  
BRANCH  16  17
HETATM   17  C   UNL     1     -10.385   9.044  70.446  1.00  0.00    -0.253 C  
BRANCH  17  18
HETATM   18  C   UNL     1     -10.902  10.113  69.551  1.00  0.00    -0.255 A  
HETATM   19  N   UNL     1     -12.070  10.701  69.757  1.00  0.00    -0.294 NA 
HETATM   20  N   UNL     1     -12.195  11.681  68.821  1.00  0.00    -0.395 NA 
HETATM   21  N   UNL     1     -11.144  11.701  68.027  1.00  0.00    -0.224 NA 
HETATM   22  N   UNL     1     -10.287  10.765  68.501  1.00  0.00    -0.176 NA 
BRANCH  22  23
HETATM   23  C   UNL     1      -9.028  10.590  67.780  1.00  0.00    -0.132 C  
HETATM   24  C   UNL     1      -8.840   9.136  67.265  1.00  0.00    -0.132 C  
HETATM   25  C   UNL     1      -9.823   8.815  66.137  1.00  0.00    -0.297 C  
HETATM   26  C   UNL     1      -9.627   9.762  64.958  1.00  0.00    -0.333 C  
HETATM   27  C   UNL     1      -9.650  11.231  65.381  1.00  0.00    -0.261 C  
HETATM   28  C   UNL     1      -8.743  11.511  66.582  1.00  0.00    -0.182 C  
ENDBRANCH  22  23
ENDBRANCH  17  18
ENDBRANCH  16  17
ENDBRANCH  15  16
ENDBRANCH  14  15
ENDBRANCH  13  14
ENDBRANCH  11  13
TORSDOF 7
ENDMDL
MODEL      318
REMARK 921   NORMALIZED FREE ENERGY PREDICTED BY IDOCK:   -4.02 KCAL/MOL
REMARK 922        TOTAL FREE ENERGY PREDICTED BY IDOCK:   -6.68 KCAL/MOL
REMARK 923 INTER-LIGAND FREE ENERGY PREDICTED BY IDOCK:   -5.76 KCAL/MOL
REMARK 924 INTRA-LIGAND FREE ENERGY PREDICTED BY IDOCK:   -0.93 KCAL/MOL
REMARK 927      BINDING AFFINITY PREDICTED BY RF-SCORE:    0.00 PKD
ROOT
HETATM    1  O   UNL     1      -7.078   8.796  74.435  1.00  0.00    -0.341 OA 
HETATM    2  C   UNL     1      -7.462   8.318  73.370  1.00  0.00    -0.119 C  
HETATM    3  C   UNL     1      -6.571   8.230  72.153  1.00  0.00    -0.075 C  
HETATM    4  C   UNL     1      -6.884   7.019  71.284  1.00  0.00    -0.060 C  
HETATM    5  C   UNL     1      -8.363   6.827  71.075  1.00  0.00    -0.127 A  
HETATM    6  C   UNL     1      -9.251   7.297  72.051  1.00  0.00    -0.132 A  
HETATM    7  N   UNL     1      -8.766   7.950  73.188  1.00  0.00    -0.195 N  
HETATM    8  C   UNL     1     -10.618   7.074  71.920  1.00  0.00    -0.239 A  
HETATM    9  C   UNL     1     -11.107   6.367  70.815  1.00  0.00    -0.365 A  
HETATM   10  H   UNL     1      -9.429   8.165  73.932  1.00  0.00     0.000 HD 
HETATM   11  C   UNL     1     -10.240   5.856  69.845  1.00  0.00    -0.218 A  
HETATM   12  C   UNL     1      -8.865   6.091  69.978  1.00  0.00    -0.139 A  
ENDROOT
BRANCH  11  13
HETATM   13  O   UNL     1     -10.865   5.148  68.844  1.00  0.00     0.006 OA 
BRANCH  13  14
HETATM   14  C   UNL     1     -10.528   5.488  67.499  1.00  0.00    -0.204 C  
BRANCH  14  15
HETATM   15  C   UNL     1     -11.177   6.832  67.089  1.00  0.00    -0.276 C  
BRANCH  15  16
HETATM   16  C   UNL     1     -10.084   7.772  66.561  1.00  0.00    -0.224 C  
BRANCH  16  17
HETATM   17  C   UNL     1     -10.438   9.245  66.324  1.00  0.00    -0.084 C  
BRANCH  17  18
HETATM   18  C   UNL     1     -10.432  10.111  67.532  1.00  0.00    -0.253 A  
HETATM   19  N   UNL     1      -9.754   9.795  68.623  1.00  0.00    -0.152 NA 
HETATM   20  N   UNL     1      -9.889  10.831  69.494  1.00  0.00    -0.095 NA 
HETATM   21  N   UNL     1     -10.652  11.774  68.978  1.00  0.00    -0.178 NA 
HETATM   22  N   UNL     1     -10.958  11.375  67.720  1.00  0.00    -0.229 NA 
BRANCH  22  23
HETATM   23  C   UNL     1     -11.809  12.260  66.929  1.00  0.00    -0.264 C  
HETATM   24  C   UNL     1     -11.681  13.747  67.363  1.00  0.00    -0.417 C  
HETATM   25  C   UNL     1     -10.309  14.317  66.993  1.00  0.00    -0.267 C  
HETATM   26  C   UNL     1     -10.077  14.243  65.488  1.00  0.00    -0.370 C  
HETATM   27  C   UNL     1     -10.321  12.841  64.928  1.00  0.00    -0.330 C  
HETATM   28  C   UNL     1     -11.649  12.243  65.399  1.00  0.00    -0.412 C  
ENDBRANCH  22  23
ENDBRANCH  17  18
ENDBRANCH  16  17
ENDBRANCH  15  16
ENDBRANCH  14  15
ENDBRANCH  13  14
ENDBRANCH  11  13
TORSDOF 7
ENDMDL
MODEL      319
REMARK 921   NORMALIZED FREE ENERGY PREDICTED BY IDOCK:   -4.00 KCAL/MOL
REMARK 922        TOTAL FREE ENERGY PREDICTED BY IDOCK:   -6.66 KCAL/MOL
REMARK 923 INTER-LIGAND FREE ENERGY PREDICTED BY IDOCK:   -6.32 KCAL/MOL
REMARK 924 INTRA-LIGAND FREE ENERGY PREDICTED BY IDOCK:   -0.33 KCAL/MOL
REMARK 927      BINDING AFFINITY PREDICTED BY RF-SCORE:    0.00 PKD
ROOT
HETATM    1  O   UNL     1      -6.098   7.655  65.719  1.00  0.00    -0.037 OA 
HETATM    2  C   UNL     1      -7.096   8.027  66.333  1.00  0.00    -0.074 C  
HETATM    3  C   UNL     1      -8.210   8.804  65.673  1.00  0.00    -0.121 C  
HETATM    4  C   UNL     1      -9.574   8.507  66.284  1.00  0.00    -0.306 C  
HETATM    5  C   UNL     1      -9.538   8.489  67.789  1.00  0.00    -0.185 A  
HETATM    6  C   UNL     1      -8.341   8.156  68.434  1.00  0.00    -0.126 A  
HETATM    7  N   UNL     1      -7.196   7.864  67.686  1.00  0.00    -0.086 N  
HETATM    8  C   UNL     1      -8.294   8.064  69.821  1.00  0.00    -0.122 A  
HETATM    9  C   UNL     1      -9.451   8.294  70.576  1.00  0.00    -0.178 A  
HETATM   10  H   UNL     1      -6.382   7.506  68.184  1.00  0.00     0.000 HD 
HETATM   11  C   UNL     1     -10.668   8.593  69.955  1.00  0.00    -0.228 A  
HETATM   12  C   UNL     1     -10.706   8.692  68.558  1.00  0.00    -0.091 A  
ENDROOT
BRANCH  11  13
HETATM   13  O   UNL     1     -11.723   8.750  70.825  1.00  0.00    -0.279 OA 
BRANCH  13  14
HETATM   14  C   UNL     1     -12.354  10.030  70.858  1.00  0.00    -0.341 C  
BRANCH  14  15
HETATM   15  C   UNL     1     -11.427  11.120  70.269  1.00  0.00    -0.329 C  
BRANCH  15  16
HETATM   16  C   UNL     1     -12.039  12.500  70.550  1.00  0.00    -0.361 C  
BRANCH  16  17
HETATM   17  C   UNL     1     -12.387  13.402  69.361  1.00  0.00    -0.126 C  
BRANCH  17  18
HETATM   18  C   UNL     1     -11.658  13.112  68.098  1.00  0.00    -0.339 A  
HETATM   19  N   UNL     1     -12.129  12.275  67.187  1.00  0.00    -0.528 NA 
HETATM   20  N   UNL     1     -11.272  12.308  66.131  1.00  0.00    -0.312 NA 
HETATM   21  N   UNL     1     -10.269  13.127  66.373  1.00  0.00    -0.279 NA 
HETATM   22  N   UNL     1     -10.518  13.693  67.578  1.00  0.00    -0.240 NA 
BRANCH  22  23
HETATM   23  C   UNL     1      -9.536  14.652  68.079  1.00  0.00    -0.212 C  
HETATM   24  C   UNL     1      -8.555  15.128  66.971  1.00  0.00    -0.265 C  
HETATM   25  C   UNL     1      -9.266  16.008  65.940  1.00  0.00    -0.321 C  
HETATM   26  C   UNL     1      -9.865  17.244  66.602  1.00  0.00    -0.299 C  
HETATM   27  C   UNL     1     -10.740  16.896  67.806  1.00  0.00    -0.315 C  
HETATM   28  C   UNL     1     -10.053  15.925  68.770  1.00  0.00    -0.221 C  
ENDBRANCH  22  23
ENDBRANCH  17  18
ENDBRANCH  16  17
ENDBRANCH  15  16
ENDBRANCH  14  15
ENDBRANCH  13  14
ENDBRANCH  11  13
TORSDOF 7
ENDMDL
MODEL      320
REMARK 921   NORMALIZED FREE ENERGY PREDICTED BY IDOCK:   -3.99 KCAL/MOL
REMARK 922        TOTAL FREE ENERGY PREDICTED BY IDOCK:   -6.63 KCAL/MOL
REMARK 923 INTER-LIGAND FREE ENERGY PREDICTED BY IDOCK:   -6.08 KCAL/MOL
REMARK 924 INTRA-LIGAND FREE ENERGY PREDICTED BY IDOCK:   -0.55 KCAL/MOL
REMARK 927      BINDING AFFINITY PREDICTED BY RF-SCORE:    0.00 PKD
ROOT
HETATM    1  O   UNL     1     -14.160  14.564  72.838  1.00  0.00    -0.476 OA 
HETATM    2  C   UNL     1     -13.607  13.803  72.046  1.00  0.00    -0.479 C  
HETATM    3  C   UNL     1     -13.107  14.262  70.696  1.00  0.00    -0.247 C  
HETATM    4  C   UNL     1     -11.869  13.499  70.240  1.00  0.00    -0.327 C  
HETATM    5  C   UNL     1     -11.992  12.015  70.466  1.00  0.00    -0.338 A  
HETATM    6  C   UNL     1     -12.817  11.554  71.500  1.00  0.00    -0.380 A  
HETATM    7  N   UNL     1     -13.526  12.461  72.293  1.00  0.00    -0.564 N  
HETATM    8  C   UNL     1     -12.898  10.193  71.778  1.00  0.00    -0.554 A  
HETATM    9  C   UNL     1     -12.144   9.282  71.029  1.00  0.00    -0.349 A  
HETATM   10  H   UNL     1     -14.014  12.097  73.111  1.00  0.00     0.000 HD 
HETATM   11  C   UNL     1     -11.285   9.718  70.015  1.00  0.00    -0.251 A  
HETATM   12  C   UNL     1     -11.215  11.090  69.735  1.00  0.00    -0.339 A  
ENDROOT
BRANCH  11  13
HETATM   13  O   UNL     1     -10.580   8.710  69.398  1.00  0.00    -0.220 OA 
BRANCH  13  14
HETATM   14  C   UNL     1      -9.468   9.096  68.590  1.00  0.00    -0.143 C  
BRANCH  14  15
HETATM   15  C   UNL     1      -8.169   9.161  69.429  1.00  0.00    -0.118 C  
BRANCH  15  16
HETATM   16  C   UNL     1      -7.100   8.283  68.763  1.00  0.00    -0.071 C  
BRANCH  16  17
HETATM   17  C   UNL     1      -7.527   6.937  68.166  1.00  0.00    -0.099 C  
BRANCH  17  18
HETATM   18  C   UNL     1      -6.953   6.613  66.834  1.00  0.00    -0.067 A  
HETATM   19  N   UNL     1      -5.683   6.836  66.539  1.00  0.00    -0.017 NA 
HETATM   20  N   UNL     1      -5.469   6.349  65.287  1.00  0.00    -0.017 NA 
HETATM   21  N   UNL     1      -6.582   5.849  64.789  1.00  0.00    -0.041 NA 
HETATM   22  N   UNL     1      -7.517   5.946  65.763  1.00  0.00    -0.080 NA 
BRANCH  22  23
HETATM   23  C   UNL     1      -8.857   5.454  65.453  1.00  0.00    -0.143 C  
HETATM   24  C   UNL     1      -8.837   4.300  64.411  1.00  0.00    -0.144 C  
HETATM   25  C   UNL     1      -8.231   3.026  65.006  1.00  0.00    -0.087 C  
HETATM   26  C   UNL     1      -9.032   2.556  66.215  1.00  0.00    -0.126 C  
HETATM   27  C   UNL     1      -9.238   3.666  67.246  1.00  0.00    -0.215 C  
HETATM   28  C   UNL     1      -9.739   4.968  66.615  1.00  0.00    -0.191 C  
ENDBRANCH  22  23
ENDBRANCH  17  18
ENDBRANCH  16  17
ENDBRANCH  15  16
ENDBRANCH  14  15
ENDBRANCH  13  14
ENDBRANCH  11  13
TORSDOF 7
ENDMDL
MODEL      321
REMARK 921   NORMALIZED FREE ENERGY PREDICTED BY IDOCK:   -3.99 KCAL/MOL
REMARK 922        TOTAL FREE ENERGY PREDICTED BY IDOCK:   -6.63 KCAL/MOL
REMARK 923 INTER-LIGAND FREE ENERGY PREDICTED BY IDOCK:   -5.61 KCAL/MOL
REMARK 924 INTRA-LIGAND FREE ENERGY PREDICTED BY IDOCK:   -1.02 KCAL/MOL
REMARK 927      BINDING AFFINITY PREDICTED BY RF-SCORE:    0.00 PKD
ROOT
HETATM    1  O   UNL     1      -5.246  11.403  71.525  1.00  0.00    -0.271 OA 
HETATM    2  C   UNL     1      -5.709  10.589  70.728  1.00  0.00    -0.100 C  
HETATM    3  C   UNL     1      -6.591   9.442  71.162  1.00  0.00    -0.058 C  
HETATM    4  C   UNL     1      -7.623   9.065  70.106  1.00  0.00    -0.082 C  
HETATM    5  C   UNL     1      -7.033   9.001  68.722  1.00  0.00    -0.062 A  
HETATM    6  C   UNL     1      -5.912   9.788  68.426  1.00  0.00    -0.046 A  
HETATM    7  N   UNL     1      -5.346  10.603  69.410  1.00  0.00    -0.038 N  
HETATM    8  C   UNL     1      -5.386   9.802  67.139  1.00  0.00    -0.042 A  
HETATM    9  C   UNL     1      -5.985   9.036  66.131  1.00  0.00    -0.055 A  
HETATM   10  H   UNL     1      -4.614  11.253  69.125  1.00  0.00     0.000 HD 
HETATM   11  C   UNL     1      -7.125   8.268  66.391  1.00  0.00    -0.071 A  
HETATM   12  C   UNL     1      -7.645   8.252  67.692  1.00  0.00    -0.098 A  
ENDROOT
BRANCH  11  13
HETATM   13  O   UNL     1      -7.623   7.606  65.293  1.00  0.00    -0.078 OA 
BRANCH  13  14
HETATM   14  C   UNL     1      -8.882   8.046  64.783  1.00  0.00     0.304 C  
BRANCH  14  15
HETATM   15  C   UNL     1      -8.711   9.298  63.891  1.00  0.00    -0.193 C  
BRANCH  15  16
HETATM   16  C   UNL     1      -9.494  10.464  64.512  1.00  0.00    -0.342 C  
BRANCH  16  17
HETATM   17  C   UNL     1      -9.776  11.698  63.648  1.00  0.00    -0.310 C  
BRANCH  17  18
HETATM   18  C   UNL     1     -11.035  12.427  63.958  1.00  0.00    -0.391 A  
HETATM   19  N   UNL     1     -12.199  12.078  63.434  1.00  0.00    -0.546 NA 
HETATM   20  N   UNL     1     -13.145  12.883  63.989  1.00  0.00    -0.404 NA 
HETATM   21  N   UNL     1     -12.594  13.737  64.827  1.00  0.00    -0.646 NA 
HETATM   22  N   UNL     1     -11.275  13.433  64.873  1.00  0.00    -0.319 NA 
BRANCH  22  23
HETATM   23  C   UNL     1     -10.433  14.250  65.743  1.00  0.00    -0.316 C  
HETATM   24  C   UNL     1     -11.260  15.041  66.794  1.00  0.00    -0.322 C  
HETATM   25  C   UNL     1     -11.870  14.104  67.840  1.00  0.00    -0.405 C  
HETATM   26  C   UNL     1     -10.782  13.333  68.579  1.00  0.00    -0.280 C  
HETATM   27  C   UNL     1      -9.816  12.629  67.626  1.00  0.00    -0.210 C  
HETATM   28  C   UNL     1      -9.302  13.555  66.520  1.00  0.00    -0.227 C  
ENDBRANCH  22  23
ENDBRANCH  17  18
ENDBRANCH  16  17
ENDBRANCH  15  16
ENDBRANCH  14  15
ENDBRANCH  13  14
ENDBRANCH  11  13
TORSDOF 7
ENDMDL
MODEL      322
REMARK 921   NORMALIZED FREE ENERGY PREDICTED BY IDOCK:   -3.98 KCAL/MOL
REMARK 922        TOTAL FREE ENERGY PREDICTED BY IDOCK:   -6.62 KCAL/MOL
REMARK 923 INTER-LIGAND FREE ENERGY PREDICTED BY IDOCK:   -6.19 KCAL/MOL
REMARK 924 INTRA-LIGAND FREE ENERGY PREDICTED BY IDOCK:   -0.43 KCAL/MOL
REMARK 927      BINDING AFFINITY PREDICTED BY RF-SCORE:    0.00 PKD
ROOT
HETATM    1  O   UNL     1     -10.248  20.382  66.729  1.00  0.00    -0.410 OA 
HETATM    2  C   UNL     1     -10.296  19.179  66.975  1.00  0.00    -0.414 C  
HETATM    3  C   UNL     1     -10.102  18.628  68.368  1.00  0.00    -0.426 C  
HETATM    4  C   UNL     1     -10.909  17.360  68.615  1.00  0.00    -0.146 C  
HETATM    5  C   UNL     1     -10.820  16.389  67.468  1.00  0.00    -0.249 A  
HETATM    6  C   UNL     1     -10.577  16.883  66.180  1.00  0.00    -0.194 A  
HETATM    7  N   UNL     1     -10.404  18.254  65.973  1.00  0.00    -0.401 N  
HETATM    8  C   UNL     1     -10.558  16.019  65.090  1.00  0.00    -0.394 A  
HETATM    9  C   UNL     1     -10.792  14.651  65.279  1.00  0.00    -0.387 A  
HETATM   10  H   UNL     1     -10.355  18.588  65.011  1.00  0.00     0.000 HD 
HETATM   11  C   UNL     1     -11.071  14.136  66.549  1.00  0.00    -0.318 A  
HETATM   12  C   UNL     1     -11.082  15.012  67.643  1.00  0.00    -0.317 A  
ENDROOT
BRANCH  11  13
HETATM   13  O   UNL     1     -11.322  12.784  66.568  1.00  0.00    -0.291 OA 
BRANCH  13  14
HETATM   14  C   UNL     1     -10.457  11.950  65.797  1.00  0.00    -0.256 C  
BRANCH  14  15
HETATM   15  C   UNL     1      -9.845  10.829  66.671  1.00  0.00    -0.241 C  
BRANCH  15  16
HETATM   16  C   UNL     1     -10.236   9.467  66.079  1.00  0.00    -0.242 C  
BRANCH  16  17
HETATM   17  C   UNL     1      -9.131   8.434  65.831  1.00  0.00    -0.225 C  
BRANCH  17  18
HETATM   18  C   UNL     1      -7.902   8.596  66.651  1.00  0.00    -0.097 A  
HETATM   19  N   UNL     1      -6.908   9.388  66.283  1.00  0.00    -0.084 NA 
HETATM   20  N   UNL     1      -5.991   9.375  67.289  1.00  0.00    -0.048 NA 
HETATM   21  N   UNL     1      -6.382   8.577  68.262  1.00  0.00    -0.054 NA 
HETATM   22  N   UNL     1      -7.609   8.121  67.915  1.00  0.00    -0.100 NA 
BRANCH  22  23
HETATM   23  C   UNL     1      -8.265   7.203  68.842  1.00  0.00    -0.125 C  
HETATM   24  C   UNL     1      -7.403   6.919  70.103  1.00  0.00    -0.081 C  
HETATM   25  C   UNL     1      -7.305   8.157  70.999  1.00  0.00    -0.058 C  
HETATM   26  C   UNL     1      -8.687   8.602  71.464  1.00  0.00    -0.266 C  
HETATM   27  C   UNL     1      -9.666   8.772  70.302  1.00  0.00    -0.198 C  
HETATM   28  C   UNL     1      -9.668   7.569  69.355  1.00  0.00    -0.164 C  
ENDBRANCH  22  23
ENDBRANCH  17  18
ENDBRANCH  16  17
ENDBRANCH  15  16
ENDBRANCH  14  15
ENDBRANCH  13  14
ENDBRANCH  11  13
TORSDOF 7
ENDMDL
MODEL      323
REMARK 921   NORMALIZED FREE ENERGY PREDICTED BY IDOCK:   -3.96 KCAL/MOL
REMARK 922        TOTAL FREE ENERGY PREDICTED BY IDOCK:   -6.59 KCAL/MOL
REMARK 923 INTER-LIGAND FREE ENERGY PREDICTED BY IDOCK:   -5.60 KCAL/MOL
REMARK 924 INTRA-LIGAND FREE ENERGY PREDICTED BY IDOCK:   -1.00 KCAL/MOL
REMARK 927      BINDING AFFINITY PREDICTED BY RF-SCORE:    0.00 PKD
ROOT
HETATM    1  O   UNL     1      -6.422  18.244  68.605  1.00  0.00    -0.210 OA 
HETATM    2  C   UNL     1      -7.215  17.370  68.259  1.00  0.00    -0.214 C  
HETATM    3  C   UNL     1      -7.039  16.575  66.987  1.00  0.00    -0.247 C  
HETATM    4  C   UNL     1      -7.576  15.154  67.105  1.00  0.00    -0.204 C  
HETATM    5  C   UNL     1      -8.924  15.103  67.774  1.00  0.00    -0.178 A  
HETATM    6  C   UNL     1      -9.268  16.111  68.683  1.00  0.00    -0.220 A  
HETATM    7  N   UNL     1      -8.376  17.155  68.947  1.00  0.00    -0.227 N  
HETATM    8  C   UNL     1     -10.477  16.055  69.369  1.00  0.00    -0.271 A  
HETATM    9  C   UNL     1     -11.350  14.980  69.157  1.00  0.00    -0.311 A  
HETATM   10  H   UNL     1      -8.607  17.798  69.704  1.00  0.00     0.000 HD 
HETATM   11  C   UNL     1     -11.017  13.942  68.281  1.00  0.00    -0.255 A  
HETATM   12  C   UNL     1      -9.800  14.010  67.588  1.00  0.00    -0.233 A  
ENDROOT
BRANCH  11  13
HETATM   13  O   UNL     1     -11.954  12.937  68.212  1.00  0.00    -0.332 OA 
BRANCH  13  14
HETATM   14  C   UNL     1     -12.150  12.149  69.385  1.00  0.00    -0.190 C  
BRANCH  14  15
HETATM   15  C   UNL     1     -11.238  10.899  69.372  1.00  0.00    -0.335 C  
BRANCH  15  16
HETATM   16  C   UNL     1     -11.133  10.374  67.933  1.00  0.00    -0.363 C  
BRANCH  16  17
HETATM   17  C   UNL     1      -9.740  10.220  67.310  1.00  0.00    -0.199 C  
BRANCH  17  18
HETATM   18  C   UNL     1      -8.659   9.811  68.244  1.00  0.00    -0.119 A  
HETATM   19  N   UNL     1      -7.952  10.691  68.934  1.00  0.00    -0.124 NA 
HETATM   20  N   UNL     1      -7.120   9.987  69.748  1.00  0.00    -0.101 NA 
HETATM   21  N   UNL     1      -7.277   8.692  69.564  1.00  0.00    -0.059 NA 
HETATM   22  N   UNL     1      -8.282   8.551  68.667  1.00  0.00    -0.121 NA 
BRANCH  22  23
HETATM   23  C   UNL     1      -8.652   7.189  68.289  1.00  0.00    -0.122 C  
HETATM   24  C   UNL     1      -8.418   6.171  69.440  1.00  0.00    -0.120 C  
HETATM   25  C   UNL     1      -9.407   6.393  70.587  1.00  0.00    -0.169 C  
HETATM   26  C   UNL     1     -10.844   6.235  70.103  1.00  0.00    -0.375 C  
HETATM   27  C   UNL     1     -11.143   7.091  68.873  1.00  0.00    -0.102 C  
HETATM   28  C   UNL     1     -10.082   6.940  67.780  1.00  0.00    -0.199 C  
ENDBRANCH  22  23
ENDBRANCH  17  18
ENDBRANCH  16  17
ENDBRANCH  15  16
ENDBRANCH  14  15
ENDBRANCH  13  14
ENDBRANCH  11  13
TORSDOF 7
ENDMDL
MODEL      324
REMARK 921   NORMALIZED FREE ENERGY PREDICTED BY IDOCK:   -3.94 KCAL/MOL
REMARK 922        TOTAL FREE ENERGY PREDICTED BY IDOCK:   -6.57 KCAL/MOL
REMARK 923 INTER-LIGAND FREE ENERGY PREDICTED BY IDOCK:   -6.43 KCAL/MOL
REMARK 924 INTRA-LIGAND FREE ENERGY PREDICTED BY IDOCK:   -0.15 KCAL/MOL
REMARK 927      BINDING AFFINITY PREDICTED BY RF-SCORE:    0.00 PKD
ROOT
HETATM    1  O   UNL     1      -8.641   1.850  62.659  1.00  0.00    -0.071 OA 
HETATM    2  C   UNL     1      -8.880   2.843  63.342  1.00  0.00    -0.092 C  
HETATM    3  C   UNL     1     -10.280   3.379  63.531  1.00  0.00    -0.208 C  
HETATM    4  C   UNL     1     -10.478   4.031  64.894  1.00  0.00    -0.175 C  
HETATM    5  C   UNL     1      -9.334   4.933  65.273  1.00  0.00    -0.129 A  
HETATM    6  C   UNL     1      -8.062   4.671  64.747  1.00  0.00    -0.107 A  
HETATM    7  N   UNL     1      -7.871   3.599  63.871  1.00  0.00    -0.083 N  
HETATM    8  C   UNL     1      -6.972   5.444  65.133  1.00  0.00    -0.057 A  
HETATM    9  C   UNL     1      -7.143   6.481  66.058  1.00  0.00    -0.063 A  
HETATM   10  H   UNL     1      -6.914   3.364  63.609  1.00  0.00     0.000 HD 
HETATM   11  C   UNL     1      -8.395   6.742  66.625  1.00  0.00    -0.118 A  
HETATM   12  C   UNL     1      -9.490   5.964  66.226  1.00  0.00    -0.161 A  
ENDROOT
BRANCH  11  13
HETATM   13  O   UNL     1      -8.396   7.762  67.548  1.00  0.00    -0.119 OA 
BRANCH  13  14
HETATM   14  C   UNL     1      -8.717   9.069  67.073  1.00  0.00    -0.116 C  
BRANCH  14  15
HETATM   15  C   UNL     1      -8.820   9.087  65.529  1.00  0.00    -0.233 C  
BRANCH  15  16
HETATM   16  C   UNL     1     -10.002   9.976  65.119  1.00  0.00    -0.350 C  
BRANCH  16  17
HETATM   17  C   UNL     1      -9.714  11.408  64.653  1.00  0.00    -0.275 C  
BRANCH  17  18
HETATM   18  C   UNL     1     -10.888  12.318  64.603  1.00  0.00    -0.308 A  
HETATM   19  N   UNL     1     -11.440  12.696  63.462  1.00  0.00    -0.490 NA 
HETATM   20  N   UNL     1     -12.533  13.444  63.773  1.00  0.00    -0.721 NA 
HETATM   21  N   UNL     1     -12.661  13.557  65.079  1.00  0.00    -0.681 NA 
HETATM   22  N   UNL     1     -11.675  12.808  65.628  1.00  0.00    -0.376 NA 
BRANCH  22  23
HETATM   23  C   UNL     1     -11.600  12.770  67.086  1.00  0.00    -0.364 C  
HETATM   24  C   UNL     1     -10.136  12.682  67.601  1.00  0.00    -0.218 C  
HETATM   25  C   UNL     1      -9.377  13.986  67.343  1.00  0.00    -0.220 C  
HETATM   26  C   UNL     1     -10.055  15.158  68.045  1.00  0.00    -0.222 C  
HETATM   27  C   UNL     1     -11.545  15.250  67.719  1.00  0.00    -0.277 C  
HETATM   28  C   UNL     1     -12.266  13.909  67.877  1.00  0.00    -0.194 C  
ENDBRANCH  22  23
ENDBRANCH  17  18
ENDBRANCH  16  17
ENDBRANCH  15  16
ENDBRANCH  14  15
ENDBRANCH  13  14
ENDBRANCH  11  13
TORSDOF 7
ENDMDL
MODEL      325
REMARK 921   NORMALIZED FREE ENERGY PREDICTED BY IDOCK:   -3.94 KCAL/MOL
REMARK 922        TOTAL FREE ENERGY PREDICTED BY IDOCK:   -6.57 KCAL/MOL
REMARK 923 INTER-LIGAND FREE ENERGY PREDICTED BY IDOCK:   -5.64 KCAL/MOL
REMARK 924 INTRA-LIGAND FREE ENERGY PREDICTED BY IDOCK:   -0.93 KCAL/MOL
REMARK 927      BINDING AFFINITY PREDICTED BY RF-SCORE:    0.00 PKD
ROOT
HETATM    1  O   UNL     1     -13.122  12.457  63.817  1.00  0.00    -0.756 OA 
HETATM    2  C   UNL     1     -12.344  12.624  64.753  1.00  0.00    -0.489 C  
HETATM    3  C   UNL     1     -12.695  13.461  65.960  1.00  0.00    -0.233 C  
HETATM    4  C   UNL     1     -12.034  12.955  67.237  1.00  0.00    -0.371 C  
HETATM    5  C   UNL     1     -10.584  12.607  67.034  1.00  0.00    -0.255 A  
HETATM    6  C   UNL     1     -10.154  12.211  65.761  1.00  0.00    -0.247 A  
HETATM    7  N   UNL     1     -11.059  12.160  64.697  1.00  0.00    -0.306 N  
HETATM    8  C   UNL     1      -8.835  11.817  65.558  1.00  0.00     0.187 A  
HETATM    9  C   UNL     1      -7.937  11.805  66.632  1.00  0.00    -0.070 A  
HETATM   10  H   UNL     1     -10.739  11.749  63.821  1.00  0.00     0.000 HD 
HETATM   11  C   UNL     1      -8.348  12.162  67.920  1.00  0.00    -0.161 A  
HETATM   12  C   UNL     1      -9.676  12.566  68.116  1.00  0.00    -0.222 A  
ENDROOT
BRANCH  11  13
HETATM   13  O   UNL     1      -7.365  12.060  68.877  1.00  0.00    -0.110 OA 
BRANCH  13  14
HETATM   14  C   UNL     1      -6.797  10.767  69.090  1.00  0.00    -0.084 C  
BRANCH  14  15
HETATM   15  C   UNL     1      -7.525  10.024  70.236  1.00  0.00    -0.143 C  
BRANCH  15  16
HETATM   16  C   UNL     1      -6.482   9.318  71.114  1.00  0.00    -0.083 C  
BRANCH  16  17
HETATM   17  C   UNL     1      -6.674   7.829  71.424  1.00  0.00    -0.045 C  
BRANCH  17  18
HETATM   18  C   UNL     1      -7.849   7.495  72.271  1.00  0.00    -0.097 A  
HETATM   19  N   UNL     1      -8.146   8.176  73.367  1.00  0.00    -0.198 NA 
HETATM   20  N   UNL     1      -9.315   7.674  73.847  1.00  0.00    -0.265 NA 
HETATM   21  N   UNL     1      -9.740   6.683  73.090  1.00  0.00    -0.155 NA 
HETATM   22  N   UNL     1      -8.869   6.588  72.056  1.00  0.00    -0.133 NA 
BRANCH  22  23
HETATM   23  C   UNL     1      -9.124   5.548  71.063  1.00  0.00    -0.144 C  
HETATM   24  C   UNL     1     -10.641   5.273  70.870  1.00  0.00    -0.247 C  
HETATM   25  C   UNL     1     -11.335   6.453  70.184  1.00  0.00    -0.485 C  
HETATM   26  C   UNL     1     -10.726   6.719  68.812  1.00  0.00    -0.280 C  
HETATM   27  C   UNL     1      -9.205   6.862  68.868  1.00  0.00    -0.132 C  
HETATM   28  C   UNL     1      -8.537   5.731  69.654  1.00  0.00    -0.116 C  
ENDBRANCH  22  23
ENDBRANCH  17  18
ENDBRANCH  16  17
ENDBRANCH  15  16
ENDBRANCH  14  15
ENDBRANCH  13  14
ENDBRANCH  11  13
TORSDOF 7
ENDMDL
MODEL      326
REMARK 921   NORMALIZED FREE ENERGY PREDICTED BY IDOCK:   -3.94 KCAL/MOL
REMARK 922        TOTAL FREE ENERGY PREDICTED BY IDOCK:   -6.56 KCAL/MOL
REMARK 923 INTER-LIGAND FREE ENERGY PREDICTED BY IDOCK:   -5.46 KCAL/MOL
REMARK 924 INTRA-LIGAND FREE ENERGY PREDICTED BY IDOCK:   -1.10 KCAL/MOL
REMARK 927      BINDING AFFINITY PREDICTED BY RF-SCORE:    0.00 PKD
ROOT
HETATM    1  O   UNL     1     -12.553   8.225  73.143  1.00  0.00    -0.040 OA 
HETATM    2  C   UNL     1     -11.482   8.323  72.548  1.00  0.00    -0.384 C  
HETATM    3  C   UNL     1     -10.176   7.860  73.148  1.00  0.00    -0.358 C  
HETATM    4  C   UNL     1      -9.195   7.354  72.098  1.00  0.00    -0.158 C  
HETATM    5  C   UNL     1      -9.124   8.257  70.895  1.00  0.00    -0.176 A  
HETATM    6  C   UNL     1     -10.242   9.032  70.563  1.00  0.00    -0.219 A  
HETATM    7  N   UNL     1     -11.395   8.977  71.350  1.00  0.00    -0.295 N  
HETATM    8  C   UNL     1     -10.231   9.824  69.419  1.00  0.00    -0.223 A  
HETATM    9  C   UNL     1      -9.103   9.837  68.590  1.00  0.00    -0.130 A  
HETATM   10  H   UNL     1     -12.228   9.456  71.009  1.00  0.00     0.000 HD 
HETATM   11  C   UNL     1      -7.986   9.046  68.879  1.00  0.00    -0.100 A  
HETATM   12  C   UNL     1      -8.001   8.257  70.037  1.00  0.00    -0.104 A  
ENDROOT
BRANCH  11  13
HETATM   13  O   UNL     1      -6.975   9.134  67.950  1.00  0.00    -0.075 OA 
BRANCH  13  14
HETATM   14  C   UNL     1      -6.996  10.256  67.069  1.00  0.00    -0.089 C  
BRANCH  14  15
HETATM   15  C   UNL     1      -5.848  11.240  67.396  1.00  0.00    -0.061 C  
BRANCH  15  16
HETATM   16  C   UNL     1      -6.385  12.344  68.319  1.00  0.00    -0.057 C  
BRANCH  16  17
HETATM   17  C   UNL     1      -6.716  13.710  67.708  1.00  0.00    -0.177 C  
BRANCH  17  18
HETATM   18  C   UNL     1      -7.813  14.463  68.372  1.00  0.00    -0.138 A  
HETATM   19  N   UNL     1      -7.609  15.626  68.971  1.00  0.00    -0.170 NA 
HETATM   20  N   UNL     1      -8.821  16.079  69.389  1.00  0.00    -0.219 NA 
HETATM   21  N   UNL     1      -9.770  15.217  69.084  1.00  0.00    -0.225 NA 
HETATM   22  N   UNL     1      -9.172  14.219  68.390  1.00  0.00    -0.193 NA 
BRANCH  22  23
HETATM   23  C   UNL     1     -10.023  13.123  67.934  1.00  0.00    -0.233 C  
HETATM   24  C   UNL     1     -11.536  13.459  68.053  1.00  0.00    -0.339 C  
HETATM   25  C   UNL     1     -11.947  14.535  67.044  1.00  0.00    -0.371 C  
HETATM   26  C   UNL     1     -11.678  14.072  65.616  1.00  0.00    -0.356 C  
HETATM   27  C   UNL     1     -10.243  13.578  65.424  1.00  0.00    -0.316 C  
HETATM   28  C   UNL     1      -9.813  12.586  66.508  1.00  0.00    -0.251 C  
ENDBRANCH  22  23
ENDBRANCH  17  18
ENDBRANCH  16  17
ENDBRANCH  15  16
ENDBRANCH  14  15
ENDBRANCH  13  14
ENDBRANCH  11  13
TORSDOF 7
ENDMDL
MODEL      327
REMARK 921   NORMALIZED FREE ENERGY PREDICTED BY IDOCK:   -3.93 KCAL/MOL
REMARK 922        TOTAL FREE ENERGY PREDICTED BY IDOCK:   -6.56 KCAL/MOL
REMARK 923 INTER-LIGAND FREE ENERGY PREDICTED BY IDOCK:   -5.62 KCAL/MOL
REMARK 924 INTRA-LIGAND FREE ENERGY PREDICTED BY IDOCK:   -0.94 KCAL/MOL
REMARK 927      BINDING AFFINITY PREDICTED BY RF-SCORE:    0.00 PKD
ROOT
HETATM    1  O   UNL     1     -13.342  14.770  73.560  1.00  0.00    -0.496 OA 
HETATM    2  C   UNL     1     -13.068  14.378  72.428  1.00  0.00    -0.415 C  
HETATM    3  C   UNL     1     -12.768  15.328  71.292  1.00  0.00    -0.469 C  
HETATM    4  C   UNL     1     -11.766  14.753  70.298  1.00  0.00    -0.351 C  
HETATM    5  C   UNL     1     -12.066  13.321  69.943  1.00  0.00    -0.377 A  
HETATM    6  C   UNL     1     -12.741  12.519  70.872  1.00  0.00    -0.182 A  
HETATM    7  N   UNL     1     -13.144  13.053  72.100  1.00  0.00    -0.383 N  
HETATM    8  C   UNL     1     -12.971  11.174  70.602  1.00  0.00    -0.164 A  
HETATM    9  C   UNL     1     -12.516  10.616  69.401  1.00  0.00     0.063 A  
HETATM   10  H   UNL     1     -13.518  12.411  72.797  1.00  0.00     0.000 HD 
HETATM   11  C   UNL     1     -11.808  11.384  68.471  1.00  0.00    -0.294 A  
HETATM   12  C   UNL     1     -11.587  12.741  68.746  1.00  0.00    -0.353 A  
ENDROOT
BRANCH  11  13
HETATM   13  O   UNL     1     -11.390  10.687  67.361  1.00  0.00    -0.401 OA 
BRANCH  13  14
HETATM   14  C   UNL     1     -10.807  11.442  66.299  1.00  0.00    -0.263 C  
BRANCH  14  15
HETATM   15  C   UNL     1     -10.438  10.528  65.107  1.00  0.00    -0.225 C  
BRANCH  15  16
HETATM   16  C   UNL     1      -8.962  10.749  64.747  1.00  0.00    -0.194 C  
BRANCH  16  17
HETATM   17  C   UNL     1      -7.920  10.700  65.870  1.00  0.00    -0.157 C  
BRANCH  17  18
HETATM   18  C   UNL     1      -6.999   9.533  65.843  1.00  0.00    -0.091 A  
HETATM   19  N   UNL     1      -5.972   9.465  65.012  1.00  0.00    -0.063 NA 
HETATM   20  N   UNL     1      -5.293   8.323  65.308  1.00  0.00    -0.035 NA 
HETATM   21  N   UNL     1      -5.886   7.671  66.287  1.00  0.00    -0.036 NA 
HETATM   22  N   UNL     1      -6.928   8.439  66.684  1.00  0.00    -0.071 NA 
BRANCH  22  23
HETATM   23  C   UNL     1      -7.757   7.927  67.772  1.00  0.00    -0.121 C  
HETATM   24  C   UNL     1      -6.914   7.480  68.999  1.00  0.00    -0.073 C  
HETATM   25  C   UNL     1      -6.282   8.682  69.706  1.00  0.00    -0.035 C  
HETATM   26  C   UNL     1      -7.355   9.648  70.198  1.00  0.00    -0.141 C  
HETATM   27  C   UNL     1      -8.336  10.042  69.093  1.00  0.00    -0.146 C  
HETATM   28  C   UNL     1      -8.871   8.832  68.324  1.00  0.00    -0.141 C  
ENDBRANCH  22  23
ENDBRANCH  17  18
ENDBRANCH  16  17
ENDBRANCH  15  16
ENDBRANCH  14  15
ENDBRANCH  13  14
ENDBRANCH  11  13
TORSDOF 7
ENDMDL
MODEL      328
REMARK 921   NORMALIZED FREE ENERGY PREDICTED BY IDOCK:   -3.92 KCAL/MOL
REMARK 922        TOTAL FREE ENERGY PREDICTED BY IDOCK:   -6.54 KCAL/MOL
REMARK 923 INTER-LIGAND FREE ENERGY PREDICTED BY IDOCK:   -6.04 KCAL/MOL
REMARK 924 INTRA-LIGAND FREE ENERGY PREDICTED BY IDOCK:   -0.50 KCAL/MOL
REMARK 927      BINDING AFFINITY PREDICTED BY RF-SCORE:    0.00 PKD
ROOT
HETATM    1  O   UNL     1      -7.239   4.790  67.855  1.00  0.00    -0.064 OA 
HETATM    2  C   UNL     1      -7.224   5.724  67.056  1.00  0.00    -0.075 C  
HETATM    3  C   UNL     1      -6.138   5.886  66.019  1.00  0.00    -0.032 C  
HETATM    4  C   UNL     1      -6.644   6.540  64.739  1.00  0.00    -0.038 C  
HETATM    5  C   UNL     1      -7.526   7.729  65.010  1.00  0.00    -0.089 A  
HETATM    6  C   UNL     1      -8.247   7.778  66.211  1.00  0.00    -0.122 A  
HETATM    7  N   UNL     1      -8.129   6.745  67.145  1.00  0.00    -0.116 N  
HETATM    8  C   UNL     1      -9.123   8.830  66.460  1.00  0.00    -0.203 A  
HETATM    9  C   UNL     1      -9.294   9.837  65.503  1.00  0.00    -0.299 A  
HETATM   10  H   UNL     1      -8.760   6.753  67.945  1.00  0.00     0.000 HD 
HETATM   11  C   UNL     1      -8.614   9.795  64.281  1.00  0.00    -0.188 A  
HETATM   12  C   UNL     1      -7.727   8.737  64.040  1.00  0.00    -0.131 A  
ENDROOT
BRANCH  11  13
HETATM   13  O   UNL     1      -8.919  10.830  63.428  1.00  0.00    -0.193 OA 
BRANCH  13  14
HETATM   14  C   UNL     1     -10.296  11.028  63.110  1.00  0.00    -0.189 C  
BRANCH  14  15
HETATM   15  C   UNL     1     -10.710  12.502  63.334  1.00  0.00    -0.321 C  
BRANCH  15  16
HETATM   16  C   UNL     1     -11.894  12.545  64.310  1.00  0.00    -0.468 C  
BRANCH  16  17
HETATM   17  C   UNL     1     -11.804  13.469  65.530  1.00  0.00    -0.388 C  
BRANCH  17  18
HETATM   18  C   UNL     1     -11.390  12.818  66.801  1.00  0.00    -0.313 A  
HETATM   19  N   UNL     1     -11.997  11.741  67.273  1.00  0.00    -0.607 NA 
HETATM   20  N   UNL     1     -11.322  11.356  68.389  1.00  0.00    -0.254 NA 
HETATM   21  N   UNL     1     -10.323  12.180  68.634  1.00  0.00    -0.218 NA 
HETATM   22  N   UNL     1     -10.305  13.075  67.617  1.00  0.00    -0.220 NA 
BRANCH  22  23
HETATM   23  C   UNL     1      -9.275  14.110  67.659  1.00  0.00    -0.193 C  
HETATM   24  C   UNL     1      -9.537  15.246  66.631  1.00  0.00    -0.276 C  
HETATM   25  C   UNL     1     -10.755  16.084  67.028  1.00  0.00    -0.277 C  
HETATM   26  C   UNL     1     -10.551  16.724  68.397  1.00  0.00    -0.354 C  
HETATM   27  C   UNL     1     -10.145  15.706  69.463  1.00  0.00    -0.277 C  
HETATM   28  C   UNL     1      -8.997  14.803  69.004  1.00  0.00    -0.135 C  
ENDBRANCH  22  23
ENDBRANCH  17  18
ENDBRANCH  16  17
ENDBRANCH  15  16
ENDBRANCH  14  15
ENDBRANCH  13  14
ENDBRANCH  11  13
TORSDOF 7
ENDMDL
MODEL      329
REMARK 921   NORMALIZED FREE ENERGY PREDICTED BY IDOCK:   -3.91 KCAL/MOL
REMARK 922        TOTAL FREE ENERGY PREDICTED BY IDOCK:   -6.53 KCAL/MOL
REMARK 923 INTER-LIGAND FREE ENERGY PREDICTED BY IDOCK:   -4.91 KCAL/MOL
REMARK 924 INTRA-LIGAND FREE ENERGY PREDICTED BY IDOCK:   -1.62 KCAL/MOL
REMARK 927      BINDING AFFINITY PREDICTED BY RF-SCORE:    0.00 PKD
ROOT
HETATM    1  O   UNL     1      -9.868  10.485  62.498  1.00  0.00    -0.217 OA 
HETATM    2  C   UNL     1      -9.499  10.252  63.647  1.00  0.00    -0.299 C  
HETATM    3  C   UNL     1      -8.210   9.527  63.954  1.00  0.00    -0.161 C  
HETATM    4  C   UNL     1      -7.572   9.991  65.257  1.00  0.00    -0.137 C  
HETATM    5  C   UNL     1      -8.574  10.123  66.373  1.00  0.00    -0.137 A  
HETATM    6  C   UNL     1      -9.910  10.399  66.054  1.00  0.00    -0.232 A  
HETATM    7  N   UNL     1     -10.302  10.529  64.719  1.00  0.00    -0.305 N  
HETATM    8  C   UNL     1     -10.846  10.595  67.065  1.00  0.00    -0.298 A  
HETATM    9  C   UNL     1     -10.449  10.528  68.406  1.00  0.00    -0.212 A  
HETATM   10  H   UNL     1     -11.251  10.852  64.531  1.00  0.00     0.000 HD 
HETATM   11  C   UNL     1      -9.115  10.290  68.752  1.00  0.00    -0.159 A  
HETATM   12  C   UNL     1      -8.179  10.085  67.729  1.00  0.00    -0.113 A  
ENDROOT
BRANCH  11  13
HETATM   13  O   UNL     1      -8.872  10.296  70.106  1.00  0.00     0.000 OA 
BRANCH  13  14
HETATM   14  C   UNL     1      -7.721   9.586  70.564  1.00  0.00    -0.157 C  
BRANCH  14  15
HETATM   15  C   UNL     1      -8.129   8.293  71.311  1.00  0.00    -0.138 C  
BRANCH  15  16
HETATM   16  C   UNL     1      -9.566   8.447  71.827  1.00  0.00    -0.303 C  
BRANCH  16  17
HETATM   17  C   UNL     1     -10.670   7.601  71.182  1.00  0.00    -0.242 C  
BRANCH  17  18
HETATM   18  C   UNL     1     -10.361   6.155  71.023  1.00  0.00    -0.210 A  
HETATM   19  N   UNL     1     -10.220   5.346  72.060  1.00  0.00    -0.197 NA 
HETATM   20  N   UNL     1     -10.034   4.091  71.567  1.00  0.00    -0.176 NA 
HETATM   21  N   UNL     1     -10.036   4.105  70.250  1.00  0.00    -0.161 NA 
HETATM   22  N   UNL     1     -10.300   5.381  69.880  1.00  0.00    -0.285 NA 
BRANCH  22  23
HETATM   23  C   UNL     1     -10.354   5.662  68.448  1.00  0.00    -0.196 C  
HETATM   24  C   UNL     1      -9.483   6.887  68.052  1.00  0.00    -0.124 C  
HETATM   25  C   UNL     1      -7.991   6.576  68.192  1.00  0.00    -0.110 C  
HETATM   26  C   UNL     1      -7.593   5.406  67.299  1.00  0.00    -0.092 C  
HETATM   27  C   UNL     1      -8.488   4.184  67.506  1.00  0.00    -0.102 C  
HETATM   28  C   UNL     1      -9.978   4.534  67.472  1.00  0.00    -0.152 C  
ENDBRANCH  22  23
ENDBRANCH  17  18
ENDBRANCH  16  17
ENDBRANCH  15  16
ENDBRANCH  14  15
ENDBRANCH  13  14
ENDBRANCH  11  13
TORSDOF 7
ENDMDL
MODEL      330
REMARK 921   NORMALIZED FREE ENERGY PREDICTED BY IDOCK:   -3.91 KCAL/MOL
REMARK 922        TOTAL FREE ENERGY PREDICTED BY IDOCK:   -6.52 KCAL/MOL
REMARK 923 INTER-LIGAND FREE ENERGY PREDICTED BY IDOCK:   -6.22 KCAL/MOL
REMARK 924 INTRA-LIGAND FREE ENERGY PREDICTED BY IDOCK:   -0.31 KCAL/MOL
REMARK 927      BINDING AFFINITY PREDICTED BY RF-SCORE:    0.00 PKD
ROOT
HETATM    1  O   UNL     1     -10.174  19.257  67.817  1.00  0.00    -0.360 OA 
HETATM    2  C   UNL     1     -10.260  18.032  67.781  1.00  0.00    -0.378 C  
HETATM    3  C   UNL     1     -10.285  17.183  69.031  1.00  0.00    -0.315 C  
HETATM    4  C   UNL     1     -11.121  15.920  68.864  1.00  0.00    -0.316 C  
HETATM    5  C   UNL     1     -10.854  15.221  67.558  1.00  0.00    -0.304 A  
HETATM    6  C   UNL     1     -10.414  15.976  66.463  1.00  0.00    -0.302 A  
HETATM    7  N   UNL     1     -10.211  17.353  66.595  1.00  0.00    -0.316 N  
HETATM    8  C   UNL     1     -10.226  15.372  65.225  1.00  0.00    -0.390 A  
HETATM    9  C   UNL     1     -10.487  14.005  65.068  1.00  0.00    -0.440 A  
HETATM   10  H   UNL     1     -10.013  17.887  65.749  1.00  0.00     0.000 HD 
HETATM   11  C   UNL     1     -10.960  13.235  66.135  1.00  0.00    -0.279 A  
HETATM   12  C   UNL     1     -11.141  13.849  67.382  1.00  0.00    -0.313 A  
ENDROOT
BRANCH  11  13
HETATM   13  O   UNL     1     -11.211  11.920  65.817  1.00  0.00    -0.320 OA 
BRANCH  13  14
HETATM   14  C   UNL     1     -10.236  10.957  66.214  1.00  0.00    -0.247 C  
BRANCH  14  15
HETATM   15  C   UNL     1     -10.766  10.075  67.370  1.00  0.00    -0.336 C  
BRANCH  15  16
HETATM   16  C   UNL     1     -10.378   8.614  67.102  1.00  0.00    -0.369 C  
BRANCH  16  17
HETATM   17  C   UNL     1      -9.987   7.731  68.292  1.00  0.00    -0.201 C  
BRANCH  17  18
HETATM   18  C   UNL     1      -9.118   8.374  69.313  1.00  0.00    -0.150 A  
HETATM   19  N   UNL     1      -9.614   9.062  70.329  1.00  0.00    -0.185 NA 
HETATM   20  N   UNL     1      -8.565   9.433  71.112  1.00  0.00    -0.286 NA 
HETATM   21  N   UNL     1      -7.429   9.011  70.595  1.00  0.00    -0.096 NA 
HETATM   22  N   UNL     1      -7.751   8.289  69.495  1.00  0.00    -0.099 NA 
BRANCH  22  23
HETATM   23  C   UNL     1      -6.650   7.707  68.733  1.00  0.00    -0.049 C  
HETATM   24  C   UNL     1      -5.281   7.871  69.452  1.00  0.00    -0.026 C  
HETATM   25  C   UNL     1      -5.207   7.001  70.709  1.00  0.00    -0.023 C  
HETATM   26  C   UNL     1      -5.383   5.527  70.362  1.00  0.00    -0.005 C  
HETATM   27  C   UNL     1      -6.635   5.271  69.522  1.00  0.00    -0.043 C  
HETATM   28  C   UNL     1      -6.749   6.226  68.331  1.00  0.00    -0.068 C  
ENDBRANCH  22  23
ENDBRANCH  17  18
ENDBRANCH  16  17
ENDBRANCH  15  16
ENDBRANCH  14  15
ENDBRANCH  13  14
ENDBRANCH  11  13
TORSDOF 7
ENDMDL
MODEL      331
REMARK 921   NORMALIZED FREE ENERGY PREDICTED BY IDOCK:   -3.88 KCAL/MOL
REMARK 922        TOTAL FREE ENERGY PREDICTED BY IDOCK:   -6.48 KCAL/MOL
REMARK 923 INTER-LIGAND FREE ENERGY PREDICTED BY IDOCK:   -6.01 KCAL/MOL
REMARK 924 INTRA-LIGAND FREE ENERGY PREDICTED BY IDOCK:   -0.47 KCAL/MOL
REMARK 927      BINDING AFFINITY PREDICTED BY RF-SCORE:    0.00 PKD
ROOT
HETATM    1  O   UNL     1     -10.370  19.552  68.542  1.00  0.00    -0.419 OA 
HETATM    2  C   UNL     1     -10.053  18.485  68.022  1.00  0.00    -0.371 C  
HETATM    3  C   UNL     1      -8.841  17.698  68.462  1.00  0.00    -0.285 C  
HETATM    4  C   UNL     1      -9.031  16.194  68.307  1.00  0.00    -0.189 C  
HETATM    5  C   UNL     1      -9.655  15.826  66.987  1.00  0.00    -0.236 A  
HETATM    6  C   UNL     1     -10.486  16.754  66.348  1.00  0.00    -0.269 A  
HETATM    7  N   UNL     1     -10.713  18.008  66.924  1.00  0.00    -0.268 N  
HETATM    8  C   UNL     1     -11.132  16.418  65.163  1.00  0.00    -0.176 A  
HETATM    9  C   UNL     1     -10.960  15.143  64.612  1.00  0.00    -0.321 A  
HETATM   10  H   UNL     1     -11.419  18.606  66.496  1.00  0.00     0.000 HD 
HETATM   11  C   UNL     1     -10.164  14.184  65.247  1.00  0.00    -0.375 A  
HETATM   12  C   UNL     1      -9.510  14.532  66.437  1.00  0.00    -0.316 A  
ENDROOT
BRANCH  11  13
HETATM   13  O   UNL     1     -10.126  12.966  64.608  1.00  0.00    -0.298 OA 
BRANCH  13  14
HETATM   14  C   UNL     1      -9.763  11.831  65.394  1.00  0.00    -0.217 C  
BRANCH  14  15
HETATM   15  C   UNL     1     -10.911  11.429  66.350  1.00  0.00    -0.315 C  
BRANCH  15  16
HETATM   16  C   UNL     1     -10.483  10.193  67.153  1.00  0.00    -0.305 C  
BRANCH  16  17
HETATM   17  C   UNL     1      -9.572   9.161  66.476  1.00  0.00    -0.289 C  
BRANCH  17  18
HETATM   18  C   UNL     1      -8.292   8.877  67.175  1.00  0.00    -0.103 A  
HETATM   19  N   UNL     1      -7.612   9.817  67.812  1.00  0.00    -0.090 NA 
HETATM   20  N   UNL     1      -6.550   9.209  68.409  1.00  0.00    -0.058 NA 
HETATM   21  N   UNL     1      -6.543   7.919  68.140  1.00  0.00    -0.058 NA 
HETATM   22  N   UNL     1      -7.661   7.671  67.416  1.00  0.00    -0.106 NA 
BRANCH  22  23
HETATM   23  C   UNL     1      -7.884   6.293  66.986  1.00  0.00    -0.104 C  
HETATM   24  C   UNL     1      -7.667   5.272  68.137  1.00  0.00    -0.084 C  
HETATM   25  C   UNL     1      -8.765   5.388  69.197  1.00  0.00    -0.104 C  
HETATM   26  C   UNL     1     -10.138   5.126  68.588  1.00  0.00    -0.220 C  
HETATM   27  C   UNL     1     -10.400   5.984  67.350  1.00  0.00    -0.268 C  
HETATM   28  C   UNL     1      -9.240   5.942  66.351  1.00  0.00    -0.160 C  
ENDBRANCH  22  23
ENDBRANCH  17  18
ENDBRANCH  16  17
ENDBRANCH  15  16
ENDBRANCH  14  15
ENDBRANCH  13  14
ENDBRANCH  11  13
TORSDOF 7
ENDMDL
MODEL      332
REMARK 921   NORMALIZED FREE ENERGY PREDICTED BY IDOCK:   -3.88 KCAL/MOL
REMARK 922        TOTAL FREE ENERGY PREDICTED BY IDOCK:   -6.48 KCAL/MOL
REMARK 923 INTER-LIGAND FREE ENERGY PREDICTED BY IDOCK:   -5.45 KCAL/MOL
REMARK 924 INTRA-LIGAND FREE ENERGY PREDICTED BY IDOCK:   -1.03 KCAL/MOL
REMARK 927      BINDING AFFINITY PREDICTED BY RF-SCORE:    0.00 PKD
ROOT
HETATM    1  O   UNL     1     -13.282  11.804  62.964  1.00  0.00    -0.474 OA 
HETATM    2  C   UNL     1     -12.238  11.882  63.608  1.00  0.00    -0.479 C  
HETATM    3  C   UNL     1     -11.984  12.984  64.610  1.00  0.00    -0.445 C  
HETATM    4  C   UNL     1     -11.111  12.528  65.773  1.00  0.00    -0.343 C  
HETATM    5  C   UNL     1      -9.926  11.718  65.319  1.00  0.00    -0.284 A  
HETATM    6  C   UNL     1     -10.019  10.993  64.124  1.00  0.00    -0.329 A  
HETATM    7  N   UNL     1     -11.189  11.041  63.362  1.00  0.00    -0.609 N  
HETATM    8  C   UNL     1      -8.967  10.180  63.714  1.00  0.00    -0.270 A  
HETATM    9  C   UNL     1      -7.815  10.078  64.503  1.00  0.00    -0.145 A  
HETATM   10  H   UNL     1     -11.266  10.405  62.568  1.00  0.00     0.000 HD 
HETATM   11  C   UNL     1      -7.710  10.763  65.718  1.00  0.00    -0.094 A  
HETATM   12  C   UNL     1      -8.770  11.586  66.121  1.00  0.00    -0.131 A  
ENDROOT
BRANCH  11  13
HETATM   13  O   UNL     1      -6.538  10.529  66.400  1.00  0.00    -0.090 OA 
BRANCH  13  14
HETATM   14  C   UNL     1      -6.212   9.169  66.684  1.00  0.00    -0.065 C  
BRANCH  14  15
HETATM   15  C   UNL     1      -7.158   8.585  67.761  1.00  0.00    -0.083 C  
BRANCH  15  16
HETATM   16  C   UNL     1      -6.318   7.866  68.826  1.00  0.00    -0.044 C  
BRANCH  16  17
HETATM   17  C   UNL     1      -7.042   7.023  69.882  1.00  0.00    -0.070 C  
BRANCH  17  18
HETATM   18  C   UNL     1      -8.526   7.010  69.788  1.00  0.00    -0.137 A  
HETATM   19  N   UNL     1      -9.270   8.009  70.234  1.00  0.00    -0.154 NA 
HETATM   20  N   UNL     1     -10.561   7.721  69.916  1.00  0.00    -0.236 NA 
HETATM   21  N   UNL     1     -10.639   6.557  69.302  1.00  0.00    -0.224 NA 
HETATM   22  N   UNL     1      -9.367   6.116  69.154  1.00  0.00    -0.126 NA 
BRANCH  22  23
HETATM   23  C   UNL     1      -9.182   4.826  68.495  1.00  0.00    -0.124 C  
HETATM   24  C   UNL     1     -10.242   4.570  67.387  1.00  0.00    -0.047 C  
HETATM   25  C   UNL     1     -10.029   5.499  66.190  1.00  0.00    -0.133 C  
HETATM   26  C   UNL     1      -8.648   5.289  65.578  1.00  0.00    -0.146 C  
HETATM   27  C   UNL     1      -7.530   5.376  66.617  1.00  0.00    -0.087 C  
HETATM   28  C   UNL     1      -7.815   4.525  67.858  1.00  0.00    -0.081 C  
ENDBRANCH  22  23
ENDBRANCH  17  18
ENDBRANCH  16  17
ENDBRANCH  15  16
ENDBRANCH  14  15
ENDBRANCH  13  14
ENDBRANCH  11  13
TORSDOF 7
ENDMDL
MODEL      333
REMARK 921   NORMALIZED FREE ENERGY PREDICTED BY IDOCK:   -3.88 KCAL/MOL
REMARK 922        TOTAL FREE ENERGY PREDICTED BY IDOCK:   -6.48 KCAL/MOL
REMARK 923 INTER-LIGAND FREE ENERGY PREDICTED BY IDOCK:   -6.37 KCAL/MOL
REMARK 924 INTRA-LIGAND FREE ENERGY PREDICTED BY IDOCK:   -0.10 KCAL/MOL
REMARK 927      BINDING AFFINITY PREDICTED BY RF-SCORE:    0.00 PKD
ROOT
HETATM    1  O   UNL     1     -10.304  19.536  66.780  1.00  0.00    -0.393 OA 
HETATM    2  C   UNL     1     -10.390  18.338  67.043  1.00  0.00    -0.389 C  
HETATM    3  C   UNL     1     -10.289  17.809  68.455  1.00  0.00    -0.378 C  
HETATM    4  C   UNL     1     -11.134  16.560  68.674  1.00  0.00    -0.329 C  
HETATM    5  C   UNL     1     -10.996  15.568  67.551  1.00  0.00    -0.316 A  
HETATM    6  C   UNL     1     -10.668  16.034  66.271  1.00  0.00    -0.234 A  
HETATM    7  N   UNL     1     -10.456  17.398  66.053  1.00  0.00    -0.334 N  
HETATM    8  C   UNL     1     -10.601  15.150  65.199  1.00  0.00    -0.447 A  
HETATM    9  C   UNL     1     -10.873  13.791  65.397  1.00  0.00    -0.312 A  
HETATM   10  H   UNL     1     -10.343  17.713  65.090  1.00  0.00     0.000 HD 
HETATM   11  C   UNL     1     -11.237  13.304  66.656  1.00  0.00    -0.306 A  
HETATM   12  C   UNL     1     -11.295  14.199  67.734  1.00  0.00    -0.330 A  
ENDROOT
BRANCH  11  13
HETATM   13  O   UNL     1     -11.515  11.957  66.684  1.00  0.00    -0.365 OA 
BRANCH  13  14
HETATM   14  C   UNL     1     -11.565  11.329  67.965  1.00  0.00    -0.272 C  
BRANCH  14  15
HETATM   15  C   UNL     1     -10.150  10.908  68.431  1.00  0.00    -0.196 C  
BRANCH  15  16
HETATM   16  C   UNL     1      -9.865   9.483  67.935  1.00  0.00    -0.186 C  
BRANCH  16  17
HETATM   17  C   UNL     1     -10.123   9.157  66.459  1.00  0.00    -0.357 C  
BRANCH  17  18
HETATM   18  C   UNL     1      -9.074   8.348  65.786  1.00  0.00    -0.139 A  
HETATM   19  N   UNL     1      -8.034   8.902  65.183  1.00  0.00    -0.116 NA 
HETATM   20  N   UNL     1      -7.232   7.890  64.756  1.00  0.00    -0.071 NA 
HETATM   21  N   UNL     1      -7.759   6.721  65.060  1.00  0.00    -0.101 NA 
HETATM   22  N   UNL     1      -8.888   6.980  65.762  1.00  0.00    -0.112 NA 
BRANCH  22  23
HETATM   23  C   UNL     1      -9.666   5.831  66.219  1.00  0.00    -0.117 C  
HETATM   24  C   UNL     1      -9.200   4.502  65.561  1.00  0.00    -0.152 C  
HETATM   25  C   UNL     1      -7.816   4.087  66.067  1.00  0.00    -0.090 C  
HETATM   26  C   UNL     1      -7.828   3.887  67.579  1.00  0.00    -0.086 C  
HETATM   27  C   UNL     1      -8.408   5.090  68.322  1.00  0.00    -0.095 C  
HETATM   28  C   UNL     1      -9.740   5.560  67.731  1.00  0.00    -0.150 C  
ENDBRANCH  22  23
ENDBRANCH  17  18
ENDBRANCH  16  17
ENDBRANCH  15  16
ENDBRANCH  14  15
ENDBRANCH  13  14
ENDBRANCH  11  13
TORSDOF 7
ENDMDL
MODEL      334
REMARK 921   NORMALIZED FREE ENERGY PREDICTED BY IDOCK:   -3.86 KCAL/MOL
REMARK 922        TOTAL FREE ENERGY PREDICTED BY IDOCK:   -6.46 KCAL/MOL
REMARK 923 INTER-LIGAND FREE ENERGY PREDICTED BY IDOCK:   -5.26 KCAL/MOL
REMARK 924 INTRA-LIGAND FREE ENERGY PREDICTED BY IDOCK:   -1.20 KCAL/MOL
REMARK 927      BINDING AFFINITY PREDICTED BY RF-SCORE:    0.00 PKD
ROOT
HETATM    1  O   UNL     1     -10.909  13.466  66.125  1.00  0.00    -0.279 OA 
HETATM    2  C   UNL     1     -10.593  12.313  66.412  1.00  0.00    -0.242 C  
HETATM    3  C   UNL     1     -11.076  11.629  67.669  1.00  0.00    -0.314 C  
HETATM    4  C   UNL     1     -11.250  10.126  67.489  1.00  0.00    -0.123 C  
HETATM    5  C   UNL     1     -10.094   9.497  66.758  1.00  0.00    -0.312 A  
HETATM    6  C   UNL     1      -9.355  10.277  65.861  1.00  0.00    -0.180 A  
HETATM    7  N   UNL     1      -9.679  11.623  65.665  1.00  0.00    -0.233 N  
HETATM    8  C   UNL     1      -8.325   9.706  65.119  1.00  0.00    -0.142 A  
HETATM    9  C   UNL     1      -8.034   8.344  65.262  1.00  0.00    -0.125 A  
HETATM   10  H   UNL     1      -9.202  12.123  64.916  1.00  0.00     0.000 HD 
HETATM   11  C   UNL     1      -8.779   7.534  66.125  1.00  0.00    -0.156 A  
HETATM   12  C   UNL     1      -9.810   8.118  66.875  1.00  0.00    -0.316 A  
ENDROOT
BRANCH  11  13
HETATM   13  O   UNL     1      -8.402   6.211  66.126  1.00  0.00    -0.117 OA 
BRANCH  13  14
HETATM   14  C   UNL     1      -7.098   5.906  66.620  1.00  0.00    -0.069 C  
BRANCH  14  15
HETATM   15  C   UNL     1      -6.948   6.346  68.095  1.00  0.00    -0.080 C  
BRANCH  15  16
HETATM   16  C   UNL     1      -7.467   5.223  69.006  1.00  0.00    -0.070 C  
BRANCH  16  17
HETATM   17  C   UNL     1      -7.485   5.459  70.520  1.00  0.00    -0.072 C  
BRANCH  17  18
HETATM   18  C   UNL     1      -8.618   4.838  71.255  1.00  0.00    -0.118 A  
HETATM   19  N   UNL     1      -8.443   3.850  72.118  1.00  0.00    -0.098 NA 
HETATM   20  N   UNL     1      -9.656   3.581  72.671  1.00  0.00    -0.127 NA 
HETATM   21  N   UNL     1     -10.584   4.362  72.157  1.00  0.00    -0.094 NA 
HETATM   22  N   UNL     1      -9.949   5.205  71.308  1.00  0.00    -0.184 NA 
BRANCH  22  23
HETATM   23  C   UNL     1     -10.771   6.183  70.600  1.00  0.00    -0.275 C  
HETATM   24  C   UNL     1     -12.028   6.599  71.415  1.00  0.00    -0.405 C  
HETATM   25  C   UNL     1     -11.644   7.431  72.641  1.00  0.00    -0.295 C  
HETATM   26  C   UNL     1     -10.908   8.701  72.228  1.00  0.00    -0.392 C  
HETATM   27  C   UNL     1      -9.729   8.416  71.297  1.00  0.00    -0.245 C  
HETATM   28  C   UNL     1     -10.107   7.490  70.137  1.00  0.00    -0.195 C  
ENDBRANCH  22  23
ENDBRANCH  17  18
ENDBRANCH  16  17
ENDBRANCH  15  16
ENDBRANCH  14  15
ENDBRANCH  13  14
ENDBRANCH  11  13
TORSDOF 7
ENDMDL
MODEL      335
REMARK 921   NORMALIZED FREE ENERGY PREDICTED BY IDOCK:   -3.85 KCAL/MOL
REMARK 922        TOTAL FREE ENERGY PREDICTED BY IDOCK:   -6.45 KCAL/MOL
REMARK 923 INTER-LIGAND FREE ENERGY PREDICTED BY IDOCK:   -5.76 KCAL/MOL
REMARK 924 INTRA-LIGAND FREE ENERGY PREDICTED BY IDOCK:   -0.69 KCAL/MOL
REMARK 927      BINDING AFFINITY PREDICTED BY RF-SCORE:    0.00 PKD
ROOT
HETATM    1  O   UNL     1     -12.924  15.189  63.708  1.00  0.00    -0.474 OA 
HETATM    2  C   UNL     1     -12.183  14.470  64.374  1.00  0.00    -0.458 C  
HETATM    3  C   UNL     1     -11.758  14.824  65.779  1.00  0.00    -0.252 C  
HETATM    4  C   UNL     1     -11.543  13.594  66.654  1.00  0.00    -0.391 C  
HETATM    5  C   UNL     1     -10.768  12.514  65.947  1.00  0.00    -0.294 A  
HETATM    6  C   UNL     1     -10.835  12.437  64.550  1.00  0.00    -0.321 A  
HETATM    7  N   UNL     1     -11.595  13.362  63.829  1.00  0.00    -0.631 N  
HETATM    8  C   UNL     1     -10.186  11.409  63.873  1.00  0.00    -0.415 A  
HETATM    9  C   UNL     1      -9.473  10.441  64.592  1.00  0.00    -0.336 A  
HETATM   10  H   UNL     1     -11.721  13.199  62.831  1.00  0.00     0.000 HD 
HETATM   11  C   UNL     1      -9.419  10.475  65.989  1.00  0.00    -0.183 A  
HETATM   12  C   UNL     1     -10.069  11.518  66.663  1.00  0.00    -0.242 A  
ENDROOT
BRANCH  11  13
HETATM   13  O   UNL     1      -8.718   9.434  66.554  1.00  0.00    -0.131 OA 
BRANCH  13  14
HETATM   14  C   UNL     1      -8.876   9.229  67.957  1.00  0.00    -0.128 C  
BRANCH  14  15
HETATM   15  C   UNL     1      -7.610   9.674  68.728  1.00  0.00    -0.076 C  
BRANCH  15  16
HETATM   16  C   UNL     1      -6.619   8.502  68.777  1.00  0.00    -0.054 C  
BRANCH  16  17
HETATM   17  C   UNL     1      -6.394   7.790  70.116  1.00  0.00    -0.033 C  
BRANCH  17  18
HETATM   18  C   UNL     1      -7.620   7.294  70.795  1.00  0.00    -0.084 A  
HETATM   19  N   UNL     1      -8.076   7.837  71.913  1.00  0.00    -0.099 NA 
HETATM   20  N   UNL     1      -9.247   7.213  72.213  1.00  0.00    -0.132 NA 
HETATM   21  N   UNL     1      -9.517   6.281  71.322  1.00  0.00    -0.160 NA 
HETATM   22  N   UNL     1      -8.542   6.351  70.384  1.00  0.00    -0.141 NA 
BRANCH  22  23
HETATM   23  C   UNL     1      -8.616   5.406  69.273  1.00  0.00    -0.102 C  
HETATM   24  C   UNL     1      -7.270   4.668  69.034  1.00  0.00    -0.053 C  
HETATM   25  C   UNL     1      -6.959   3.695  70.174  1.00  0.00    -0.038 C  
HETATM   26  C   UNL     1      -8.056   2.644  70.305  1.00  0.00    -0.056 C  
HETATM   27  C   UNL     1      -9.450   3.264  70.402  1.00  0.00    -0.235 C  
HETATM   28  C   UNL     1      -9.701   4.317  69.319  1.00  0.00    -0.240 C  
ENDBRANCH  22  23
ENDBRANCH  17  18
ENDBRANCH  16  17
ENDBRANCH  15  16
ENDBRANCH  14  15
ENDBRANCH  13  14
ENDBRANCH  11  13
TORSDOF 7
ENDMDL
MODEL      336
REMARK 921   NORMALIZED FREE ENERGY PREDICTED BY IDOCK:   -3.83 KCAL/MOL
REMARK 922        TOTAL FREE ENERGY PREDICTED BY IDOCK:   -6.41 KCAL/MOL
REMARK 923 INTER-LIGAND FREE ENERGY PREDICTED BY IDOCK:   -5.91 KCAL/MOL
REMARK 924 INTRA-LIGAND FREE ENERGY PREDICTED BY IDOCK:   -0.49 KCAL/MOL
REMARK 927      BINDING AFFINITY PREDICTED BY RF-SCORE:    0.00 PKD
ROOT
HETATM    1  O   UNL     1     -12.458  15.970  63.928  1.00  0.00    -0.806 OA 
HETATM    2  C   UNL     1     -11.836  15.013  64.384  1.00  0.00    -0.339 C  
HETATM    3  C   UNL     1     -11.146  15.060  65.727  1.00  0.00    -0.346 C  
HETATM    4  C   UNL     1     -11.127  13.705  66.424  1.00  0.00    -0.307 C  
HETATM    5  C   UNL     1     -10.753  12.584  65.492  1.00  0.00    -0.303 A  
HETATM    6  C   UNL     1     -11.029  12.718  64.125  1.00  0.00    -0.398 A  
HETATM    7  N   UNL     1     -11.626  13.885  63.640  1.00  0.00    -0.576 N  
HETATM    8  C   UNL     1     -10.758  11.672  63.249  1.00  0.00    -0.404 A  
HETATM    9  C   UNL     1     -10.218  10.476  63.736  1.00  0.00    -0.155 A  
HETATM   10  H   UNL     1     -11.924  13.896  62.665  1.00  0.00     0.000 HD 
HETATM   11  C   UNL     1      -9.965  10.302  65.101  1.00  0.00    -0.325 A  
HETATM   12  C   UNL     1     -10.233  11.363  65.976  1.00  0.00    -0.289 A  
ENDROOT
BRANCH  11  13
HETATM   13  O   UNL     1      -9.476   9.059  65.431  1.00  0.00    -0.211 OA 
BRANCH  13  14
HETATM   14  C   UNL     1      -9.501   8.697  66.812  1.00  0.00    -0.191 C  
BRANCH  14  15
HETATM   15  C   UNL     1      -8.760   7.358  67.047  1.00  0.00    -0.123 C  
BRANCH  15  16
HETATM   16  C   UNL     1      -9.763   6.203  66.914  1.00  0.00    -0.178 C  
BRANCH  16  17
HETATM   17  C   UNL     1      -9.831   5.160  68.035  1.00  0.00    -0.199 C  
BRANCH  17  18
HETATM   18  C   UNL     1      -8.611   4.331  68.216  1.00  0.00    -0.095 A  
HETATM   19  N   UNL     1      -8.392   3.234  67.509  1.00  0.00    -0.085 NA 
HETATM   20  N   UNL     1      -7.160   2.772  67.855  1.00  0.00    -0.049 NA 
HETATM   21  N   UNL     1      -6.618   3.543  68.776  1.00  0.00    -0.040 NA 
HETATM   22  N   UNL     1      -7.483   4.566  68.978  1.00  0.00    -0.056 NA 
BRANCH  22  23
HETATM   23  C   UNL     1      -7.106   5.570  69.970  1.00  0.00    -0.066 C  
HETATM   24  C   UNL     1      -8.289   5.955  70.901  1.00  0.00    -0.126 C  
HETATM   25  C   UNL     1      -8.657   4.801  71.837  1.00  0.00    -0.128 C  
HETATM   26  C   UNL     1      -7.472   4.415  72.716  1.00  0.00    -0.080 C  
HETATM   27  C   UNL     1      -6.204   4.154  71.903  1.00  0.00    -0.017 C  
HETATM   28  C   UNL     1      -5.914   5.268  70.893  1.00  0.00    -0.021 C  
ENDBRANCH  22  23
ENDBRANCH  17  18
ENDBRANCH  16  17
ENDBRANCH  15  16
ENDBRANCH  14  15
ENDBRANCH  13  14
ENDBRANCH  11  13
TORSDOF 7
ENDMDL
MODEL      337
REMARK 921   NORMALIZED FREE ENERGY PREDICTED BY IDOCK:   -3.79 KCAL/MOL
REMARK 922        TOTAL FREE ENERGY PREDICTED BY IDOCK:   -6.35 KCAL/MOL
REMARK 923 INTER-LIGAND FREE ENERGY PREDICTED BY IDOCK:   -5.14 KCAL/MOL
REMARK 924 INTRA-LIGAND FREE ENERGY PREDICTED BY IDOCK:   -1.21 KCAL/MOL
REMARK 927      BINDING AFFINITY PREDICTED BY RF-SCORE:    0.00 PKD
ROOT
HETATM    1  O   UNL     1      -5.403   8.802  73.651  1.00  0.00    -0.082 OA 
HETATM    2  C   UNL     1      -6.104   8.285  72.783  1.00  0.00    -0.073 C  
HETATM    3  C   UNL     1      -5.613   7.151  71.914  1.00  0.00    -0.037 C  
HETATM    4  C   UNL     1      -6.730   6.196  71.511  1.00  0.00    -0.056 C  
HETATM    5  C   UNL     1      -7.973   6.920  71.068  1.00  0.00    -0.102 A  
HETATM    6  C   UNL     1      -8.230   8.200  71.578  1.00  0.00    -0.125 A  
HETATM    7  N   UNL     1      -7.332   8.795  72.468  1.00  0.00     0.062 N  
HETATM    8  C   UNL     1      -9.405   8.865  71.242  1.00  0.00    -0.336 A  
HETATM    9  C   UNL     1     -10.339   8.250  70.399  1.00  0.00    -0.214 A  
HETATM   10  H   UNL     1      -7.613   9.669  72.913  1.00  0.00     0.000 HD 
HETATM   11  C   UNL     1     -10.124   6.960  69.905  1.00  0.00    -0.188 A  
HETATM   12  C   UNL     1      -8.935   6.298  70.241  1.00  0.00    -0.154 A  
ENDROOT
BRANCH  11  13
HETATM   13  O   UNL     1     -11.150   6.474  69.127  1.00  0.00    -0.305 OA 
BRANCH  13  14
HETATM   14  C   UNL     1     -10.860   6.219  67.753  1.00  0.00    -0.338 C  
BRANCH  14  15
HETATM   15  C   UNL     1     -10.729   7.542  66.960  1.00  0.00    -0.367 C  
BRANCH  15  16
HETATM   16  C   UNL     1      -9.287   7.675  66.448  1.00  0.00    -0.228 C  
BRANCH  16  17
HETATM   17  C   UNL     1      -8.903   8.935  65.664  1.00  0.00    -0.230 C  
BRANCH  17  18
HETATM   18  C   UNL     1      -8.275  10.022  66.461  1.00  0.00    -0.119 A  
HETATM   19  N   UNL     1      -7.119   9.860  67.086  1.00  0.00    -0.085 NA 
HETATM   20  N   UNL     1      -6.791  11.060  67.637  1.00  0.00    -0.079 NA 
HETATM   21  N   UNL     1      -7.724  11.956  67.389  1.00  0.00    -0.149 NA 
HETATM   22  N   UNL     1      -8.641  11.347  66.599  1.00  0.00    -0.166 NA 
BRANCH  22  23
HETATM   23  C   UNL     1      -9.793  12.141  66.181  1.00  0.00    -0.237 C  
HETATM   24  C   UNL     1     -11.143  11.457  66.534  1.00  0.00    -0.312 C  
HETATM   25  C   UNL     1     -11.380  11.445  68.046  1.00  0.00    -0.372 C  
HETATM   26  C   UNL     1     -11.410  12.864  68.604  1.00  0.00    -0.327 C  
HETATM   27  C   UNL     1     -10.185  13.679  68.190  1.00  0.00    -0.247 C  
HETATM   28  C   UNL     1      -9.899  13.589  66.689  1.00  0.00    -0.279 C  
ENDBRANCH  22  23
ENDBRANCH  17  18
ENDBRANCH  16  17
ENDBRANCH  15  16
ENDBRANCH  14  15
ENDBRANCH  13  14
ENDBRANCH  11  13
TORSDOF 7
ENDMDL
MODEL      338
REMARK 921   NORMALIZED FREE ENERGY PREDICTED BY IDOCK:   -3.78 KCAL/MOL
REMARK 922        TOTAL FREE ENERGY PREDICTED BY IDOCK:   -6.34 KCAL/MOL
REMARK 923 INTER-LIGAND FREE ENERGY PREDICTED BY IDOCK:   -5.44 KCAL/MOL
REMARK 924 INTRA-LIGAND FREE ENERGY PREDICTED BY IDOCK:   -0.90 KCAL/MOL
REMARK 927      BINDING AFFINITY PREDICTED BY RF-SCORE:    0.00 PKD
ROOT
HETATM    1  O   UNL     1     -13.883  16.018  73.548  1.00  0.00    -0.420 OA 
HETATM    2  C   UNL     1     -13.534  15.252  72.652  1.00  0.00    -0.507 C  
HETATM    3  C   UNL     1     -13.489  15.670  71.201  1.00  0.00    -0.373 C  
HETATM    4  C   UNL     1     -12.389  14.959  70.422  1.00  0.00    -0.401 C  
HETATM    5  C   UNL     1     -12.332  13.485  70.721  1.00  0.00    -0.440 A  
HETATM    6  C   UNL     1     -12.780  13.029  71.967  1.00  0.00    -0.062 A  
HETATM    7  N   UNL     1     -13.287  13.932  72.906  1.00  0.00    -0.459 N  
HETATM    8  C   UNL     1     -12.677  11.682  72.299  1.00  0.00     0.411 A  
HETATM    9  C   UNL     1     -12.113  10.780  71.389  1.00  0.00    -0.297 A  
HETATM   10  H   UNL     1     -13.485  13.583  73.843  1.00  0.00     0.000 HD 
HETATM   11  C   UNL     1     -11.626  11.213  70.152  1.00  0.00    -0.323 A  
HETATM   12  C   UNL     1     -11.740  12.571  69.821  1.00  0.00    -0.355 A  
ENDROOT
BRANCH  11  13
HETATM   13  O   UNL     1     -11.062  10.219  69.386  1.00  0.00    -0.228 OA 
BRANCH  13  14
HETATM   14  C   UNL     1     -10.286  10.628  68.260  1.00  0.00    -0.166 C  
BRANCH  14  15
HETATM   15  C   UNL     1     -10.256   9.522  67.177  1.00  0.00    -0.305 C  
BRANCH  15  16
HETATM   16  C   UNL     1      -8.799   9.264  66.768  1.00  0.00    -0.142 C  
BRANCH  16  17
HETATM   17  C   UNL     1      -7.875   8.553  67.763  1.00  0.00    -0.103 C  
BRANCH  17  18
HETATM   18  C   UNL     1      -8.543   7.616  68.705  1.00  0.00    -0.129 A  
HETATM   19  N   UNL     1      -8.958   6.416  68.330  1.00  0.00    -0.121 NA 
HETATM   20  N   UNL     1      -9.436   5.792  69.441  1.00  0.00    -0.128 NA 
HETATM   21  N   UNL     1      -9.347   6.583  70.491  1.00  0.00    -0.162 NA 
HETATM   22  N   UNL     1      -8.733   7.714  70.069  1.00  0.00    -0.141 NA 
BRANCH  22  23
HETATM   23  C   UNL     1      -8.516   8.764  71.062  1.00  0.00    -0.179 C  
HETATM   24  C   UNL     1      -8.451   8.205  72.510  1.00  0.00    -0.244 C  
HETATM   25  C   UNL     1      -7.179   7.382  72.731  1.00  0.00    -0.074 C  
HETATM   26  C   UNL     1      -5.934   8.231  72.497  1.00  0.00    -0.060 C  
HETATM   27  C   UNL     1      -5.963   8.949  71.148  1.00  0.00    -0.050 C  
HETATM   28  C   UNL     1      -7.288   9.675  70.897  1.00  0.00     0.016 C  
ENDBRANCH  22  23
ENDBRANCH  17  18
ENDBRANCH  16  17
ENDBRANCH  15  16
ENDBRANCH  14  15
ENDBRANCH  13  14
ENDBRANCH  11  13
TORSDOF 7
ENDMDL
MODEL      339
REMARK 921   NORMALIZED FREE ENERGY PREDICTED BY IDOCK:   -3.78 KCAL/MOL
REMARK 922        TOTAL FREE ENERGY PREDICTED BY IDOCK:   -6.34 KCAL/MOL
REMARK 923 INTER-LIGAND FREE ENERGY PREDICTED BY IDOCK:   -5.14 KCAL/MOL
REMARK 924 INTRA-LIGAND FREE ENERGY PREDICTED BY IDOCK:   -1.19 KCAL/MOL
REMARK 927      BINDING AFFINITY PREDICTED BY RF-SCORE:    0.00 PKD
ROOT
HETATM    1  O   UNL     1      -8.930   4.950  72.329  1.00  0.00    -0.128 OA 
HETATM    2  C   UNL     1      -8.632   5.935  71.657  1.00  0.00    -0.132 C  
HETATM    3  C   UNL     1      -8.986   7.342  72.079  1.00  0.00    -0.143 C  
HETATM    4  C   UNL     1      -7.958   8.368  71.620  1.00  0.00    -0.169 C  
HETATM    5  C   UNL     1      -7.536   8.159  70.190  1.00  0.00    -0.061 A  
HETATM    6  C   UNL     1      -7.602   6.871  69.645  1.00  0.00    -0.101 A  
HETATM    7  N   UNL     1      -8.069   5.804  70.418  1.00  0.00    -0.104 N  
HETATM    8  C   UNL     1      -7.154   6.634  68.350  1.00  0.00    -0.083 A  
HETATM    9  C   UNL     1      -6.626   7.685  67.590  1.00  0.00    -0.062 A  
HETATM   10  H   UNL     1      -7.985   4.864  70.031  1.00  0.00     0.000 HD 
HETATM   11  C   UNL     1      -6.517   8.974  68.121  1.00  0.00    -0.060 A  
HETATM   12  C   UNL     1      -6.976   9.207  69.425  1.00  0.00    -0.052 A  
ENDROOT
BRANCH  11  13
HETATM   13  O   UNL     1      -5.939   9.889  67.271  1.00  0.00    -0.050 OA 
BRANCH  13  14
HETATM   14  C   UNL     1      -6.001   9.608  65.873  1.00  0.00    -0.059 C  
BRANCH  14  15
HETATM   15  C   UNL     1      -7.180  10.358  65.209  1.00  0.00    -0.106 C  
BRANCH  15  16
HETATM   16  C   UNL     1      -8.230   9.334  64.755  1.00  0.00    -0.149 C  
BRANCH  16  17
HETATM   17  C   UNL     1      -9.712   9.665  64.965  1.00  0.00    -0.234 C  
BRANCH  17  18
HETATM   18  C   UNL     1     -10.082  10.123  66.330  1.00  0.00    -0.236 A  
HETATM   19  N   UNL     1     -10.335   9.275  67.314  1.00  0.00    -0.250 NA 
HETATM   20  N   UNL     1     -10.550  10.015  68.436  1.00  0.00    -0.208 NA 
HETATM   21  N   UNL     1     -10.457  11.302  68.167  1.00  0.00    -0.182 NA 
HETATM   22  N   UNL     1     -10.104  11.397  66.863  1.00  0.00    -0.209 NA 
BRANCH  22  23
HETATM   23  C   UNL     1      -9.938  12.741  66.314  1.00  0.00    -0.264 C  
HETATM   24  C   UNL     1     -10.533  12.874  64.885  1.00  0.00    -0.351 C  
HETATM   25  C   UNL     1     -12.061  12.799  64.910  1.00  0.00    -0.490 C  
HETATM   26  C   UNL     1     -12.647  13.914  65.770  1.00  0.00    -0.533 C  
HETATM   27  C   UNL     1     -12.020  13.965  67.164  1.00  0.00    -0.455 C  
HETATM   28  C   UNL     1     -10.490  13.928  67.122  1.00  0.00    -0.269 C  
ENDBRANCH  22  23
ENDBRANCH  17  18
ENDBRANCH  16  17
ENDBRANCH  15  16
ENDBRANCH  14  15
ENDBRANCH  13  14
ENDBRANCH  11  13
TORSDOF 7
ENDMDL
MODEL      340
REMARK 921   NORMALIZED FREE ENERGY PREDICTED BY IDOCK:   -3.77 KCAL/MOL
REMARK 922        TOTAL FREE ENERGY PREDICTED BY IDOCK:   -6.33 KCAL/MOL
REMARK 923 INTER-LIGAND FREE ENERGY PREDICTED BY IDOCK:   -5.65 KCAL/MOL
REMARK 924 INTRA-LIGAND FREE ENERGY PREDICTED BY IDOCK:   -0.68 KCAL/MOL
REMARK 927      BINDING AFFINITY PREDICTED BY RF-SCORE:    0.00 PKD
ROOT
HETATM    1  O   UNL     1     -12.556  14.651  68.585  1.00  0.00     0.070 OA 
HETATM    2  C   UNL     1     -11.960  13.796  67.934  1.00  0.00    -0.356 C  
HETATM    3  C   UNL     1     -11.294  12.604  68.580  1.00  0.00    -0.331 C  
HETATM    4  C   UNL     1     -11.313  11.368  67.689  1.00  0.00    -0.359 C  
HETATM    5  C   UNL     1     -10.943  11.680  66.264  1.00  0.00    -0.338 A  
HETATM    6  C   UNL     1     -11.191  12.966  65.766  1.00  0.00    -0.294 A  
HETATM    7  N   UNL     1     -11.757  13.942  66.590  1.00  0.00    -0.373 N  
HETATM    8  C   UNL     1     -10.924  13.265  64.433  1.00  0.00    -0.413 A  
HETATM    9  C   UNL     1     -10.415  12.275  63.584  1.00  0.00    -0.483 A  
HETATM   10  H   UNL     1     -12.038  14.823  66.160  1.00  0.00     0.000 HD 
HETATM   11  C   UNL     1     -10.191  10.974  64.046  1.00  0.00    -0.358 A  
HETATM   12  C   UNL     1     -10.455  10.682  65.391  1.00  0.00    -0.254 A  
ENDROOT
BRANCH  11  13
HETATM   13  O   UNL     1      -9.731  10.103  63.085  1.00  0.00    -0.261 OA 
BRANCH  13  14
HETATM   14  C   UNL     1      -8.395  10.294  62.620  1.00  0.00    -0.163 C  
BRANCH  14  15
HETATM   15  C   UNL     1      -7.400  10.359  63.804  1.00  0.00     0.000 C  
BRANCH  15  16
HETATM   16  C   UNL     1      -7.510   9.062  64.618  1.00  0.00    -0.103 C  
BRANCH  16  17
HETATM   17  C   UNL     1      -6.836   7.797  64.073  1.00  0.00    -0.061 C  
BRANCH  17  18
HETATM   18  C   UNL     1      -7.716   6.607  63.935  1.00  0.00    -0.112 A  
HETATM   19  N   UNL     1      -8.185   6.209  62.763  1.00  0.00    -0.087 NA 
HETATM   20  N   UNL     1      -8.873   5.055  62.978  1.00  0.00    -0.096 NA 
HETATM   21  N   UNL     1      -8.861   4.739  64.257  1.00  0.00    -0.148 NA 
HETATM   22  N   UNL     1      -8.089   5.665  64.874  1.00  0.00    -0.121 NA 
BRANCH  22  23
HETATM   23  C   UNL     1      -7.917   5.534  66.319  1.00  0.00    -0.105 C  
HETATM   24  C   UNL     1      -8.387   6.800  67.088  1.00  0.00    -0.121 C  
HETATM   25  C   UNL     1      -9.909   6.954  67.026  1.00  0.00    -0.228 C  
HETATM   26  C   UNL     1     -10.603   5.744  67.642  1.00  0.00    -0.313 C  
HETATM   27  C   UNL     1     -10.104   4.424  67.054  1.00  0.00    -0.141 C  
HETATM   28  C   UNL     1      -8.576   4.335  67.021  1.00  0.00    -0.104 C  
ENDBRANCH  22  23
ENDBRANCH  17  18
ENDBRANCH  16  17
ENDBRANCH  15  16
ENDBRANCH  14  15
ENDBRANCH  13  14
ENDBRANCH  11  13
TORSDOF 7
ENDMDL
MODEL      341
REMARK 921   NORMALIZED FREE ENERGY PREDICTED BY IDOCK:   -3.76 KCAL/MOL
REMARK 922        TOTAL FREE ENERGY PREDICTED BY IDOCK:   -6.31 KCAL/MOL
REMARK 923 INTER-LIGAND FREE ENERGY PREDICTED BY IDOCK:   -6.59 KCAL/MOL
REMARK 924 INTRA-LIGAND FREE ENERGY PREDICTED BY IDOCK:    0.27 KCAL/MOL
REMARK 927      BINDING AFFINITY PREDICTED BY RF-SCORE:    0.00 PKD
ROOT
HETATM    1  O   UNL     1      -6.855   2.947  71.393  1.00  0.00    -0.030 OA 
HETATM    2  C   UNL     1      -7.675   3.847  71.228  1.00  0.00    -0.059 C  
HETATM    3  C   UNL     1      -8.922   3.665  70.394  1.00  0.00    -0.165 C  
HETATM    4  C   UNL     1     -10.093   4.496  70.902  1.00  0.00    -0.228 C  
HETATM    5  C   UNL     1      -9.691   5.905  71.248  1.00  0.00    -0.206 A  
HETATM    6  C   UNL     1      -8.370   6.156  71.641  1.00  0.00    -0.126 A  
HETATM    7  N   UNL     1      -7.441   5.113  71.690  1.00  0.00    -0.092 N  
HETATM    8  C   UNL     1      -7.986   7.434  72.033  1.00  0.00    -0.099 A  
HETATM    9  C   UNL     1      -8.925   8.472  72.046  1.00  0.00    -0.301 A  
HETATM   10  H   UNL     1      -6.528   5.308  72.099  1.00  0.00     0.000 HD 
HETATM   11  C   UNL     1     -10.259   8.242  71.693  1.00  0.00    -0.221 A  
HETATM   12  C   UNL     1     -10.637   6.954  71.291  1.00  0.00    -0.244 A  
ENDROOT
BRANCH  11  13
HETATM   13  O   UNL     1     -11.071   9.349  71.796  1.00  0.00    -0.370 OA 
BRANCH  13  14
HETATM   14  C   UNL     1     -11.866   9.681  70.658  1.00  0.00    -0.256 C  
BRANCH  14  15
HETATM   15  C   UNL     1     -11.138  10.703  69.753  1.00  0.00    -0.358 C  
BRANCH  15  16
HETATM   16  C   UNL     1     -12.105  11.847  69.414  1.00  0.00    -0.277 C  
BRANCH  16  17
HETATM   17  C   UNL     1     -11.797  12.729  68.199  1.00  0.00    -0.372 C  
BRANCH  17  18
HETATM   18  C   UNL     1     -11.646  14.181  68.479  1.00  0.00    -0.316 A  
HETATM   19  N   UNL     1     -12.256  14.770  69.495  1.00  0.00    -0.276 NA 
HETATM   20  N   UNL     1     -11.837  16.064  69.518  1.00  0.00    -0.288 NA 
HETATM   21  N   UNL     1     -11.000  16.298  68.528  1.00  0.00    -0.329 NA 
HETATM   22  N   UNL     1     -10.814  15.115  67.894  1.00  0.00    -0.282 NA 
BRANCH  22  23
HETATM   23  C   UNL     1      -9.916  15.111  66.743  1.00  0.00    -0.239 C  
HETATM   24  C   UNL     1     -10.325  16.156  65.668  1.00  0.00    -0.405 C  
HETATM   25  C   UNL     1     -10.091  17.584  66.166  1.00  0.00    -0.317 C  
HETATM   26  C   UNL     1      -8.621  17.808  66.504  1.00  0.00    -0.283 C  
HETATM   27  C   UNL     1      -8.072  16.740  67.451  1.00  0.00    -0.190 C  
HETATM   28  C   UNL     1      -8.413  15.319  66.994  1.00  0.00    -0.258 C  
ENDBRANCH  22  23
ENDBRANCH  17  18
ENDBRANCH  16  17
ENDBRANCH  15  16
ENDBRANCH  14  15
ENDBRANCH  13  14
ENDBRANCH  11  13
TORSDOF 7
ENDMDL
MODEL      342
REMARK 921   NORMALIZED FREE ENERGY PREDICTED BY IDOCK:   -3.75 KCAL/MOL
REMARK 922        TOTAL FREE ENERGY PREDICTED BY IDOCK:   -6.30 KCAL/MOL
REMARK 923 INTER-LIGAND FREE ENERGY PREDICTED BY IDOCK:   -5.89 KCAL/MOL
REMARK 924 INTRA-LIGAND FREE ENERGY PREDICTED BY IDOCK:   -0.41 KCAL/MOL
REMARK 927      BINDING AFFINITY PREDICTED BY RF-SCORE:    0.00 PKD
ROOT
HETATM    1  O   UNL     1     -13.058  12.564  63.322  1.00  0.00    -0.555 OA 
HETATM    2  C   UNL     1     -12.361  12.546  64.334  1.00  0.00    -0.455 C  
HETATM    3  C   UNL     1     -12.425  13.632  65.382  1.00  0.00    -0.537 C  
HETATM    4  C   UNL     1     -12.144  13.109  66.786  1.00  0.00    -0.389 C  
HETATM    5  C   UNL     1     -10.963  12.176  66.826  1.00  0.00    -0.325 A  
HETATM    6  C   UNL     1     -10.637  11.446  65.676  1.00  0.00    -0.258 A  
HETATM    7  N   UNL     1     -11.390  11.599  64.508  1.00  0.00    -0.280 N  
HETATM    8  C   UNL     1      -9.594  10.525  65.703  1.00  0.00    -0.278 A  
HETATM    9  C   UNL     1      -8.875  10.320  66.886  1.00  0.00    -0.141 A  
HETATM   10  H   UNL     1     -11.202  10.962  63.735  1.00  0.00     0.000 HD 
HETATM   11  C   UNL     1      -9.201  11.010  68.058  1.00  0.00    -0.159 A  
HETATM   12  C   UNL     1     -10.248  11.941  68.022  1.00  0.00    -0.199 A  
ENDROOT
BRANCH  11  13
HETATM   13  O   UNL     1      -8.434  10.669  69.148  1.00  0.00    -0.153 OA 
BRANCH  13  14
HETATM   14  C   UNL     1      -8.355   9.284  69.481  1.00  0.00    -0.131 C  
BRANCH  14  15
HETATM   15  C   UNL     1      -8.203   9.089  71.008  1.00  0.00    -0.220 C  
BRANCH  15  16
HETATM   16  C   UNL     1      -7.768   7.643  71.286  1.00  0.00    -0.085 C  
BRANCH  16  17
HETATM   17  C   UNL     1      -8.039   7.051  72.674  1.00  0.00    -0.115 C  
BRANCH  17  18
HETATM   18  C   UNL     1      -9.258   6.208  72.786  1.00  0.00    -0.138 A  
HETATM   19  N   UNL     1     -10.310   6.580  73.498  1.00  0.00    -0.254 NA 
HETATM   20  N   UNL     1     -11.272   5.635  73.318  1.00  0.00    -0.244 NA 
HETATM   21  N   UNL     1     -10.835   4.674  72.529  1.00  0.00    -0.154 NA 
HETATM   22  N   UNL     1      -9.593   5.039  72.131  1.00  0.00    -0.147 NA 
BRANCH  22  23
HETATM   23  C   UNL     1      -8.884   4.125  71.238  1.00  0.00    -0.107 C  
HETATM   24  C   UNL     1      -7.535   3.639  71.838  1.00  0.00    -0.056 C  
HETATM   25  C   UNL     1      -7.762   2.704  73.029  1.00  0.00    -0.050 C  
HETATM   26  C   UNL     1      -8.562   1.475  72.610  1.00  0.00    -0.057 C  
HETATM   27  C   UNL     1      -9.851   1.841  71.874  1.00  0.00    -0.208 C  
HETATM   28  C   UNL     1      -9.620   2.863  70.758  1.00  0.00    -0.195 C  
ENDBRANCH  22  23
ENDBRANCH  17  18
ENDBRANCH  16  17
ENDBRANCH  15  16
ENDBRANCH  14  15
ENDBRANCH  13  14
ENDBRANCH  11  13
TORSDOF 7
ENDMDL
MODEL      343
REMARK 921   NORMALIZED FREE ENERGY PREDICTED BY IDOCK:   -3.74 KCAL/MOL
REMARK 922        TOTAL FREE ENERGY PREDICTED BY IDOCK:   -6.29 KCAL/MOL
REMARK 923 INTER-LIGAND FREE ENERGY PREDICTED BY IDOCK:   -5.77 KCAL/MOL
REMARK 924 INTRA-LIGAND FREE ENERGY PREDICTED BY IDOCK:   -0.52 KCAL/MOL
REMARK 927      BINDING AFFINITY PREDICTED BY RF-SCORE:    0.00 PKD
ROOT
HETATM    1  O   UNL     1      -5.721  19.969  64.415  1.00  0.00    -0.198 OA 
HETATM    2  C   UNL     1      -6.394  19.611  65.379  1.00  0.00    -0.249 C  
HETATM    3  C   UNL     1      -6.557  20.463  66.616  1.00  0.00    -0.277 C  
HETATM    4  C   UNL     1      -7.913  20.271  67.285  1.00  0.00    -0.378 C  
HETATM    5  C   UNL     1      -8.304  18.821  67.386  1.00  0.00    -0.280 A  
HETATM    6  C   UNL     1      -7.801  17.916  66.444  1.00  0.00    -0.272 A  
HETATM    7  N   UNL     1      -6.934  18.356  65.439  1.00  0.00    -0.130 N  
HETATM    8  C   UNL     1      -8.198  16.583  66.469  1.00  0.00    -0.335 A  
HETATM    9  C   UNL     1      -9.114  16.147  67.434  1.00  0.00    -0.203 A  
HETATM   10  H   UNL     1      -6.689  17.697  64.700  1.00  0.00     0.000 HD 
HETATM   11  C   UNL     1      -9.660  17.036  68.365  1.00  0.00    -0.277 A  
HETATM   12  C   UNL     1      -9.249  18.376  68.338  1.00  0.00    -0.341 A  
ENDROOT
BRANCH  11  13
HETATM   13  O   UNL     1     -10.577  16.469  69.220  1.00  0.00    -0.287 OA 
BRANCH  13  14
HETATM   14  C   UNL     1     -10.361  15.109  69.597  1.00  0.00    -0.227 C  
BRANCH  14  15
HETATM   15  C   UNL     1     -11.704  14.357  69.751  1.00  0.00    -0.361 C  
BRANCH  15  16
HETATM   16  C   UNL     1     -11.779  13.247  68.693  1.00  0.00    -0.376 C  
BRANCH  16  17
HETATM   17  C   UNL     1     -10.522  12.932  67.874  1.00  0.00    -0.231 C  
BRANCH  17  18
HETATM   18  C   UNL     1     -10.032  11.531  67.961  1.00  0.00    -0.189 A  
HETATM   19  N   UNL     1     -10.855  10.502  68.081  1.00  0.00    -0.233 NA 
HETATM   20  N   UNL     1     -10.096   9.374  68.042  1.00  0.00    -0.181 NA 
HETATM   21  N   UNL     1      -8.819   9.678  67.923  1.00  0.00    -0.119 NA 
HETATM   22  N   UNL     1      -8.755  11.027  67.808  1.00  0.00    -0.128 NA 
BRANCH  22  23
HETATM   23  C   UNL     1      -7.428  11.621  67.664  1.00  0.00    -0.116 C  
HETATM   24  C   UNL     1      -6.888  12.193  69.004  1.00  0.00    -0.098 C  
HETATM   25  C   UNL     1      -6.557  11.073  69.993  1.00  0.00    -0.134 C  
HETATM   26  C   UNL     1      -5.499  10.136  69.420  1.00  0.00    -0.038 C  
HETATM   27  C   UNL     1      -5.867   9.624  68.027  1.00  0.00    -0.040 C  
HETATM   28  C   UNL     1      -6.302  10.749  67.084  1.00  0.00    -0.072 C  
ENDBRANCH  22  23
ENDBRANCH  17  18
ENDBRANCH  16  17
ENDBRANCH  15  16
ENDBRANCH  14  15
ENDBRANCH  13  14
ENDBRANCH  11  13
TORSDOF 7
ENDMDL
MODEL      344
REMARK 921   NORMALIZED FREE ENERGY PREDICTED BY IDOCK:   -3.73 KCAL/MOL
REMARK 922        TOTAL FREE ENERGY PREDICTED BY IDOCK:   -6.27 KCAL/MOL
REMARK 923 INTER-LIGAND FREE ENERGY PREDICTED BY IDOCK:   -5.18 KCAL/MOL
REMARK 924 INTRA-LIGAND FREE ENERGY PREDICTED BY IDOCK:   -1.09 KCAL/MOL
REMARK 927      BINDING AFFINITY PREDICTED BY RF-SCORE:    0.00 PKD
ROOT
HETATM    1  O   UNL     1      -9.751  10.177  62.946  1.00  0.00    -0.261 OA 
HETATM    2  C   UNL     1      -9.172  10.057  64.023  1.00  0.00    -0.272 C  
HETATM    3  C   UNL     1      -7.778   9.485  64.135  1.00  0.00    -0.124 C  
HETATM    4  C   UNL     1      -6.985  10.094  65.285  1.00  0.00    -0.137 C  
HETATM    5  C   UNL     1      -7.795  10.199  66.550  1.00  0.00    -0.112 A  
HETATM    6  C   UNL     1      -9.187  10.319  66.455  1.00  0.00    -0.153 A  
HETATM    7  N   UNL     1      -9.809  10.322  65.203  1.00  0.00    -0.302 N  
HETATM    8  C   UNL     1      -9.956  10.487  67.602  1.00  0.00    -0.202 A  
HETATM    9  C   UNL     1      -9.335  10.547  68.856  1.00  0.00    -0.192 A  
HETATM   10  H   UNL     1     -10.805  10.536  65.168  1.00  0.00     0.000 HD 
HETATM   11  C   UNL     1      -7.944  10.465  68.976  1.00  0.00    -0.131 A  
HETATM   12  C   UNL     1      -7.176  10.288  67.817  1.00  0.00    -0.086 A  
ENDROOT
BRANCH  11  13
HETATM   13  O   UNL     1      -7.479  10.584  70.266  1.00  0.00    -0.176 OA 
BRANCH  13  14
HETATM   14  C   UNL     1      -6.464   9.669  70.679  1.00  0.00    -0.105 C  
BRANCH  14  15
HETATM   15  C   UNL     1      -7.061   8.270  70.963  1.00  0.00    -0.056 C  
BRANCH  15  16
HETATM   16  C   UNL     1      -8.040   8.376  72.141  1.00  0.00    -0.192 C  
BRANCH  16  17
HETATM   17  C   UNL     1      -9.540   8.220  71.861  1.00  0.00    -0.288 C  
BRANCH  17  18
HETATM   18  C   UNL     1      -9.927   7.017  71.079  1.00  0.00    -0.188 A  
HETATM   19  N   UNL     1     -10.572   7.102  69.927  1.00  0.00    -0.224 NA 
HETATM   20  N   UNL     1     -10.690   5.837  69.439  1.00  0.00    -0.316 NA 
HETATM   21  N   UNL     1     -10.153   4.968  70.270  1.00  0.00    -0.256 NA 
HETATM   22  N   UNL     1      -9.612   5.687  71.282  1.00  0.00    -0.158 NA 
BRANCH  22  23
HETATM   23  C   UNL     1      -8.949   4.942  72.350  1.00  0.00    -0.129 C  
HETATM   24  C   UNL     1      -9.562   5.239  73.747  1.00  0.00    -0.139 C  
HETATM   25  C   UNL     1     -10.972   4.656  73.869  1.00  0.00    -0.333 C  
HETATM   26  C   UNL     1     -10.954   3.144  73.674  1.00  0.00    -0.327 C  
HETATM   27  C   UNL     1     -10.239   2.731  72.387  1.00  0.00    -0.209 C  
HETATM   28  C   UNL     1      -8.876   3.411  72.228  1.00  0.00    -0.115 C  
ENDBRANCH  22  23
ENDBRANCH  17  18
ENDBRANCH  16  17
ENDBRANCH  15  16
ENDBRANCH  14  15
ENDBRANCH  13  14
ENDBRANCH  11  13
TORSDOF 7
ENDMDL
MODEL      345
REMARK 921   NORMALIZED FREE ENERGY PREDICTED BY IDOCK:   -3.66 KCAL/MOL
REMARK 922        TOTAL FREE ENERGY PREDICTED BY IDOCK:   -6.18 KCAL/MOL
REMARK 923 INTER-LIGAND FREE ENERGY PREDICTED BY IDOCK:   -5.11 KCAL/MOL
REMARK 924 INTRA-LIGAND FREE ENERGY PREDICTED BY IDOCK:   -1.07 KCAL/MOL
REMARK 927      BINDING AFFINITY PREDICTED BY RF-SCORE:    0.00 PKD
ROOT
HETATM    1  O   UNL     1      -6.460   5.059  65.287  1.00  0.00    -0.034 OA 
HETATM    2  C   UNL     1      -6.821   5.050  66.462  1.00  0.00    -0.062 C  
HETATM    3  C   UNL     1      -5.849   4.893  67.608  1.00  0.00    -0.022 C  
HETATM    4  C   UNL     1      -6.295   5.637  68.860  1.00  0.00    -0.037 C  
HETATM    5  C   UNL     1      -7.757   5.436  69.159  1.00  0.00    -0.089 A  
HETATM    6  C   UNL     1      -8.633   5.159  68.102  1.00  0.00    -0.102 A  
HETATM    7  N   UNL     1      -8.147   5.055  66.795  1.00  0.00    -0.107 N  
HETATM    8  C   UNL     1      -9.999   5.036  68.337  1.00  0.00    -0.202 A  
HETATM    9  C   UNL     1     -10.502   5.201  69.633  1.00  0.00    -0.262 A  
HETATM   10  H   UNL     1      -8.828   4.978  66.040  1.00  0.00     0.000 HD 
HETATM   11  C   UNL     1      -9.654   5.512  70.701  1.00  0.00    -0.170 A  
HETATM   12  C   UNL     1      -8.278   5.626  70.459  1.00  0.00    -0.116 A  
ENDROOT
BRANCH  11  13
HETATM   13  O   UNL     1     -10.300   5.685  71.904  1.00  0.00    -0.201 OA 
BRANCH  13  14
HETATM   14  C   UNL     1     -10.234   6.982  72.496  1.00  0.00    -0.184 C  
BRANCH  14  15
HETATM   15  C   UNL     1     -11.612   7.684  72.447  1.00  0.00    -0.386 C  
BRANCH  15  16
HETATM   16  C   UNL     1     -11.422   9.123  71.946  1.00  0.00    -0.423 C  
BRANCH  16  17
HETATM   17  C   UNL     1     -11.315   9.363  70.436  1.00  0.00    -0.295 C  
BRANCH  17  18
HETATM   18  C   UNL     1     -11.588  10.753  69.984  1.00  0.00    -0.334 A  
HETATM   19  N   UNL     1     -12.317  11.596  70.698  1.00  0.00    -0.363 NA 
HETATM   20  N   UNL     1     -12.295  12.792  70.051  1.00  0.00    -0.174 NA 
HETATM   21  N   UNL     1     -11.589  12.707  68.942  1.00  0.00    -0.296 NA 
HETATM   22  N   UNL     1     -11.082  11.451  68.905  1.00  0.00    -0.215 NA 
BRANCH  22  23
HETATM   23  C   UNL     1     -10.252  11.101  67.755  1.00  0.00    -0.180 C  
HETATM   24  C   UNL     1      -8.763  11.495  67.958  1.00  0.00    -0.151 C  
HETATM   25  C   UNL     1      -8.098  10.622  69.025  1.00  0.00    -0.148 C  
HETATM   26  C   UNL     1      -8.146   9.150  68.630  1.00  0.00    -0.102 C  
HETATM   27  C   UNL     1      -9.558   8.690  68.266  1.00  0.00    -0.160 C  
HETATM   28  C   UNL     1     -10.249   9.638  67.282  1.00  0.00    -0.292 C  
ENDBRANCH  22  23
ENDBRANCH  17  18
ENDBRANCH  16  17
ENDBRANCH  15  16
ENDBRANCH  14  15
ENDBRANCH  13  14
ENDBRANCH  11  13
TORSDOF 7
ENDMDL
MODEL      346
REMARK 921   NORMALIZED FREE ENERGY PREDICTED BY IDOCK:   -3.66 KCAL/MOL
REMARK 922        TOTAL FREE ENERGY PREDICTED BY IDOCK:   -6.17 KCAL/MOL
REMARK 923 INTER-LIGAND FREE ENERGY PREDICTED BY IDOCK:   -4.19 KCAL/MOL
REMARK 924 INTRA-LIGAND FREE ENERGY PREDICTED BY IDOCK:   -1.98 KCAL/MOL
REMARK 927      BINDING AFFINITY PREDICTED BY RF-SCORE:    0.00 PKD
ROOT
HETATM    1  O   UNL     1      -8.069   9.090  74.083  1.00  0.00    -0.209 OA 
HETATM    2  C   UNL     1      -8.077   8.330  73.117  1.00  0.00    -0.153 C  
HETATM    3  C   UNL     1      -6.821   7.967  72.361  1.00  0.00    -0.085 C  
HETATM    4  C   UNL     1      -6.868   6.556  71.788  1.00  0.00    -0.064 C  
HETATM    5  C   UNL     1      -8.187   6.246  71.131  1.00  0.00    -0.123 A  
HETATM    6  C   UNL     1      -9.337   6.914  71.571  1.00  0.00    -0.155 A  
HETATM    7  N   UNL     1      -9.251   7.865  72.591  1.00  0.00    -0.185 N  
HETATM    8  C   UNL     1     -10.580   6.599  71.031  1.00  0.00    -0.263 A  
HETATM    9  C   UNL     1     -10.684   5.603  70.052  1.00  0.00    -0.390 A  
HETATM   10  H   UNL     1     -10.121   8.237  72.969  1.00  0.00     0.000 HD 
HETATM   11  C   UNL     1      -9.557   4.896  69.620  1.00  0.00    -0.173 A  
HETATM   12  C   UNL     1      -8.307   5.224  70.163  1.00  0.00    -0.098 A  
ENDROOT
BRANCH  11  13
HETATM   13  O   UNL     1      -9.825   3.920  68.688  1.00  0.00    -0.098 OA 
BRANCH  13  14
HETATM   14  C   UNL     1      -9.191   4.046  67.415  1.00  0.00    -0.165 C  
BRANCH  14  15
HETATM   15  C   UNL     1     -10.117   4.763  66.403  1.00  0.00    -0.291 C  
BRANCH  15  16
HETATM   16  C   UNL     1      -9.429   6.049  65.922  1.00  0.00    -0.004 C  
BRANCH  16  17
HETATM   17  C   UNL     1      -9.691   7.350  66.689  1.00  0.00    -0.262 C  
BRANCH  17  18
HETATM   18  C   UNL     1      -8.547   7.872  67.481  1.00  0.00    -0.122 A  
HETATM   19  N   UNL     1      -7.310   7.435  67.306  1.00  0.00    -0.095 NA 
HETATM   20  N   UNL     1      -6.504   8.175  68.115  1.00  0.00    -0.055 NA 
HETATM   21  N   UNL     1      -7.214   9.045  68.805  1.00  0.00    -0.074 NA 
HETATM   22  N   UNL     1      -8.494   8.919  68.381  1.00  0.00    -0.128 NA 
BRANCH  22  23
HETATM   23  C   UNL     1      -9.491   9.786  69.005  1.00  0.00    -0.173 C  
HETATM   24  C   UNL     1      -8.935  11.205  69.306  1.00  0.00     0.162 C  
HETATM   25  C   UNL     1      -8.688  11.990  68.015  1.00  0.00    -0.175 C  
HETATM   26  C   UNL     1      -9.979  12.149  67.220  1.00  0.00    -0.211 C  
HETATM   27  C   UNL     1     -10.690  10.816  66.990  1.00  0.00    -0.320 C  
HETATM   28  C   UNL     1     -10.829   9.995  68.275  1.00  0.00    -0.286 C  
ENDBRANCH  22  23
ENDBRANCH  17  18
ENDBRANCH  16  17
ENDBRANCH  15  16
ENDBRANCH  14  15
ENDBRANCH  13  14
ENDBRANCH  11  13
TORSDOF 7
ENDMDL
MODEL      347
REMARK 921   NORMALIZED FREE ENERGY PREDICTED BY IDOCK:   -3.65 KCAL/MOL
REMARK 922        TOTAL FREE ENERGY PREDICTED BY IDOCK:   -6.16 KCAL/MOL
REMARK 923 INTER-LIGAND FREE ENERGY PREDICTED BY IDOCK:   -5.69 KCAL/MOL
REMARK 924 INTRA-LIGAND FREE ENERGY PREDICTED BY IDOCK:   -0.46 KCAL/MOL
REMARK 927      BINDING AFFINITY PREDICTED BY RF-SCORE:    0.00 PKD
ROOT
HETATM    1  O   UNL     1      -7.533   2.788  65.282  1.00  0.00    -0.069 OA 
HETATM    2  C   UNL     1      -8.018   3.428  66.213  1.00  0.00    -0.091 C  
HETATM    3  C   UNL     1      -9.102   2.868  67.104  1.00  0.00    -0.194 C  
HETATM    4  C   UNL     1      -9.019   3.395  68.531  1.00  0.00    -0.185 C  
HETATM    5  C   UNL     1      -8.779   4.880  68.582  1.00  0.00    -0.103 A  
HETATM    6  C   UNL     1      -8.109   5.495  67.517  1.00  0.00    -0.101 A  
HETATM    7  N   UNL     1      -7.689   4.739  66.419  1.00  0.00    -0.091 N  
HETATM    8  C   UNL     1      -7.811   6.853  67.566  1.00  0.00    -0.112 A  
HETATM    9  C   UNL     1      -8.173   7.607  68.690  1.00  0.00    -0.128 A  
HETATM   10  H   UNL     1      -7.097   5.195  65.726  1.00  0.00     0.000 HD 
HETATM   11  C   UNL     1      -8.812   7.011  69.782  1.00  0.00    -0.142 A  
HETATM   12  C   UNL     1      -9.116   5.644  69.722  1.00  0.00    -0.157 A  
ENDROOT
BRANCH  11  13
HETATM   13  O   UNL     1      -9.065   7.870  70.827  1.00  0.00    -0.149 OA 
BRANCH  13  14
HETATM   14  C   UNL     1     -10.402   7.914  71.324  1.00  0.00    -0.191 C  
BRANCH  14  15
HETATM   15  C   UNL     1     -10.982   9.345  71.228  1.00  0.00    -0.440 C  
BRANCH  15  16
HETATM   16  C   UNL     1     -11.192   9.699  69.749  1.00  0.00    -0.208 C  
BRANCH  16  17
HETATM   17  C   UNL     1     -10.965  11.149  69.304  1.00  0.00    -0.300 C  
BRANCH  17  18
HETATM   18  C   UNL     1     -10.687  11.342  67.857  1.00  0.00    -0.200 A  
HETATM   19  N   UNL     1     -10.290  10.350  67.076  1.00  0.00    -0.228 NA 
HETATM   20  N   UNL     1     -10.215  10.842  65.810  1.00  0.00    -0.257 NA 
HETATM   21  N   UNL     1     -10.534  12.120  65.789  1.00  0.00    -0.245 NA 
HETATM   22  N   UNL     1     -10.894  12.447  67.053  1.00  0.00    -0.239 NA 
BRANCH  22  23
HETATM   23  C   UNL     1     -11.295  13.830  67.295  1.00  0.00    -0.321 C  
HETATM   24  C   UNL     1     -10.168  14.664  67.965  1.00  0.00    -0.231 C  
HETATM   25  C   UNL     1      -9.005  14.903  66.999  1.00  0.00    -0.256 C  
HETATM   26  C   UNL     1      -9.475  15.656  65.759  1.00  0.00    -0.338 C  
HETATM   27  C   UNL     1     -10.684  14.994  65.098  1.00  0.00    -0.434 C  
HETATM   28  C   UNL     1     -11.792  14.661  66.101  1.00  0.00    -0.282 C  
ENDBRANCH  22  23
ENDBRANCH  17  18
ENDBRANCH  16  17
ENDBRANCH  15  16
ENDBRANCH  14  15
ENDBRANCH  13  14
ENDBRANCH  11  13
TORSDOF 7
ENDMDL
MODEL      348
REMARK 921   NORMALIZED FREE ENERGY PREDICTED BY IDOCK:   -3.63 KCAL/MOL
REMARK 922        TOTAL FREE ENERGY PREDICTED BY IDOCK:   -6.13 KCAL/MOL
REMARK 923 INTER-LIGAND FREE ENERGY PREDICTED BY IDOCK:   -5.24 KCAL/MOL
REMARK 924 INTRA-LIGAND FREE ENERGY PREDICTED BY IDOCK:   -0.89 KCAL/MOL
REMARK 927      BINDING AFFINITY PREDICTED BY RF-SCORE:    0.00 PKD
ROOT
HETATM    1  O   UNL     1      -6.599  15.272  67.075  1.00  0.00    -0.253 OA 
HETATM    2  C   UNL     1      -6.753  14.133  67.511  1.00  0.00    -0.105 C  
HETATM    3  C   UNL     1      -5.594  13.198  67.762  1.00  0.00    -0.119 C  
HETATM    4  C   UNL     1      -5.846  12.252  68.930  1.00  0.00    -0.062 C  
HETATM    5  C   UNL     1      -7.226  11.651  68.896  1.00  0.00    -0.113 A  
HETATM    6  C   UNL     1      -8.259  12.363  68.273  1.00  0.00    -0.170 A  
HETATM    7  N   UNL     1      -8.001  13.601  67.678  1.00  0.00    -0.162 N  
HETATM    8  C   UNL     1      -9.559  11.866  68.285  1.00  0.00    -0.201 A  
HETATM    9  C   UNL     1      -9.838  10.657  68.932  1.00  0.00    -0.210 A  
HETATM   10  H   UNL     1      -8.798  14.144  67.347  1.00  0.00     0.000 HD 
HETATM   11  C   UNL     1      -8.832   9.944  69.593  1.00  0.00    -0.208 A  
HETATM   12  C   UNL     1      -7.523  10.446  69.569  1.00  0.00    -0.148 A  
ENDROOT
BRANCH  11  13
HETATM   13  O   UNL     1      -9.268   8.798  70.218  1.00  0.00    -0.157 OA 
BRANCH  13  14
HETATM   14  C   UNL     1      -9.355   8.827  71.642  1.00  0.00    -0.275 C  
BRANCH  14  15
HETATM   15  C   UNL     1     -10.822   8.682  72.111  1.00  0.00    -0.424 C  
BRANCH  15  16
HETATM   16  C   UNL     1     -11.660   8.114  70.957  1.00  0.00    -0.301 C  
BRANCH  16  17
HETATM   17  C   UNL     1     -11.860   6.596  70.876  1.00  0.00    -0.434 C  
BRANCH  17  18
HETATM   18  C   UNL     1     -11.055   5.895  69.841  1.00  0.00    -0.347 A  
HETATM   19  N   UNL     1     -11.050   6.277  68.574  1.00  0.00    -0.347 NA 
HETATM   20  N   UNL     1     -10.152   5.489  67.922  1.00  0.00    -0.163 NA 
HETATM   21  N   UNL     1      -9.617   4.614  68.749  1.00  0.00    -0.154 NA 
HETATM   22  N   UNL     1     -10.121   4.886  69.976  1.00  0.00    -0.262 NA 
BRANCH  22  23
HETATM   23  C   UNL     1      -9.678   4.041  71.082  1.00  0.00    -0.187 C  
HETATM   24  C   UNL     1      -8.487   3.124  70.684  1.00  0.00    -0.095 C  
HETATM   25  C   UNL     1      -7.210   3.938  70.460  1.00  0.00    -0.041 C  
HETATM   26  C   UNL     1      -6.820   4.696  71.724  1.00  0.00    -0.043 C  
HETATM   27  C   UNL     1      -7.975   5.525  72.287  1.00  0.00    -0.107 C  
HETATM   28  C   UNL     1      -9.274   4.723  72.400  1.00  0.00    -0.149 C  
ENDBRANCH  22  23
ENDBRANCH  17  18
ENDBRANCH  16  17
ENDBRANCH  15  16
ENDBRANCH  14  15
ENDBRANCH  13  14
ENDBRANCH  11  13
TORSDOF 7
ENDMDL
MODEL      349
REMARK 921   NORMALIZED FREE ENERGY PREDICTED BY IDOCK:   -3.60 KCAL/MOL
REMARK 922        TOTAL FREE ENERGY PREDICTED BY IDOCK:   -6.09 KCAL/MOL
REMARK 923 INTER-LIGAND FREE ENERGY PREDICTED BY IDOCK:   -4.78 KCAL/MOL
REMARK 924 INTRA-LIGAND FREE ENERGY PREDICTED BY IDOCK:   -1.31 KCAL/MOL
REMARK 927      BINDING AFFINITY PREDICTED BY RF-SCORE:    0.00 PKD
ROOT
HETATM    1  O   UNL     1     -11.459  13.899  66.081  1.00  0.00    -0.327 OA 
HETATM    2  C   UNL     1     -11.143  12.782  66.484  1.00  0.00    -0.286 C  
HETATM    3  C   UNL     1     -11.315  12.361  67.925  1.00  0.00    -0.344 C  
HETATM    4  C   UNL     1     -11.612  10.873  68.069  1.00  0.00    -0.295 C  
HETATM    5  C   UNL     1     -10.724  10.023  67.200  1.00  0.00    -0.279 A  
HETATM    6  C   UNL     1     -10.204  10.571  66.021  1.00  0.00    -0.245 A  
HETATM    7  N   UNL     1     -10.495  11.893  65.672  1.00  0.00    -0.252 N  
HETATM    8  C   UNL     1      -9.437   9.789  65.163  1.00  0.00    -0.338 A  
HETATM    9  C   UNL     1      -9.193   8.446  65.473  1.00  0.00    -0.057 A  
HETATM   10  H   UNL     1     -10.204  12.216  64.750  1.00  0.00     0.000 HD 
HETATM   11  C   UNL     1      -9.729   7.863  66.626  1.00  0.00    -0.235 A  
HETATM   12  C   UNL     1     -10.494   8.659  67.490  1.00  0.00    -0.335 A  
ENDROOT
BRANCH  11  13
HETATM   13  O   UNL     1      -9.438   6.526  66.773  1.00  0.00    -0.148 OA 
BRANCH  13  14
HETATM   14  C   UNL     1      -8.143   6.093  66.358  1.00  0.00    -0.111 C  
BRANCH  14  15
HETATM   15  C   UNL     1      -7.099   6.316  67.478  1.00  0.00    -0.073 C  
BRANCH  15  16
HETATM   16  C   UNL     1      -7.589   5.627  68.760  1.00  0.00    -0.088 C  
BRANCH  16  17
HETATM   17  C   UNL     1      -7.180   6.222  70.113  1.00  0.00    -0.080 C  
BRANCH  17  18
HETATM   18  C   UNL     1      -7.739   7.564  70.421  1.00  0.00    -0.091 A  
HETATM   19  N   UNL     1      -8.810   7.725  71.181  1.00  0.00    -0.135 NA 
HETATM   20  N   UNL     1      -8.996   9.064  71.333  1.00  0.00    -0.297 NA 
HETATM   21  N   UNL     1      -8.081   9.738  70.668  1.00  0.00    -0.249 NA 
HETATM   22  N   UNL     1      -7.240   8.820  70.134  1.00  0.00    -0.050 NA 
BRANCH  22  23
HETATM   23  C   UNL     1      -6.124   9.323  69.336  1.00  0.00    -0.037 C  
HETATM   24  C   UNL     1      -6.585   9.886  67.963  1.00  0.00    -0.060 C  
HETATM   25  C   UNL     1      -7.379  11.183  68.133  1.00  0.00    -0.087 C  
HETATM   26  C   UNL     1      -6.535  12.251  68.821  1.00  0.00    -0.082 C  
HETATM   27  C   UNL     1      -5.909  11.750  70.122  1.00  0.00    -0.156 C  
HETATM   28  C   UNL     1      -5.214  10.396  69.957  1.00  0.00    -0.039 C  
ENDBRANCH  22  23
ENDBRANCH  17  18
ENDBRANCH  16  17
ENDBRANCH  15  16
ENDBRANCH  14  15
ENDBRANCH  13  14
ENDBRANCH  11  13
TORSDOF 7
ENDMDL
MODEL      350
REMARK 921   NORMALIZED FREE ENERGY PREDICTED BY IDOCK:   -3.54 KCAL/MOL
REMARK 922        TOTAL FREE ENERGY PREDICTED BY IDOCK:   -6.00 KCAL/MOL
REMARK 923 INTER-LIGAND FREE ENERGY PREDICTED BY IDOCK:   -5.11 KCAL/MOL
REMARK 924 INTRA-LIGAND FREE ENERGY PREDICTED BY IDOCK:   -0.88 KCAL/MOL
REMARK 927      BINDING AFFINITY PREDICTED BY RF-SCORE:    0.00 PKD
ROOT
HETATM    1  O   UNL     1     -10.086  12.074  63.678  1.00  0.00    -0.380 OA 
HETATM    2  C   UNL     1      -9.770  10.957  64.081  1.00  0.00    -0.296 C  
HETATM    3  C   UNL     1      -8.984   9.983  63.235  1.00  0.00    -0.275 C  
HETATM    4  C   UNL     1      -8.077   9.085  64.067  1.00  0.00    -0.158 C  
HETATM    5  C   UNL     1      -8.769   8.540  65.288  1.00  0.00    -0.175 A  
HETATM    6  C   UNL     1      -9.819   9.274  65.855  1.00  0.00    -0.265 A  
HETATM    7  N   UNL     1     -10.224  10.482  65.280  1.00  0.00    -0.299 N  
HETATM    8  C   UNL     1     -10.432   8.831  67.023  1.00  0.00    -0.338 A  
HETATM    9  C   UNL     1      -9.991   7.654  67.640  1.00  0.00    -0.225 A  
HETATM   10  H   UNL     1     -10.902  11.047  65.790  1.00  0.00     0.000 HD 
HETATM   11  C   UNL     1      -8.922   6.921  67.115  1.00  0.00    -0.120 A  
HETATM   12  C   UNL     1      -8.314   7.369  65.933  1.00  0.00    -0.140 A  
ENDROOT
BRANCH  11  13
HETATM   13  O   UNL     1      -8.577   5.814  67.855  1.00  0.00    -0.104 OA 
BRANCH  13  14
HETATM   14  C   UNL     1      -7.680   6.015  68.947  1.00  0.00    -0.092 C  
BRANCH  14  15
HETATM   15  C   UNL     1      -7.647   4.775  69.872  1.00  0.00    -0.055 C  
BRANCH  15  16
HETATM   16  C   UNL     1      -8.890   3.917  69.601  1.00  0.00    -0.144 C  
BRANCH  16  17
HETATM   17  C   UNL     1      -9.997   3.877  70.661  1.00  0.00    -0.094 C  
BRANCH  17  18
HETATM   18  C   UNL     1      -9.538   3.695  72.063  1.00  0.00    -0.144 A  
HETATM   19  N   UNL     1      -8.741   2.701  72.421  1.00  0.00    -0.070 NA 
HETATM   20  N   UNL     1      -8.446   2.877  73.738  1.00  0.00    -0.072 NA 
HETATM   21  N   UNL     1      -9.058   3.944  74.211  1.00  0.00    -0.093 NA 
HETATM   22  N   UNL     1      -9.704   4.512  73.164  1.00  0.00    -0.133 NA 
BRANCH  22  23
HETATM   23  C   UNL     1     -10.470   5.727  73.434  1.00  0.00    -0.244 C  
HETATM   24  C   UNL     1      -9.561   6.926  73.820  1.00  0.00    -0.256 C  
HETATM   25  C   UNL     1      -8.737   7.407  72.622  1.00  0.00    -0.155 C  
HETATM   26  C   UNL     1      -9.646   7.852  71.482  1.00  0.00    -0.189 C  
HETATM   27  C   UNL     1     -10.685   6.792  71.116  1.00  0.00    -0.261 C  
HETATM   28  C   UNL     1     -11.421   6.242  72.341  1.00  0.00    -0.335 C  
ENDBRANCH  22  23
ENDBRANCH  17  18
ENDBRANCH  16  17
ENDBRANCH  15  16
ENDBRANCH  14  15
ENDBRANCH  13  14
ENDBRANCH  11  13
TORSDOF 7
ENDMDL
MODEL      351
REMARK 921   NORMALIZED FREE ENERGY PREDICTED BY IDOCK:   -3.51 KCAL/MOL
REMARK 922        TOTAL FREE ENERGY PREDICTED BY IDOCK:   -5.96 KCAL/MOL
REMARK 923 INTER-LIGAND FREE ENERGY PREDICTED BY IDOCK:   -5.56 KCAL/MOL
REMARK 924 INTRA-LIGAND FREE ENERGY PREDICTED BY IDOCK:   -0.40 KCAL/MOL
REMARK 927      BINDING AFFINITY PREDICTED BY RF-SCORE:    0.00 PKD
ROOT
HETATM    1  O   UNL     1      -7.276   1.754  69.085  1.00  0.00    -0.039 OA 
HETATM    2  C   UNL     1      -7.394   2.972  68.972  1.00  0.00    -0.048 C  
HETATM    3  C   UNL     1      -7.075   3.925  70.100  1.00  0.00    -0.041 C  
HETATM    4  C   UNL     1      -6.547   5.265  69.602  1.00  0.00    -0.043 C  
HETATM    5  C   UNL     1      -7.345   5.804  68.445  1.00  0.00    -0.080 A  
HETATM    6  C   UNL     1      -8.011   4.903  67.604  1.00  0.00    -0.094 A  
HETATM    7  N   UNL     1      -7.946   3.529  67.852  1.00  0.00    -0.079 N  
HETATM    8  C   UNL     1      -8.698   5.365  66.486  1.00  0.00    -0.117 A  
HETATM    9  C   UNL     1      -8.717   6.734  66.194  1.00  0.00    -0.156 A  
HETATM   10  H   UNL     1      -8.336   2.900  67.151  1.00  0.00     0.000 HD 
HETATM   11  C   UNL     1      -8.031   7.652  66.997  1.00  0.00    -0.116 A  
HETATM   12  C   UNL     1      -7.347   7.180  68.126  1.00  0.00    -0.097 A  
ENDROOT
BRANCH  11  13
HETATM   13  O   UNL     1      -8.106   8.954  66.559  1.00  0.00    -0.105 OA 
BRANCH  13  14
HETATM   14  C   UNL     1      -8.180   9.163  65.149  1.00  0.00    -0.145 C  
BRANCH  14  15
HETATM   15  C   UNL     1      -9.604   9.596  64.727  1.00  0.00    -0.197 C  
BRANCH  15  16
HETATM   16  C   UNL     1     -10.081  10.718  65.661  1.00  0.00    -0.327 C  
BRANCH  16  17
HETATM   17  C   UNL     1      -9.924  12.171  65.198  1.00  0.00    -0.251 C  
BRANCH  17  18
HETATM   18  C   UNL     1     -11.102  13.049  65.425  1.00  0.00    -0.275 A  
HETATM   19  N   UNL     1     -11.916  13.404  64.445  1.00  0.00    -0.392 NA 
HETATM   20  N   UNL     1     -12.926  14.126  65.003  1.00  0.00    -0.713 NA 
HETATM   21  N   UNL     1     -12.746  14.245  66.303  1.00  0.00    -0.228 NA 
HETATM   22  N   UNL     1     -11.638  13.526  66.605  1.00  0.00    -0.346 NA 
BRANCH  22  23
HETATM   23  C   UNL     1     -11.221  13.502  68.005  1.00  0.00    -0.271 C  
HETATM   24  C   UNL     1      -9.736  13.922  68.188  1.00  0.00    -0.222 C  
HETATM   25  C   UNL     1      -9.540  15.411  67.891  1.00  0.00    -0.206 C  
HETATM   26  C   UNL     1     -10.390  16.268  68.823  1.00  0.00    -0.261 C  
HETATM   27  C   UNL     1     -11.858  15.841  68.831  1.00  0.00    -0.354 C  
HETATM   28  C   UNL     1     -12.030  14.331  69.017  1.00  0.00    -0.360 C  
ENDBRANCH  22  23
ENDBRANCH  17  18
ENDBRANCH  16  17
ENDBRANCH  15  16
ENDBRANCH  14  15
ENDBRANCH  13  14
ENDBRANCH  11  13
TORSDOF 7
ENDMDL
MODEL      352
REMARK 921   NORMALIZED FREE ENERGY PREDICTED BY IDOCK:   -3.51 KCAL/MOL
REMARK 922        TOTAL FREE ENERGY PREDICTED BY IDOCK:   -5.96 KCAL/MOL
REMARK 923 INTER-LIGAND FREE ENERGY PREDICTED BY IDOCK:   -5.27 KCAL/MOL
REMARK 924 INTRA-LIGAND FREE ENERGY PREDICTED BY IDOCK:   -0.69 KCAL/MOL
REMARK 927      BINDING AFFINITY PREDICTED BY RF-SCORE:    0.00 PKD
ROOT
HETATM    1  O   UNL     1     -13.092  14.570  70.154  1.00  0.00    -0.149 OA 
HETATM    2  C   UNL     1     -12.518  13.572  69.722  1.00  0.00    -0.098 C  
HETATM    3  C   UNL     1     -12.220  12.370  70.587  1.00  0.00    -0.368 C  
HETATM    4  C   UNL     1     -12.248  11.064  69.804  1.00  0.00    -0.388 C  
HETATM    5  C   UNL     1     -11.525  11.167  68.487  1.00  0.00    -0.371 A  
HETATM    6  C   UNL     1     -11.439  12.415  67.857  1.00  0.00    -0.328 A  
HETATM    7  N   UNL     1     -12.002  13.545  68.456  1.00  0.00    -0.363 N  
HETATM    8  C   UNL     1     -10.838  12.529  66.608  1.00  0.00    -0.277 A  
HETATM    9  C   UNL     1     -10.326  11.391  65.972  1.00  0.00    -0.297 A  
HETATM   10  H   UNL     1     -12.030  14.407  67.912  1.00  0.00     0.000 HD 
HETATM   11  C   UNL     1     -10.430  10.128  66.562  1.00  0.00    -0.166 A  
HETATM   12  C   UNL     1     -11.030  10.021  67.825  1.00  0.00    -0.310 A  
ENDROOT
BRANCH  11  13
HETATM   13  O   UNL     1      -9.921   9.103  65.799  1.00  0.00    -0.277 OA 
BRANCH  13  14
HETATM   14  C   UNL     1      -8.519   9.127  65.529  1.00  0.00    -0.147 C  
BRANCH  14  15
HETATM   15  C   UNL     1      -7.703   9.157  66.843  1.00  0.00    -0.098 C  
BRANCH  15  16
HETATM   16  C   UNL     1      -7.531   7.721  67.357  1.00  0.00    -0.093 C  
BRANCH  16  17
HETATM   17  C   UNL     1      -7.320   6.598  66.334  1.00  0.00    -0.073 C  
BRANCH  17  18
HETATM   18  C   UNL     1      -8.295   5.477  66.399  1.00  0.00    -0.111 A  
HETATM   19  N   UNL     1      -9.148   5.227  65.419  1.00  0.00    -0.148 NA 
HETATM   20  N   UNL     1      -9.824   4.095  65.756  1.00  0.00    -0.202 NA 
HETATM   21  N   UNL     1      -9.426   3.649  66.930  1.00  0.00    -0.198 NA 
HETATM   22  N   UNL     1      -8.421   4.465  67.330  1.00  0.00    -0.103 NA 
BRANCH  22  23
HETATM   23  C   UNL     1      -7.805   4.177  68.623  1.00  0.00    -0.072 C  
HETATM   24  C   UNL     1      -8.078   5.292  69.670  1.00  0.00    -0.091 C  
HETATM   25  C   UNL     1      -9.550   5.310  70.091  1.00  0.00    -0.241 C  
HETATM   26  C   UNL     1      -9.955   3.975  70.706  1.00  0.00    -0.158 C  
HETATM   27  C   UNL     1      -9.596   2.788  69.813  1.00  0.00    -0.077 C  
HETATM   28  C   UNL     1      -8.150   2.846  69.311  1.00  0.00    -0.066 C  
ENDBRANCH  22  23
ENDBRANCH  17  18
ENDBRANCH  16  17
ENDBRANCH  15  16
ENDBRANCH  14  15
ENDBRANCH  13  14
ENDBRANCH  11  13
TORSDOF 7
ENDMDL
MODEL      353
REMARK 921   NORMALIZED FREE ENERGY PREDICTED BY IDOCK:   -3.39 KCAL/MOL
REMARK 922        TOTAL FREE ENERGY PREDICTED BY IDOCK:   -5.79 KCAL/MOL
REMARK 923 INTER-LIGAND FREE ENERGY PREDICTED BY IDOCK:   -5.44 KCAL/MOL
REMARK 924 INTRA-LIGAND FREE ENERGY PREDICTED BY IDOCK:   -0.35 KCAL/MOL
REMARK 927      BINDING AFFINITY PREDICTED BY RF-SCORE:    0.00 PKD
ROOT
HETATM    1  O   UNL     1      -6.149   5.783  68.430  1.00  0.00    -0.022 OA 
HETATM    2  C   UNL     1      -6.617   6.584  67.624  1.00  0.00    -0.061 C  
HETATM    3  C   UNL     1      -6.210   6.602  66.169  1.00  0.00    -0.041 C  
HETATM    4  C   UNL     1      -7.342   7.046  65.250  1.00  0.00    -0.077 C  
HETATM    5  C   UNL     1      -8.074   8.250  65.780  1.00  0.00    -0.109 A  
HETATM    6  C   UNL     1      -8.103   8.472  67.162  1.00  0.00    -0.104 A  
HETATM    7  N   UNL     1      -7.444   7.594  68.029  1.00  0.00    -0.102 N  
HETATM    8  C   UNL     1      -8.829   9.536  67.687  1.00  0.00    -0.121 A  
HETATM    9  C   UNL     1      -9.542  10.384  66.831  1.00  0.00    -0.207 A  
HETATM   10  H   UNL     1      -7.592   7.716  69.030  1.00  0.00     0.000 HD 
HETATM   11  C   UNL     1      -9.560  10.165  65.449  1.00  0.00    -0.264 A  
HETATM   12  C   UNL     1      -8.820   9.095  64.927  1.00  0.00    -0.215 A  
ENDROOT
BRANCH  11  13
HETATM   13  O   UNL     1     -10.339  11.054  64.745  1.00  0.00    -0.294 OA 
BRANCH  13  14
HETATM   14  C   UNL     1     -10.945  12.115  65.484  1.00  0.00    -0.301 C  
BRANCH  14  15
HETATM   15  C   UNL     1     -11.304  13.300  64.556  1.00  0.00    -0.392 C  
BRANCH  15  16
HETATM   16  C   UNL     1     -10.288  14.430  64.775  1.00  0.00    -0.352 C  
BRANCH  16  17
HETATM   17  C   UNL     1     -10.778  15.746  65.390  1.00  0.00    -0.420 C  
BRANCH  17  18
HETATM   18  C   UNL     1      -9.715  16.666  65.872  1.00  0.00    -0.237 A  
HETATM   19  N   UNL     1      -9.821  17.982  65.770  1.00  0.00    -0.522 NA 
HETATM   20  N   UNL     1      -8.730  18.520  66.380  1.00  0.00    -0.378 NA 
HETATM   21  N   UNL     1      -7.940  17.571  66.839  1.00  0.00    -0.214 NA 
HETATM   22  N   UNL     1      -8.564  16.396  66.587  1.00  0.00    -0.231 NA 
BRANCH  22  23
HETATM   23  C   UNL     1      -7.880  15.175  67.004  1.00  0.00    -0.162 C  
HETATM   24  C   UNL     1      -6.422  15.444  67.471  1.00  0.00    -0.174 C  
HETATM   25  C   UNL     1      -6.395  16.214  68.793  1.00  0.00    -0.119 C  
HETATM   26  C   UNL     1      -7.105  15.430  69.893  1.00  0.00    -0.073 C  
HETATM   27  C   UNL     1      -8.508  14.986  69.479  1.00  0.00    -0.084 C  
HETATM   28  C   UNL     1      -8.531  14.317  68.102  1.00  0.00    -0.167 C  
ENDBRANCH  22  23
ENDBRANCH  17  18
ENDBRANCH  16  17
ENDBRANCH  15  16
ENDBRANCH  14  15
ENDBRANCH  13  14
ENDBRANCH  11  13
TORSDOF 7
ENDMDL
MODEL      354
REMARK 921   NORMALIZED FREE ENERGY PREDICTED BY IDOCK:   -3.37 KCAL/MOL
REMARK 922        TOTAL FREE ENERGY PREDICTED BY IDOCK:   -5.77 KCAL/MOL
REMARK 923 INTER-LIGAND FREE ENERGY PREDICTED BY IDOCK:   -4.12 KCAL/MOL
REMARK 924 INTRA-LIGAND FREE ENERGY PREDICTED BY IDOCK:   -1.65 KCAL/MOL
REMARK 927      BINDING AFFINITY PREDICTED BY RF-SCORE:    0.00 PKD
ROOT
HETATM    1  O   UNL     1      -5.243  11.290  71.465  1.00  0.00    -0.264 OA 
HETATM    2  C   UNL     1      -5.747  10.231  71.097  1.00  0.00    -0.035 C  
HETATM    3  C   UNL     1      -6.501   9.322  72.040  1.00  0.00     0.159 C  
HETATM    4  C   UNL     1      -7.626   8.563  71.347  1.00  0.00    -0.124 C  
HETATM    5  C   UNL     1      -7.202   7.989  70.022  1.00  0.00    -0.061 A  
HETATM    6  C   UNL     1      -6.174   8.619  69.308  1.00  0.00    -0.042 A  
HETATM    7  N   UNL     1      -5.546   9.752  69.833  1.00  0.00    -0.036 N  
HETATM    8  C   UNL     1      -5.807   8.153  68.050  1.00  0.00    -0.042 A  
HETATM    9  C   UNL     1      -6.474   7.057  67.489  1.00  0.00    -0.054 A  
HETATM   10  H   UNL     1      -4.893  10.254  69.232  1.00  0.00     0.000 HD 
HETATM   11  C   UNL     1      -7.527   6.431  68.165  1.00  0.00    -0.094 A  
HETATM   12  C   UNL     1      -7.886   6.901  69.436  1.00  0.00    -0.113 A  
ENDROOT
BRANCH  11  13
HETATM   13  O   UNL     1      -8.111   5.398  67.469  1.00  0.00    -0.100 OA 
BRANCH  13  14
HETATM   14  C   UNL     1      -9.459   5.583  67.039  1.00  0.00    -0.131 C  
BRANCH  14  15
HETATM   15  C   UNL     1      -9.523   6.499  65.793  1.00  0.00     0.190 C  
BRANCH  15  16
HETATM   16  C   UNL     1      -9.840   7.932  66.243  1.00  0.00    -0.139 C  
BRANCH  16  17
HETATM   17  C   UNL     1      -9.022   9.083  65.647  1.00  0.00    -0.249 C  
BRANCH  17  18
HETATM   18  C   UNL     1      -9.765  10.351  65.422  1.00  0.00    -0.265 A  
HETATM   19  N   UNL     1     -10.417  10.596  64.296  1.00  0.00    -0.278 NA 
HETATM   20  N   UNL     1     -11.052  11.789  64.453  1.00  0.00    -0.330 NA 
HETATM   21  N   UNL     1     -10.793  12.300  65.639  1.00  0.00    -0.276 NA 
HETATM   22  N   UNL     1     -10.035  11.388  66.293  1.00  0.00    -0.217 NA 
BRANCH  22  23
HETATM   23  C   UNL     1      -9.609  11.726  67.649  1.00  0.00    -0.183 C  
HETATM   24  C   UNL     1     -10.511  12.810  68.300  1.00  0.00    -0.250 C  
HETATM   25  C   UNL     1     -11.908  12.261  68.604  1.00  0.00    -0.354 C  
HETATM   26  C   UNL     1     -11.830  11.076  69.560  1.00  0.00    -0.404 C  
HETATM   27  C   UNL     1     -10.849  10.005  69.082  1.00  0.00    -0.253 C  
HETATM   28  C   UNL     1      -9.493  10.588  68.677  1.00  0.00    -0.172 C  
ENDBRANCH  22  23
ENDBRANCH  17  18
ENDBRANCH  16  17
ENDBRANCH  15  16
ENDBRANCH  14  15
ENDBRANCH  13  14
ENDBRANCH  11  13
TORSDOF 7
ENDMDL
MODEL      355
REMARK 921   NORMALIZED FREE ENERGY PREDICTED BY IDOCK:   -3.35 KCAL/MOL
REMARK 922        TOTAL FREE ENERGY PREDICTED BY IDOCK:   -5.73 KCAL/MOL
REMARK 923 INTER-LIGAND FREE ENERGY PREDICTED BY IDOCK:   -3.81 KCAL/MOL
REMARK 924 INTRA-LIGAND FREE ENERGY PREDICTED BY IDOCK:   -1.92 KCAL/MOL
REMARK 927      BINDING AFFINITY PREDICTED BY RF-SCORE:    0.00 PKD
ROOT
HETATM    1  O   UNL     1      -8.899   4.936  72.324  1.00  0.00    -0.125 OA 
HETATM    2  C   UNL     1      -8.482   5.881  71.656  1.00  0.00    -0.128 C  
HETATM    3  C   UNL     1      -8.714   7.319  72.055  1.00  0.00    -0.129 C  
HETATM    4  C   UNL     1      -7.574   8.236  71.628  1.00  0.00    -0.112 C  
HETATM    5  C   UNL     1      -7.121   7.972  70.217  1.00  0.00    -0.048 A  
HETATM    6  C   UNL     1      -7.291   6.690  69.679  1.00  0.00    -0.083 A  
HETATM    7  N   UNL     1      -7.889   5.682  70.441  1.00  0.00    -0.100 N  
HETATM    8  C   UNL     1      -6.820   6.397  68.404  1.00  0.00    -0.071 A  
HETATM    9  C   UNL     1      -6.164   7.384  67.658  1.00  0.00    -0.047 A  
HETATM   10  H   UNL     1      -7.881   4.734  70.065  1.00  0.00     0.000 HD 
HETATM   11  C   UNL     1      -5.950   8.662  68.183  1.00  0.00    -0.046 A  
HETATM   12  C   UNL     1      -6.434   8.953  69.466  1.00  0.00    -0.043 A  
ENDROOT
BRANCH  11  13
HETATM   13  O   UNL     1      -5.255   9.508  67.350  1.00  0.00    -0.036 OA 
BRANCH  13  14
HETATM   14  C   UNL     1      -5.313   9.234  65.950  1.00  0.00    -0.040 C  
BRANCH  14  15
HETATM   15  C   UNL     1      -6.459  10.026  65.278  1.00  0.00    -0.112 C  
BRANCH  15  16
HETATM   16  C   UNL     1      -7.539   9.039  64.810  1.00  0.00    -0.105 C  
BRANCH  16  17
HETATM   17  C   UNL     1      -9.005   9.354  65.130  1.00  0.00    -0.258 C  
BRANCH  17  18
HETATM   18  C   UNL     1      -9.577   8.637  66.300  1.00  0.00    -0.252 A  
HETATM   19  N   UNL     1      -9.970   7.376  66.231  1.00  0.00    -0.017 NA 
HETATM   20  N   UNL     1     -10.353   7.006  67.483  1.00  0.00    -0.199 NA 
HETATM   21  N   UNL     1     -10.228   8.014  68.322  1.00  0.00    -0.200 NA 
HETATM   22  N   UNL     1      -9.685   9.035  67.618  1.00  0.00    -0.150 NA 
BRANCH  22  23
HETATM   23  C   UNL     1      -9.445  10.285  68.335  1.00  0.00    -0.146 C  
HETATM   24  C   UNL     1      -9.864  11.532  67.507  1.00  0.00    -0.203 C  
HETATM   25  C   UNL     1     -11.385  11.613  67.357  1.00  0.00    -0.367 C  
HETATM   26  C   UNL     1     -12.062  11.704  68.721  1.00  0.00    -0.221 C  
HETATM   27  C   UNL     1     -11.606  10.598  69.673  1.00  0.00    -0.368 C  
HETATM   28  C   UNL     1     -10.082  10.458  69.724  1.00  0.00    -0.201 C  
ENDBRANCH  22  23
ENDBRANCH  17  18
ENDBRANCH  16  17
ENDBRANCH  15  16
ENDBRANCH  14  15
ENDBRANCH  13  14
ENDBRANCH  11  13
TORSDOF 7
ENDMDL
MODEL      356
REMARK 921   NORMALIZED FREE ENERGY PREDICTED BY IDOCK:   -3.33 KCAL/MOL
REMARK 922        TOTAL FREE ENERGY PREDICTED BY IDOCK:   -5.70 KCAL/MOL
REMARK 923 INTER-LIGAND FREE ENERGY PREDICTED BY IDOCK:   -5.15 KCAL/MOL
REMARK 924 INTRA-LIGAND FREE ENERGY PREDICTED BY IDOCK:   -0.55 KCAL/MOL
REMARK 927      BINDING AFFINITY PREDICTED BY RF-SCORE:    0.00 PKD
ROOT
HETATM    1  O   UNL     1     -10.370  19.552  68.542  1.00  0.00    -0.419 OA 
HETATM    2  C   UNL     1     -10.053  18.485  68.022  1.00  0.00    -0.371 C  
HETATM    3  C   UNL     1      -8.841  17.698  68.462  1.00  0.00    -0.285 C  
HETATM    4  C   UNL     1      -9.031  16.194  68.307  1.00  0.00    -0.189 C  
HETATM    5  C   UNL     1      -9.655  15.826  66.987  1.00  0.00    -0.236 A  
HETATM    6  C   UNL     1     -10.486  16.754  66.348  1.00  0.00    -0.269 A  
HETATM    7  N   UNL     1     -10.713  18.008  66.924  1.00  0.00    -0.268 N  
HETATM    8  C   UNL     1     -11.132  16.418  65.163  1.00  0.00    -0.176 A  
HETATM    9  C   UNL     1     -10.960  15.143  64.612  1.00  0.00    -0.321 A  
HETATM   10  H   UNL     1     -11.419  18.606  66.496  1.00  0.00     0.000 HD 
HETATM   11  C   UNL     1     -10.164  14.184  65.247  1.00  0.00    -0.375 A  
HETATM   12  C   UNL     1      -9.510  14.532  66.437  1.00  0.00    -0.316 A  
ENDROOT
BRANCH  11  13
HETATM   13  O   UNL     1     -10.126  12.966  64.608  1.00  0.00    -0.298 OA 
BRANCH  13  14
HETATM   14  C   UNL     1      -9.763  11.831  65.394  1.00  0.00    -0.217 C  
BRANCH  14  15
HETATM   15  C   UNL     1      -8.806  10.899  64.612  1.00  0.00    -0.096 C  
BRANCH  15  16
HETATM   16  C   UNL     1      -8.428   9.710  65.506  1.00  0.00    -0.151 C  
BRANCH  16  17
HETATM   17  C   UNL     1      -8.306   9.939  67.017  1.00  0.00    -0.121 C  
BRANCH  17  18
HETATM   18  C   UNL     1      -9.166   9.078  67.870  1.00  0.00    -0.141 A  
HETATM   19  N   UNL     1     -10.387   8.718  67.506  1.00  0.00    -0.252 NA 
HETATM   20  N   UNL     1     -10.856   7.869  68.460  1.00  0.00    -0.004 NA 
HETATM   21  N   UNL     1      -9.965   7.710  69.418  1.00  0.00    -0.176 NA 
HETATM   22  N   UNL     1      -8.868   8.411  69.043  1.00  0.00    -0.145 NA 
BRANCH  22  23
HETATM   23  C   UNL     1      -7.725   8.395  69.951  1.00  0.00    -0.092 C  
HETATM   24  C   UNL     1      -7.389   6.964  70.455  1.00  0.00    -0.077 C  
HETATM   25  C   UNL     1      -6.827   6.096  69.326  1.00  0.00    -0.062 C  
HETATM   26  C   UNL     1      -5.552   6.706  68.755  1.00  0.00    -0.017 C  
HETATM   27  C   UNL     1      -5.733   8.171  68.358  1.00  0.00    -0.033 C  
HETATM   28  C   UNL     1      -6.399   9.000  69.460  1.00  0.00    -0.043 C  
ENDBRANCH  22  23
ENDBRANCH  17  18
ENDBRANCH  16  17
ENDBRANCH  15  16
ENDBRANCH  14  15
ENDBRANCH  13  14
ENDBRANCH  11  13
TORSDOF 7
ENDMDL
MODEL      357
REMARK 921   NORMALIZED FREE ENERGY PREDICTED BY IDOCK:   -3.30 KCAL/MOL
REMARK 922        TOTAL FREE ENERGY PREDICTED BY IDOCK:   -5.67 KCAL/MOL
REMARK 923 INTER-LIGAND FREE ENERGY PREDICTED BY IDOCK:   -4.95 KCAL/MOL
REMARK 924 INTRA-LIGAND FREE ENERGY PREDICTED BY IDOCK:   -0.72 KCAL/MOL
REMARK 927      BINDING AFFINITY PREDICTED BY RF-SCORE:    0.00 PKD
ROOT
HETATM    1  O   UNL     1     -10.292  11.482  62.832  1.00  0.00    -0.250 OA 
HETATM    2  C   UNL     1      -9.867  11.016  63.887  1.00  0.00    -0.317 C  
HETATM    3  C   UNL     1      -8.629  10.152  63.952  1.00  0.00    -0.197 C  
HETATM    4  C   UNL     1      -7.865  10.321  65.259  1.00  0.00    -0.145 C  
HETATM    5  C   UNL     1      -8.773  10.322  66.460  1.00  0.00    -0.139 A  
HETATM    6  C   UNL     1     -10.098  10.750  66.308  1.00  0.00    -0.232 A  
HETATM    7  N   UNL     1     -10.567  11.151  65.054  1.00  0.00    -0.293 N  
HETATM    8  C   UNL     1     -10.941  10.828  67.412  1.00  0.00    -0.361 A  
HETATM    9  C   UNL     1     -10.460  10.487  68.682  1.00  0.00    -0.211 A  
HETATM   10  H   UNL     1     -11.494  11.573  65.006  1.00  0.00     0.000 HD 
HETATM   11  C   UNL     1      -9.132  10.090  68.868  1.00  0.00    -0.159 A  
HETATM   12  C   UNL     1      -8.291  10.007  67.751  1.00  0.00    -0.114 A  
ENDROOT
BRANCH  11  13
HETATM   13  O   UNL     1      -8.798   9.830  70.177  1.00  0.00    -0.218 OA 
BRANCH  13  14
HETATM   14  C   UNL     1      -7.740   8.899  70.406  1.00  0.00    -0.098 C  
BRANCH  14  15
HETATM   15  C   UNL     1      -8.297   7.524  70.843  1.00  0.00    -0.114 C  
BRANCH  15  16
HETATM   16  C   UNL     1      -9.804   7.655  71.102  1.00  0.00    -0.184 C  
BRANCH  16  17
HETATM   17  C   UNL     1     -10.684   6.409  70.953  1.00  0.00    -0.301 C  
BRANCH  17  18
HETATM   18  C   UNL     1     -10.630   5.445  72.083  1.00  0.00    -0.227 A  
HETATM   19  N   UNL     1     -11.070   5.751  73.293  1.00  0.00    -0.248 NA 
HETATM   20  N   UNL     1     -10.959   4.630  74.056  1.00  0.00    -0.282 NA 
HETATM   21  N   UNL     1     -10.441   3.642  73.356  1.00  0.00    -0.165 NA 
HETATM   22  N   UNL     1     -10.281   4.108  72.094  1.00  0.00    -0.175 NA 
BRANCH  22  23
HETATM   23  C   UNL     1      -9.712   3.189  71.111  1.00  0.00    -0.128 C  
HETATM   24  C   UNL     1      -8.418   3.749  70.457  1.00  0.00    -0.100 C  
HETATM   25  C   UNL     1      -7.263   3.794  71.461  1.00  0.00    -0.039 C  
HETATM   26  C   UNL     1      -6.955   2.400  71.997  1.00  0.00    -0.026 C  
HETATM   27  C   UNL     1      -8.199   1.695  72.537  1.00  0.00    -0.053 C  
HETATM   28  C   UNL     1      -9.379   1.758  71.564  1.00  0.00    -0.175 C  
ENDBRANCH  22  23
ENDBRANCH  17  18
ENDBRANCH  16  17
ENDBRANCH  15  16
ENDBRANCH  14  15
ENDBRANCH  13  14
ENDBRANCH  11  13
TORSDOF 7
ENDMDL
MODEL      358
REMARK 921   NORMALIZED FREE ENERGY PREDICTED BY IDOCK:   -3.30 KCAL/MOL
REMARK 922        TOTAL FREE ENERGY PREDICTED BY IDOCK:   -5.66 KCAL/MOL
REMARK 923 INTER-LIGAND FREE ENERGY PREDICTED BY IDOCK:   -4.36 KCAL/MOL
REMARK 924 INTRA-LIGAND FREE ENERGY PREDICTED BY IDOCK:   -1.30 KCAL/MOL
REMARK 927      BINDING AFFINITY PREDICTED BY RF-SCORE:    0.00 PKD
ROOT
HETATM    1  O   UNL     1      -7.094   8.826  74.524  1.00  0.00    -0.327 OA 
HETATM    2  C   UNL     1      -7.410   8.285  73.466  1.00  0.00    -0.119 C  
HETATM    3  C   UNL     1      -6.712   8.587  72.161  1.00  0.00    -0.089 C  
HETATM    4  C   UNL     1      -6.670   7.384  71.227  1.00  0.00    -0.050 C  
HETATM    5  C   UNL     1      -7.991   6.665  71.156  1.00  0.00    -0.107 A  
HETATM    6  C   UNL     1      -8.857   6.729  72.255  1.00  0.00    -0.131 A  
HETATM    7  N   UNL     1      -8.502   7.466  73.388  1.00  0.00    -0.127 N  
HETATM    8  C   UNL     1     -10.053   6.019  72.247  1.00  0.00    -0.205 A  
HETATM    9  C   UNL     1     -10.388   5.228  71.141  1.00  0.00    -0.291 A  
HETATM   10  H   UNL     1      -9.097   7.387  74.212  1.00  0.00     0.000 HD 
HETATM   11  C   UNL     1      -9.526   5.118  70.045  1.00  0.00    -0.160 A  
HETATM   12  C   UNL     1      -8.326   5.843  70.057  1.00  0.00    -0.122 A  
ENDROOT
BRANCH  11  13
HETATM   13  O   UNL     1      -9.972   4.272  69.057  1.00  0.00    -0.129 OA 
BRANCH  13  14
HETATM   14  C   UNL     1      -9.957   4.769  67.719  1.00  0.00    -0.112 C  
BRANCH  14  15
HETATM   15  C   UNL     1     -10.923   5.968  67.562  1.00  0.00    -0.335 C  
BRANCH  15  16
HETATM   16  C   UNL     1     -10.296   6.993  66.606  1.00  0.00    -0.215 C  
BRANCH  16  17
HETATM   17  C   UNL     1     -10.604   8.479  66.822  1.00  0.00    -0.227 C  
BRANCH  17  18
HETATM   18  C   UNL     1      -9.655   9.431  66.189  1.00  0.00    -0.247 A  
HETATM   19  N   UNL     1      -9.268   9.309  64.930  1.00  0.00    -0.197 NA 
HETATM   20  N   UNL     1      -8.480  10.382  64.646  1.00  0.00    -0.177 NA 
HETATM   21  N   UNL     1      -8.351  11.155  65.705  1.00  0.00    -0.099 NA 
HETATM   22  N   UNL     1      -9.129  10.614  66.673  1.00  0.00    -0.158 NA 
BRANCH  22  23
HETATM   23  C   UNL     1      -9.156  11.295  67.965  1.00  0.00    -0.156 C  
HETATM   24  C   UNL     1      -8.575  10.419  69.109  1.00  0.00    -0.169 C  
HETATM   25  C   UNL     1      -7.063  10.233  68.952  1.00  0.00    -0.075 C  
HETATM   26  C   UNL     1      -6.345  11.578  68.978  1.00  0.00    -0.069 C  
HETATM   27  C   UNL     1      -6.938  12.575  67.982  1.00  0.00    -0.095 C  
HETATM   28  C   UNL     1      -8.464  12.664  68.078  1.00  0.00    -0.177 C  
ENDBRANCH  22  23
ENDBRANCH  17  18
ENDBRANCH  16  17
ENDBRANCH  15  16
ENDBRANCH  14  15
ENDBRANCH  13  14
ENDBRANCH  11  13
TORSDOF 7
ENDMDL
MODEL      359
REMARK 921   NORMALIZED FREE ENERGY PREDICTED BY IDOCK:   -3.19 KCAL/MOL
REMARK 922        TOTAL FREE ENERGY PREDICTED BY IDOCK:   -5.51 KCAL/MOL
REMARK 923 INTER-LIGAND FREE ENERGY PREDICTED BY IDOCK:   -4.23 KCAL/MOL
REMARK 924 INTRA-LIGAND FREE ENERGY PREDICTED BY IDOCK:   -1.28 KCAL/MOL
REMARK 927      BINDING AFFINITY PREDICTED BY RF-SCORE:    0.00 PKD
ROOT
HETATM    1  O   UNL     1      -5.629  12.578  71.298  1.00  0.00    -0.360 OA 
HETATM    2  C   UNL     1      -5.622  11.494  70.718  1.00  0.00    -0.111 C  
HETATM    3  C   UNL     1      -5.424  10.186  71.448  1.00  0.00    -0.045 C  
HETATM    4  C   UNL     1      -6.172   9.031  70.793  1.00  0.00    -0.048 C  
HETATM    5  C   UNL     1      -6.016   9.020  69.295  1.00  0.00    -0.041 A  
HETATM    6  C   UNL     1      -5.776  10.230  68.630  1.00  0.00    -0.037 A  
HETATM    7  N   UNL     1      -5.668  11.421  69.354  1.00  0.00    -0.054 N  
HETATM    8  C   UNL     1      -5.696  10.262  67.242  1.00  0.00    -0.045 A  
HETATM    9  C   UNL     1      -5.866   9.084  66.505  1.00  0.00    -0.055 A  
HETATM   10  H   UNL     1      -5.619  12.293  68.829  1.00  0.00     0.000 HD 
HETATM   11  C   UNL     1      -6.141   7.869  67.141  1.00  0.00    -0.053 A  
HETATM   12  C   UNL     1      -6.213   7.842  68.541  1.00  0.00    -0.044 A  
ENDROOT
BRANCH  11  13
HETATM   13  O   UNL     1      -6.325   6.810  66.282  1.00  0.00    -0.042 OA 
BRANCH  13  14
HETATM   14  C   UNL     1      -7.522   6.048  66.437  1.00  0.00    -0.086 C  
BRANCH  14  15
HETATM   15  C   UNL     1      -8.639   6.574  65.504  1.00  0.00    -0.109 C  
BRANCH  15  16
HETATM   16  C   UNL     1      -9.216   7.867  66.097  1.00  0.00    -0.208 C  
BRANCH  16  17
HETATM   17  C   UNL     1     -10.425   7.767  67.033  1.00  0.00    -0.419 C  
BRANCH  17  18
HETATM   18  C   UNL     1     -10.350   8.585  68.272  1.00  0.00    -0.201 A  
HETATM   19  N   UNL     1      -9.734   8.158  69.363  1.00  0.00    -0.168 NA 
HETATM   20  N   UNL     1      -9.772   9.173  70.268  1.00  0.00    -0.195 NA 
HETATM   21  N   UNL     1     -10.416  10.211  69.774  1.00  0.00    -0.248 NA 
HETATM   22  N   UNL     1     -10.737   9.892  68.497  1.00  0.00    -0.223 NA 
BRANCH  22  23
HETATM   23  C   UNL     1     -11.468  10.892  67.724  1.00  0.00    -0.243 C  
HETATM   24  C   UNL     1     -11.341  12.318  68.330  1.00  0.00    -0.340 C  
HETATM   25  C   UNL     1      -9.920  12.864  68.170  1.00  0.00    -0.234 C  
HETATM   26  C   UNL     1      -9.529  12.940  66.699  1.00  0.00    -0.255 C  
HETATM   27  C   UNL     1      -9.755  11.618  65.965  1.00  0.00    -0.257 C  
HETATM   28  C   UNL     1     -11.145  11.031  66.227  1.00  0.00    -0.106 C  
ENDBRANCH  22  23
ENDBRANCH  17  18
ENDBRANCH  16  17
ENDBRANCH  15  16
ENDBRANCH  14  15
ENDBRANCH  13  14
ENDBRANCH  11  13
TORSDOF 7
ENDMDL
MODEL      360
REMARK 921   NORMALIZED FREE ENERGY PREDICTED BY IDOCK:   -3.19 KCAL/MOL
REMARK 922        TOTAL FREE ENERGY PREDICTED BY IDOCK:   -5.51 KCAL/MOL
REMARK 923 INTER-LIGAND FREE ENERGY PREDICTED BY IDOCK:   -5.05 KCAL/MOL
REMARK 924 INTRA-LIGAND FREE ENERGY PREDICTED BY IDOCK:   -0.46 KCAL/MOL
REMARK 927      BINDING AFFINITY PREDICTED BY RF-SCORE:    0.00 PKD
ROOT
HETATM    1  O   UNL     1     -12.489  14.700  64.504  1.00  0.00    -0.579 OA 
HETATM    2  C   UNL     1     -12.193  13.577  64.905  1.00  0.00    -0.410 C  
HETATM    3  C   UNL     1     -11.847  12.446  63.965  1.00  0.00    -0.521 C  
HETATM    4  C   UNL     1     -10.831  11.479  64.562  1.00  0.00    -0.390 C  
HETATM    5  C   UNL     1     -11.147  11.122  65.990  1.00  0.00    -0.117 A  
HETATM    6  C   UNL     1     -11.860  12.036  66.775  1.00  0.00    -0.164 A  
HETATM    7  N   UNL     1     -12.284  13.251  66.230  1.00  0.00    -0.401 N  
HETATM    8  C   UNL     1     -12.107  11.764  68.117  1.00  0.00    -0.040 A  
HETATM    9  C   UNL     1     -11.632  10.578  68.688  1.00  0.00    -0.241 A  
HETATM   10  H   UNL     1     -12.688  13.941  66.862  1.00  0.00     0.000 HD 
HETATM   11  C   UNL     1     -10.887   9.664  67.936  1.00  0.00    -0.215 A  
HETATM   12  C   UNL     1     -10.648   9.940  66.583  1.00  0.00    -0.186 A  
ENDROOT
BRANCH  11  13
HETATM   13  O   UNL     1     -10.453   8.567  68.646  1.00  0.00    -0.208 OA 
BRANCH  13  14
HETATM   14  C   UNL     1      -9.063   8.508  68.964  1.00  0.00    -0.146 C  
BRANCH  14  15
HETATM   15  C   UNL     1      -8.709   7.167  69.652  1.00  0.00    -0.141 C  
BRANCH  15  16
HETATM   16  C   UNL     1      -9.901   6.209  69.518  1.00  0.00    -0.193 C  
BRANCH  16  17
HETATM   17  C   UNL     1     -10.014   5.040  70.504  1.00  0.00    -0.312 C  
BRANCH  17  18
HETATM   18  C   UNL     1      -9.179   3.850  70.189  1.00  0.00    -0.147 A  
HETATM   19  N   UNL     1      -9.168   3.293  68.989  1.00  0.00    -0.146 NA 
HETATM   20  N   UNL     1      -8.243   2.296  69.018  1.00  0.00    -0.051 NA 
HETATM   21  N   UNL     1      -7.694   2.207  70.213  1.00  0.00    -0.042 NA 
HETATM   22  N   UNL     1      -8.220   3.212  70.953  1.00  0.00    -0.056 NA 
BRANCH  22  23
HETATM   23  C   UNL     1      -7.767   3.328  72.337  1.00  0.00    -0.058 C  
HETATM   24  C   UNL     1      -6.222   3.449  72.445  1.00  0.00    -0.013 C  
HETATM   25  C   UNL     1      -5.731   4.795  71.905  1.00  0.00    -0.012 C  
HETATM   26  C   UNL     1      -6.350   5.951  72.682  1.00  0.00    -0.058 C  
HETATM   27  C   UNL     1      -7.873   5.851  72.762  1.00  0.00    -0.104 C  
HETATM   28  C   UNL     1      -8.349   4.463  73.198  1.00  0.00    -0.095 C  
ENDBRANCH  22  23
ENDBRANCH  17  18
ENDBRANCH  16  17
ENDBRANCH  15  16
ENDBRANCH  14  15
ENDBRANCH  13  14
ENDBRANCH  11  13
TORSDOF 7
ENDMDL
MODEL      361
REMARK 921   NORMALIZED FREE ENERGY PREDICTED BY IDOCK:   -3.16 KCAL/MOL
REMARK 922        TOTAL FREE ENERGY PREDICTED BY IDOCK:   -5.46 KCAL/MOL
REMARK 923 INTER-LIGAND FREE ENERGY PREDICTED BY IDOCK:   -4.65 KCAL/MOL
REMARK 924 INTRA-LIGAND FREE ENERGY PREDICTED BY IDOCK:   -0.81 KCAL/MOL
REMARK 927      BINDING AFFINITY PREDICTED BY RF-SCORE:    0.00 PKD
ROOT
HETATM    1  O   UNL     1     -12.091  12.772  63.344  1.00  0.00    -0.523 OA 
HETATM    2  C   UNL     1     -11.290  12.153  64.041  1.00  0.00    -0.395 C  
HETATM    3  C   UNL     1     -10.430  11.039  63.493  1.00  0.00    -0.365 C  
HETATM    4  C   UNL     1      -9.077  10.946  64.188  1.00  0.00    -0.166 C  
HETATM    5  C   UNL     1      -9.191  11.060  65.685  1.00  0.00    -0.231 A  
HETATM    6  C   UNL     1     -10.265  11.776  66.230  1.00  0.00    -0.221 A  
HETATM    7  N   UNL     1     -11.222  12.356  65.391  1.00  0.00    -0.307 N  
HETATM    8  C   UNL     1     -10.360  11.958  67.606  1.00  0.00    -0.217 A  
HETATM    9  C   UNL     1      -9.373  11.433  68.449  1.00  0.00    -0.194 A  
HETATM   10  H   UNL     1     -11.915  12.971  65.816  1.00  0.00     0.000 HD 
HETATM   11  C   UNL     1      -8.272  10.745  67.929  1.00  0.00    -0.113 A  
HETATM   12  C   UNL     1      -8.187  10.559  66.543  1.00  0.00    -0.133 A  
ENDROOT
BRANCH  11  13
HETATM   13  O   UNL     1      -7.366  10.328  68.877  1.00  0.00    -0.079 OA 
BRANCH  13  14
HETATM   14  C   UNL     1      -7.894   9.774  70.082  1.00  0.00    -0.183 C  
BRANCH  14  15
HETATM   15  C   UNL     1      -7.228   8.415  70.405  1.00  0.00    -0.037 C  
BRANCH  15  16
HETATM   16  C   UNL     1      -7.275   7.527  69.154  1.00  0.00    -0.084 C  
BRANCH  16  17
HETATM   17  C   UNL     1      -8.632   6.977  68.698  1.00  0.00    -0.120 C  
BRANCH  17  18
HETATM   18  C   UNL     1      -9.308   6.059  69.652  1.00  0.00    -0.144 A  
HETATM   19  N   UNL     1      -9.935   6.500  70.730  1.00  0.00    -0.184 NA 
HETATM   20  N   UNL     1     -10.511   5.422  71.328  1.00  0.00    -0.233 NA 
HETATM   21  N   UNL     1     -10.239   4.320  70.658  1.00  0.00    -0.060 NA 
HETATM   22  N   UNL     1      -9.534   4.699  69.566  1.00  0.00    -0.149 NA 
BRANCH  22  23
HETATM   23  C   UNL     1      -9.105   3.644  68.651  1.00  0.00    -0.142 C  
HETATM   24  C   UNL     1      -7.675   3.890  68.093  1.00  0.00    -0.066 C  
HETATM   25  C   UNL     1      -6.617   3.722  69.186  1.00  0.00    -0.040 C  
HETATM   26  C   UNL     1      -6.659   2.316  69.773  1.00  0.00    -0.029 C  
HETATM   27  C   UNL     1      -8.063   1.914  70.224  1.00  0.00    -0.055 C  
HETATM   28  C   UNL     1      -9.125   2.192  69.157  1.00  0.00    -0.180 C  
ENDBRANCH  22  23
ENDBRANCH  17  18
ENDBRANCH  16  17
ENDBRANCH  15  16
ENDBRANCH  14  15
ENDBRANCH  13  14
ENDBRANCH  11  13
TORSDOF 7
ENDMDL
MODEL      362
REMARK 921   NORMALIZED FREE ENERGY PREDICTED BY IDOCK:   -3.15 KCAL/MOL
REMARK 922        TOTAL FREE ENERGY PREDICTED BY IDOCK:   -5.45 KCAL/MOL
REMARK 923 INTER-LIGAND FREE ENERGY PREDICTED BY IDOCK:   -5.30 KCAL/MOL
REMARK 924 INTRA-LIGAND FREE ENERGY PREDICTED BY IDOCK:   -0.15 KCAL/MOL
REMARK 927      BINDING AFFINITY PREDICTED BY RF-SCORE:    0.00 PKD
ROOT
HETATM    1  O   UNL     1      -7.476   2.893  66.763  1.00  0.00    -0.069 OA 
HETATM    2  C   UNL     1      -7.854   3.951  67.261  1.00  0.00    -0.087 C  
HETATM    3  C   UNL     1      -8.625   4.007  68.559  1.00  0.00    -0.115 C  
HETATM    4  C   UNL     1      -8.333   5.271  69.359  1.00  0.00    -0.095 C  
HETATM    5  C   UNL     1      -8.331   6.508  68.501  1.00  0.00    -0.121 A  
HETATM    6  C   UNL     1      -8.005   6.390  67.144  1.00  0.00    -0.112 A  
HETATM    7  N   UNL     1      -7.705   5.138  66.599  1.00  0.00    -0.092 N  
HETATM    8  C   UNL     1      -7.927   7.523  66.341  1.00  0.00    -0.107 A  
HETATM    9  C   UNL     1      -8.164   8.788  66.893  1.00  0.00    -0.108 A  
HETATM   10  H   UNL     1      -7.352   5.108  65.643  1.00  0.00     0.000 HD 
HETATM   11  C   UNL     1      -8.457   8.937  68.252  1.00  0.00    -0.130 A  
HETATM   12  C   UNL     1      -8.542   7.791  69.054  1.00  0.00    -0.135 A  
ENDROOT
BRANCH  11  13
HETATM   13  O   UNL     1      -8.623  10.242  68.655  1.00  0.00    -0.116 OA 
BRANCH  13  14
HETATM   14  C   UNL     1      -7.440  11.014  68.862  1.00  0.00    -0.123 C  
BRANCH  14  15
HETATM   15  C   UNL     1      -7.513  12.357  68.097  1.00  0.00    -0.118 C  
BRANCH  15  16
HETATM   16  C   UNL     1      -8.986  12.700  67.832  1.00  0.00    -0.189 C  
BRANCH  16  17
HETATM   17  C   UNL     1      -9.397  13.111  66.413  1.00  0.00    -0.188 C  
BRANCH  17  18
HETATM   18  C   UNL     1      -9.568  14.571  66.191  1.00  0.00    -0.297 A  
HETATM   19  N   UNL     1      -8.548  15.414  66.228  1.00  0.00    -0.215 NA 
HETATM   20  N   UNL     1      -9.031  16.642  65.898  1.00  0.00    -0.505 NA 
HETATM   21  N   UNL     1     -10.329  16.587  65.679  1.00  0.00    -0.515 NA 
HETATM   22  N   UNL     1     -10.683  15.284  65.796  1.00  0.00    -0.331 NA 
BRANCH  22  23
HETATM   23  C   UNL     1     -12.092  14.957  65.598  1.00  0.00    -0.008 C  
HETATM   24  C   UNL     1     -12.428  14.666  64.109  1.00  0.00    -0.180 C  
HETATM   25  C   UNL     1     -11.795  13.353  63.643  1.00  0.00    -0.451 C  
HETATM   26  C   UNL     1     -12.299  12.180  64.477  1.00  0.00    -0.395 C  
HETATM   27  C   UNL     1     -12.148  12.425  65.979  1.00  0.00    -0.327 C  
HETATM   28  C   UNL     1     -12.687  13.792  66.408  1.00  0.00    -0.172 C  
ENDBRANCH  22  23
ENDBRANCH  17  18
ENDBRANCH  16  17
ENDBRANCH  15  16
ENDBRANCH  14  15
ENDBRANCH  13  14
ENDBRANCH  11  13
TORSDOF 7
ENDMDL
MODEL      363
REMARK 921   NORMALIZED FREE ENERGY PREDICTED BY IDOCK:   -3.09 KCAL/MOL
REMARK 922        TOTAL FREE ENERGY PREDICTED BY IDOCK:   -5.37 KCAL/MOL
REMARK 923 INTER-LIGAND FREE ENERGY PREDICTED BY IDOCK:   -5.60 KCAL/MOL
REMARK 924 INTRA-LIGAND FREE ENERGY PREDICTED BY IDOCK:    0.23 KCAL/MOL
REMARK 927      BINDING AFFINITY PREDICTED BY RF-SCORE:    0.00 PKD
ROOT
HETATM    1  O   UNL     1      -7.743   7.038  70.164  1.00  0.00    -0.096 OA 
HETATM    2  C   UNL     1      -8.063   7.925  69.377  1.00  0.00    -0.125 C  
HETATM    3  C   UNL     1      -8.440   9.316  69.832  1.00  0.00    -0.170 C  
HETATM    4  C   UNL     1      -8.056  10.388  68.820  1.00  0.00    -0.125 C  
HETATM    5  C   UNL     1      -8.412  10.001  67.409  1.00  0.00    -0.121 A  
HETATM    6  C   UNL     1      -8.470   8.642  67.074  1.00  0.00    -0.110 A  
HETATM    7  N   UNL     1      -8.220   7.667  68.043  1.00  0.00    -0.123 N  
HETATM    8  C   UNL     1      -8.728   8.255  65.763  1.00  0.00    -0.196 A  
HETATM    9  C   UNL     1      -8.919   9.226  64.772  1.00  0.00    -0.217 A  
HETATM   10  H   UNL     1      -8.148   6.698  67.735  1.00  0.00     0.000 HD 
HETATM   11  C   UNL     1      -8.831  10.589  65.073  1.00  0.00    -0.191 A  
HETATM   12  C   UNL     1      -8.579  10.972  66.397  1.00  0.00    -0.165 A  
ENDROOT
BRANCH  11  13
HETATM   13  O   UNL     1      -8.999  11.419  63.988  1.00  0.00     0.018 OA 
BRANCH  13  14
HETATM   14  C   UNL     1     -10.286  12.011  63.815  1.00  0.00    -0.426 C  
BRANCH  14  15
HETATM   15  C   UNL     1     -11.226  11.647  64.989  1.00  0.00    -0.275 C  
BRANCH  15  16
HETATM   16  C   UNL     1     -12.401  12.635  65.012  1.00  0.00    -0.561 C  
BRANCH  16  17
HETATM   17  C   UNL     1     -12.496  13.631  66.174  1.00  0.00    -0.449 C  
BRANCH  17  18
HETATM   18  C   UNL     1     -12.033  13.128  67.493  1.00  0.00    -0.317 A  
HETATM   19  N   UNL     1     -12.016  11.838  67.790  1.00  0.00    -0.600 NA 
HETATM   20  N   UNL     1     -11.459  11.718  69.025  1.00  0.00    -0.270 NA 
HETATM   21  N   UNL     1     -11.149  12.903  69.512  1.00  0.00    -0.062 NA 
HETATM   22  N   UNL     1     -11.443  13.804  68.544  1.00  0.00    -0.284 NA 
BRANCH  22  23
HETATM   23  C   UNL     1     -11.189  15.211  68.844  1.00  0.00    -0.283 C  
HETATM   24  C   UNL     1     -12.470  15.958  69.307  1.00  0.00     0.263 C  
HETATM   25  C   UNL     1     -12.921  15.483  70.690  1.00  0.00    -0.425 C  
HETATM   26  C   UNL     1     -11.832  15.725  71.730  1.00  0.00    -0.549 C  
HETATM   27  C   UNL     1     -10.480  15.150  71.303  1.00  0.00     0.542 C  
HETATM   28  C   UNL     1     -10.098  15.547  69.875  1.00  0.00    -0.282 C  
ENDBRANCH  22  23
ENDBRANCH  17  18
ENDBRANCH  16  17
ENDBRANCH  15  16
ENDBRANCH  14  15
ENDBRANCH  13  14
ENDBRANCH  11  13
TORSDOF 7
ENDMDL
MODEL      364
REMARK 921   NORMALIZED FREE ENERGY PREDICTED BY IDOCK:   -3.08 KCAL/MOL
REMARK 922        TOTAL FREE ENERGY PREDICTED BY IDOCK:   -5.36 KCAL/MOL
REMARK 923 INTER-LIGAND FREE ENERGY PREDICTED BY IDOCK:   -4.87 KCAL/MOL
REMARK 924 INTRA-LIGAND FREE ENERGY PREDICTED BY IDOCK:   -0.49 KCAL/MOL
REMARK 927      BINDING AFFINITY PREDICTED BY RF-SCORE:    0.00 PKD
ROOT
HETATM    1  O   UNL     1      -6.797   2.653  65.803  1.00  0.00    -0.042 OA 
HETATM    2  C   UNL     1      -7.524   3.091  66.692  1.00  0.00    -0.075 C  
HETATM    3  C   UNL     1      -9.024   2.906  66.677  1.00  0.00    -0.168 C  
HETATM    4  C   UNL     1      -9.614   2.795  68.077  1.00  0.00    -0.101 C  
HETATM    5  C   UNL     1      -9.052   3.824  69.022  1.00  0.00    -0.199 A  
HETATM    6  C   UNL     1      -7.764   4.324  68.790  1.00  0.00    -0.066 A  
HETATM    7  N   UNL     1      -7.026   3.884  67.688  1.00  0.00    -0.054 N  
HETATM    8  C   UNL     1      -7.191   5.224  69.683  1.00  0.00    -0.060 A  
HETATM    9  C   UNL     1      -7.899   5.623  70.823  1.00  0.00    -0.093 A  
HETATM   10  H   UNL     1      -6.051   4.174  67.622  1.00  0.00     0.000 HD 
HETATM   11  C   UNL     1      -9.171   5.112  71.097  1.00  0.00    -0.145 A  
HETATM   12  C   UNL     1      -9.746   4.212  70.189  1.00  0.00    -0.278 A  
ENDROOT
BRANCH  11  13
HETATM   13  O   UNL     1      -9.721   5.564  72.275  1.00  0.00    -0.154 OA 
BRANCH  13  14
HETATM   14  C   UNL     1     -11.031   6.127  72.207  1.00  0.00    -0.260 C  
BRANCH  14  15
HETATM   15  C   UNL     1     -11.240   7.180  73.321  1.00  0.00    -0.148 C  
BRANCH  15  16
HETATM   16  C   UNL     1     -11.477   8.552  72.673  1.00  0.00    -0.267 C  
BRANCH  16  17
HETATM   17  C   UNL     1     -10.681   8.913  71.413  1.00  0.00    -0.382 C  
BRANCH  17  18
HETATM   18  C   UNL     1      -9.212   9.049  71.598  1.00  0.00    -0.153 A  
HETATM   19  N   UNL     1      -8.607   8.700  72.722  1.00  0.00    -0.409 NA 
HETATM   20  N   UNL     1      -7.271   8.867  72.526  1.00  0.00    -0.336 NA 
HETATM   21  N   UNL     1      -7.034   9.332  71.317  1.00  0.00    -0.265 NA 
HETATM   22  N   UNL     1      -8.232   9.399  70.689  1.00  0.00    -0.198 NA 
BRANCH  22  23
HETATM   23  C   UNL     1      -8.238   9.894  69.315  1.00  0.00    -0.138 C  
HETATM   24  C   UNL     1      -8.251   8.742  68.271  1.00  0.00    -0.118 C  
HETATM   25  C   UNL     1      -9.591   8.002  68.279  1.00  0.00    -0.156 C  
HETATM   26  C   UNL     1     -10.738   8.950  67.949  1.00  0.00    -0.185 C  
HETATM   27  C   UNL     1     -10.733  10.200  68.829  1.00  0.00    -0.247 C  
HETATM   28  C   UNL     1      -9.356  10.865  68.898  1.00  0.00    -0.169 C  
ENDBRANCH  22  23
ENDBRANCH  17  18
ENDBRANCH  16  17
ENDBRANCH  15  16
ENDBRANCH  14  15
ENDBRANCH  13  14
ENDBRANCH  11  13
TORSDOF 7
ENDMDL
MODEL      365
REMARK 921   NORMALIZED FREE ENERGY PREDICTED BY IDOCK:   -3.06 KCAL/MOL
REMARK 922        TOTAL FREE ENERGY PREDICTED BY IDOCK:   -5.33 KCAL/MOL
REMARK 923 INTER-LIGAND FREE ENERGY PREDICTED BY IDOCK:   -5.29 KCAL/MOL
REMARK 924 INTRA-LIGAND FREE ENERGY PREDICTED BY IDOCK:   -0.04 KCAL/MOL
REMARK 927      BINDING AFFINITY PREDICTED BY RF-SCORE:    0.00 PKD
ROOT
HETATM    1  O   UNL     1      -7.574   1.482  67.505  1.00  0.00    -0.056 OA 
HETATM    2  C   UNL     1      -8.192   2.474  67.886  1.00  0.00    -0.063 C  
HETATM    3  C   UNL     1      -9.455   2.376  68.709  1.00  0.00    -0.182 C  
HETATM    4  C   UNL     1      -9.616   3.544  69.676  1.00  0.00    -0.184 C  
HETATM    5  C   UNL     1      -9.310   4.870  69.031  1.00  0.00    -0.183 A  
HETATM    6  C   UNL     1      -8.417   4.909  67.953  1.00  0.00    -0.103 A  
HETATM    7  N   UNL     1      -7.838   3.730  67.476  1.00  0.00    -0.082 N  
HETATM    8  C   UNL     1      -8.061   6.126  67.382  1.00  0.00    -0.109 A  
HETATM    9  C   UNL     1      -8.589   7.318  67.893  1.00  0.00    -0.120 A  
HETATM   10  H   UNL     1      -7.101   3.811  66.776  1.00  0.00     0.000 HD 
HETATM   11  C   UNL     1      -9.455   7.311  68.991  1.00  0.00    -0.147 A  
HETATM   12  C   UNL     1      -9.815   6.080  69.557  1.00  0.00    -0.202 A  
ENDROOT
BRANCH  11  13
HETATM   13  O   UNL     1      -9.855   8.560  69.405  1.00  0.00    -0.178 OA 
BRANCH  13  14
HETATM   14  C   UNL     1      -8.912   9.331  70.151  1.00  0.00    -0.214 C  
BRANCH  14  15
HETATM   15  C   UNL     1      -8.394  10.528  69.319  1.00  0.00    -0.144 C  
BRANCH  15  16
HETATM   16  C   UNL     1      -9.511  11.002  68.378  1.00  0.00    -0.182 C  
BRANCH  16  17
HETATM   17  C   UNL     1      -9.224  12.178  67.437  1.00  0.00    -0.182 C  
BRANCH  17  18
HETATM   18  C   UNL     1      -9.257  13.526  68.063  1.00  0.00    -0.209 A  
HETATM   19  N   UNL     1      -8.269  13.976  68.819  1.00  0.00    -0.097 NA 
HETATM   20  N   UNL     1      -8.573  15.260  69.154  1.00  0.00    -0.221 NA 
HETATM   21  N   UNL     1      -9.735  15.609  68.641  1.00  0.00    -0.198 NA 
HETATM   22  N   UNL     1     -10.160  14.559  67.899  1.00  0.00    -0.225 NA 
BRANCH  22  23
HETATM   23  C   UNL     1     -11.445  14.699  67.219  1.00  0.00    -0.372 C  
HETATM   24  C   UNL     1     -11.331  15.511  65.899  1.00  0.00    -0.028 C  
HETATM   25  C   UNL     1     -10.563  14.728  64.831  1.00  0.00    -0.431 C  
HETATM   26  C   UNL     1     -11.263  13.411  64.515  1.00  0.00    -0.393 C  
HETATM   27  C   UNL     1     -11.558  12.590  65.771  1.00  0.00    -0.439 C  
HETATM   28  C   UNL     1     -12.225  13.420  66.871  1.00  0.00    -0.343 C  
ENDBRANCH  22  23
ENDBRANCH  17  18
ENDBRANCH  16  17
ENDBRANCH  15  16
ENDBRANCH  14  15
ENDBRANCH  13  14
ENDBRANCH  11  13
TORSDOF 7
ENDMDL
MODEL      366
REMARK 921   NORMALIZED FREE ENERGY PREDICTED BY IDOCK:   -3.01 KCAL/MOL
REMARK 922        TOTAL FREE ENERGY PREDICTED BY IDOCK:   -5.25 KCAL/MOL
REMARK 923 INTER-LIGAND FREE ENERGY PREDICTED BY IDOCK:   -4.22 KCAL/MOL
REMARK 924 INTRA-LIGAND FREE ENERGY PREDICTED BY IDOCK:   -1.03 KCAL/MOL
REMARK 927      BINDING AFFINITY PREDICTED BY RF-SCORE:    0.00 PKD
ROOT
HETATM    1  O   UNL     1      -5.502   8.362  72.598  1.00  0.00    -0.039 OA 
HETATM    2  C   UNL     1      -5.517   9.312  71.818  1.00  0.00    -0.071 C  
HETATM    3  C   UNL     1      -5.573   9.129  70.319  1.00  0.00    -0.031 C  
HETATM    4  C   UNL     1      -6.325  10.255  69.620  1.00  0.00    -0.062 C  
HETATM    5  C   UNL     1      -5.939  11.614  70.139  1.00  0.00    -0.161 A  
HETATM    6  C   UNL     1      -5.474  11.730  71.455  1.00  0.00     0.124 A  
HETATM    7  N   UNL     1      -5.356  10.595  72.262  1.00  0.00     0.216 N  
HETATM    8  C   UNL     1      -5.175  12.981  71.985  1.00  0.00    -0.009 A  
HETATM    9  C   UNL     1      -5.350  14.130  71.204  1.00  0.00    -0.169 A  
HETATM   10  H   UNL     1      -5.136  10.733  73.247  1.00  0.00     0.000 HD 
HETATM   11  C   UNL     1      -5.846  14.047  69.899  1.00  0.00    -0.122 A  
HETATM   12  C   UNL     1      -6.138  12.782  69.369  1.00  0.00    -0.107 A  
ENDROOT
BRANCH  11  13
HETATM   13  O   UNL     1      -6.003  15.262  69.274  1.00  0.00    -0.099 OA 
BRANCH  13  14
HETATM   14  C   UNL     1      -5.820  15.295  67.859  1.00  0.00    -0.146 C  
BRANCH  14  15
HETATM   15  C   UNL     1      -7.169  15.511  67.131  1.00  0.00    -0.208 C  
BRANCH  15  16
HETATM   16  C   UNL     1      -8.254  15.816  68.173  1.00  0.00    -0.141 C  
BRANCH  16  17
HETATM   17  C   UNL     1      -9.705  15.958  67.698  1.00  0.00    -0.223 C  
BRANCH  17  18
HETATM   18  C   UNL     1     -10.739  15.408  68.614  1.00  0.00    -0.246 A  
HETATM   19  N   UNL     1     -11.213  16.100  69.638  1.00  0.00    -0.330 NA 
HETATM   20  N   UNL     1     -12.195  15.350  70.208  1.00  0.00    -0.357 NA 
HETATM   21  N   UNL     1     -12.327  14.201  69.576  1.00  0.00    -0.298 NA 
HETATM   22  N   UNL     1     -11.465  14.236  68.531  1.00  0.00    -0.280 NA 
BRANCH  22  23
HETATM   23  C   UNL     1     -11.420  13.061  67.665  1.00  0.00    -0.324 C  
HETATM   24  C   UNL     1      -9.980  12.742  67.175  1.00  0.00    -0.218 C  
HETATM   25  C   UNL     1      -9.100  12.243  68.325  1.00  0.00    -0.187 C  
HETATM   26  C   UNL     1      -9.680  10.975  68.942  1.00  0.00    -0.184 C  
HETATM   27  C   UNL     1     -11.149  11.135  69.331  1.00  0.00    -0.314 C  
HETATM   28  C   UNL     1     -11.993  11.739  68.205  1.00  0.00    -0.236 C  
ENDBRANCH  22  23
ENDBRANCH  17  18
ENDBRANCH  16  17
ENDBRANCH  15  16
ENDBRANCH  14  15
ENDBRANCH  13  14
ENDBRANCH  11  13
TORSDOF 7
ENDMDL
MODEL      367
REMARK 921   NORMALIZED FREE ENERGY PREDICTED BY IDOCK:   -2.98 KCAL/MOL
REMARK 922        TOTAL FREE ENERGY PREDICTED BY IDOCK:   -5.22 KCAL/MOL
REMARK 923 INTER-LIGAND FREE ENERGY PREDICTED BY IDOCK:   -3.99 KCAL/MOL
REMARK 924 INTRA-LIGAND FREE ENERGY PREDICTED BY IDOCK:   -1.23 KCAL/MOL
REMARK 927      BINDING AFFINITY PREDICTED BY RF-SCORE:    0.00 PKD
ROOT
HETATM    1  O   UNL     1      -5.189  11.365  71.534  1.00  0.00    -0.271 OA 
HETATM    2  C   UNL     1      -5.658  10.518  70.777  1.00  0.00    -0.099 C  
HETATM    3  C   UNL     1      -6.574   9.417  71.259  1.00  0.00    -0.023 C  
HETATM    4  C   UNL     1      -7.597   9.004  70.209  1.00  0.00    -0.087 C  
HETATM    5  C   UNL     1      -6.987   8.848  68.841  1.00  0.00    -0.065 A  
HETATM    6  C   UNL     1      -5.844   9.591  68.521  1.00  0.00    -0.040 A  
HETATM    7  N   UNL     1      -5.275  10.449  69.466  1.00  0.00    -0.038 N  
HETATM    8  C   UNL     1      -5.298   9.521  67.243  1.00  0.00    -0.036 A  
HETATM    9  C   UNL     1      -5.898   8.712  66.271  1.00  0.00    -0.047 A  
HETATM   10  H   UNL     1      -4.523  11.064  69.158  1.00  0.00     0.000 HD 
HETATM   11  C   UNL     1      -7.060   7.987  66.553  1.00  0.00    -0.075 A  
HETATM   12  C   UNL     1      -7.601   8.056  67.845  1.00  0.00    -0.112 A  
ENDROOT
BRANCH  11  13
HETATM   13  O   UNL     1      -7.556   7.274  65.486  1.00  0.00    -0.087 OA 
BRANCH  13  14
HETATM   14  C   UNL     1      -8.768   7.745  64.896  1.00  0.00     0.197 C  
BRANCH  14  15
HETATM   15  C   UNL     1      -8.501   8.964  63.981  1.00  0.00    -0.146 C  
BRANCH  15  16
HETATM   16  C   UNL     1      -8.985  10.236  64.692  1.00  0.00    -0.240 C  
BRANCH  16  17
HETATM   17  C   UNL     1      -9.912  10.089  65.905  1.00  0.00    -0.339 C  
BRANCH  17  18
HETATM   18  C   UNL     1      -9.900  11.225  66.864  1.00  0.00    -0.193 A  
HETATM   19  N   UNL     1      -8.965  11.356  67.791  1.00  0.00    -0.143 NA 
HETATM   20  N   UNL     1      -9.197  12.534  68.431  1.00  0.00    -0.177 NA 
HETATM   21  N   UNL     1     -10.267  13.126  67.939  1.00  0.00    -0.228 NA 
HETATM   22  N   UNL     1     -10.694  12.354  66.911  1.00  0.00    -0.236 NA 
BRANCH  22  23
HETATM   23  C   UNL     1     -11.885  12.801  66.193  1.00  0.00    -0.425 C  
HETATM   24  C   UNL     1     -12.158  14.319  66.386  1.00  0.00    -0.442 C  
HETATM   25  C   UNL     1     -11.100  15.167  65.675  1.00  0.00    -0.334 C  
HETATM   26  C   UNL     1     -11.087  14.877  64.178  1.00  0.00     0.288 C  
HETATM   27  C   UNL     1     -10.968  13.383  63.875  1.00  0.00    -0.128 C  
HETATM   28  C   UNL     1     -11.960  12.540  64.679  1.00  0.00    -0.468 C  
ENDBRANCH  22  23
ENDBRANCH  17  18
ENDBRANCH  16  17
ENDBRANCH  15  16
ENDBRANCH  14  15
ENDBRANCH  13  14
ENDBRANCH  11  13
TORSDOF 7
ENDMDL
MODEL      368
REMARK 921   NORMALIZED FREE ENERGY PREDICTED BY IDOCK:   -2.96 KCAL/MOL
REMARK 922        TOTAL FREE ENERGY PREDICTED BY IDOCK:   -5.18 KCAL/MOL
REMARK 923 INTER-LIGAND FREE ENERGY PREDICTED BY IDOCK:   -4.57 KCAL/MOL
REMARK 924 INTRA-LIGAND FREE ENERGY PREDICTED BY IDOCK:   -0.61 KCAL/MOL
REMARK 927      BINDING AFFINITY PREDICTED BY RF-SCORE:    0.00 PKD
ROOT
HETATM    1  O   UNL     1     -12.988  12.580  63.979  1.00  0.00    -0.733 OA 
HETATM    2  C   UNL     1     -12.125  12.694  64.846  1.00  0.00    -0.438 C  
HETATM    3  C   UNL     1     -11.900  11.644  65.909  1.00  0.00     0.199 C  
HETATM    4  C   UNL     1     -10.442  11.555  66.345  1.00  0.00    -0.292 C  
HETATM    5  C   UNL     1      -9.824  12.909  66.567  1.00  0.00    -0.254 A  
HETATM    6  C   UNL     1     -10.327  14.008  65.859  1.00  0.00    -0.318 A  
HETATM    7  N   UNL     1     -11.398  13.845  64.975  1.00  0.00    -0.322 N  
HETATM    8  C   UNL     1      -9.732  15.259  65.991  1.00  0.00    -0.367 A  
HETATM    9  C   UNL     1      -8.620  15.418  66.826  1.00  0.00    -0.308 A  
HETATM   10  H   UNL     1     -11.653  14.637  64.386  1.00  0.00     0.000 HD 
HETATM   11  C   UNL     1      -8.076  14.331  67.518  1.00  0.00    -0.187 A  
HETATM   12  C   UNL     1      -8.685  13.075  67.386  1.00  0.00    -0.205 A  
ENDROOT
BRANCH  11  13
HETATM   13  O   UNL     1      -6.960  14.636  68.263  1.00  0.00    -0.096 OA 
BRANCH  13  14
HETATM   14  C   UNL     1      -5.957  13.626  68.374  1.00  0.00    -0.097 C  
BRANCH  14  15
HETATM   15  C   UNL     1      -6.025  12.926  69.752  1.00  0.00    -0.129 C  
BRANCH  15  16
HETATM   16  C   UNL     1      -5.902  11.409  69.547  1.00  0.00    -0.070 C  
BRANCH  16  17
HETATM   17  C   UNL     1      -7.081  10.658  68.917  1.00  0.00    -0.078 C  
BRANCH  17  18
HETATM   18  C   UNL     1      -8.010  10.001  69.874  1.00  0.00    -0.171 A  
HETATM   19  N   UNL     1      -9.272  10.378  70.005  1.00  0.00     0.129 NA 
HETATM   20  N   UNL     1      -9.857   9.523  70.886  1.00  0.00    -0.260 NA 
HETATM   21  N   UNL     1      -8.984   8.638  71.322  1.00  0.00    -0.190 NA 
HETATM   22  N   UNL     1      -7.829   8.877  70.656  1.00  0.00    -0.099 NA 
BRANCH  22  23
HETATM   23  C   UNL     1      -6.690   8.017  70.968  1.00  0.00    -0.041 C  
HETATM   24  C   UNL     1      -5.597   8.757  71.789  1.00  0.00    -0.051 C  
HETATM   25  C   UNL     1      -6.081   9.062  73.209  1.00  0.00     0.049 C  
HETATM   26  C   UNL     1      -6.437   7.777  73.949  1.00  0.00    -0.094 C  
HETATM   27  C   UNL     1      -7.403   6.897  73.157  1.00  0.00    -0.074 C  
HETATM   28  C   UNL     1      -6.959   6.695  71.706  1.00  0.00    -0.071 C  
ENDBRANCH  22  23
ENDBRANCH  17  18
ENDBRANCH  16  17
ENDBRANCH  15  16
ENDBRANCH  14  15
ENDBRANCH  13  14
ENDBRANCH  11  13
TORSDOF 7
ENDMDL
MODEL      369
REMARK 921   NORMALIZED FREE ENERGY PREDICTED BY IDOCK:   -2.95 KCAL/MOL
REMARK 922        TOTAL FREE ENERGY PREDICTED BY IDOCK:   -5.17 KCAL/MOL
REMARK 923 INTER-LIGAND FREE ENERGY PREDICTED BY IDOCK:   -4.58 KCAL/MOL
REMARK 924 INTRA-LIGAND FREE ENERGY PREDICTED BY IDOCK:   -0.59 KCAL/MOL
REMARK 927      BINDING AFFINITY PREDICTED BY RF-SCORE:    0.00 PKD
ROOT
HETATM    1  O   UNL     1      -6.847   1.772  66.933  1.00  0.00    -0.037 OA 
HETATM    2  C   UNL     1      -7.421   2.790  67.315  1.00  0.00    -0.065 C  
HETATM    3  C   UNL     1      -8.923   2.872  67.446  1.00  0.00    -0.189 C  
HETATM    4  C   UNL     1      -9.362   3.800  68.573  1.00  0.00    -0.227 C  
HETATM    5  C   UNL     1      -8.594   5.094  68.585  1.00  0.00    -0.088 A  
HETATM    6  C   UNL     1      -7.294   5.116  68.062  1.00  0.00    -0.075 A  
HETATM    7  N   UNL     1      -6.734   3.954  67.523  1.00  0.00    -0.046 N  
HETATM    8  C   UNL     1      -6.534   6.279  68.122  1.00  0.00    -0.049 A  
HETATM    9  C   UNL     1      -7.064   7.430  68.716  1.00  0.00    -0.081 A  
HETATM   10  H   UNL     1      -5.747   3.976  67.268  1.00  0.00     0.000 HD 
HETATM   11  C   UNL     1      -8.345   7.427  69.277  1.00  0.00    -0.132 A  
HETATM   12  C   UNL     1      -9.109   6.254  69.207  1.00  0.00    -0.134 A  
ENDROOT
BRANCH  11  13
HETATM   13  O   UNL     1      -8.710   8.618  69.862  1.00  0.00    -0.127 OA 
BRANCH  13  14
HETATM   14  C   UNL     1      -7.665   9.419  70.412  1.00  0.00    -0.153 C  
BRANCH  14  15
HETATM   15  C   UNL     1      -7.569  10.781  69.685  1.00  0.00    -0.052 C  
BRANCH  15  16
HETATM   16  C   UNL     1      -8.678  10.859  68.625  1.00  0.00    -0.154 C  
BRANCH  16  17
HETATM   17  C   UNL     1      -8.360  11.524  67.281  1.00  0.00    -0.154 C  
BRANCH  17  18
HETATM   18  C   UNL     1      -8.081  12.983  67.335  1.00  0.00    -0.180 A  
HETATM   19  N   UNL     1      -6.872  13.462  67.581  1.00  0.00    -0.158 NA 
HETATM   20  N   UNL     1      -6.947  14.816  67.470  1.00  0.00    -0.183 NA 
HETATM   21  N   UNL     1      -8.178  15.191  67.183  1.00  0.00    -0.207 NA 
HETATM   22  N   UNL     1      -8.900  14.054  67.032  1.00  0.00    -0.225 NA 
BRANCH  22  23
HETATM   23  C   UNL     1     -10.316  14.203  66.707  1.00  0.00    -0.274 C  
HETATM   24  C   UNL     1     -11.212  13.212  67.501  1.00  0.00    -0.314 C  
HETATM   25  C   UNL     1     -11.254  13.571  68.989  1.00  0.00    -0.314 C  
HETATM   26  C   UNL     1     -11.810  14.976  69.193  1.00  0.00    -0.338 C  
HETATM   27  C   UNL     1     -11.087  16.019  68.339  1.00  0.00    -0.351 C  
HETATM   28  C   UNL     1     -10.957  15.591  66.875  1.00  0.00    -0.268 C  
ENDBRANCH  22  23
ENDBRANCH  17  18
ENDBRANCH  16  17
ENDBRANCH  15  16
ENDBRANCH  14  15
ENDBRANCH  13  14
ENDBRANCH  11  13
TORSDOF 7
ENDMDL
MODEL      370
REMARK 921   NORMALIZED FREE ENERGY PREDICTED BY IDOCK:   -2.94 KCAL/MOL
REMARK 922        TOTAL FREE ENERGY PREDICTED BY IDOCK:   -5.16 KCAL/MOL
REMARK 923 INTER-LIGAND FREE ENERGY PREDICTED BY IDOCK:   -4.14 KCAL/MOL
REMARK 924 INTRA-LIGAND FREE ENERGY PREDICTED BY IDOCK:   -1.02 KCAL/MOL
REMARK 927      BINDING AFFINITY PREDICTED BY RF-SCORE:    0.00 PKD
ROOT
HETATM    1  O   UNL     1     -11.893  12.242  63.896  1.00  0.00    -0.387 OA 
HETATM    2  C   UNL     1     -10.967  11.740  64.530  1.00  0.00    -0.324 C  
HETATM    3  C   UNL     1     -10.141  10.596  63.989  1.00  0.00    -0.378 C  
HETATM    4  C   UNL     1      -8.697  10.635  64.476  1.00  0.00    -0.154 C  
HETATM    5  C   UNL     1      -8.595  10.927  65.949  1.00  0.00    -0.179 A  
HETATM    6  C   UNL     1      -9.612  11.667  66.565  1.00  0.00    -0.209 A  
HETATM    7  N   UNL     1     -10.711  12.108  65.821  1.00  0.00    -0.258 N  
HETATM    8  C   UNL     1      -9.512  12.013  67.909  1.00  0.00    -0.196 A  
HETATM    9  C   UNL     1      -8.386  11.629  68.646  1.00  0.00    -0.100 A  
HETATM   10  H   UNL     1     -11.365  12.747  66.272  1.00  0.00     0.000 HD 
HETATM   11  C   UNL     1      -7.339  10.920  68.048  1.00  0.00    -0.088 A  
HETATM   12  C   UNL     1      -7.450  10.568  66.695  1.00  0.00    -0.120 A  
ENDROOT
BRANCH  11  13
HETATM   13  O   UNL     1      -6.283  10.653  68.888  1.00  0.00    -0.043 OA 
BRANCH  13  14
HETATM   14  C   UNL     1      -6.593  10.370  70.253  1.00  0.00    -0.141 C  
BRANCH  14  15
HETATM   15  C   UNL     1      -6.019   8.997  70.678  1.00  0.00    -0.038 C  
BRANCH  15  16
HETATM   16  C   UNL     1      -6.562   7.915  69.735  1.00  0.00    -0.034 C  
BRANCH  16  17
HETATM   17  C   UNL     1      -7.263   6.696  70.346  1.00  0.00    -0.080 C  
BRANCH  17  18
HETATM   18  C   UNL     1      -7.418   5.524  69.446  1.00  0.00    -0.070 A  
HETATM   19  N   UNL     1      -7.214   4.284  69.861  1.00  0.00    -0.045 NA 
HETATM   20  N   UNL     1      -7.525   3.458  68.825  1.00  0.00    -0.049 NA 
HETATM   21  N   UNL     1      -7.895   4.156  67.770  1.00  0.00    -0.086 NA 
HETATM   22  N   UNL     1      -7.895   5.456  68.151  1.00  0.00    -0.091 NA 
BRANCH  22  23
HETATM   23  C   UNL     1      -8.273   6.445  67.145  1.00  0.00    -0.113 C  
HETATM   24  C   UNL     1      -8.970   5.800  65.914  1.00  0.00    -0.158 C  
HETATM   25  C   UNL     1     -10.357   5.266  66.278  1.00  0.00    -0.287 C  
HETATM   26  C   UNL     1     -11.253   6.388  66.793  1.00  0.00    -0.101 C  
HETATM   27  C   UNL     1     -10.598   7.187  67.920  1.00  0.00    -0.269 C  
HETATM   28  C   UNL     1      -9.168   7.617  67.580  1.00  0.00    -0.145 C  
ENDBRANCH  22  23
ENDBRANCH  17  18
ENDBRANCH  16  17
ENDBRANCH  15  16
ENDBRANCH  14  15
ENDBRANCH  13  14
ENDBRANCH  11  13
TORSDOF 7
ENDMDL
MODEL      371
REMARK 921   NORMALIZED FREE ENERGY PREDICTED BY IDOCK:   -2.83 KCAL/MOL
REMARK 922        TOTAL FREE ENERGY PREDICTED BY IDOCK:   -5.00 KCAL/MOL
REMARK 923 INTER-LIGAND FREE ENERGY PREDICTED BY IDOCK:   -5.05 KCAL/MOL
REMARK 924 INTRA-LIGAND FREE ENERGY PREDICTED BY IDOCK:    0.05 KCAL/MOL
REMARK 927      BINDING AFFINITY PREDICTED BY RF-SCORE:    0.00 PKD
ROOT
HETATM    1  O   UNL     1      -8.577  10.271  62.622  1.00  0.00    -0.158 OA 
HETATM    2  C   UNL     1      -9.067  10.838  63.596  1.00  0.00    -0.212 C  
HETATM    3  C   UNL     1      -8.863  10.344  65.009  1.00  0.00    -0.209 C  
HETATM    4  C   UNL     1      -8.845  11.477  66.029  1.00  0.00    -0.144 C  
HETATM    5  C   UNL     1      -9.946  12.477  65.797  1.00  0.00    -0.272 A  
HETATM    6  C   UNL     1     -10.445  12.646  64.499  1.00  0.00    -0.355 A  
HETATM    7  N   UNL     1      -9.936  11.882  63.445  1.00  0.00    -0.479 N  
HETATM    8  C   UNL     1     -11.413  13.611  64.241  1.00  0.00    -0.393 A  
HETATM    9  C   UNL     1     -11.883  14.424  65.280  1.00  0.00    -0.373 A  
HETATM   10  H   UNL     1     -10.233  12.121  62.499  1.00  0.00     0.000 HD 
HETATM   11  C   UNL     1     -11.377  14.300  66.578  1.00  0.00    -0.346 A  
HETATM   12  C   UNL     1     -10.407  13.320  66.832  1.00  0.00    -0.255 A  
ENDROOT
BRANCH  11  13
HETATM   13  O   UNL     1     -11.905  15.195  67.479  1.00  0.00    -0.283 OA 
BRANCH  13  14
HETATM   14  C   UNL     1     -11.053  16.251  67.922  1.00  0.00    -0.270 C  
BRANCH  14  15
HETATM   15  C   UNL     1     -10.201  15.804  69.134  1.00  0.00    -0.231 C  
BRANCH  15  16
HETATM   16  C   UNL     1     -11.133  15.248  70.220  1.00  0.00    -0.316 C  
BRANCH  16  17
HETATM   17  C   UNL     1     -11.650  13.812  70.075  1.00  0.00    -0.265 C  
BRANCH  17  18
HETATM   18  C   UNL     1     -12.543  13.337  71.164  1.00  0.00    -0.325 A  
HETATM   19  N   UNL     1     -13.465  14.113  71.710  1.00  0.00    -0.364 NA 
HETATM   20  N   UNL     1     -14.156  13.351  72.600  1.00  0.00    -0.716 NA 
HETATM   21  N   UNL     1     -13.671  12.126  72.636  1.00  0.00     0.079 NA 
HETATM   22  N   UNL     1     -12.695  12.072  71.699  1.00  0.00    -0.274 NA 
BRANCH  22  23
HETATM   23  C   UNL     1     -11.991  10.801  71.543  1.00  0.00     0.035 C  
HETATM   24  C   UNL     1     -12.294   9.811  72.701  1.00  0.00     0.646 C  
HETATM   25  C   UNL     1     -13.739   9.309  72.639  1.00  0.00    -0.386 C  
HETATM   26  C   UNL     1     -14.009   8.590  71.322  1.00  0.00    -0.240 C  
HETATM   27  C   UNL     1     -13.607   9.428  70.108  1.00  0.00     1.238 C  
HETATM   28  C   UNL     1     -12.198  10.013  70.238  1.00  0.00    -0.186 C  
ENDBRANCH  22  23
ENDBRANCH  17  18
ENDBRANCH  16  17
ENDBRANCH  15  16
ENDBRANCH  14  15
ENDBRANCH  13  14
ENDBRANCH  11  13
TORSDOF 7
ENDMDL
MODEL      372
REMARK 921   NORMALIZED FREE ENERGY PREDICTED BY IDOCK:   -2.59 KCAL/MOL
REMARK 922        TOTAL FREE ENERGY PREDICTED BY IDOCK:   -4.67 KCAL/MOL
REMARK 923 INTER-LIGAND FREE ENERGY PREDICTED BY IDOCK:   -4.86 KCAL/MOL
REMARK 924 INTRA-LIGAND FREE ENERGY PREDICTED BY IDOCK:    0.19 KCAL/MOL
REMARK 927      BINDING AFFINITY PREDICTED BY RF-SCORE:    0.00 PKD
ROOT
HETATM    1  O   UNL     1      -8.890  11.118  62.835  1.00  0.00    -0.242 OA 
HETATM    2  C   UNL     1      -8.861   9.998  63.340  1.00  0.00    -0.237 C  
HETATM    3  C   UNL     1      -8.285   8.800  62.622  1.00  0.00    -0.194 C  
HETATM    4  C   UNL     1      -7.650   7.795  63.576  1.00  0.00    -0.126 C  
HETATM    5  C   UNL     1      -8.505   7.532  64.787  1.00  0.00     0.067 A  
HETATM    6  C   UNL     1      -9.380   8.533  65.229  1.00  0.00     0.226 A  
HETATM    7  N   UNL     1      -9.466   9.746  64.540  1.00  0.00    -0.409 N  
HETATM    8  C   UNL     1     -10.132   8.347  66.384  1.00  0.00    -0.242 A  
HETATM    9  C   UNL     1     -10.006   7.160  67.115  1.00  0.00    -0.270 A  
HETATM   10  H   UNL     1     -10.017  10.494  64.960  1.00  0.00     0.000 HD 
HETATM   11  C   UNL     1      -9.114   6.159  66.717  1.00  0.00    -0.133 A  
HETATM   12  C   UNL     1      -8.365   6.350  65.547  1.00  0.00    -0.147 A  
ENDROOT
BRANCH  11  13
HETATM   13  O   UNL     1      -9.070   5.072  67.559  1.00  0.00    -0.113 OA 
BRANCH  13  14
HETATM   14  C   UNL     1      -7.852   4.847  68.269  1.00  0.00    -0.082 C  
BRANCH  14  15
HETATM   15  C   UNL     1      -8.132   4.468  69.743  1.00  0.00    -0.060 C  
BRANCH  15  16
HETATM   16  C   UNL     1      -9.614   4.721  70.050  1.00  0.00    -0.260 C  
BRANCH  16  17
HETATM   17  C   UNL     1     -10.004   5.153  71.469  1.00  0.00    -0.248 C  
BRANCH  17  18
HETATM   18  C   UNL     1     -10.758   6.430  71.568  1.00  0.00    -0.238 A  
HETATM   19  N   UNL     1     -11.959   6.584  71.034  1.00  0.00    -0.347 NA 
HETATM   20  N   UNL     1     -12.397   7.824  71.381  1.00  0.00    -0.319 NA 
HETATM   21  N   UNL     1     -11.488   8.453  72.099  1.00  0.00    -0.345 NA 
HETATM   22  N   UNL     1     -10.471   7.577  72.283  1.00  0.00    -0.218 NA 
BRANCH  22  23
HETATM   23  C   UNL     1      -9.324   8.042  73.058  1.00  0.00    -0.275 C  
HETATM   24  C   UNL     1      -9.199   7.314  74.426  1.00  0.00    -0.169 C  
HETATM   25  C   UNL     1      -8.801   5.847  74.240  1.00  0.00    -0.123 C  
HETATM   26  C   UNL     1      -7.461   5.734  73.522  1.00  0.00    -0.091 C  
HETATM   27  C   UNL     1      -7.425   6.540  72.223  1.00  0.00    -0.095 C  
HETATM   28  C   UNL     1      -7.932   7.973  72.406  1.00  0.00    -0.168 C  
ENDBRANCH  22  23
ENDBRANCH  17  18
ENDBRANCH  16  17
ENDBRANCH  15  16
ENDBRANCH  14  15
ENDBRANCH  13  14
ENDBRANCH  11  13
TORSDOF 7
ENDMDL
MODEL      373
REMARK 921   NORMALIZED FREE ENERGY PREDICTED BY IDOCK:   -2.50 KCAL/MOL
REMARK 922        TOTAL FREE ENERGY PREDICTED BY IDOCK:   -4.54 KCAL/MOL
REMARK 923 INTER-LIGAND FREE ENERGY PREDICTED BY IDOCK:   -4.27 KCAL/MOL
REMARK 924 INTRA-LIGAND FREE ENERGY PREDICTED BY IDOCK:   -0.27 KCAL/MOL
REMARK 927      BINDING AFFINITY PREDICTED BY RF-SCORE:    0.00 PKD
ROOT
HETATM    1  O   UNL     1      -9.462   7.244  74.351  1.00  0.00    -0.198 OA 
HETATM    2  C   UNL     1      -9.985   7.797  73.386  1.00  0.00    -0.284 C  
HETATM    3  C   UNL     1     -11.480   7.803  73.167  1.00  0.00    -0.101 C  
HETATM    4  C   UNL     1     -11.966   9.068  72.471  1.00  0.00    -0.124 C  
HETATM    5  C   UNL     1     -11.094   9.454  71.305  1.00  0.00    -0.446 A  
HETATM    6  C   UNL     1      -9.745   9.074  71.314  1.00  0.00    -0.301 A  
HETATM    7  N   UNL     1      -9.229   8.334  72.381  1.00  0.00    -0.231 N  
HETATM    8  C   UNL     1      -8.898   9.474  70.285  1.00  0.00    -0.281 A  
HETATM    9  C   UNL     1      -9.392  10.268  69.243  1.00  0.00    -0.221 A  
HETATM   10  H   UNL     1      -8.221   8.185  72.413  1.00  0.00     0.000 HD 
HETATM   11  C   UNL     1     -10.725  10.691  69.228  1.00  0.00    -0.238 A  
HETATM   12  C   UNL     1     -11.575  10.277  70.263  1.00  0.00    -0.396 A  
ENDROOT
BRANCH  11  13
HETATM   13  O   UNL     1     -11.051  11.500  68.164  1.00  0.00    -0.211 OA 
BRANCH  13  14
HETATM   14  C   UNL     1     -12.251  12.265  68.272  1.00  0.00     0.215 C  
BRANCH  14  15
HETATM   15  C   UNL     1     -12.132  13.329  69.389  1.00  0.00    -0.301 C  
BRANCH  15  16
HETATM   16  C   UNL     1     -12.347  14.721  68.778  1.00  0.00    -0.019 C  
BRANCH  16  17
HETATM   17  C   UNL     1     -11.253  15.298  67.872  1.00  0.00    -0.333 C  
BRANCH  17  18
HETATM   18  C   UNL     1     -10.445  16.399  68.461  1.00  0.00    -0.291 A  
HETATM   19  N   UNL     1     -10.361  16.591  69.768  1.00  0.00    -0.217 NA 
HETATM   20  N   UNL     1      -9.482  17.610  69.967  1.00  0.00     1.276 NA 
HETATM   21  N   UNL     1      -9.036  18.070  68.816  1.00  0.00    -0.258 NA 
HETATM   22  N   UNL     1      -9.578  17.286  67.853  1.00  0.00    -0.263 NA 
BRANCH  22  23
HETATM   23  C   UNL     1      -9.234  17.598  66.468  1.00  0.00    -0.269 C  
HETATM   24  C   UNL     1     -10.489  17.876  65.595  1.00  0.00    -0.105 C  
HETATM   25  C   UNL     1     -11.160  19.194  65.991  1.00  0.00     0.094 C  
HETATM   26  C   UNL     1     -10.199  20.365  65.822  1.00  0.00    -0.126 C  
HETATM   27  C   UNL     1      -8.863  20.130  66.528  1.00  0.00    -0.370 C  
HETATM   28  C   UNL     1      -8.261  18.760  66.206  1.00  0.00    -0.270 C  
ENDBRANCH  22  23
ENDBRANCH  17  18
ENDBRANCH  16  17
ENDBRANCH  15  16
ENDBRANCH  14  15
ENDBRANCH  13  14
ENDBRANCH  11  13
TORSDOF 7
ENDMDL
MODEL      374
REMARK 921   NORMALIZED FREE ENERGY PREDICTED BY IDOCK:   -2.39 KCAL/MOL
REMARK 922        TOTAL FREE ENERGY PREDICTED BY IDOCK:   -4.38 KCAL/MOL
REMARK 923 INTER-LIGAND FREE ENERGY PREDICTED BY IDOCK:   -4.52 KCAL/MOL
REMARK 924 INTRA-LIGAND FREE ENERGY PREDICTED BY IDOCK:    0.14 KCAL/MOL
REMARK 927      BINDING AFFINITY PREDICTED BY RF-SCORE:    0.00 PKD
ROOT
HETATM    1  O   UNL     1     -11.907  12.266  63.858  1.00  0.00    -0.387 OA 
HETATM    2  C   UNL     1     -10.974  11.743  64.463  1.00  0.00    -0.324 C  
HETATM    3  C   UNL     1     -10.287  10.491  63.967  1.00  0.00    -0.127 C  
HETATM    4  C   UNL     1      -8.810  10.448  64.337  1.00  0.00    -0.223 C  
HETATM    5  C   UNL     1      -8.563  10.854  65.766  1.00  0.00    -0.176 A  
HETATM    6  C   UNL     1      -9.464  11.727  66.387  1.00  0.00    -0.221 A  
HETATM    7  N   UNL     1     -10.583  12.195  65.692  1.00  0.00    -0.253 N  
HETATM    8  C   UNL     1      -9.226  12.175  67.683  1.00  0.00    -0.181 A  
HETATM    9  C   UNL     1      -8.076  11.761  68.364  1.00  0.00    -0.150 A  
HETATM   10  H   UNL     1     -11.146  12.923  66.132  1.00  0.00     0.000 HD 
HETATM   11  C   UNL     1      -7.141  10.918  67.755  1.00  0.00    -0.082 A  
HETATM   12  C   UNL     1      -7.391  10.464  66.452  1.00  0.00    -0.120 A  
ENDROOT
BRANCH  11  13
HETATM   13  O   UNL     1      -6.043  10.634  68.533  1.00  0.00    -0.047 OA 
BRANCH  13  14
HETATM   14  C   UNL     1      -6.222  10.670  69.949  1.00  0.00    -0.098 C  
BRANCH  14  15
HETATM   15  C   UNL     1      -5.780   9.336  70.597  1.00  0.00    -0.041 C  
BRANCH  15  16
HETATM   16  C   UNL     1      -6.749   8.226  70.165  1.00  0.00    -0.036 C  
BRANCH  16  17
HETATM   17  C   UNL     1      -7.348   7.317  71.244  1.00  0.00    -0.077 C  
BRANCH  17  18
HETATM   18  C   UNL     1      -7.807   5.982  70.779  1.00  0.00    -0.103 A  
HETATM   19  N   UNL     1      -7.174   4.866  71.104  1.00  0.00    -0.054 NA 
HETATM   20  N   UNL     1      -7.898   3.832  70.596  1.00  0.00    -0.053 NA 
HETATM   21  N   UNL     1      -8.953   4.280  69.946  1.00  0.00    -0.088 NA 
HETATM   22  N   UNL     1      -8.954   5.626  70.096  1.00  0.00    -0.136 NA 
BRANCH  22  23
HETATM   23  C   UNL     1     -10.038   6.367  69.456  1.00  0.00    -0.170 C  
HETATM   24  C   UNL     1     -11.301   6.464  70.357  1.00  0.00    -0.453 C  
HETATM   25  C   UNL     1     -11.052   7.372  71.565  1.00  0.00    -0.266 C  
HETATM   26  C   UNL     1     -10.682   8.782  71.118  1.00  0.00    -0.316 C  
HETATM   27  C   UNL     1      -9.534   8.791  70.108  1.00  0.00    -0.182 C  
HETATM   28  C   UNL     1      -9.749   7.795  68.965  1.00  0.00    -0.157 C  
ENDBRANCH  22  23
ENDBRANCH  17  18
ENDBRANCH  16  17
ENDBRANCH  15  16
ENDBRANCH  14  15
ENDBRANCH  13  14
ENDBRANCH  11  13
TORSDOF 7
ENDMDL
MODEL      375
REMARK 921   NORMALIZED FREE ENERGY PREDICTED BY IDOCK:   -2.25 KCAL/MOL
REMARK 922        TOTAL FREE ENERGY PREDICTED BY IDOCK:   -4.18 KCAL/MOL
REMARK 923 INTER-LIGAND FREE ENERGY PREDICTED BY IDOCK:   -5.83 KCAL/MOL
REMARK 924 INTRA-LIGAND FREE ENERGY PREDICTED BY IDOCK:    1.65 KCAL/MOL
REMARK 927      BINDING AFFINITY PREDICTED BY RF-SCORE:    0.00 PKD
ROOT
HETATM    1  O   UNL     1     -12.978  12.732  64.781  1.00  0.00    -0.768 OA 
HETATM    2  C   UNL     1     -12.146  12.804  65.683  1.00  0.00    -0.459 C  
HETATM    3  C   UNL     1     -12.326  12.103  67.009  1.00  0.00     0.695 C  
HETATM    4  C   UNL     1     -11.003  11.666  67.625  1.00  0.00    -0.294 C  
HETATM    5  C   UNL     1      -9.950  12.739  67.546  1.00  0.00    -0.210 A  
HETATM    6  C   UNL     1     -10.018  13.680  66.511  1.00  0.00    -0.288 A  
HETATM    7  N   UNL     1     -11.061  13.630  65.582  1.00  0.00    -0.293 N  
HETATM    8  C   UNL     1      -9.022  14.641  66.370  1.00  0.00    -0.191 A  
HETATM    9  C   UNL     1      -7.941  14.661  67.260  1.00  0.00    -0.223 A  
HETATM   10  H   UNL     1     -11.009  14.250  64.774  1.00  0.00     0.000 HD 
HETATM   11  C   UNL     1      -7.829  13.711  68.280  1.00  0.00    -0.141 A  
HETATM   12  C   UNL     1      -8.840  12.751  68.421  1.00  0.00    -0.117 A  
ENDROOT
BRANCH  11  13
HETATM   13  O   UNL     1      -6.691  13.833  69.044  1.00  0.00    -0.102 OA 
BRANCH  13  14
HETATM   14  C   UNL     1      -6.224  15.155  69.309  1.00  0.00    -0.112 C  
BRANCH  14  15
HETATM   15  C   UNL     1      -5.186  15.598  68.250  1.00  0.00    -0.108 C  
BRANCH  15  16
HETATM   16  C   UNL     1      -5.492  17.041  67.824  1.00  0.00    -0.130 C  
BRANCH  16  17
HETATM   17  C   UNL     1      -6.366  17.904  68.742  1.00  0.00    -0.217 C  
BRANCH  17  18
HETATM   18  C   UNL     1      -7.812  17.944  68.402  1.00  0.00    -0.286 A  
HETATM   19  N   UNL     1      -8.706  17.200  69.033  1.00  0.00    -0.171 NA 
HETATM   20  N   UNL     1      -9.929  17.541  68.545  1.00  0.00    -0.324 NA 
HETATM   21  N   UNL     1      -9.814  18.463  67.610  1.00  0.00    -0.303 NA 
HETATM   22  N   UNL     1      -8.499  18.779  67.542  1.00  0.00    -0.268 NA 
BRANCH  22  23
HETATM   23  C   UNL     1      -8.107  19.792  66.564  1.00  0.00    -0.327 C  
HETATM   24  C   UNL     1      -7.560  21.082  67.236  1.00  0.00    -0.229 C  
HETATM   25  C   UNL     1      -6.203  20.830  67.898  1.00  0.00    -0.366 C  
HETATM   26  C   UNL     1      -5.176  20.361  66.873  1.00  0.00    -0.186 C  
HETATM   27  C   UNL     1      -5.676  19.175  66.048  1.00  0.00    -0.178 C  
HETATM   28  C   UNL     1      -7.082  19.401  65.486  1.00  0.00    -0.238 C  
ENDBRANCH  22  23
ENDBRANCH  17  18
ENDBRANCH  16  17
ENDBRANCH  15  16
ENDBRANCH  14  15
ENDBRANCH  13  14
ENDBRANCH  11  13
TORSDOF 7
ENDMDL
MODEL      376
REMARK 921   NORMALIZED FREE ENERGY PREDICTED BY IDOCK:   -2.13 KCAL/MOL
REMARK 922        TOTAL FREE ENERGY PREDICTED BY IDOCK:   -4.02 KCAL/MOL
REMARK 923 INTER-LIGAND FREE ENERGY PREDICTED BY IDOCK:   -3.42 KCAL/MOL
REMARK 924 INTRA-LIGAND FREE ENERGY PREDICTED BY IDOCK:   -0.59 KCAL/MOL
REMARK 927      BINDING AFFINITY PREDICTED BY RF-SCORE:    0.00 PKD
ROOT
HETATM    1  O   UNL     1      -6.904   3.898  66.451  1.00  0.00    -0.055 OA 
HETATM    2  C   UNL     1      -7.007   5.095  66.189  1.00  0.00    -0.067 C  
HETATM    3  C   UNL     1      -5.824   5.938  65.773  1.00  0.00    -0.024 C  
HETATM    4  C   UNL     1      -6.210   7.052  64.807  1.00  0.00    -0.037 C  
HETATM    5  C   UNL     1      -7.461   7.774  65.232  1.00  0.00    -0.082 A  
HETATM    6  C   UNL     1      -8.410   7.090  66.002  1.00  0.00    -0.134 A  
HETATM    7  N   UNL     1      -8.184   5.763  66.381  1.00  0.00    -0.106 N  
HETATM    8  C   UNL     1      -9.606   7.707  66.351  1.00  0.00    -0.223 A  
HETATM    9  C   UNL     1      -9.868   9.014  65.923  1.00  0.00    -0.257 A  
HETATM   10  H   UNL     1      -8.948   5.261  66.832  1.00  0.00     0.000 HD 
HETATM   11  C   UNL     1      -8.954   9.708  65.124  1.00  0.00    -0.207 A  
HETATM   12  C   UNL     1      -7.747   9.082  64.782  1.00  0.00    -0.109 A  
ENDROOT
BRANCH  11  13
HETATM   13  O   UNL     1      -9.371  10.964  64.747  1.00  0.00    -0.210 OA 
BRANCH  13  14
HETATM   14  C   UNL     1     -10.295  11.045  63.662  1.00  0.00    -0.352 C  
BRANCH  14  15
HETATM   15  C   UNL     1     -11.352  12.146  63.916  1.00  0.00    -0.501 C  
BRANCH  15  16
HETATM   16  C   UNL     1     -11.440  12.415  65.425  1.00  0.00    -0.402 C  
BRANCH  16  17
HETATM   17  C   UNL     1     -10.349  13.268  66.082  1.00  0.00    -0.290 C  
BRANCH  17  18
HETATM   18  C   UNL     1     -10.826  14.285  67.055  1.00  0.00    -0.297 A  
HETATM   19  N   UNL     1     -11.396  15.416  66.671  1.00  0.00    -0.181 NA 
HETATM   20  N   UNL     1     -11.790  16.069  67.797  1.00  0.00     0.143 NA 
HETATM   21  N   UNL     1     -11.460  15.382  68.872  1.00  0.00    -0.321 NA 
HETATM   22  N   UNL     1     -10.906  14.226  68.433  1.00  0.00    -0.246 NA 
BRANCH  22  23
HETATM   23  C   UNL     1     -10.450  13.279  69.447  1.00  0.00     0.327 C  
HETATM   24  C   UNL     1     -11.391  13.235  70.683  1.00  0.00     0.780 C  
HETATM   25  C   UNL     1     -12.738  12.599  70.332  1.00  0.00     0.017 C  
HETATM   26  C   UNL     1     -12.552  11.171  69.831  1.00  0.00    -0.171 C  
HETATM   27  C   UNL     1     -11.527  11.079  68.700  1.00  0.00    -0.375 C  
HETATM   28  C   UNL     1     -10.225  11.817  69.025  1.00  0.00    -0.044 C  
ENDBRANCH  22  23
ENDBRANCH  17  18
ENDBRANCH  16  17
ENDBRANCH  15  16
ENDBRANCH  14  15
ENDBRANCH  13  14
ENDBRANCH  11  13
TORSDOF 7
ENDMDL
MODEL      377
REMARK 921   NORMALIZED FREE ENERGY PREDICTED BY IDOCK:   -1.95 KCAL/MOL
REMARK 922        TOTAL FREE ENERGY PREDICTED BY IDOCK:   -3.76 KCAL/MOL
REMARK 923 INTER-LIGAND FREE ENERGY PREDICTED BY IDOCK:   -4.18 KCAL/MOL
REMARK 924 INTRA-LIGAND FREE ENERGY PREDICTED BY IDOCK:    0.42 KCAL/MOL
REMARK 927      BINDING AFFINITY PREDICTED BY RF-SCORE:    0.00 PKD
ROOT
HETATM    1  O   UNL     1      -6.611   2.213  68.672  1.00  0.00    -0.029 OA 
HETATM    2  C   UNL     1      -6.779   3.292  69.236  1.00  0.00    -0.037 C  
HETATM    3  C   UNL     1      -7.275   3.394  70.659  1.00  0.00    -0.037 C  
HETATM    4  C   UNL     1      -6.711   4.606  71.391  1.00  0.00    -0.031 C  
HETATM    5  C   UNL     1      -6.752   5.855  70.551  1.00  0.00    -0.052 A  
HETATM    6  C   UNL     1      -6.708   5.736  69.156  1.00  0.00    -0.060 A  
HETATM    7  N   UNL     1      -6.645   4.473  68.560  1.00  0.00    -0.044 N  
HETATM    8  C   UNL     1      -6.675   6.873  68.356  1.00  0.00    -0.068 A  
HETATM    9  C   UNL     1      -6.675   8.143  68.947  1.00  0.00    -0.049 A  
HETATM   10  H   UNL     1      -6.488   4.430  67.554  1.00  0.00     0.000 HD 
HETATM   11  C   UNL     1      -6.684   8.291  70.338  1.00  0.00    -0.036 A  
HETATM   12  C   UNL     1      -6.725   7.140  71.138  1.00  0.00    -0.051 A  
ENDROOT
BRANCH  11  13
HETATM   13  O   UNL     1      -6.638   9.597  70.768  1.00  0.00    -0.096 OA 
BRANCH  13  14
HETATM   14  C   UNL     1      -5.733  10.472  70.095  1.00  0.00    -0.071 C  
BRANCH  14  15
HETATM   15  C   UNL     1      -6.348  10.996  68.775  1.00  0.00    -0.049 C  
BRANCH  15  16
HETATM   16  C   UNL     1      -7.736  11.582  69.069  1.00  0.00    -0.034 C  
BRANCH  16  17
HETATM   17  C   UNL     1      -8.850  11.378  68.036  1.00  0.00    -0.155 C  
BRANCH  17  18
HETATM   18  C   UNL     1     -10.213  11.170  68.591  1.00  0.00    -0.205 A  
HETATM   19  N   UNL     1     -10.416  10.575  69.756  1.00  0.00    -0.232 NA 
HETATM   20  N   UNL     1     -11.753  10.627  70.004  1.00  0.00    -0.296 NA 
HETATM   21  N   UNL     1     -12.386  11.220  69.013  1.00  0.00    -0.425 NA 
HETATM   22  N   UNL     1     -11.435  11.626  68.138  1.00  0.00    -0.291 NA 
BRANCH  22  23
HETATM   23  C   UNL     1     -11.889  12.319  66.935  1.00  0.00    -0.264 C  
HETATM   24  C   UNL     1     -12.042  13.849  67.155  1.00  0.00    -0.422 C  
HETATM   25  C   UNL     1     -10.680  14.523  67.336  1.00  0.00    -0.282 C  
HETATM   26  C   UNL     1      -9.800  14.309  66.109  1.00  0.00    -0.335 C  
HETATM   27  C   UNL     1      -9.699  12.836  65.714  1.00  0.00    -0.167 C  
HETATM   28  C   UNL     1     -11.066  12.150  65.647  1.00  0.00    -0.360 C  
ENDBRANCH  22  23
ENDBRANCH  17  18
ENDBRANCH  16  17
ENDBRANCH  15  16
ENDBRANCH  14  15
ENDBRANCH  13  14
ENDBRANCH  11  13
TORSDOF 7
ENDMDL
MODEL      378
REMARK 921   NORMALIZED FREE ENERGY PREDICTED BY IDOCK:   -1.94 KCAL/MOL
REMARK 922        TOTAL FREE ENERGY PREDICTED BY IDOCK:   -3.75 KCAL/MOL
REMARK 923 INTER-LIGAND FREE ENERGY PREDICTED BY IDOCK:   -3.74 KCAL/MOL
REMARK 924 INTRA-LIGAND FREE ENERGY PREDICTED BY IDOCK:   -0.01 KCAL/MOL
REMARK 927      BINDING AFFINITY PREDICTED BY RF-SCORE:    0.00 PKD
ROOT
HETATM    1  O   UNL     1      -8.804  11.834  62.775  1.00  0.00    -0.197 OA 
HETATM    2  C   UNL     1      -8.617  10.713  63.243  1.00  0.00    -0.151 C  
HETATM    3  C   UNL     1      -8.490   9.484  62.374  1.00  0.00    -0.191 C  
HETATM    4  C   UNL     1      -7.556   8.439  62.972  1.00  0.00    -0.120 C  
HETATM    5  C   UNL     1      -7.797   8.226  64.443  1.00  0.00    -0.135 A  
HETATM    6  C   UNL     1      -8.326   9.278  65.202  1.00  0.00    -0.150 A  
HETATM    7  N   UNL     1      -8.640  10.496  64.593  1.00  0.00    -0.212 N  
HETATM    8  C   UNL     1      -8.495   9.135  66.575  1.00  0.00    -0.127 A  
HETATM    9  C   UNL     1      -8.125   7.940  67.204  1.00  0.00    -0.117 A  
HETATM   10  H   UNL     1      -8.903  11.275  65.195  1.00  0.00     0.000 HD 
HETATM   11  C   UNL     1      -7.562   6.887  66.476  1.00  0.00    -0.089 A  
HETATM   12  C   UNL     1      -7.401   7.035  65.092  1.00  0.00    -0.081 A  
ENDROOT
BRANCH  11  13
HETATM   13  O   UNL     1      -7.210   5.797  67.238  1.00  0.00    -0.073 OA 
BRANCH  13  14
HETATM   14  C   UNL     1      -5.816   5.554  67.423  1.00  0.00    -0.017 C  
BRANCH  14  15
HETATM   15  C   UNL     1      -5.480   5.358  68.920  1.00  0.00    -0.004 C  
BRANCH  15  16
HETATM   16  C   UNL     1      -6.601   5.979  69.767  1.00  0.00    -0.047 C  
BRANCH  16  17
HETATM   17  C   UNL     1      -6.375   6.139  71.275  1.00  0.00    -0.048 C  
BRANCH  17  18
HETATM   18  C   UNL     1      -7.331   5.410  72.150  1.00  0.00    -0.093 A  
HETATM   19  N   UNL     1      -7.448   4.092  72.123  1.00  0.00    -0.068 NA 
HETATM   20  N   UNL     1      -8.333   3.748  73.097  1.00  0.00    -0.090 NA 
HETATM   21  N   UNL     1      -8.784   4.822  73.714  1.00  0.00    -0.106 NA 
HETATM   22  N   UNL     1      -8.125   5.877  73.179  1.00  0.00    -0.116 NA 
BRANCH  22  23
HETATM   23  C   UNL     1      -8.454   7.202  73.700  1.00  0.00    -0.140 C  
HETATM   24  C   UNL     1      -7.769   8.341  72.895  1.00  0.00    -0.171 C  
HETATM   25  C   UNL     1      -8.368   8.466  71.492  1.00  0.00    -0.196 C  
HETATM   26  C   UNL     1      -9.860   8.769  71.562  1.00  0.00    -0.371 C  
HETATM   27  C   UNL     1     -10.614   7.784  72.456  1.00  0.00    -0.352 C  
HETATM   28  C   UNL     1      -9.938   7.588  73.815  1.00  0.00    -0.275 C  
ENDBRANCH  22  23
ENDBRANCH  17  18
ENDBRANCH  16  17
ENDBRANCH  15  16
ENDBRANCH  14  15
ENDBRANCH  13  14
ENDBRANCH  11  13
TORSDOF 7
ENDMDL
MODEL      379
REMARK 921   NORMALIZED FREE ENERGY PREDICTED BY IDOCK:   -1.82 KCAL/MOL
REMARK 922        TOTAL FREE ENERGY PREDICTED BY IDOCK:   -3.58 KCAL/MOL
REMARK 923 INTER-LIGAND FREE ENERGY PREDICTED BY IDOCK:   -3.02 KCAL/MOL
REMARK 924 INTRA-LIGAND FREE ENERGY PREDICTED BY IDOCK:   -0.56 KCAL/MOL
REMARK 927      BINDING AFFINITY PREDICTED BY RF-SCORE:    0.00 PKD
ROOT
HETATM    1  O   UNL     1      -5.916   8.273  72.831  1.00  0.00    -0.057 OA 
HETATM    2  C   UNL     1      -5.776   9.295  72.163  1.00  0.00    -0.043 C  
HETATM    3  C   UNL     1      -5.601   9.267  70.663  1.00  0.00    -0.035 C  
HETATM    4  C   UNL     1      -6.196  10.492  69.981  1.00  0.00    -0.102 C  
HETATM    5  C   UNL     1      -5.851  11.772  70.694  1.00  0.00    -0.074 A  
HETATM    6  C   UNL     1      -5.595  11.733  72.071  1.00  0.00     0.817 A  
HETATM    7  N   UNL     1      -5.644  10.518  72.761  1.00  0.00     0.605 N  
HETATM    8  C   UNL     1      -5.342  12.908  72.771  1.00  0.00     0.395 A  
HETATM    9  C   UNL     1      -5.352  14.137  72.099  1.00  0.00    -0.224 A  
HETATM   10  H   UNL     1      -5.577  10.546  73.777  1.00  0.00     0.000 HD 
HETATM   11  C   UNL     1      -5.639  14.209  70.732  1.00  0.00    -0.173 A  
HETATM   12  C   UNL     1      -5.886  13.020  70.032  1.00  0.00    -0.143 A  
ENDROOT
BRANCH  11  13
HETATM   13  O   UNL     1      -5.655  15.487  70.224  1.00  0.00    -0.139 OA 
BRANCH  13  14
HETATM   14  C   UNL     1      -5.349  15.640  68.838  1.00  0.00    -0.103 C  
BRANCH  14  15
HETATM   15  C   UNL     1      -6.626  15.945  68.019  1.00  0.00    -0.143 C  
BRANCH  15  16
HETATM   16  C   UNL     1      -7.844  15.879  68.952  1.00  0.00    -0.198 C  
BRANCH  16  17
HETATM   17  C   UNL     1      -9.153  16.533  68.494  1.00  0.00    -0.231 C  
BRANCH  17  18
HETATM   18  C   UNL     1     -10.400  15.903  69.003  1.00  0.00    -0.231 A  
HETATM   19  N   UNL     1     -11.092  16.418  70.006  1.00  0.00    -0.346 NA 
HETATM   20  N   UNL     1     -12.208  15.655  70.157  1.00  0.00    -0.383 NA 
HETATM   21  N   UNL     1     -12.215  14.667  69.286  1.00  0.00    -0.257 NA 
HETATM   22  N   UNL     1     -11.120  14.833  68.507  1.00  0.00    -0.253 NA 
BRANCH  22  23
HETATM   23  C   UNL     1     -10.897  13.849  67.451  1.00  0.00    -0.285 C  
HETATM   24  C   UNL     1     -12.148  13.656  66.549  1.00  0.00    -0.469 C  
HETATM   25  C   UNL     1     -12.409  14.896  65.689  1.00  0.00     0.115 C  
HETATM   26  C   UNL     1     -11.216  15.190  64.785  1.00  0.00    -0.396 C  
HETATM   27  C   UNL     1      -9.900  15.257  65.559  1.00  0.00    -0.362 C  
HETATM   28  C   UNL     1      -9.709  14.063  66.498  1.00  0.00    -0.305 C  
ENDBRANCH  22  23
ENDBRANCH  17  18
ENDBRANCH  16  17
ENDBRANCH  15  16
ENDBRANCH  14  15
ENDBRANCH  13  14
ENDBRANCH  11  13
TORSDOF 7
ENDMDL
MODEL      380
REMARK 921   NORMALIZED FREE ENERGY PREDICTED BY IDOCK:   -1.75 KCAL/MOL
REMARK 922        TOTAL FREE ENERGY PREDICTED BY IDOCK:   -3.48 KCAL/MOL
REMARK 923 INTER-LIGAND FREE ENERGY PREDICTED BY IDOCK:   -4.45 KCAL/MOL
REMARK 924 INTRA-LIGAND FREE ENERGY PREDICTED BY IDOCK:    0.97 KCAL/MOL
REMARK 927      BINDING AFFINITY PREDICTED BY RF-SCORE:    0.00 PKD
ROOT
HETATM    1  O   UNL     1     -12.990  12.777  64.786  1.00  0.00    -0.768 OA 
HETATM    2  C   UNL     1     -12.081  12.991  65.585  1.00  0.00    -0.454 C  
HETATM    3  C   UNL     1     -11.975  12.266  66.906  1.00  0.00    -0.214 C  
HETATM    4  C   UNL     1     -10.531  12.069  67.351  1.00  0.00    -0.239 C  
HETATM    5  C   UNL     1      -9.699  13.311  67.174  1.00  0.00    -0.236 A  
HETATM    6  C   UNL     1     -10.056  14.228  66.177  1.00  0.00    -0.313 A  
HETATM    7  N   UNL     1     -11.178  13.996  65.377  1.00  0.00    -0.311 N  
HETATM    8  C   UNL     1      -9.267  15.350  65.943  1.00  0.00    -0.274 A  
HETATM    9  C   UNL     1      -8.107  15.558  66.698  1.00  0.00    -0.189 A  
HETATM   10  H   UNL     1     -11.333  14.618  64.584  1.00  0.00     0.000 HD 
HETATM   11  C   UNL     1      -7.709  14.640  67.676  1.00  0.00    -0.177 A  
HETATM   12  C   UNL     1      -8.512  13.516  67.912  1.00  0.00    -0.179 A  
ENDROOT
BRANCH  11  13
HETATM   13  O   UNL     1      -6.526  14.959  68.303  1.00  0.00    -0.099 OA 
BRANCH  13  14
HETATM   14  C   UNL     1      -5.690  13.874  68.704  1.00  0.00    -0.085 C  
BRANCH  14  15
HETATM   15  C   UNL     1      -5.953  13.488  70.180  1.00  0.00    -0.145 C  
BRANCH  15  16
HETATM   16  C   UNL     1      -6.175  11.972  70.267  1.00  0.00    -0.009 C  
BRANCH  16  17
HETATM   17  C   UNL     1      -5.472  11.070  69.246  1.00  0.00    -0.040 C  
BRANCH  17  18
HETATM   18  C   UNL     1      -6.290  10.667  68.071  1.00  0.00    -0.058 A  
HETATM   19  N   UNL     1      -6.223  11.305  66.914  1.00  0.00    -0.109 NA 
HETATM   20  N   UNL     1      -7.021  10.634  66.040  1.00  0.00    -0.133 NA 
HETATM   21  N   UNL     1      -7.599   9.609  66.633  1.00  0.00    -0.097 NA 
HETATM   22  N   UNL     1      -7.110   9.570  67.895  1.00  0.00    -0.080 NA 
BRANCH  22  23
HETATM   23  C   UNL     1      -7.604   8.508  68.768  1.00  0.00    -0.097 C  
HETATM   24  C   UNL     1      -6.485   7.511  69.180  1.00  0.00    -0.040 C  
HETATM   25  C   UNL     1      -5.477   8.168  70.126  1.00  0.00    -0.022 C  
HETATM   26  C   UNL     1      -6.163   8.658  71.397  1.00  0.00    -0.053 C  
HETATM   27  C   UNL     1      -7.378   9.538  71.102  1.00  0.00     0.100 C  
HETATM   28  C   UNL     1      -8.319   8.912  70.069  1.00  0.00    -0.133 C  
ENDBRANCH  22  23
ENDBRANCH  17  18
ENDBRANCH  16  17
ENDBRANCH  15  16
ENDBRANCH  14  15
ENDBRANCH  13  14
ENDBRANCH  11  13
TORSDOF 7
ENDMDL
MODEL      381
REMARK 921   NORMALIZED FREE ENERGY PREDICTED BY IDOCK:   -1.21 KCAL/MOL
REMARK 922        TOTAL FREE ENERGY PREDICTED BY IDOCK:   -2.71 KCAL/MOL
REMARK 923 INTER-LIGAND FREE ENERGY PREDICTED BY IDOCK:   -2.08 KCAL/MOL
REMARK 924 INTRA-LIGAND FREE ENERGY PREDICTED BY IDOCK:   -0.64 KCAL/MOL
REMARK 927      BINDING AFFINITY PREDICTED BY RF-SCORE:    0.00 PKD
ROOT
HETATM    1  O   UNL     1      -5.495  11.803  74.005  1.00  0.00     0.043 OA 
HETATM    2  C   UNL     1      -5.670  10.838  73.264  1.00  0.00     1.335 C  
HETATM    3  C   UNL     1      -6.087   9.482  73.785  1.00  0.00     0.400 C  
HETATM    4  C   UNL     1      -6.953   8.715  72.793  1.00  0.00     0.005 C  
HETATM    5  C   UNL     1      -6.417   8.783  71.388  1.00  0.00    -0.071 A  
HETATM    6  C   UNL     1      -5.649   9.891  71.009  1.00  0.00    -0.081 A  
HETATM    7  N   UNL     1      -5.373  10.904  71.931  1.00  0.00     0.135 N  
HETATM    8  C   UNL     1      -5.198  10.016  69.699  1.00  0.00    -0.038 A  
HETATM    9  C   UNL     1      -5.522   9.036  68.752  1.00  0.00    -0.040 A  
HETATM   10  H   UNL     1      -4.920  11.750  71.587  1.00  0.00     0.000 HD 
HETATM   11  C   UNL     1      -6.317   7.938  69.095  1.00  0.00    -0.036 A  
HETATM   12  C   UNL     1      -6.762   7.814  70.419  1.00  0.00    -0.038 A  
ENDROOT
BRANCH  11  13
HETATM   13  O   UNL     1      -6.586   7.085  68.049  1.00  0.00    -0.051 OA 
BRANCH  13  14
HETATM   14  C   UNL     1      -7.958   6.797  67.781  1.00  0.00    -0.113 C  
BRANCH  14  15
HETATM   15  C   UNL     1      -8.311   7.107  66.306  1.00  0.00    -0.129 C  
BRANCH  15  16
HETATM   16  C   UNL     1      -8.225   8.624  66.082  1.00  0.00    -0.121 C  
BRANCH  16  17
HETATM   17  C   UNL     1      -9.450   9.483  66.414  1.00  0.00    -0.251 C  
BRANCH  17  18
HETATM   18  C   UNL     1      -9.171  10.744  67.150  1.00  0.00    -0.147 A  
HETATM   19  N   UNL     1      -7.997  10.991  67.708  1.00  0.00    -0.112 NA 
HETATM   20  N   UNL     1      -8.050  12.252  68.214  1.00  0.00    -0.161 NA 
HETATM   21  N   UNL     1      -9.235  12.787  68.003  1.00  0.00    -0.203 NA 
HETATM   22  N   UNL     1      -9.941  11.884  67.282  1.00  0.00    -0.186 NA 
BRANCH  22  23
HETATM   23  C   UNL     1     -11.309  12.245  66.916  1.00  0.00    -0.333 C  
HETATM   24  C   UNL     1     -11.703  13.660  67.424  1.00  0.00    -0.416 C  
HETATM   25  C   UNL     1     -10.942  14.753  66.669  1.00  0.00    -0.326 C  
HETATM   26  C   UNL     1     -11.240  14.688  65.175  1.00  0.00    -0.374 C  
HETATM   27  C   UNL     1     -11.022  13.290  64.596  1.00  0.00    -0.384 C  
HETATM   28  C   UNL     1     -11.699  12.198  65.430  1.00  0.00    -0.379 C  
ENDBRANCH  22  23
ENDBRANCH  17  18
ENDBRANCH  16  17
ENDBRANCH  15  16
ENDBRANCH  14  15
ENDBRANCH  13  14
ENDBRANCH  11  13
TORSDOF 7
ENDMDL
MODEL      382
REMARK 921   NORMALIZED FREE ENERGY PREDICTED BY IDOCK:   -1.09 KCAL/MOL
REMARK 922        TOTAL FREE ENERGY PREDICTED BY IDOCK:   -2.55 KCAL/MOL
REMARK 923 INTER-LIGAND FREE ENERGY PREDICTED BY IDOCK:   -4.25 KCAL/MOL
REMARK 924 INTRA-LIGAND FREE ENERGY PREDICTED BY IDOCK:    1.70 KCAL/MOL
REMARK 927      BINDING AFFINITY PREDICTED BY RF-SCORE:    0.00 PKD
ROOT
HETATM    1  O   UNL     1     -13.053  11.218  63.210  1.00  0.00     0.133 OA 
HETATM    2  C   UNL     1     -12.382  11.948  63.937  1.00  0.00    -0.383 C  
HETATM    3  C   UNL     1     -11.243  11.425  64.780  1.00  0.00    -0.197 C  
HETATM    4  C   UNL     1     -10.130  12.449  64.961  1.00  0.00    -0.269 C  
HETATM    5  C   UNL     1     -10.658  13.822  65.284  1.00  0.00    -0.363 A  
HETATM    6  C   UNL     1     -11.937  14.178  64.838  1.00  0.00    -0.417 A  
HETATM    7  N   UNL     1     -12.712  13.262  64.120  1.00  0.00    -0.658 N  
HETATM    8  C   UNL     1     -12.425  15.461  65.060  1.00  0.00     0.435 A  
HETATM    9  C   UNL     1     -11.631  16.404  65.724  1.00  0.00     0.857 A  
HETATM   10  H   UNL     1     -13.581  13.596  63.705  1.00  0.00     0.000 HD 
HETATM   11  C   UNL     1     -10.338  16.087  66.149  1.00  0.00    -0.328 A  
HETATM   12  C   UNL     1      -9.855  14.789  65.928  1.00  0.00    -0.363 A  
ENDROOT
BRANCH  11  13
HETATM   13  O   UNL     1      -9.666  17.129  66.746  1.00  0.00    -0.250 OA 
BRANCH  13  14
HETATM   14  C   UNL     1      -9.945  18.443  66.264  1.00  0.00    -0.366 C  
BRANCH  14  15
HETATM   15  C   UNL     1      -9.577  19.511  67.322  1.00  0.00    -0.437 C  
BRANCH  15  16
HETATM   16  C   UNL     1      -8.058  19.496  67.539  1.00  0.00    -0.325 C  
BRANCH  16  17
HETATM   17  C   UNL     1      -7.499  18.742  68.751  1.00  0.00    -0.337 C  
BRANCH  17  18
HETATM   18  C   UNL     1      -8.156  17.444  69.060  1.00  0.00    -0.093 A  
HETATM   19  N   UNL     1      -9.460  17.344  69.264  1.00  0.00    -0.011 NA 
HETATM   20  N   UNL     1      -9.740  16.023  69.430  1.00  0.00    -0.256 NA 
HETATM   21  N   UNL     1      -8.639  15.303  69.355  1.00  0.00    -0.243 NA 
HETATM   22  N   UNL     1      -7.635  16.165  69.063  1.00  0.00    -0.202 NA 
BRANCH  22  23
HETATM   23  C   UNL     1      -6.293  15.603  68.927  1.00  0.00    -0.114 C  
HETATM   24  C   UNL     1      -5.350  16.041  70.082  1.00  0.00    -0.157 C  
HETATM   25  C   UNL     1      -5.760  15.397  71.409  1.00  0.00     0.309 C  
HETATM   26  C   UNL     1      -5.714  13.876  71.312  1.00  0.00    -0.224 C  
HETATM   27  C   UNL     1      -6.498  13.343  70.113  1.00  0.00     0.098 C  
HETATM   28  C   UNL     1      -6.154  14.076  68.813  1.00  0.00    -0.086 C  
ENDBRANCH  22  23
ENDBRANCH  17  18
ENDBRANCH  16  17
ENDBRANCH  15  16
ENDBRANCH  14  15
ENDBRANCH  13  14
ENDBRANCH  11  13
TORSDOF 7
ENDMDL
MODEL      383
REMARK 921   NORMALIZED FREE ENERGY PREDICTED BY IDOCK:    0.14 KCAL/MOL
REMARK 922        TOTAL FREE ENERGY PREDICTED BY IDOCK:   -0.82 KCAL/MOL
REMARK 923 INTER-LIGAND FREE ENERGY PREDICTED BY IDOCK:   -0.63 KCAL/MOL
REMARK 924 INTRA-LIGAND FREE ENERGY PREDICTED BY IDOCK:   -0.19 KCAL/MOL
REMARK 927      BINDING AFFINITY PREDICTED BY RF-SCORE:    0.00 PKD
ROOT
HETATM    1  O   UNL     1      -6.274   8.280  73.030  1.00  0.00    -0.073 OA 
HETATM    2  C   UNL     1      -6.071   9.286  72.354  1.00  0.00     0.131 C  
HETATM    3  C   UNL     1      -5.914   9.236  70.852  1.00  0.00    -0.059 C  
HETATM    4  C   UNL     1      -6.430  10.495  70.167  1.00  0.00    -0.144 C  
HETATM    5  C   UNL     1      -5.991  11.753  70.868  1.00  0.00     0.228 A  
HETATM    6  C   UNL     1      -5.725  11.705  72.242  1.00  0.00     1.358 A  
HETATM    7  N   UNL     1      -5.849  10.501  72.941  1.00  0.00     1.024 N  
HETATM    8  C   UNL     1      -5.384  12.865  72.931  1.00  0.00     0.418 A  
HETATM    9  C   UNL     1      -5.317  14.087  72.251  1.00  0.00    -0.227 A  
HETATM   10  H   UNL     1      -5.770  10.531  73.957  1.00  0.00     0.000 HD 
HETATM   11  C   UNL     1      -5.612  14.169  70.887  1.00  0.00    -0.183 A  
HETATM   12  C   UNL     1      -5.947  12.996  70.197  1.00  0.00    -0.135 A  
ENDROOT
BRANCH  11  13
HETATM   13  O   UNL     1      -5.546  15.443  70.369  1.00  0.00    -0.134 OA 
BRANCH  13  14
HETATM   14  C   UNL     1      -5.146  15.570  69.005  1.00  0.00    -0.096 C  
BRANCH  14  15
HETATM   15  C   UNL     1      -6.371  15.805  68.089  1.00  0.00    -0.133 C  
BRANCH  15  16
HETATM   16  C   UNL     1      -6.097  17.020  67.191  1.00  0.00    -0.199 C  
BRANCH  16  17
HETATM   17  C   UNL     1      -7.110  17.361  66.092  1.00  0.00    -0.320 C  
BRANCH  17  18
HETATM   18  C   UNL     1      -7.080  18.764  65.602  1.00  0.00    -0.184 A  
HETATM   19  N   UNL     1      -6.358  19.130  64.555  1.00  0.00    -0.456 NA 
HETATM   20  N   UNL     1      -6.624  20.444  64.324  1.00  0.00    -0.216 NA 
HETATM   21  N   UNL     1      -7.476  20.908  65.215  1.00  0.00     0.374 NA 
HETATM   22  N   UNL     1      -7.827  19.857  65.994  1.00  0.00    -0.338 NA 
BRANCH  22  23
HETATM   23  C   UNL     1      -8.775  20.117  67.075  1.00  0.00    -0.337 C  
HETATM   24  C   UNL     1     -10.172  20.546  66.546  1.00  0.00    -0.200 C  
HETATM   25  C   UNL     1     -10.887  19.381  65.856  1.00  0.00    -0.401 C  
HETATM   26  C   UNL     1     -11.085  18.217  66.821  1.00  0.00     0.313 C  
HETATM   27  C   UNL     1      -9.786  17.805  67.514  1.00  0.00    -0.284 C  
HETATM   28  C   UNL     1      -9.029  19.000  68.101  1.00  0.00    -0.355 C  
ENDBRANCH  22  23
ENDBRANCH  17  18
ENDBRANCH  16  17
ENDBRANCH  15  16
ENDBRANCH  14  15
ENDBRANCH  13  14
ENDBRANCH  11  13
TORSDOF 7
ENDMDL
MODEL      384
REMARK 921   NORMALIZED FREE ENERGY PREDICTED BY IDOCK:    0.35 KCAL/MOL
REMARK 922        TOTAL FREE ENERGY PREDICTED BY IDOCK:   -0.53 KCAL/MOL
REMARK 923 INTER-LIGAND FREE ENERGY PREDICTED BY IDOCK:   -0.48 KCAL/MOL
REMARK 924 INTRA-LIGAND FREE ENERGY PREDICTED BY IDOCK:   -0.05 KCAL/MOL
REMARK 927      BINDING AFFINITY PREDICTED BY RF-SCORE:    0.00 PKD
ROOT
HETATM    1  O   UNL     1      -6.274   8.280  73.030  1.00  0.00    -0.073 OA 
HETATM    2  C   UNL     1      -6.071   9.286  72.354  1.00  0.00     0.131 C  
HETATM    3  C   UNL     1      -5.914   9.236  70.852  1.00  0.00    -0.059 C  
HETATM    4  C   UNL     1      -6.430  10.495  70.167  1.00  0.00    -0.144 C  
HETATM    5  C   UNL     1      -5.991  11.753  70.868  1.00  0.00     0.228 A  
HETATM    6  C   UNL     1      -5.725  11.705  72.242  1.00  0.00     1.358 A  
HETATM    7  N   UNL     1      -5.849  10.501  72.941  1.00  0.00     1.024 N  
HETATM    8  C   UNL     1      -5.384  12.865  72.931  1.00  0.00     0.418 A  
HETATM    9  C   UNL     1      -5.317  14.087  72.251  1.00  0.00    -0.227 A  
HETATM   10  H   UNL     1      -5.770  10.531  73.957  1.00  0.00     0.000 HD 
HETATM   11  C   UNL     1      -5.612  14.169  70.887  1.00  0.00    -0.183 A  
HETATM   12  C   UNL     1      -5.947  12.996  70.197  1.00  0.00    -0.135 A  
ENDROOT
BRANCH  11  13
HETATM   13  O   UNL     1      -5.546  15.443  70.369  1.00  0.00    -0.134 OA 
BRANCH  13  14
HETATM   14  C   UNL     1      -5.146  15.570  69.005  1.00  0.00    -0.096 C  
BRANCH  14  15
HETATM   15  C   UNL     1      -6.371  15.805  68.089  1.00  0.00    -0.133 C  
BRANCH  15  16
HETATM   16  C   UNL     1      -6.097  17.020  67.191  1.00  0.00    -0.199 C  
BRANCH  16  17
HETATM   17  C   UNL     1      -7.110  17.361  66.092  1.00  0.00    -0.320 C  
BRANCH  17  18
HETATM   18  C   UNL     1      -8.207  18.282  66.491  1.00  0.00    -0.268 A  
HETATM   19  N   UNL     1      -8.123  19.592  66.325  1.00  0.00    -0.324 NA 
HETATM   20  N   UNL     1      -9.317  20.122  66.706  1.00  0.00    -0.381 NA 
HETATM   21  N   UNL     1     -10.132  19.174  67.125  1.00  0.00    -0.349 NA 
HETATM   22  N   UNL     1      -9.481  18.000  66.943  1.00  0.00    -0.279 NA 
BRANCH  22  23
HETATM   23  C   UNL     1     -10.183  16.782  67.338  1.00  0.00    -0.288 C  
HETATM   24  C   UNL     1     -11.500  16.572  66.539  1.00  0.00     0.775 C  
HETATM   25  C   UNL     1     -11.212  16.234  65.074  1.00  0.00    -0.181 C  
HETATM   26  C   UNL     1     -10.384  14.958  64.963  1.00  0.00    -0.401 C  
HETATM   27  C   UNL     1      -9.127  15.001  65.832  1.00  0.00    -0.024 C  
HETATM   28  C   UNL     1      -9.420  15.449  67.266  1.00  0.00    -0.215 C  
ENDBRANCH  22  23
ENDBRANCH  17  18
ENDBRANCH  16  17
ENDBRANCH  15  16
ENDBRANCH  14  15
ENDBRANCH  13  14
ENDBRANCH  11  13
TORSDOF 7
ENDMDL
MODEL      385
REMARK 921   NORMALIZED FREE ENERGY PREDICTED BY IDOCK:    1.28 KCAL/MOL
REMARK 922        TOTAL FREE ENERGY PREDICTED BY IDOCK:    0.79 KCAL/MOL
REMARK 923 INTER-LIGAND FREE ENERGY PREDICTED BY IDOCK:   -2.14 KCAL/MOL
REMARK 924 INTRA-LIGAND FREE ENERGY PREDICTED BY IDOCK:    2.93 KCAL/MOL
REMARK 927      BINDING AFFINITY PREDICTED BY RF-SCORE:    0.00 PKD
ROOT
HETATM    1  O   UNL     1      -6.062   8.292  72.942  1.00  0.00    -0.063 OA 
HETATM    2  C   UNL     1      -5.976   9.253  72.181  1.00  0.00     0.025 C  
HETATM    3  C   UNL     1      -6.091   9.113  70.681  1.00  0.00    -0.047 C  
HETATM    4  C   UNL     1      -6.712  10.340  70.025  1.00  0.00    -0.137 C  
HETATM    5  C   UNL     1      -6.142  11.628  70.559  1.00  0.00     0.001 A  
HETATM    6  C   UNL     1      -5.634  11.654  71.863  1.00  0.00     0.685 A  
HETATM    7  N   UNL     1      -5.641  10.495  72.645  1.00  0.00     0.563 N  
HETATM    8  C   UNL     1      -5.165  12.845  72.409  1.00  0.00     0.153 A  
HETATM    9  C   UNL     1      -5.210  14.024  71.655  1.00  0.00    -0.190 A  
HETATM   10  H   UNL     1      -5.381  10.582  73.626  1.00  0.00     0.000 HD 
HETATM   11  C   UNL     1      -5.745  14.033  70.363  1.00  0.00    -0.147 A  
HETATM   12  C   UNL     1      -6.209  12.829  69.817  1.00  0.00    -0.108 A  
ENDROOT
BRANCH  11  13
HETATM   13  O   UNL     1      -5.762  15.273  69.766  1.00  0.00    -0.108 OA 
BRANCH  13  14
HETATM   14  C   UNL     1      -5.504  15.323  68.363  1.00  0.00    -0.106 C  
BRANCH  14  15
HETATM   15  C   UNL     1      -6.485  16.286  67.654  1.00  0.00    -0.183 C  
BRANCH  15  16
HETATM   16  C   UNL     1      -7.756  16.420  68.505  1.00  0.00    -0.195 C  
BRANCH  16  17
HETATM   17  C   UNL     1      -8.393  17.807  68.655  1.00  0.00    -0.274 C  
BRANCH  17  18
HETATM   18  C   UNL     1      -9.353  18.192  67.587  1.00  0.00    -0.260 A  
HETATM   19  N   UNL     1     -10.663  18.085  67.745  1.00  0.00    -0.391 NA 
HETATM   20  N   UNL     1     -11.244  18.600  66.628  1.00  0.00     0.351 NA 
HETATM   21  N   UNL     1     -10.327  19.004  65.772  1.00  0.00    -0.556 NA 
HETATM   22  N   UNL     1      -9.129  18.816  66.375  1.00  0.00    -0.366 NA 
BRANCH  22  23
HETATM   23  C   UNL     1      -7.936  19.190  65.620  1.00  0.00     0.228 C  
HETATM   24  C   UNL     1      -7.537  20.675  65.841  1.00  0.00     0.092 C  
HETATM   25  C   UNL     1      -7.018  20.905  67.262  1.00  0.00    -0.436 C  
HETATM   26  C   UNL     1      -5.793  20.042  67.540  1.00  0.00    -0.200 C  
HETATM   27  C   UNL     1      -6.032  18.567  67.214  1.00  0.00    -0.164 C  
HETATM   28  C   UNL     1      -6.655  18.365  65.831  1.00  0.00    -0.306 C  
ENDBRANCH  22  23
ENDBRANCH  17  18
ENDBRANCH  16  17
ENDBRANCH  15  16
ENDBRANCH  14  15
ENDBRANCH  13  14
ENDBRANCH  11  13
TORSDOF 7
ENDMDL
MODEL      386
REMARK 921   NORMALIZED FREE ENERGY PREDICTED BY IDOCK:    1.41 KCAL/MOL
REMARK 922        TOTAL FREE ENERGY PREDICTED BY IDOCK:    0.97 KCAL/MOL
REMARK 923 INTER-LIGAND FREE ENERGY PREDICTED BY IDOCK:   -0.44 KCAL/MOL
REMARK 924 INTRA-LIGAND FREE ENERGY PREDICTED BY IDOCK:    1.41 KCAL/MOL
REMARK 927      BINDING AFFINITY PREDICTED BY RF-SCORE:    0.00 PKD
ROOT
HETATM    1  O   UNL     1      -6.062   8.292  72.942  1.00  0.00    -0.063 OA 
HETATM    2  C   UNL     1      -5.972   9.259  72.189  1.00  0.00     0.025 C  
HETATM    3  C   UNL     1      -6.075   9.131  70.688  1.00  0.00    -0.047 C  
HETATM    4  C   UNL     1      -6.694  10.361  70.036  1.00  0.00    -0.145 C  
HETATM    5  C   UNL     1      -6.133  11.646  70.584  1.00  0.00     0.109 A  
HETATM    6  C   UNL     1      -5.636  11.664  71.894  1.00  0.00     0.685 A  
HETATM    7  N   UNL     1      -5.646  10.499  72.666  1.00  0.00     0.563 N  
HETATM    8  C   UNL     1      -5.175  12.852  72.453  1.00  0.00     0.153 A  
HETATM    9  C   UNL     1      -5.218  14.037  71.708  1.00  0.00    -0.199 A  
HETATM   10  H   UNL     1      -5.394  10.579  73.650  1.00  0.00     0.000 HD 
HETATM   11  C   UNL     1      -5.743  14.055  70.411  1.00  0.00    -0.147 A  
HETATM   12  C   UNL     1      -6.198  12.853  69.852  1.00  0.00    -0.086 A  
ENDROOT
BRANCH  11  13
HETATM   13  O   UNL     1      -5.758  15.299  69.824  1.00  0.00    -0.108 OA 
BRANCH  13  14
HETATM   14  C   UNL     1      -5.489  15.361  68.424  1.00  0.00    -0.107 C  
BRANCH  14  15
HETATM   15  C   UNL     1      -6.467  16.326  67.714  1.00  0.00    -0.161 C  
BRANCH  15  16
HETATM   16  C   UNL     1      -7.745  16.450  68.556  1.00  0.00    -0.195 C  
BRANCH  16  17
HETATM   17  C   UNL     1      -8.388  17.833  68.711  1.00  0.00    -0.221 C  
BRANCH  17  18
HETATM   18  C   UNL     1      -8.078  18.811  67.635  1.00  0.00    -0.251 A  
HETATM   19  N   UNL     1      -8.913  19.048  66.636  1.00  0.00    -0.314 NA 
HETATM   20  N   UNL     1      -8.370  20.048  65.889  1.00  0.00    -0.261 NA 
HETATM   21  N   UNL     1      -7.209  20.421  66.388  1.00  0.00    -0.257 NA 
HETATM   22  N   UNL     1      -7.029  19.702  67.522  1.00  0.00    -0.222 NA 
BRANCH  22  23
HETATM   23  C   UNL     1      -5.796  19.935  68.269  1.00  0.00    -0.236 C  
HETATM   24  C   UNL     1      -5.942  21.079  69.310  1.00  0.00    -0.033 C  
HETATM   25  C   UNL     1      -6.862  20.667  70.462  1.00  0.00     0.986 C  
HETATM   26  C   UNL     1      -6.315  19.441  71.184  1.00  0.00     0.361 C  
HETATM   27  C   UNL     1      -5.996  18.294  70.225  1.00  0.00    -0.073 C  
HETATM   28  C   UNL     1      -5.167  18.749  69.020  1.00  0.00    -0.192 C  
ENDBRANCH  22  23
ENDBRANCH  17  18
ENDBRANCH  16  17
ENDBRANCH  15  16
ENDBRANCH  14  15
ENDBRANCH  13  14
ENDBRANCH  11  13
TORSDOF 7
ENDMDL
MODEL      387
REMARK 921   NORMALIZED FREE ENERGY PREDICTED BY IDOCK:    2.78 KCAL/MOL
REMARK 922        TOTAL FREE ENERGY PREDICTED BY IDOCK:    2.90 KCAL/MOL
REMARK 923 INTER-LIGAND FREE ENERGY PREDICTED BY IDOCK:    0.85 KCAL/MOL
REMARK 924 INTRA-LIGAND FREE ENERGY PREDICTED BY IDOCK:    2.05 KCAL/MOL
REMARK 927      BINDING AFFINITY PREDICTED BY RF-SCORE:    0.00 PKD
ROOT
HETATM    1  O   UNL     1      -5.700  11.921  73.946  1.00  0.00     0.553 OA 
HETATM    2  C   UNL     1      -5.897  10.831  73.413  1.00  0.00     1.631 C  
HETATM    3  C   UNL     1      -6.507   9.664  74.156  1.00  0.00     0.684 C  
HETATM    4  C   UNL     1      -7.342   8.766  73.251  1.00  0.00     0.170 C  
HETATM    5  C   UNL     1      -6.658   8.473  71.942  1.00  0.00    -0.077 A  
HETATM    6  C   UNL     1      -5.742   9.403  71.434  1.00  0.00    -0.073 A  
HETATM    7  N   UNL     1      -5.458  10.572  72.145  1.00  0.00     0.231 N  
HETATM    8  C   UNL     1      -5.146   9.193  70.194  1.00  0.00    -0.028 A  
HETATM    9  C   UNL     1      -5.471   8.055  69.446  1.00  0.00    -0.026 A  
HETATM   10  H   UNL     1      -4.884  11.280  71.687  1.00  0.00     0.000 HD 
HETATM   11  C   UNL     1      -6.409   7.129  69.914  1.00  0.00    -0.035 A  
HETATM   12  C   UNL     1      -7.000   7.342  71.167  1.00  0.00    -0.058 A  
ENDROOT
BRANCH  11  13
HETATM   13  O   UNL     1      -6.656   6.088  69.049  1.00  0.00    -0.047 OA 
BRANCH  13  14
HETATM   14  C   UNL     1      -7.998   5.927  68.590  1.00  0.00    -0.103 C  
BRANCH  14  15
HETATM   15  C   UNL     1      -8.031   5.623  67.073  1.00  0.00    -0.102 C  
BRANCH  15  16
HETATM   16  C   UNL     1      -7.133   6.631  66.342  1.00  0.00    -0.067 C  
BRANCH  16  17
HETATM   17  C   UNL     1      -7.670   8.045  66.095  1.00  0.00    -0.087 C  
BRANCH  17  18
HETATM   18  C   UNL     1      -8.434   8.648  67.219  1.00  0.00    -0.115 A  
HETATM   19  N   UNL     1      -9.024   7.912  68.147  1.00  0.00    -0.132 NA 
HETATM   20  N   UNL     1      -9.550   8.768  69.064  1.00  0.00    -0.160 NA 
HETATM   21  N   UNL     1      -9.319  10.018  68.718  1.00  0.00    -0.155 NA 
HETATM   22  N   UNL     1      -8.566   9.972  67.593  1.00  0.00    -0.118 NA 
BRANCH  22  23
HETATM   23  C   UNL     1      -8.174  11.248  67.001  1.00  0.00    -0.151 C  
HETATM   24  C   UNL     1      -8.611  11.371  65.515  1.00  0.00     0.100 C  
HETATM   25  C   UNL     1     -10.132  11.492  65.392  1.00  0.00    -0.304 C  
HETATM   26  C   UNL     1     -10.641  12.722  66.136  1.00  0.00    -0.286 C  
HETATM   27  C   UNL     1     -10.145  12.776  67.581  1.00  0.00    -0.220 C  
HETATM   28  C   UNL     1      -8.636  12.542  67.693  1.00  0.00    -0.178 C  
ENDBRANCH  22  23
ENDBRANCH  17  18
ENDBRANCH  16  17
ENDBRANCH  15  16
ENDBRANCH  14  15
ENDBRANCH  13  14
ENDBRANCH  11  13
TORSDOF 7
ENDMDL
MODEL      388
REMARK 921   NORMALIZED FREE ENERGY PREDICTED BY IDOCK:    2.87 KCAL/MOL
REMARK 922        TOTAL FREE ENERGY PREDICTED BY IDOCK:    3.02 KCAL/MOL
REMARK 923 INTER-LIGAND FREE ENERGY PREDICTED BY IDOCK:    3.48 KCAL/MOL
REMARK 924 INTRA-LIGAND FREE ENERGY PREDICTED BY IDOCK:   -0.45 KCAL/MOL
REMARK 927      BINDING AFFINITY PREDICTED BY RF-SCORE:    0.00 PKD
ROOT
HETATM    1  O   UNL     1      -5.748  11.967  73.924  1.00  0.00     0.529 OA 
HETATM    2  C   UNL     1      -6.029  10.972  73.259  1.00  0.00     2.319 C  
HETATM    3  C   UNL     1      -6.775   9.794  73.840  1.00  0.00     1.315 C  
HETATM    4  C   UNL     1      -7.657   9.095  72.813  1.00  0.00     0.757 C  
HETATM    5  C   UNL     1      -6.957   8.890  71.497  1.00  0.00    -0.080 A  
HETATM    6  C   UNL     1      -5.937   9.777  71.127  1.00  0.00    -0.058 A  
HETATM    7  N   UNL     1      -5.569  10.821  71.981  1.00  0.00     0.372 N  
HETATM    8  C   UNL     1      -5.318   9.656  69.887  1.00  0.00    -0.033 A  
HETATM    9  C   UNL     1      -5.723   8.651  69.000  1.00  0.00    -0.039 A  
HETATM   10  H   UNL     1      -4.914  11.517  71.626  1.00  0.00     0.000 HD 
HETATM   11  C   UNL     1      -6.762   7.775  69.329  1.00  0.00    -0.044 A  
HETATM   12  C   UNL     1      -7.376   7.898  70.583  1.00  0.00    -0.061 A  
ENDROOT
BRANCH  11  13
HETATM   13  O   UNL     1      -7.075   6.871  68.340  1.00  0.00    -0.080 OA 
BRANCH  13  14
HETATM   14  C   UNL     1      -6.876   5.489  68.635  1.00  0.00    -0.059 C  
BRANCH  14  15
HETATM   15  C   UNL     1      -8.050   4.634  68.102  1.00  0.00    -0.088 C  
BRANCH  15  16
HETATM   16  C   UNL     1      -9.359   5.142  68.723  1.00  0.00    -0.166 C  
BRANCH  16  17
HETATM   17  C   UNL     1      -9.747   4.646  70.120  1.00  0.00    -0.285 C  
BRANCH  17  18
HETATM   18  C   UNL     1      -9.079   3.395  70.567  1.00  0.00    -0.124 A  
HETATM   19  N   UNL     1      -8.585   2.514  69.711  1.00  0.00    -0.055 NA 
HETATM   20  N   UNL     1      -7.973   1.544  70.443  1.00  0.00    -0.041 NA 
HETATM   21  N   UNL     1      -8.093   1.790  71.732  1.00  0.00    -0.044 NA 
HETATM   22  N   UNL     1      -8.732   2.979  71.838  1.00  0.00    -0.076 NA 
BRANCH  22  23
HETATM   23  C   UNL     1      -8.991   3.478  73.186  1.00  0.00    -0.098 C  
HETATM   24  C   UNL     1      -7.987   2.913  74.229  1.00  0.00    -0.068 C  
HETATM   25  C   UNL     1      -6.583   3.484  74.014  1.00  0.00    -0.035 C  
HETATM   26  C   UNL     1      -6.589   5.003  74.140  1.00  0.00    -0.070 C  
HETATM   27  C   UNL     1      -7.650   5.658  73.255  1.00  0.00    -0.096 C  
HETATM   28  C   UNL     1      -9.025   5.000  73.403  1.00  0.00    -0.119 C  
ENDBRANCH  22  23
ENDBRANCH  17  18
ENDBRANCH  16  17
ENDBRANCH  15  16
ENDBRANCH  14  15
ENDBRANCH  13  14
ENDBRANCH  11  13
TORSDOF 7
ENDMDL
MODEL      389
REMARK 921   NORMALIZED FREE ENERGY PREDICTED BY IDOCK:    4.65 KCAL/MOL
REMARK 922        TOTAL FREE ENERGY PREDICTED BY IDOCK:    5.54 KCAL/MOL
REMARK 923 INTER-LIGAND FREE ENERGY PREDICTED BY IDOCK:    4.12 KCAL/MOL
REMARK 924 INTRA-LIGAND FREE ENERGY PREDICTED BY IDOCK:    1.43 KCAL/MOL
REMARK 927      BINDING AFFINITY PREDICTED BY RF-SCORE:    0.00 PKD
ROOT
HETATM    1  O   UNL     1     -10.265  20.367  71.312  1.00  0.00     1.609 OA 
HETATM    2  C   UNL     1     -10.318  19.586  70.364  1.00  0.00     1.290 C  
HETATM    3  C   UNL     1     -10.056  18.106  70.518  1.00  0.00     2.091 C  
HETATM    4  C   UNL     1     -10.867  17.263  69.542  1.00  0.00     0.216 C  
HETATM    5  C   UNL     1     -10.855  17.828  68.147  1.00  0.00    -0.193 A  
HETATM    6  C   UNL     1     -10.676  19.206  67.975  1.00  0.00    -0.223 A  
HETATM    7  N   UNL     1     -10.494  20.036  69.085  1.00  0.00    -0.527 N  
HETATM    8  C   UNL     1     -10.729  19.767  66.703  1.00  0.00    -0.518 A  
HETATM    9  C   UNL     1     -10.973  18.952  65.590  1.00  0.00     0.060 A  
HETATM   10  H   UNL     1     -10.492  21.043  68.931  1.00  0.00     0.000 HD 
HETATM   11  C   UNL     1     -11.191  17.578  65.737  1.00  0.00     0.712 A  
HETATM   12  C   UNL     1     -11.128  17.019  67.021  1.00  0.00     0.219 A  
ENDROOT
BRANCH  11  13
HETATM   13  O   UNL     1     -11.461  16.919  64.560  1.00  0.00    -0.911 OA 
BRANCH  13  14
HETATM   14  C   UNL     1     -10.959  15.589  64.429  1.00  0.00    -0.043 C  
BRANCH  14  15
HETATM   15  C   UNL     1      -9.859  15.306  65.480  1.00  0.00    -0.362 C  
BRANCH  15  16
HETATM   16  C   UNL     1     -10.228  14.034  66.257  1.00  0.00    -0.300 C  
BRANCH  16  17
HETATM   17  C   UNL     1      -9.575  12.710  65.845  1.00  0.00    -0.158 C  
BRANCH  17  18
HETATM   18  C   UNL     1     -10.368  11.864  64.915  1.00  0.00    -0.286 A  
HETATM   19  N   UNL     1     -10.998  12.368  63.866  1.00  0.00    -0.378 NA 
HETATM   20  N   UNL     1     -11.543  11.323  63.186  1.00  0.00     0.174 NA 
HETATM   21  N   UNL     1     -11.286  10.185  63.799  1.00  0.00     2.789 NA 
HETATM   22  N   UNL     1     -10.496  10.489  64.857  1.00  0.00    -0.242 NA 
BRANCH  22  23
HETATM   23  C   UNL     1     -10.069   9.383  65.709  1.00  0.00    -0.096 C  
HETATM   24  C   UNL     1      -8.671   8.834  65.309  1.00  0.00    -0.216 C  
HETATM   25  C   UNL     1      -7.565   9.843  65.631  1.00  0.00    -0.119 C  
HETATM   26  C   UNL     1      -7.538  10.161  67.122  1.00  0.00    -0.092 C  
HETATM   27  C   UNL     1      -8.910  10.576  67.655  1.00  0.00    -0.131 C  
HETATM   28  C   UNL     1     -10.021   9.614  67.229  1.00  0.00    -0.250 C  
ENDBRANCH  22  23
ENDBRANCH  17  18
ENDBRANCH  16  17
ENDBRANCH  15  16
ENDBRANCH  14  15
ENDBRANCH  13  14
ENDBRANCH  11  13
TORSDOF 7
ENDMDL
MODEL      390
REMARK 921   NORMALIZED FREE ENERGY PREDICTED BY IDOCK:   31.94 KCAL/MOL
REMARK 922        TOTAL FREE ENERGY PREDICTED BY IDOCK:   44.00 KCAL/MOL
REMARK 923 INTER-LIGAND FREE ENERGY PREDICTED BY IDOCK:   22.20 KCAL/MOL
REMARK 924 INTRA-LIGAND FREE ENERGY PREDICTED BY IDOCK:   21.79 KCAL/MOL
REMARK 927      BINDING AFFINITY PREDICTED BY RF-SCORE:    0.00 PKD
ROOT
HETATM    1  O   UNL     1     -13.146  11.282  66.199  1.00  0.00     4.460 OA 
HETATM    2  C   UNL     1     -12.337  11.970  66.819  1.00  0.00     0.919 C  
HETATM    3  C   UNL     1     -12.618  12.500  68.205  1.00  0.00     1.116 C  
HETATM    4  C   UNL     1     -11.358  12.617  69.054  1.00  0.00    -0.345 C  
HETATM    5  C   UNL     1     -10.210  13.230  68.297  1.00  0.00    -0.250 A  
HETATM    6  C   UNL     1     -10.163  13.088  66.904  1.00  0.00    -0.244 A  
HETATM    7  N   UNL     1     -11.180  12.402  66.233  1.00  0.00    -0.300 N  
HETATM    8  C   UNL     1      -9.081  13.583  66.185  1.00  0.00     0.102 A  
HETATM    9  C   UNL     1      -8.028  14.217  66.855  1.00  0.00     0.154 A  
HETATM   10  H   UNL     1     -11.049  12.210  65.240  1.00  0.00     0.000 HD 
HETATM   11  C   UNL     1      -8.032  14.341  68.248  1.00  0.00    -0.140 A  
HETATM   12  C   UNL     1      -9.129  13.847  68.966  1.00  0.00     0.212 A  
ENDROOT
BRANCH  11  13
HETATM   13  O   UNL     1      -6.910  14.948  68.766  1.00  0.00    -0.094 OA 
BRANCH  13  14
HETATM   14  C   UNL     1      -6.798  16.361  68.597  1.00  0.00    -0.152 C  
BRANCH  14  15
HETATM   15  C   UNL     1      -6.100  16.706  67.260  1.00  0.00    -0.195 C  
BRANCH  15  16
HETATM   16  C   UNL     1      -5.887  18.224  67.186  1.00  0.00    -0.160 C  
BRANCH  16  17
HETATM   17  C   UNL     1      -6.886  19.139  67.903  1.00  0.00    -0.247 C  
BRANCH  17  18
HETATM   18  C   UNL     1      -7.985  19.678  67.060  1.00  0.00    -0.281 A  
HETATM   19  N   UNL     1      -8.919  20.480  67.545  1.00  0.00    -0.305 NA 
HETATM   20  N   UNL     1      -9.708  20.856  66.502  1.00  0.00     0.105 NA 
HETATM   21  N   UNL     1      -9.299  20.290  65.385  1.00  0.00     0.141 NA 
HETATM   22  N   UNL     1      -8.181  19.591  65.695  1.00  0.00    -0.346 NA 
BRANCH  22  23
HETATM   23  C   UNL     1      -7.529  18.861  64.610  1.00  0.00     2.416 C  
HETATM   24  C   UNL     1      -6.010  18.654  64.865  1.00  0.00    -0.254 C  
HETATM   25  C   UNL     1      -5.769  17.670  66.013  1.00  0.00    -0.222 C  
HETATM   26  C   UNL     1      -6.385  16.310  65.701  1.00  0.00     3.583 C  
HETATM   27  C   UNL     1      -7.855  16.415  65.293  1.00  0.00     3.320 C  
HETATM   28  C   UNL     1      -8.092  17.483  64.222  1.00  0.00     9.209 C  
ENDBRANCH  22  23
ENDBRANCH  17  18
ENDBRANCH  16  17
ENDBRANCH  15  16
ENDBRANCH  14  15
ENDBRANCH  13  14
ENDBRANCH  11  13
TORSDOF 7
ENDMDL
MODEL      391
REMARK 921   NORMALIZED FREE ENERGY PREDICTED BY IDOCK:   46.92 KCAL/MOL
REMARK 922        TOTAL FREE ENERGY PREDICTED BY IDOCK:   65.11 KCAL/MOL
REMARK 923 INTER-LIGAND FREE ENERGY PREDICTED BY IDOCK:   33.29 KCAL/MOL
REMARK 924 INTRA-LIGAND FREE ENERGY PREDICTED BY IDOCK:   31.82 KCAL/MOL
REMARK 927      BINDING AFFINITY PREDICTED BY RF-SCORE:    0.00 PKD
ROOT
HETATM    1  O   UNL     1     -13.207  11.254  66.207  1.00  0.00     5.375 OA 
HETATM    2  C   UNL     1     -12.642  12.030  66.976  1.00  0.00     1.932 C  
HETATM    3  C   UNL     1     -13.128  12.270  68.386  1.00  0.00     3.520 C  
HETATM    4  C   UNL     1     -11.991  12.582  69.352  1.00  0.00    -0.315 C  
HETATM    5  C   UNL     1     -11.005  13.566  68.781  1.00  0.00    -0.291 A  
HETATM    6  C   UNL     1     -10.846  13.637  67.391  1.00  0.00    -0.273 A  
HETATM    7  N   UNL     1     -11.609  12.818  66.553  1.00  0.00    -0.356 N  
HETATM    8  C   UNL     1      -9.894  14.487  66.837  1.00  0.00    -0.265 A  
HETATM    9  C   UNL     1      -9.083  15.265  67.672  1.00  0.00    -0.184 A  
HETATM   10  H   UNL     1     -11.378  12.808  65.560  1.00  0.00     0.000 HD 
HETATM   11  C   UNL     1      -9.196  15.187  69.064  1.00  0.00    -0.221 A  
HETATM   12  C   UNL     1     -10.163  14.335  69.615  1.00  0.00     0.254 A  
ENDROOT
BRANCH  11  13
HETATM   13  O   UNL     1      -8.303  15.979  69.749  1.00  0.00     0.003 OA 
BRANCH  13  14
HETATM   14  C   UNL     1      -8.646  17.355  69.913  1.00  0.00     1.673 C  
BRANCH  14  15
HETATM   15  C   UNL     1      -8.268  18.173  68.656  1.00  0.00    -0.295 C  
BRANCH  15  16
HETATM   16  C   UNL     1      -8.657  19.641  68.881  1.00  0.00    -0.227 C  
BRANCH  16  17
HETATM   17  C   UNL     1      -9.795  19.954  69.860  1.00  0.00     0.298 C  
BRANCH  17  18
HETATM   18  C   UNL     1     -11.162  19.966  69.276  1.00  0.00     2.320 A  
HETATM   19  N   UNL     1     -12.228  20.307  69.982  1.00  0.00     7.210 NA 
HETATM   20  N   UNL     1     -13.291  20.298  69.133  1.00  0.00     8.904 NA 
HETATM   21  N   UNL     1     -12.914  19.938  67.922  1.00  0.00     4.532 NA 
HETATM   22  N   UNL     1     -11.570  19.782  67.969  1.00  0.00     1.157 NA 
BRANCH  22  23
HETATM   23  C   UNL     1     -10.903  19.376  66.734  1.00  0.00    -0.388 C  
HETATM   24  C   UNL     1      -9.413  19.817  66.694  1.00  0.00    -0.491 C  
HETATM   25  C   UNL     1      -8.574  19.030  67.704  1.00  0.00    -0.317 C  
HETATM   26  C   UNL     1      -8.632  17.535  67.411  1.00  0.00    -0.225 C  
HETATM   27  C   UNL     1     -10.066  17.020  67.284  1.00  0.00    -0.295 C  
HETATM   28  C   UNL     1     -10.921  17.886  66.355  1.00  0.00     0.256 C  
ENDBRANCH  22  23
ENDBRANCH  17  18
ENDBRANCH  16  17
ENDBRANCH  15  16
ENDBRANCH  14  15
ENDBRANCH  13  14
ENDBRANCH  11  13
TORSDOF 7
ENDMDL
