MODEL        1
REMARK 921   NORMALIZED FREE ENERGY PREDICTED BY IDOCK:   -5.44 KCAL/MOL
REMARK 922        TOTAL FREE ENERGY PREDICTED BY IDOCK:   -8.00 KCAL/MOL
REMARK 923 INTER-LIGAND FREE ENERGY PREDICTED BY IDOCK:   -7.04 KCAL/MOL
REMARK 924 INTRA-LIGAND FREE ENERGY PREDICTED BY IDOCK:   -0.96 KCAL/MOL
REMARK 927      BINDING AFFINITY PREDICTED BY RF-SCORE:    0.00 PKD
ROOT
HETATM    1  C   UNL     1     -12.682  11.722  63.577  1.00  0.00    -0.306 C  
HETATM    2  N   UNL     1     -12.402  12.366  64.837  1.00  0.00    -0.496 NA 
HETATM    3  C   UNL     1     -12.093  13.688  64.981  1.00  0.00    -0.392 C  
HETATM    4  H   UNL     1     -12.436  11.793  65.680  1.00  0.00     0.000 HD 
HETATM    5  N   UNL     1     -11.829  14.059  66.279  1.00  0.00    -0.391 NA 
HETATM    6  N   UNL     1     -12.077  14.466  63.941  1.00  0.00    -0.894 NA 
HETATM    7  C   UNL     1     -11.782  15.755  64.107  1.00  0.00    -0.067 C  
HETATM    8  H   UNL     1     -11.601  15.041  66.440  1.00  0.00     0.000 HD 
HETATM    9  N   UNL     1     -11.521  16.870  64.294  1.00  0.00    -1.039 NA 
HETATM   10  H   UNL     1     -12.287  14.097  63.014  1.00  0.00     0.000 HD 
ENDROOT
BRANCH   5  11
HETATM   11  C   UNL     1     -11.842  13.192  67.444  1.00  0.00    -0.361 C  
BRANCH  11  12
HETATM   12  C   UNL     1     -12.151  13.921  68.755  1.00  0.00    -0.309 C  
BRANCH  12  13
HETATM   13  S   UNL     1     -10.600  14.734  69.274  1.00  0.00    -0.219 SA 
BRANCH  13  14
HETATM   14  C   UNL     1     -10.957  16.456  68.800  1.00  0.00    -0.344 C  
BRANCH  14  15
HETATM   15  C   UNL     1     -10.097  16.842  67.639  1.00  0.00    -0.275 A  
HETATM   16  C   UNL     1      -9.954  18.074  67.022  1.00  0.00    -0.329 A  
HETATM   17  C   UNL     1     -10.580  19.393  67.264  1.00  0.00    -0.599 C  
HETATM   18  N   UNL     1      -9.010  17.874  66.046  1.00  0.00    -0.509 NA 
HETATM   19  H   UNL     1      -8.656  18.578  65.399  1.00  0.00     0.000 HD 
HETATM   20  C   UNL     1      -8.630  16.565  66.096  1.00  0.00    -0.299 A  
HETATM   21  N   UNL     1      -9.276  15.912  67.034  1.00  0.00    -0.207 NA 
ENDBRANCH  14  15
ENDBRANCH  13  14
ENDBRANCH  12  13
ENDBRANCH  11  12
ENDBRANCH   5  11
TORSDOF 5
ENDMDL
MODEL        2
REMARK 921   NORMALIZED FREE ENERGY PREDICTED BY IDOCK:   -5.15 KCAL/MOL
REMARK 922        TOTAL FREE ENERGY PREDICTED BY IDOCK:   -7.62 KCAL/MOL
REMARK 923 INTER-LIGAND FREE ENERGY PREDICTED BY IDOCK:   -7.42 KCAL/MOL
REMARK 924 INTRA-LIGAND FREE ENERGY PREDICTED BY IDOCK:   -0.20 KCAL/MOL
REMARK 927      BINDING AFFINITY PREDICTED BY RF-SCORE:    0.00 PKD
ROOT
HETATM    1  C   UNL     1     -12.544   9.270  71.686  1.00  0.00    -0.365 C  
HETATM    2  N   UNL     1     -12.129  10.410  70.904  1.00  0.00    -0.341 NA 
HETATM    3  C   UNL     1     -12.530  11.695  71.133  1.00  0.00    -0.307 C  
HETATM    4  H   UNL     1     -11.492  10.244  70.126  1.00  0.00     0.000 HD 
HETATM    5  N   UNL     1     -12.030  12.602  70.228  1.00  0.00    -0.502 NA 
HETATM    6  N   UNL     1     -13.309  11.960  72.138  1.00  0.00    -0.538 NA 
HETATM    7  C   UNL     1     -13.680  13.223  72.347  1.00  0.00    -0.578 C  
HETATM    8  H   UNL     1     -12.295  13.579  70.362  1.00  0.00     0.000 HD 
HETATM    9  N   UNL     1     -13.979  14.334  72.494  1.00  0.00    -0.591 NA 
HETATM   10  H   UNL     1     -13.630  11.216  72.757  1.00  0.00     0.000 HD 
ENDROOT
BRANCH   5  11
HETATM   11  C   UNL     1     -11.162  12.308  69.101  1.00  0.00    -0.242 C  
BRANCH  11  12
HETATM   12  C   UNL     1     -11.767  12.673  67.742  1.00  0.00    -0.356 C  
BRANCH  12  13
HETATM   13  S   UNL     1     -11.112  11.463  66.542  1.00  0.00    -0.192 SA 
BRANCH  13  14
HETATM   14  C   UNL     1     -10.042  12.542  65.538  1.00  0.00    -0.265 C  
BRANCH  14  15
HETATM   15  C   UNL     1     -10.883  13.535  64.802  1.00  0.00    -0.381 A  
HETATM   16  C   UNL     1     -11.922  13.319  63.911  1.00  0.00    -0.483 A  
HETATM   17  C   UNL     1     -12.540  12.086  63.375  1.00  0.00    -0.592 C  
HETATM   18  N   UNL     1     -12.366  14.573  63.575  1.00  0.00    -1.090 NA 
HETATM   19  H   UNL     1     -13.132  14.788  62.937  1.00  0.00     0.000 HD 
HETATM   20  C   UNL     1     -11.600  15.481  64.245  1.00  0.00    -0.194 A  
HETATM   21  N   UNL     1     -10.689  14.890  64.981  1.00  0.00    -0.409 NA 
ENDBRANCH  14  15
ENDBRANCH  13  14
ENDBRANCH  12  13
ENDBRANCH  11  12
ENDBRANCH   5  11
TORSDOF 5
ENDMDL
MODEL        3
REMARK 921   NORMALIZED FREE ENERGY PREDICTED BY IDOCK:   -5.13 KCAL/MOL
REMARK 922        TOTAL FREE ENERGY PREDICTED BY IDOCK:   -7.59 KCAL/MOL
REMARK 923 INTER-LIGAND FREE ENERGY PREDICTED BY IDOCK:   -7.23 KCAL/MOL
REMARK 924 INTRA-LIGAND FREE ENERGY PREDICTED BY IDOCK:   -0.37 KCAL/MOL
REMARK 927      BINDING AFFINITY PREDICTED BY RF-SCORE:    0.00 PKD
ROOT
HETATM    1  C   UNL     1     -12.783  11.876  63.731  1.00  0.00    -0.350 C  
HETATM    2  N   UNL     1     -12.536  12.531  64.992  1.00  0.00    -0.640 NA 
HETATM    3  C   UNL     1     -12.119  13.824  65.126  1.00  0.00    -0.399 C  
HETATM    4  H   UNL     1     -12.684  11.990  65.844  1.00  0.00     0.000 HD 
HETATM    5  N   UNL     1     -11.917  14.210  66.431  1.00  0.00    -0.420 NA 
HETATM    6  N   UNL     1     -11.958  14.564  64.071  1.00  0.00    -0.760 NA 
HETATM    7  C   UNL     1     -11.558  15.826  64.226  1.00  0.00    -0.191 C  
HETATM    8  H   UNL     1     -11.612  15.172  66.584  1.00  0.00     0.000 HD 
HETATM    9  N   UNL     1     -11.210  16.919  64.405  1.00  0.00    -1.120 NA 
HETATM   10  H   UNL     1     -12.133  14.186  63.140  1.00  0.00     0.000 HD 
ENDROOT
BRANCH   5  11
HETATM   11  C   UNL     1     -12.093  13.385  67.613  1.00  0.00    -0.269 C  
BRANCH  11  12
HETATM   12  C   UNL     1     -10.854  12.567  67.987  1.00  0.00    -0.225 C  
BRANCH  12  13
HETATM   13  S   UNL     1     -11.403  10.831  68.131  1.00  0.00    -0.270 SA 
BRANCH  13  14
HETATM   14  C   UNL     1     -10.713  10.401  69.760  1.00  0.00    -0.278 C  
BRANCH  14  15
HETATM   15  C   UNL     1     -11.827  10.197  70.736  1.00  0.00    -0.351 A  
HETATM   16  C   UNL     1     -12.631  11.136  71.362  1.00  0.00    -0.374 A  
HETATM   17  C   UNL     1     -12.669  12.614  71.311  1.00  0.00    -0.354 C  
HETATM   18  N   UNL     1     -13.513  10.402  72.115  1.00  0.00    -0.538 NA 
HETATM   19  H   UNL     1     -14.255  10.775  72.706  1.00  0.00     0.000 HD 
HETATM   20  C   UNL     1     -13.219   9.082  71.932  1.00  0.00    -0.405 A  
HETATM   21  N   UNL     1     -12.201   8.925  71.120  1.00  0.00    -0.282 NA 
ENDBRANCH  14  15
ENDBRANCH  13  14
ENDBRANCH  12  13
ENDBRANCH  11  12
ENDBRANCH   5  11
TORSDOF 5
ENDMDL
MODEL        4
REMARK 921   NORMALIZED FREE ENERGY PREDICTED BY IDOCK:   -5.12 KCAL/MOL
REMARK 922        TOTAL FREE ENERGY PREDICTED BY IDOCK:   -7.58 KCAL/MOL
REMARK 923 INTER-LIGAND FREE ENERGY PREDICTED BY IDOCK:   -7.27 KCAL/MOL
REMARK 924 INTRA-LIGAND FREE ENERGY PREDICTED BY IDOCK:   -0.31 KCAL/MOL
REMARK 927      BINDING AFFINITY PREDICTED BY RF-SCORE:    0.00 PKD
ROOT
HETATM    1  C   UNL     1     -13.075  10.479  71.841  1.00  0.00    -0.462 C  
HETATM    2  N   UNL     1     -12.484  11.537  71.059  1.00  0.00    -0.384 NA 
HETATM    3  C   UNL     1     -12.691  12.869  71.274  1.00  0.00    -0.278 C  
HETATM    4  H   UNL     1     -11.867  11.272  70.291  1.00  0.00     0.000 HD 
HETATM    5  N   UNL     1     -12.048  13.685  70.371  1.00  0.00    -0.380 NA 
HETATM    6  N   UNL     1     -13.436  13.256  72.266  1.00  0.00    -0.561 NA 
HETATM    7  C   UNL     1     -13.617  14.563  72.461  1.00  0.00    -0.487 C  
HETATM    8  H   UNL     1     -12.166  14.691  70.495  1.00  0.00     0.000 HD 
HETATM    9  N   UNL     1     -13.749  15.707  72.597  1.00  0.00    -0.569 NA 
HETATM   10  H   UNL     1     -13.873  12.574  72.883  1.00  0.00     0.000 HD 
ENDROOT
BRANCH   5  11
HETATM   11  C   UNL     1     -11.218  13.255  69.259  1.00  0.00    -0.208 C  
BRANCH  11  12
HETATM   12  C   UNL     1     -10.527  14.406  68.522  1.00  0.00    -0.254 C  
BRANCH  12  13
HETATM   13  S   UNL     1     -10.182  13.806  66.832  1.00  0.00    -0.264 SA 
BRANCH  13  14
HETATM   14  C   UNL     1     -11.351  12.413  66.732  1.00  0.00    -0.335 C  
BRANCH  14  15
HETATM   15  C   UNL     1     -11.633  12.101  65.297  1.00  0.00    -0.322 A  
HETATM   16  C   UNL     1     -10.882  11.369  64.392  1.00  0.00    -0.330 A  
HETATM   17  C   UNL     1      -9.580  10.675  64.502  1.00  0.00    -0.341 C  
HETATM   18  N   UNL     1     -11.626  11.361  63.239  1.00  0.00    -0.848 NA 
HETATM   19  H   UNL     1     -11.373  10.904  62.363  1.00  0.00     0.000 HD 
HETATM   20  C   UNL     1     -12.766  12.073  63.473  1.00  0.00    -0.443 A  
HETATM   21  N   UNL     1     -12.795  12.544  64.698  1.00  0.00    -0.807 NA 
ENDBRANCH  14  15
ENDBRANCH  13  14
ENDBRANCH  12  13
ENDBRANCH  11  12
ENDBRANCH   5  11
TORSDOF 5
ENDMDL
MODEL        5
REMARK 921   NORMALIZED FREE ENERGY PREDICTED BY IDOCK:   -5.09 KCAL/MOL
REMARK 922        TOTAL FREE ENERGY PREDICTED BY IDOCK:   -7.54 KCAL/MOL
REMARK 923 INTER-LIGAND FREE ENERGY PREDICTED BY IDOCK:   -7.23 KCAL/MOL
REMARK 924 INTRA-LIGAND FREE ENERGY PREDICTED BY IDOCK:   -0.31 KCAL/MOL
REMARK 927      BINDING AFFINITY PREDICTED BY RF-SCORE:    0.00 PKD
ROOT
HETATM    1  C   UNL     1     -13.969  15.409  72.272  1.00  0.00    -0.562 C  
HETATM    2  N   UNL     1     -13.116  14.802  71.280  1.00  0.00    -0.346 NA 
HETATM    3  C   UNL     1     -12.841  13.467  71.206  1.00  0.00    -0.323 C  
HETATM    4  H   UNL     1     -12.688  15.412  70.584  1.00  0.00     0.000 HD 
HETATM    5  N   UNL     1     -11.969  13.134  70.195  1.00  0.00    -0.444 NA 
HETATM    6  N   UNL     1     -13.395  12.645  72.046  1.00  0.00    -0.504 NA 
HETATM    7  C   UNL     1     -13.119  11.344  71.949  1.00  0.00    -0.400 C  
HETATM    8  H   UNL     1     -11.738  12.145  70.094  1.00  0.00     0.000 HD 
HETATM    9  N   UNL     1     -12.852  10.221  71.831  1.00  0.00    -0.438 NA 
HETATM   10  H   UNL     1     -14.031  12.988  72.765  1.00  0.00     0.000 HD 
ENDROOT
BRANCH   5  11
HETATM   11  C   UNL     1     -11.345  14.050  69.257  1.00  0.00    -0.273 C  
BRANCH  11  12
HETATM   12  C   UNL     1     -10.237  13.413  68.413  1.00  0.00    -0.251 C  
BRANCH  12  13
HETATM   13  S   UNL     1     -11.058  12.235  67.285  1.00  0.00    -0.293 SA 
BRANCH  13  14
HETATM   14  C   UNL     1     -10.217  12.636  65.721  1.00  0.00    -0.272 C  
BRANCH  14  15
HETATM   15  C   UNL     1     -11.061  13.580  64.927  1.00  0.00    -0.346 A  
HETATM   16  C   UNL     1     -12.005  13.307  63.950  1.00  0.00    -0.483 A  
HETATM   17  C   UNL     1     -12.488  12.044  63.351  1.00  0.00    -0.625 C  
HETATM   18  N   UNL     1     -12.506  14.533  63.590  1.00  0.00    -1.078 NA 
HETATM   19  H   UNL     1     -13.230  14.705  62.892  1.00  0.00     0.000 HD 
HETATM   20  C   UNL     1     -11.864  15.480  64.332  1.00  0.00    -0.219 A  
HETATM   21  N   UNL     1     -10.978  14.942  65.136  1.00  0.00    -0.374 NA 
ENDBRANCH  14  15
ENDBRANCH  13  14
ENDBRANCH  12  13
ENDBRANCH  11  12
ENDBRANCH   5  11
TORSDOF 5
ENDMDL
MODEL        6
REMARK 921   NORMALIZED FREE ENERGY PREDICTED BY IDOCK:   -5.06 KCAL/MOL
REMARK 922        TOTAL FREE ENERGY PREDICTED BY IDOCK:   -7.50 KCAL/MOL
REMARK 923 INTER-LIGAND FREE ENERGY PREDICTED BY IDOCK:   -7.16 KCAL/MOL
REMARK 924 INTRA-LIGAND FREE ENERGY PREDICTED BY IDOCK:   -0.34 KCAL/MOL
REMARK 927      BINDING AFFINITY PREDICTED BY RF-SCORE:    0.00 PKD
ROOT
HETATM    1  C   UNL     1     -13.381  13.476  72.387  1.00  0.00    -0.540 C  
HETATM    2  N   UNL     1     -12.904  12.717  71.257  1.00  0.00    -0.319 NA 
HETATM    3  C   UNL     1     -12.832  11.354  71.212  1.00  0.00    -0.379 C  
HETATM    4  H   UNL     1     -12.599  13.234  70.433  1.00  0.00     0.000 HD 
HETATM    5  N   UNL     1     -12.307  10.863  70.040  1.00  0.00    -0.330 NA 
HETATM    6  N   UNL     1     -13.248  10.651  72.223  1.00  0.00    -0.574 NA 
HETATM    7  C   UNL     1     -13.176   9.322  72.153  1.00  0.00    -0.461 C  
HETATM    8  H   UNL     1     -12.240   9.848  69.955  1.00  0.00     0.000 HD 
HETATM    9  N   UNL     1     -13.097   8.169  72.053  1.00  0.00    -0.314 NA 
HETATM   10  H   UNL     1     -13.623  11.108  73.053  1.00  0.00     0.000 HD 
ENDROOT
BRANCH   5  11
HETATM   11  C   UNL     1     -11.838  11.646  68.910  1.00  0.00    -0.329 C  
BRANCH  11  12
HETATM   12  C   UNL     1     -10.321  11.593  68.707  1.00  0.00    -0.195 C  
BRANCH  12  13
HETATM   13  S   UNL     1      -9.970  12.525  67.176  1.00  0.00    -0.218 SA 
BRANCH  13  14
HETATM   14  C   UNL     1     -11.565  13.369  66.931  1.00  0.00    -0.365 C  
BRANCH  14  15
HETATM   15  C   UNL     1     -11.929  13.338  65.482  1.00  0.00    -0.405 A  
HETATM   16  C   UNL     1     -11.911  14.362  64.548  1.00  0.00    -0.472 A  
HETATM   17  C   UNL     1     -11.559  15.795  64.642  1.00  0.00    -0.218 C  
HETATM   18  N   UNL     1     -12.295  13.772  63.370  1.00  0.00    -1.100 NA 
HETATM   19  H   UNL     1     -12.386  14.238  62.467  1.00  0.00     0.000 HD 
HETATM   20  C   UNL     1     -12.533  12.453  63.621  1.00  0.00    -0.508 A  
HETATM   21  N   UNL     1     -12.336  12.162  64.885  1.00  0.00    -0.435 NA 
ENDBRANCH  14  15
ENDBRANCH  13  14
ENDBRANCH  12  13
ENDBRANCH  11  12
ENDBRANCH   5  11
TORSDOF 5
ENDMDL
MODEL        7
REMARK 921   NORMALIZED FREE ENERGY PREDICTED BY IDOCK:   -4.92 KCAL/MOL
REMARK 922        TOTAL FREE ENERGY PREDICTED BY IDOCK:   -7.33 KCAL/MOL
REMARK 923 INTER-LIGAND FREE ENERGY PREDICTED BY IDOCK:   -7.05 KCAL/MOL
REMARK 924 INTRA-LIGAND FREE ENERGY PREDICTED BY IDOCK:   -0.27 KCAL/MOL
REMARK 927      BINDING AFFINITY PREDICTED BY RF-SCORE:    0.00 PKD
ROOT
HETATM    1  C   UNL     1     -10.037  11.642  64.702  1.00  0.00    -0.262 C  
HETATM    2  N   UNL     1     -10.766  12.396  65.693  1.00  0.00    -0.257 NA 
HETATM    3  C   UNL     1     -11.129  13.705  65.559  1.00  0.00    -0.295 C  
HETATM    4  H   UNL     1     -11.028  11.918  66.554  1.00  0.00     0.000 HD 
HETATM    5  N   UNL     1     -11.785  14.215  66.655  1.00  0.00    -0.384 NA 
HETATM    6  N   UNL     1     -10.853  14.344  64.462  1.00  0.00    -0.614 NA 
HETATM    7  C   UNL     1     -11.226  15.619  64.350  1.00  0.00    -0.236 C  
HETATM    8  H   UNL     1     -12.085  15.189  66.600  1.00  0.00     0.000 HD 
HETATM    9  N   UNL     1     -11.567  16.726  64.292  1.00  0.00    -0.958 NA 
HETATM   10  H   UNL     1     -10.360  13.878  63.700  1.00  0.00     0.000 HD 
ENDROOT
BRANCH   5  11
HETATM   11  C   UNL     1     -12.092  13.505  67.885  1.00  0.00    -0.269 C  
BRANCH  11  12
HETATM   12  C   UNL     1     -10.978  13.570  68.933  1.00  0.00    -0.252 C  
BRANCH  12  13
HETATM   13  S   UNL     1     -10.965  15.281  69.570  1.00  0.00    -0.297 SA 
BRANCH  13  14
HETATM   14  C   UNL     1     -12.659  15.401  70.229  1.00  0.00    -0.336 C  
BRANCH  14  15
HETATM   15  C   UNL     1     -12.625  15.273  71.718  1.00  0.00    -0.362 A  
HETATM   16  C   UNL     1     -13.025  14.216  72.519  1.00  0.00    -0.408 A  
HETATM   17  C   UNL     1     -13.619  12.896  72.211  1.00  0.00    -0.611 C  
HETATM   18  N   UNL     1     -12.733  14.613  73.800  1.00  0.00    -0.456 NA 
HETATM   19  H   UNL     1     -12.894  14.070  74.648  1.00  0.00     0.000 HD 
HETATM   20  C   UNL     1     -12.189  15.862  73.736  1.00  0.00    -0.524 A  
HETATM   21  N   UNL     1     -12.124  16.295  72.499  1.00  0.00    -0.532 NA 
ENDBRANCH  14  15
ENDBRANCH  13  14
ENDBRANCH  12  13
ENDBRANCH  11  12
ENDBRANCH   5  11
TORSDOF 5
ENDMDL
MODEL        8
REMARK 921   NORMALIZED FREE ENERGY PREDICTED BY IDOCK:   -4.91 KCAL/MOL
REMARK 922        TOTAL FREE ENERGY PREDICTED BY IDOCK:   -7.31 KCAL/MOL
REMARK 923 INTER-LIGAND FREE ENERGY PREDICTED BY IDOCK:   -7.04 KCAL/MOL
REMARK 924 INTRA-LIGAND FREE ENERGY PREDICTED BY IDOCK:   -0.27 KCAL/MOL
REMARK 927      BINDING AFFINITY PREDICTED BY RF-SCORE:    0.00 PKD
ROOT
HETATM    1  C   UNL     1     -13.634  15.489  72.476  1.00  0.00    -0.551 C  
HETATM    2  N   UNL     1     -12.935  14.946  71.337  1.00  0.00    -0.328 NA 
HETATM    3  C   UNL     1     -12.746  13.614  71.106  1.00  0.00    -0.353 C  
HETATM    4  H   UNL     1     -12.556  15.604  70.656  1.00  0.00     0.000 HD 
HETATM    5  N   UNL     1     -12.015  13.345  69.972  1.00  0.00    -0.369 NA 
HETATM    6  N   UNL     1     -13.247  12.738  71.924  1.00  0.00    -0.445 NA 
HETATM    7  C   UNL     1     -13.057  11.443  71.673  1.00  0.00    -0.393 C  
HETATM    8  H   UNL     1     -11.853  12.362  69.751  1.00  0.00     0.000 HD 
HETATM    9  N   UNL     1     -12.870  10.326  71.419  1.00  0.00    -0.404 NA 
HETATM   10  H   UNL     1     -13.776  13.036  72.743  1.00  0.00     0.000 HD 
ENDROOT
BRANCH   5  11
HETATM   11  C   UNL     1     -11.450  14.322  69.057  1.00  0.00    -0.284 C  
BRANCH  11  12
HETATM   12  C   UNL     1     -11.794  14.065  67.587  1.00  0.00    -0.395 C  
BRANCH  12  13
HETATM   13  S   UNL     1     -10.271  13.437  66.801  1.00  0.00    -0.263 SA 
BRANCH  13  14
HETATM   14  C   UNL     1     -10.507  14.038  65.098  1.00  0.00    -0.397 C  
BRANCH  14  15
HETATM   15  C   UNL     1     -11.210  12.993  64.292  1.00  0.00    -0.373 A  
HETATM   16  C   UNL     1     -10.678  11.977  63.514  1.00  0.00    -0.455 A  
HETATM   17  C   UNL     1      -9.288  11.583  63.198  1.00  0.00    -0.271 C  
HETATM   18  N   UNL     1     -11.766  11.290  63.039  1.00  0.00    -0.796 NA 
HETATM   19  H   UNL     1     -11.741  10.471  62.432  1.00  0.00     0.000 HD 
HETATM   20  C   UNL     1     -12.888  11.898  63.522  1.00  0.00    -0.305 A  
HETATM   21  N   UNL     1     -12.588  12.935  64.268  1.00  0.00    -0.660 NA 
ENDBRANCH  14  15
ENDBRANCH  13  14
ENDBRANCH  12  13
ENDBRANCH  11  12
ENDBRANCH   5  11
TORSDOF 5
ENDMDL
MODEL        9
REMARK 921   NORMALIZED FREE ENERGY PREDICTED BY IDOCK:   -4.90 KCAL/MOL
REMARK 922        TOTAL FREE ENERGY PREDICTED BY IDOCK:   -7.30 KCAL/MOL
REMARK 923 INTER-LIGAND FREE ENERGY PREDICTED BY IDOCK:   -6.62 KCAL/MOL
REMARK 924 INTRA-LIGAND FREE ENERGY PREDICTED BY IDOCK:   -0.68 KCAL/MOL
REMARK 927      BINDING AFFINITY PREDICTED BY RF-SCORE:    0.00 PKD
ROOT
HETATM    1  C   UNL     1     -10.739  16.993  68.484  1.00  0.00    -0.352 C  
HETATM    2  N   UNL     1     -10.975  15.584  68.685  1.00  0.00    -0.264 NA 
HETATM    3  C   UNL     1     -11.885  15.068  69.562  1.00  0.00    -0.330 C  
HETATM    4  H   UNL     1     -10.422  14.927  68.135  1.00  0.00     0.000 HD 
HETATM    5  N   UNL     1     -11.899  13.693  69.603  1.00  0.00    -0.317 NA 
HETATM    6  N   UNL     1     -12.641  15.866  70.254  1.00  0.00    -0.563 NA 
HETATM    7  C   UNL     1     -13.529  15.338  71.097  1.00  0.00    -0.489 C  
HETATM    8  H   UNL     1     -12.570  13.258  70.238  1.00  0.00     0.000 HD 
HETATM    9  N   UNL     1     -14.289  14.840  71.819  1.00  0.00    -0.518 NA 
HETATM   10  H   UNL     1     -12.556  16.877  70.155  1.00  0.00     0.000 HD 
ENDROOT
BRANCH   5  11
HETATM   11  C   UNL     1     -11.054  12.798  68.832  1.00  0.00    -0.262 C  
BRANCH  11  12
HETATM   12  C   UNL     1     -11.830  11.758  68.020  1.00  0.00    -0.234 C  
BRANCH  12  13
HETATM   13  S   UNL     1     -10.675  11.114  66.762  1.00  0.00    -0.268 SA 
BRANCH  13  14
HETATM   14  C   UNL     1      -9.945  12.669  66.157  1.00  0.00    -0.261 C  
BRANCH  14  15
HETATM   15  C   UNL     1     -10.896  13.333  65.214  1.00  0.00    -0.301 A  
HETATM   16  C   UNL     1     -11.309  12.932  63.954  1.00  0.00    -0.436 A  
HETATM   17  C   UNL     1     -10.964  11.765  63.112  1.00  0.00    -0.275 C  
HETATM   18  N   UNL     1     -12.216  13.883  63.559  1.00  0.00    -1.050 NA 
HETATM   19  H   UNL     1     -12.725  13.898  62.675  1.00  0.00     0.000 HD 
HETATM   20  C   UNL     1     -12.315  14.806  64.559  1.00  0.00    -0.366 A  
HETATM   21  N   UNL     1     -11.523  14.512  65.563  1.00  0.00    -0.338 NA 
ENDBRANCH  14  15
ENDBRANCH  13  14
ENDBRANCH  12  13
ENDBRANCH  11  12
ENDBRANCH   5  11
TORSDOF 5
ENDMDL
MODEL       10
REMARK 921   NORMALIZED FREE ENERGY PREDICTED BY IDOCK:   -4.86 KCAL/MOL
REMARK 922        TOTAL FREE ENERGY PREDICTED BY IDOCK:   -7.24 KCAL/MOL
REMARK 923 INTER-LIGAND FREE ENERGY PREDICTED BY IDOCK:   -6.46 KCAL/MOL
REMARK 924 INTRA-LIGAND FREE ENERGY PREDICTED BY IDOCK:   -0.78 KCAL/MOL
REMARK 927      BINDING AFFINITY PREDICTED BY RF-SCORE:    0.00 PKD
ROOT
HETATM    1  C   UNL     1     -13.867  14.241  72.367  1.00  0.00    -0.518 C  
HETATM    2  N   UNL     1     -13.076  13.448  71.457  1.00  0.00    -0.361 NA 
HETATM    3  C   UNL     1     -12.407  13.944  70.376  1.00  0.00    -0.363 C  
HETATM    4  H   UNL     1     -13.011  12.446  71.635  1.00  0.00     0.000 HD 
HETATM    5  N   UNL     1     -11.754  12.985  69.638  1.00  0.00    -0.375 NA 
HETATM    6  N   UNL     1     -12.427  15.221  70.133  1.00  0.00    -0.514 NA 
HETATM    7  C   UNL     1     -11.759  15.684  69.077  1.00  0.00    -0.395 C  
HETATM    8  H   UNL     1     -11.232  13.308  68.822  1.00  0.00     0.000 HD 
HETATM    9  N   UNL     1     -11.165  16.046  68.148  1.00  0.00    -0.344 NA 
HETATM   10  H   UNL     1     -12.943  15.856  70.740  1.00  0.00     0.000 HD 
ENDROOT
BRANCH   5  11
HETATM   11  C   UNL     1     -11.733  11.557  69.904  1.00  0.00    -0.343 C  
BRANCH  11  12
HETATM   12  C   UNL     1     -10.517  10.835  69.316  1.00  0.00    -0.217 C  
BRANCH  12  13
HETATM   13  S   UNL     1     -11.000  10.286  67.643  1.00  0.00    -0.244 SA 
BRANCH  13  14
HETATM   14  C   UNL     1     -10.106  11.504  66.625  1.00  0.00    -0.210 C  
BRANCH  14  15
HETATM   15  C   UNL     1     -11.087  12.322  65.849  1.00  0.00    -0.322 A  
HETATM   16  C   UNL     1     -11.246  12.437  64.477  1.00  0.00    -0.323 A  
HETATM   17  C   UNL     1     -10.526  11.836  63.333  1.00  0.00    -0.485 C  
HETATM   18  N   UNL     1     -12.317  13.280  64.315  1.00  0.00    -0.580 NA 
HETATM   19  H   UNL     1     -12.715  13.581  63.426  1.00  0.00     0.000 HD 
HETATM   20  C   UNL     1     -12.754  13.643  65.555  1.00  0.00    -0.466 A  
HETATM   21  N   UNL     1     -12.027  13.095  66.500  1.00  0.00    -0.402 NA 
ENDBRANCH  14  15
ENDBRANCH  13  14
ENDBRANCH  12  13
ENDBRANCH  11  12
ENDBRANCH   5  11
TORSDOF 5
ENDMDL
MODEL       11
REMARK 921   NORMALIZED FREE ENERGY PREDICTED BY IDOCK:   -4.83 KCAL/MOL
REMARK 922        TOTAL FREE ENERGY PREDICTED BY IDOCK:   -7.21 KCAL/MOL
REMARK 923 INTER-LIGAND FREE ENERGY PREDICTED BY IDOCK:   -6.86 KCAL/MOL
REMARK 924 INTRA-LIGAND FREE ENERGY PREDICTED BY IDOCK:   -0.34 KCAL/MOL
REMARK 927      BINDING AFFINITY PREDICTED BY RF-SCORE:    0.00 PKD
ROOT
HETATM    1  C   UNL     1     -13.386   8.508  71.614  1.00  0.00    -0.343 C  
HETATM    2  N   UNL     1     -12.528   9.460  70.951  1.00  0.00    -0.469 NA 
HETATM    3  C   UNL     1     -12.566  10.810  71.151  1.00  0.00    -0.428 C  
HETATM    4  H   UNL     1     -11.845   9.098  70.285  1.00  0.00     0.000 HD 
HETATM    5  N   UNL     1     -11.674  11.512  70.373  1.00  0.00    -0.486 NA 
HETATM    6  N   UNL     1     -13.390  11.312  72.020  1.00  0.00    -0.524 NA 
HETATM    7  C   UNL     1     -13.403  12.632  72.205  1.00  0.00    -0.466 C  
HETATM    8  H   UNL     1     -11.659  12.525  70.492  1.00  0.00     0.000 HD 
HETATM    9  N   UNL     1     -13.383  13.784  72.336  1.00  0.00    -0.501 NA 
HETATM   10  H   UNL     1     -14.016  10.707  72.551  1.00  0.00     0.000 HD 
ENDROOT
BRANCH   5  11
HETATM   11  C   UNL     1     -10.753  10.954  69.398  1.00  0.00    -0.225 C  
BRANCH  11  12
HETATM   12  C   UNL     1     -10.660  11.763  68.101  1.00  0.00    -0.203 C  
BRANCH  12  13
HETATM   13  S   UNL     1     -11.762  13.204  68.308  1.00  0.00    -0.354 SA 
BRANCH  13  14
HETATM   14  C   UNL     1     -10.650  14.547  67.780  1.00  0.00    -0.250 C  
BRANCH  14  15
HETATM   15  C   UNL     1     -11.005  14.971  66.391  1.00  0.00    -0.336 A  
HETATM   16  C   UNL     1     -10.542  16.050  65.656  1.00  0.00    -0.377 A  
HETATM   17  C   UNL     1      -9.586  17.135  65.966  1.00  0.00    -0.190 C  
HETATM   18  N   UNL     1     -11.160  15.938  64.436  1.00  0.00    -0.908 NA 
HETATM   19  H   UNL     1     -11.044  16.569  63.643  1.00  0.00     0.000 HD 
HETATM   20  C   UNL     1     -11.960  14.834  64.473  1.00  0.00    -0.440 A  
HETATM   21  N   UNL     1     -11.901  14.237  65.640  1.00  0.00    -0.363 NA 
ENDBRANCH  14  15
ENDBRANCH  13  14
ENDBRANCH  12  13
ENDBRANCH  11  12
ENDBRANCH   5  11
TORSDOF 5
ENDMDL
MODEL       12
REMARK 921   NORMALIZED FREE ENERGY PREDICTED BY IDOCK:   -4.83 KCAL/MOL
REMARK 922        TOTAL FREE ENERGY PREDICTED BY IDOCK:   -7.21 KCAL/MOL
REMARK 923 INTER-LIGAND FREE ENERGY PREDICTED BY IDOCK:   -6.84 KCAL/MOL
REMARK 924 INTRA-LIGAND FREE ENERGY PREDICTED BY IDOCK:   -0.37 KCAL/MOL
REMARK 927      BINDING AFFINITY PREDICTED BY RF-SCORE:    0.00 PKD
ROOT
HETATM    1  C   UNL     1     -11.738  15.235  68.936  1.00  0.00    -0.342 C  
HETATM    2  N   UNL     1     -11.750  13.878  68.445  1.00  0.00    -0.336 NA 
HETATM    3  C   UNL     1     -11.970  13.526  67.145  1.00  0.00    -0.381 C  
HETATM    4  H   UNL     1     -11.583  13.130  69.117  1.00  0.00     0.000 HD 
HETATM    5  N   UNL     1     -11.970  12.167  66.930  1.00  0.00    -0.609 NA 
HETATM    6  N   UNL     1     -12.146  14.447  66.246  1.00  0.00    -0.397 NA 
HETATM    7  C   UNL     1     -12.350  14.079  64.981  1.00  0.00    -0.441 C  
HETATM    8  H   UNL     1     -12.122  11.853  65.971  1.00  0.00     0.000 HD 
HETATM    9  N   UNL     1     -12.524  13.717  63.892  1.00  0.00    -0.709 NA 
HETATM   10  H   UNL     1     -12.130  15.433  66.503  1.00  0.00     0.000 HD 
ENDROOT
BRANCH   5  11
HETATM   11  C   UNL     1     -11.776  11.134  67.933  1.00  0.00    -0.182 C  
BRANCH  11  12
HETATM   12  C   UNL     1     -10.610  10.189  67.631  1.00  0.00    -0.265 C  
BRANCH  12  13
HETATM   13  S   UNL     1     -10.427   9.109  69.092  1.00  0.00    -0.204 SA 
BRANCH  13  14
HETATM   14  C   UNL     1     -11.006  10.230  70.406  1.00  0.00    -0.296 C  
BRANCH  14  15
HETATM   15  C   UNL     1     -11.906   9.483  71.338  1.00  0.00    -0.389 A  
HETATM   16  C   UNL     1     -11.584   8.557  72.317  1.00  0.00    -0.374 A  
HETATM   17  C   UNL     1     -10.297   7.982  72.766  1.00  0.00    -0.408 C  
HETATM   18  N   UNL     1     -12.783   8.226  72.897  1.00  0.00    -0.664 NA 
HETATM   19  H   UNL     1     -12.917   7.567  73.664  1.00  0.00     0.000 HD 
HETATM   20  C   UNL     1     -13.762   8.934  72.266  1.00  0.00    -0.471 A  
HETATM   21  N   UNL     1     -13.270   9.690  71.312  1.00  0.00    -0.369 NA 
ENDBRANCH  14  15
ENDBRANCH  13  14
ENDBRANCH  12  13
ENDBRANCH  11  12
ENDBRANCH   5  11
TORSDOF 5
ENDMDL
MODEL       13
REMARK 921   NORMALIZED FREE ENERGY PREDICTED BY IDOCK:   -4.83 KCAL/MOL
REMARK 922        TOTAL FREE ENERGY PREDICTED BY IDOCK:   -7.20 KCAL/MOL
REMARK 923 INTER-LIGAND FREE ENERGY PREDICTED BY IDOCK:   -6.95 KCAL/MOL
REMARK 924 INTRA-LIGAND FREE ENERGY PREDICTED BY IDOCK:   -0.25 KCAL/MOL
REMARK 927      BINDING AFFINITY PREDICTED BY RF-SCORE:    0.00 PKD
ROOT
HETATM    1  C   UNL     1     -14.219   8.519  71.901  1.00  0.00    -0.455 C  
HETATM    2  N   UNL     1     -13.340   9.505  71.322  1.00  0.00    -0.488 NA 
HETATM    3  C   UNL     1     -11.981   9.502  71.447  1.00  0.00    -0.386 C  
HETATM    4  H   UNL     1     -13.764  10.259  70.781  1.00  0.00     0.000 HD 
HETATM    5  N   UNL     1     -11.363  10.569  70.837  1.00  0.00    -0.352 NA 
HETATM    6  N   UNL     1     -11.393   8.539  72.092  1.00  0.00    -0.352 NA 
HETATM    7  C   UNL     1     -10.064   8.551  72.193  1.00  0.00    -0.323 C  
HETATM    8  H   UNL     1     -10.345  10.607  70.896  1.00  0.00     0.000 HD 
HETATM    9  N   UNL     1      -8.907   8.599  72.258  1.00  0.00    -0.364 NA 
HETATM   10  H   UNL     1     -11.939   7.788  72.512  1.00  0.00     0.000 HD 
ENDROOT
BRANCH   5  11
HETATM   11  C   UNL     1     -12.017  11.649  70.119  1.00  0.00    -0.359 C  
BRANCH  11  12
HETATM   12  C   UNL     1     -11.759  11.634  68.610  1.00  0.00    -0.325 C  
BRANCH  12  13
HETATM   13  S   UNL     1     -11.669  13.380  68.081  1.00  0.00    -0.370 SA 
BRANCH  13  14
HETATM   14  C   UNL     1     -10.459  13.252  66.726  1.00  0.00    -0.270 C  
BRANCH  14  15
HETATM   15  C   UNL     1     -11.170  13.338  65.413  1.00  0.00    -0.287 A  
HETATM   16  C   UNL     1     -11.408  14.444  64.613  1.00  0.00    -0.371 A  
HETATM   17  C   UNL     1     -11.078  15.878  64.765  1.00  0.00    -0.397 C  
HETATM   18  N   UNL     1     -12.057  13.949  63.510  1.00  0.00    -0.969 NA 
HETATM   19  H   UNL     1     -12.380  14.492  62.709  1.00  0.00     0.000 HD 
HETATM   20  C   UNL     1     -12.194  12.602  63.676  1.00  0.00    -0.536 A  
HETATM   21  N   UNL     1     -11.684  12.204  64.817  1.00  0.00    -0.346 NA 
ENDBRANCH  14  15
ENDBRANCH  13  14
ENDBRANCH  12  13
ENDBRANCH  11  12
ENDBRANCH   5  11
TORSDOF 5
ENDMDL
MODEL       14
REMARK 921   NORMALIZED FREE ENERGY PREDICTED BY IDOCK:   -4.78 KCAL/MOL
REMARK 922        TOTAL FREE ENERGY PREDICTED BY IDOCK:   -7.14 KCAL/MOL
REMARK 923 INTER-LIGAND FREE ENERGY PREDICTED BY IDOCK:   -6.89 KCAL/MOL
REMARK 924 INTRA-LIGAND FREE ENERGY PREDICTED BY IDOCK:   -0.25 KCAL/MOL
REMARK 927      BINDING AFFINITY PREDICTED BY RF-SCORE:    0.00 PKD
ROOT
HETATM    1  C   UNL     1     -14.086   8.787  72.119  1.00  0.00    -0.450 C  
HETATM    2  N   UNL     1     -13.252   9.506  71.187  1.00  0.00    -0.523 NA 
HETATM    3  C   UNL     1     -11.887   9.507  71.208  1.00  0.00    -0.373 C  
HETATM    4  H   UNL     1     -13.714  10.051  70.460  1.00  0.00     0.000 HD 
HETATM    5  N   UNL     1     -11.316  10.300  70.239  1.00  0.00    -0.301 NA 
HETATM    6  N   UNL     1     -11.253   8.794  72.090  1.00  0.00    -0.362 NA 
HETATM    7  C   UNL     1      -9.920   8.804  72.087  1.00  0.00    -0.289 C  
HETATM    8  H   UNL     1     -10.296  10.327  70.210  1.00  0.00     0.000 HD 
HETATM    9  N   UNL     1      -8.761   8.840  72.050  1.00  0.00    -0.371 NA 
HETATM   10  H   UNL     1     -11.767   8.236  72.772  1.00  0.00     0.000 HD 
ENDROOT
BRANCH   5  11
HETATM   11  C   UNL     1     -12.021  11.101  69.255  1.00  0.00    -0.351 C  
BRANCH  11  12
HETATM   12  C   UNL     1     -11.630  12.581  69.266  1.00  0.00    -0.319 C  
BRANCH  12  13
HETATM   13  S   UNL     1     -10.623  12.863  67.769  1.00  0.00    -0.226 SA 
BRANCH  13  14
HETATM   14  C   UNL     1     -11.718  12.156  66.497  1.00  0.00    -0.321 C  
BRANCH  14  15
HETATM   15  C   UNL     1     -11.942  13.162  65.414  1.00  0.00    -0.406 A  
HETATM   16  C   UNL     1     -12.273  12.964  64.084  1.00  0.00    -0.414 A  
HETATM   17  C   UNL     1     -12.500  11.742  63.281  1.00  0.00    -0.411 C  
HETATM   18  N   UNL     1     -12.397  14.225  63.558  1.00  0.00    -1.122 NA 
HETATM   19  H   UNL     1     -12.640  14.453  62.594  1.00  0.00     0.000 HD 
HETATM   20  C   UNL     1     -12.138  15.120  64.555  1.00  0.00    -0.301 A  
HETATM   21  N   UNL     1     -11.846  14.513  65.681  1.00  0.00    -0.349 NA 
ENDBRANCH  14  15
ENDBRANCH  13  14
ENDBRANCH  12  13
ENDBRANCH  11  12
ENDBRANCH   5  11
TORSDOF 5
ENDMDL
MODEL       15
REMARK 921   NORMALIZED FREE ENERGY PREDICTED BY IDOCK:   -4.78 KCAL/MOL
REMARK 922        TOTAL FREE ENERGY PREDICTED BY IDOCK:   -7.14 KCAL/MOL
REMARK 923 INTER-LIGAND FREE ENERGY PREDICTED BY IDOCK:   -6.81 KCAL/MOL
REMARK 924 INTRA-LIGAND FREE ENERGY PREDICTED BY IDOCK:   -0.33 KCAL/MOL
REMARK 927      BINDING AFFINITY PREDICTED BY RF-SCORE:    0.00 PKD
ROOT
HETATM    1  C   UNL     1     -11.573  10.988  68.596  1.00  0.00    -0.316 C  
HETATM    2  N   UNL     1     -11.626  12.410  68.354  1.00  0.00    -0.303 NA 
HETATM    3  C   UNL     1     -11.867  12.981  67.137  1.00  0.00    -0.373 C  
HETATM    4  H   UNL     1     -11.472  13.032  69.147  1.00  0.00     0.000 HD 
HETATM    5  N   UNL     1     -11.830  14.356  67.152  1.00  0.00    -0.404 NA 
HETATM    6  N   UNL     1     -12.110  12.229  66.106  1.00  0.00    -0.627 NA 
HETATM    7  C   UNL     1     -12.352  12.810  64.931  1.00  0.00    -0.490 C  
HETATM    8  H   UNL     1     -12.012  14.831  66.267  1.00  0.00     0.000 HD 
HETATM    9  N   UNL     1     -12.557  13.354  63.927  1.00  0.00    -0.693 NA 
HETATM   10  H   UNL     1     -12.116  11.214  66.195  1.00  0.00     0.000 HD 
ENDROOT
BRANCH   5  11
HETATM   11  C   UNL     1     -11.555  15.200  68.302  1.00  0.00    -0.339 C  
BRANCH  11  12
HETATM   12  C   UNL     1     -10.161  15.833  68.287  1.00  0.00    -0.225 C  
BRANCH  12  13
HETATM   13  S   UNL     1      -9.598  15.806  66.550  1.00  0.00    -0.289 SA 
BRANCH  13  14
HETATM   14  C   UNL     1      -8.253  17.033  66.621  1.00  0.00    -0.260 C  
BRANCH  14  15
HETATM   15  C   UNL     1      -8.835  18.409  66.668  1.00  0.00    -0.289 A  
HETATM   16  C   UNL     1      -8.388  19.530  67.349  1.00  0.00    -0.294 A  
HETATM   17  C   UNL     1      -7.237  19.761  68.248  1.00  0.00    -0.341 C  
HETATM   18  N   UNL     1      -9.267  20.526  67.006  1.00  0.00    -0.569 NA 
HETATM   19  H   UNL     1      -9.234  21.494  67.326  1.00  0.00     0.000 HD 
HETATM   20  C   UNL     1     -10.195  19.991  66.161  1.00  0.00    -0.475 A  
HETATM   21  N   UNL     1      -9.972  18.716  65.949  1.00  0.00    -0.526 NA 
ENDBRANCH  14  15
ENDBRANCH  13  14
ENDBRANCH  12  13
ENDBRANCH  11  12
ENDBRANCH   5  11
TORSDOF 5
ENDMDL
MODEL       16
REMARK 921   NORMALIZED FREE ENERGY PREDICTED BY IDOCK:   -4.76 KCAL/MOL
REMARK 922        TOTAL FREE ENERGY PREDICTED BY IDOCK:   -7.12 KCAL/MOL
REMARK 923 INTER-LIGAND FREE ENERGY PREDICTED BY IDOCK:   -6.32 KCAL/MOL
REMARK 924 INTRA-LIGAND FREE ENERGY PREDICTED BY IDOCK:   -0.80 KCAL/MOL
REMARK 927      BINDING AFFINITY PREDICTED BY RF-SCORE:    0.00 PKD
ROOT
HETATM    1  C   UNL     1      -9.934  19.709  66.381  1.00  0.00    -0.455 C  
HETATM    2  N   UNL     1     -10.182  18.325  66.056  1.00  0.00    -0.554 NA 
HETATM    3  C   UNL     1      -9.786  17.265  66.820  1.00  0.00    -0.294 C  
HETATM    4  H   UNL     1     -10.689  18.124  65.194  1.00  0.00     0.000 HD 
HETATM    5  N   UNL     1     -10.106  16.041  66.281  1.00  0.00    -0.293 NA 
HETATM    6  N   UNL     1      -9.174  17.474  67.946  1.00  0.00    -0.260 NA 
HETATM    7  C   UNL     1      -8.805  16.424  68.680  1.00  0.00    -0.234 C  
HETATM    8  H   UNL     1      -9.838  15.217  66.819  1.00  0.00     0.000 HD 
HETATM    9  N   UNL     1      -8.500  15.484  69.289  1.00  0.00    -0.253 NA 
HETATM   10  H   UNL     1      -8.979  18.423  68.264  1.00  0.00     0.000 HD 
ENDROOT
BRANCH   5  11
HETATM   11  C   UNL     1     -10.788  15.805  65.020  1.00  0.00    -0.443 C  
BRANCH  11  12
HETATM   12  C   UNL     1     -11.023  14.323  64.712  1.00  0.00    -0.398 C  
BRANCH  12  13
HETATM   13  S   UNL     1     -12.496  13.823  65.667  1.00  0.00    -0.499 SA 
BRANCH  13  14
HETATM   14  C   UNL     1     -11.760  12.589  66.787  1.00  0.00    -0.384 C  
BRANCH  14  15
HETATM   15  C   UNL     1     -11.828  13.089  68.194  1.00  0.00    -0.340 A  
HETATM   16  C   UNL     1     -11.851  12.374  69.381  1.00  0.00    -0.304 A  
HETATM   17  C   UNL     1     -11.834  10.925  69.676  1.00  0.00    -0.416 C  
HETATM   18  N   UNL     1     -11.871  13.328  70.367  1.00  0.00    -0.536 NA 
HETATM   19  H   UNL     1     -11.886  13.153  71.372  1.00  0.00     0.000 HD 
HETATM   20  C   UNL     1     -11.868  14.552  69.765  1.00  0.00    -0.315 A  
HETATM   21  N   UNL     1     -11.857  14.443  68.458  1.00  0.00    -0.338 NA 
ENDBRANCH  14  15
ENDBRANCH  13  14
ENDBRANCH  12  13
ENDBRANCH  11  12
ENDBRANCH   5  11
TORSDOF 5
ENDMDL
MODEL       17
REMARK 921   NORMALIZED FREE ENERGY PREDICTED BY IDOCK:   -4.75 KCAL/MOL
REMARK 922        TOTAL FREE ENERGY PREDICTED BY IDOCK:   -7.11 KCAL/MOL
REMARK 923 INTER-LIGAND FREE ENERGY PREDICTED BY IDOCK:   -6.62 KCAL/MOL
REMARK 924 INTRA-LIGAND FREE ENERGY PREDICTED BY IDOCK:   -0.49 KCAL/MOL
REMARK 927      BINDING AFFINITY PREDICTED BY RF-SCORE:    0.00 PKD
ROOT
HETATM    1  C   UNL     1     -12.254  12.187  63.426  1.00  0.00    -0.530 C  
HETATM    2  N   UNL     1     -11.313  12.571  64.449  1.00  0.00    -0.323 NA 
HETATM    3  C   UNL     1     -10.984  13.859  64.758  1.00  0.00    -0.401 C  
HETATM    4  H   UNL     1     -10.860  11.826  64.980  1.00  0.00     0.000 HD 
HETATM    5  N   UNL     1     -10.032  13.969  65.745  1.00  0.00    -0.386 NA 
HETATM    6  N   UNL     1     -11.565  14.841  64.137  1.00  0.00    -0.652 NA 
HETATM    7  C   UNL     1     -11.235  16.091  64.462  1.00  0.00    -0.297 C  
HETATM    8  H   UNL     1      -9.759  14.914  66.018  1.00  0.00     0.000 HD 
HETATM    9  N   UNL     1     -10.920  17.163  64.773  1.00  0.00    -0.924 NA 
HETATM   10  H   UNL     1     -12.262  14.659  63.415  1.00  0.00     0.000 HD 
ENDROOT
BRANCH   5  11
HETATM   11  C   UNL     1      -9.378  12.873  66.439  1.00  0.00    -0.187 C  
BRANCH  11  12
HETATM   12  C   UNL     1      -9.392  13.009  67.964  1.00  0.00    -0.213 C  
BRANCH  12  13
HETATM   13  S   UNL     1     -10.960  12.267  68.536  1.00  0.00    -0.254 SA 
BRANCH  13  14
HETATM   14  C   UNL     1     -12.071  13.704  68.407  1.00  0.00    -0.277 C  
BRANCH  14  15
HETATM   15  C   UNL     1     -11.843  14.617  69.569  1.00  0.00    -0.330 A  
HETATM   16  C   UNL     1     -11.237  15.862  69.604  1.00  0.00    -0.331 A  
HETATM   17  C   UNL     1     -10.609  16.699  68.558  1.00  0.00    -0.338 C  
HETATM   18  N   UNL     1     -11.338  16.268  70.911  1.00  0.00    -0.466 NA 
HETATM   19  H   UNL     1     -10.997  17.150  71.295  1.00  0.00     0.000 HD 
HETATM   20  C   UNL     1     -11.975  15.283  71.607  1.00  0.00    -0.372 A  
HETATM   21  N   UNL     1     -12.279  14.268  70.832  1.00  0.00    -0.335 NA 
ENDBRANCH  14  15
ENDBRANCH  13  14
ENDBRANCH  12  13
ENDBRANCH  11  12
ENDBRANCH   5  11
TORSDOF 5
ENDMDL
MODEL       18
REMARK 921   NORMALIZED FREE ENERGY PREDICTED BY IDOCK:   -4.74 KCAL/MOL
REMARK 922        TOTAL FREE ENERGY PREDICTED BY IDOCK:   -7.10 KCAL/MOL
REMARK 923 INTER-LIGAND FREE ENERGY PREDICTED BY IDOCK:   -6.77 KCAL/MOL
REMARK 924 INTRA-LIGAND FREE ENERGY PREDICTED BY IDOCK:   -0.33 KCAL/MOL
REMARK 927      BINDING AFFINITY PREDICTED BY RF-SCORE:    0.00 PKD
ROOT
HETATM    1  C   UNL     1      -9.333   9.790  64.638  1.00  0.00    -0.256 C  
HETATM    2  N   UNL     1     -10.224  10.519  65.508  1.00  0.00    -0.272 NA 
HETATM    3  C   UNL     1     -11.029  11.547  65.109  1.00  0.00    -0.234 C  
HETATM    4  H   UNL     1     -10.255  10.247  66.490  1.00  0.00     0.000 HD 
HETATM    5  N   UNL     1     -11.760  12.109  66.130  1.00  0.00    -0.522 NA 
HETATM    6  N   UNL     1     -11.054  11.901  63.859  1.00  0.00    -0.377 NA 
HETATM    7  C   UNL     1     -11.854  12.901  63.491  1.00  0.00    -0.536 C  
HETATM    8  H   UNL     1     -12.384  12.877  65.880  1.00  0.00     0.000 HD 
HETATM    9  N   UNL     1     -12.564  13.776  63.212  1.00  0.00    -0.734 NA 
HETATM   10  H   UNL     1     -10.472  11.422  63.172  1.00  0.00     0.000 HD 
ENDROOT
BRANCH   5  11
HETATM   11  C   UNL     1     -11.731  11.718  67.528  1.00  0.00    -0.240 C  
BRANCH  11  12
HETATM   12  C   UNL     1     -10.933  12.671  68.422  1.00  0.00    -0.257 C  
BRANCH  12  13
HETATM   13  S   UNL     1     -11.899  14.217  68.526  1.00  0.00    -0.343 SA 
BRANCH  13  14
HETATM   14  C   UNL     1     -11.455  14.771  70.203  1.00  0.00    -0.266 C  
BRANCH  14  15
HETATM   15  C   UNL     1     -12.634  14.617  71.108  1.00  0.00    -0.334 A  
HETATM   16  C   UNL     1     -13.184  13.465  71.648  1.00  0.00    -0.364 A  
HETATM   17  C   UNL     1     -12.834  12.034  71.519  1.00  0.00    -0.403 C  
HETATM   18  N   UNL     1     -14.218  13.903  72.436  1.00  0.00    -0.679 NA 
HETATM   19  H   UNL     1     -14.841  13.316  72.991  1.00  0.00     0.000 HD 
HETATM   20  C   UNL     1     -14.266  15.263  72.346  1.00  0.00    -0.486 A  
HETATM   21  N   UNL     1     -13.335  15.723  71.543  1.00  0.00    -0.467 NA 
ENDBRANCH  14  15
ENDBRANCH  13  14
ENDBRANCH  12  13
ENDBRANCH  11  12
ENDBRANCH   5  11
TORSDOF 5
ENDMDL
MODEL       19
REMARK 921   NORMALIZED FREE ENERGY PREDICTED BY IDOCK:   -4.73 KCAL/MOL
REMARK 922        TOTAL FREE ENERGY PREDICTED BY IDOCK:   -7.08 KCAL/MOL
REMARK 923 INTER-LIGAND FREE ENERGY PREDICTED BY IDOCK:   -6.80 KCAL/MOL
REMARK 924 INTRA-LIGAND FREE ENERGY PREDICTED BY IDOCK:   -0.28 KCAL/MOL
REMARK 927      BINDING AFFINITY PREDICTED BY RF-SCORE:    0.00 PKD
ROOT
HETATM    1  C   UNL     1     -13.910  15.306  72.157  1.00  0.00    -0.522 C  
HETATM    2  N   UNL     1     -13.041  14.703  71.176  1.00  0.00    -0.351 NA 
HETATM    3  C   UNL     1     -12.775  13.366  71.093  1.00  0.00    -0.328 C  
HETATM    4  H   UNL     1     -12.594  15.318  70.496  1.00  0.00     0.000 HD 
HETATM    5  N   UNL     1     -11.885  13.038  70.096  1.00  0.00    -0.503 NA 
HETATM    6  N   UNL     1     -13.353  12.539  71.910  1.00  0.00    -0.443 NA 
HETATM    7  C   UNL     1     -13.085  11.238  71.805  1.00  0.00    -0.422 C  
HETATM    8  H   UNL     1     -11.659  12.048  69.988  1.00  0.00     0.000 HD 
HETATM    9  N   UNL     1     -12.824  10.114  71.679  1.00  0.00    -0.417 NA 
HETATM   10  H   UNL     1     -14.001  12.879  72.620  1.00  0.00     0.000 HD 
ENDROOT
BRANCH   5  11
HETATM   11  C   UNL     1     -11.233  13.960  69.182  1.00  0.00    -0.269 C  
BRANCH  11  12
HETATM   12  C   UNL     1     -11.758  13.883  67.746  1.00  0.00    -0.366 C  
BRANCH  12  13
HETATM   13  S   UNL     1     -10.347  13.375  66.705  1.00  0.00    -0.273 SA 
BRANCH  13  14
HETATM   14  C   UNL     1     -10.777  11.633  66.393  1.00  0.00    -0.272 C  
BRANCH  14  15
HETATM   15  C   UNL     1     -10.467  11.289  64.972  1.00  0.00    -0.298 A  
HETATM   16  C   UNL     1     -11.210  11.528  63.826  1.00  0.00    -0.370 A  
HETATM   17  C   UNL     1     -12.526  12.166  63.603  1.00  0.00    -0.658 C  
HETATM   18  N   UNL     1     -10.439  11.047  62.798  1.00  0.00    -0.786 NA 
HETATM   19  H   UNL     1     -10.680  11.064  61.807  1.00  0.00     0.000 HD 
HETATM   20  C   UNL     1      -9.293  10.540  63.337  1.00  0.00    -0.305 A  
HETATM   21  N   UNL     1      -9.285  10.656  64.644  1.00  0.00    -0.214 NA 
ENDBRANCH  14  15
ENDBRANCH  13  14
ENDBRANCH  12  13
ENDBRANCH  11  12
ENDBRANCH   5  11
TORSDOF 5
ENDMDL
MODEL       20
REMARK 921   NORMALIZED FREE ENERGY PREDICTED BY IDOCK:   -4.71 KCAL/MOL
REMARK 922        TOTAL FREE ENERGY PREDICTED BY IDOCK:   -7.06 KCAL/MOL
REMARK 923 INTER-LIGAND FREE ENERGY PREDICTED BY IDOCK:   -6.88 KCAL/MOL
REMARK 924 INTRA-LIGAND FREE ENERGY PREDICTED BY IDOCK:   -0.17 KCAL/MOL
REMARK 927      BINDING AFFINITY PREDICTED BY RF-SCORE:    0.00 PKD
ROOT
HETATM    1  C   UNL     1      -9.156   9.856  62.682  1.00  0.00    -0.286 C  
HETATM    2  N   UNL     1      -9.705  10.270  63.951  1.00  0.00    -0.312 NA 
HETATM    3  C   UNL     1     -10.579  11.306  64.118  1.00  0.00    -0.373 C  
HETATM    4  H   UNL     1      -9.419   9.753  64.782  1.00  0.00     0.000 HD 
HETATM    5  N   UNL     1     -10.929  11.531  65.429  1.00  0.00    -0.260 NA 
HETATM    6  N   UNL     1     -11.003  11.967  63.083  1.00  0.00    -0.692 NA 
HETATM    7  C   UNL     1     -11.863  12.968  63.270  1.00  0.00    -0.364 C  
HETATM    8  H   UNL     1     -11.588  12.291  65.605  1.00  0.00     0.000 HD 
HETATM    9  N   UNL     1     -12.610  13.832  63.475  1.00  0.00    -0.808 NA 
HETATM   10  H   UNL     1     -10.683  11.725  62.146  1.00  0.00     0.000 HD 
ENDROOT
BRANCH   5  11
HETATM   11  C   UNL     1     -10.455  10.796  66.588  1.00  0.00    -0.246 C  
BRANCH  11  12
HETATM   12  C   UNL     1     -11.223  11.106  67.875  1.00  0.00    -0.302 C  
BRANCH  12  13
HETATM   13  S   UNL     1     -10.532  10.017  69.168  1.00  0.00    -0.233 SA 
BRANCH  13  14
HETATM   14  C   UNL     1     -11.626  10.427  70.565  1.00  0.00    -0.344 C  
BRANCH  14  15
HETATM   15  C   UNL     1     -11.540   9.351  71.598  1.00  0.00    -0.396 A  
HETATM   16  C   UNL     1     -12.557   8.707  72.286  1.00  0.00    -0.395 A  
HETATM   17  C   UNL     1     -14.028   8.854  72.261  1.00  0.00    -0.531 C  
HETATM   18  N   UNL     1     -11.921   7.782  73.074  1.00  0.00    -0.629 NA 
HETATM   19  H   UNL     1     -12.370   7.126  73.713  1.00  0.00     0.000 HD 
HETATM   20  C   UNL     1     -10.580   7.896  72.853  1.00  0.00    -0.368 A  
HETATM   21  N   UNL     1     -10.315   8.841  71.981  1.00  0.00    -0.343 NA 
ENDBRANCH  14  15
ENDBRANCH  13  14
ENDBRANCH  12  13
ENDBRANCH  11  12
ENDBRANCH   5  11
TORSDOF 5
ENDMDL
MODEL       21
REMARK 921   NORMALIZED FREE ENERGY PREDICTED BY IDOCK:   -4.70 KCAL/MOL
REMARK 922        TOTAL FREE ENERGY PREDICTED BY IDOCK:   -7.04 KCAL/MOL
REMARK 923 INTER-LIGAND FREE ENERGY PREDICTED BY IDOCK:   -6.66 KCAL/MOL
REMARK 924 INTRA-LIGAND FREE ENERGY PREDICTED BY IDOCK:   -0.38 KCAL/MOL
REMARK 927      BINDING AFFINITY PREDICTED BY RF-SCORE:    0.00 PKD
ROOT
HETATM    1  C   UNL     1     -11.688  14.736  69.640  1.00  0.00    -0.314 C  
HETATM    2  N   UNL     1     -11.617  13.431  69.030  1.00  0.00    -0.290 NA 
HETATM    3  C   UNL     1     -11.946  13.162  67.732  1.00  0.00    -0.307 C  
HETATM    4  H   UNL     1     -11.300  12.653  69.609  1.00  0.00     0.000 HD 
HETATM    5  N   UNL     1     -11.833  11.834  67.394  1.00  0.00    -0.624 NA 
HETATM    6  N   UNL     1     -12.316  14.128  66.946  1.00  0.00    -0.565 NA 
HETATM    7  C   UNL     1     -12.624  13.843  65.681  1.00  0.00    -0.517 C  
HETATM    8  H   UNL     1     -12.060  11.583  66.431  1.00  0.00     0.000 HD 
HETATM    9  N   UNL     1     -12.882  13.554  64.587  1.00  0.00    -0.680 NA 
HETATM   10  H   UNL     1     -12.371  15.086  67.291  1.00  0.00     0.000 HD 
ENDROOT
BRANCH   5  11
HETATM   11  C   UNL     1     -11.422  10.751  68.271  1.00  0.00    -0.280 C  
BRANCH  11  12
HETATM   12  C   UNL     1     -10.318   9.866  67.687  1.00  0.00    -0.225 C  
BRANCH  12  13
HETATM   13  S   UNL     1     -10.038   8.524  68.893  1.00  0.00    -0.206 SA 
BRANCH  13  14
HETATM   14  C   UNL     1      -9.879   9.490  70.429  1.00  0.00    -0.271 C  
BRANCH  14  15
HETATM   15  C   UNL     1     -10.618   8.801  71.531  1.00  0.00    -0.309 A  
HETATM   16  C   UNL     1     -11.940   8.940  71.925  1.00  0.00    -0.371 A  
HETATM   17  C   UNL     1     -13.045   9.792  71.434  1.00  0.00    -0.489 C  
HETATM   18  N   UNL     1     -12.100   8.043  72.950  1.00  0.00    -0.628 NA 
HETATM   19  H   UNL     1     -12.958   7.876  73.474  1.00  0.00     0.000 HD 
HETATM   20  C   UNL     1     -10.905   7.414  73.145  1.00  0.00    -0.386 A  
HETATM   21  N   UNL     1      -9.989   7.857  72.317  1.00  0.00    -0.200 NA 
ENDBRANCH  14  15
ENDBRANCH  13  14
ENDBRANCH  12  13
ENDBRANCH  11  12
ENDBRANCH   5  11
TORSDOF 5
ENDMDL
MODEL       22
REMARK 921   NORMALIZED FREE ENERGY PREDICTED BY IDOCK:   -4.68 KCAL/MOL
REMARK 922        TOTAL FREE ENERGY PREDICTED BY IDOCK:   -7.02 KCAL/MOL
REMARK 923 INTER-LIGAND FREE ENERGY PREDICTED BY IDOCK:   -6.67 KCAL/MOL
REMARK 924 INTRA-LIGAND FREE ENERGY PREDICTED BY IDOCK:   -0.34 KCAL/MOL
REMARK 927      BINDING AFFINITY PREDICTED BY RF-SCORE:    0.00 PKD
ROOT
HETATM    1  C   UNL     1     -11.493  11.045  69.119  1.00  0.00    -0.301 C  
HETATM    2  N   UNL     1     -11.757  12.463  69.150  1.00  0.00    -0.309 NA 
HETATM    3  C   UNL     1     -12.014  13.228  68.050  1.00  0.00    -0.313 C  
HETATM    4  H   UNL     1     -11.752  12.926  70.059  1.00  0.00     0.000 HD 
HETATM    5  N   UNL     1     -12.197  14.562  68.331  1.00  0.00    -0.608 NA 
HETATM    6  N   UNL     1     -12.072  12.675  66.876  1.00  0.00    -0.499 NA 
HETATM    7  C   UNL     1     -12.333  13.441  65.817  1.00  0.00    -0.460 C  
HETATM    8  H   UNL     1     -12.400  15.176  67.541  1.00  0.00     0.000 HD 
HETATM    9  N   UNL     1     -12.562  14.142  64.921  1.00  0.00    -0.645 NA 
HETATM   10  H   UNL     1     -11.920  11.672  66.767  1.00  0.00     0.000 HD 
ENDROOT
BRANCH   5  11
HETATM   11  C   UNL     1     -12.130  15.185  69.641  1.00  0.00    -0.304 C  
BRANCH  11  12
HETATM   12  C   UNL     1     -10.939  16.132  69.817  1.00  0.00    -0.349 C  
BRANCH  12  13
HETATM   13  S   UNL     1     -10.638  16.894  68.185  1.00  0.00    -0.369 SA 
BRANCH  13  14
HETATM   14  C   UNL     1     -10.094  18.556  68.693  1.00  0.00    -0.369 C  
BRANCH  14  15
HETATM   15  C   UNL     1      -9.196  19.130  67.645  1.00  0.00    -0.300 A  
HETATM   16  C   UNL     1      -9.510  19.606  66.382  1.00  0.00    -0.395 A  
HETATM   17  C   UNL     1     -10.784  19.702  65.637  1.00  0.00    -0.428 C  
HETATM   18  N   UNL     1      -8.319  20.053  65.866  1.00  0.00    -0.504 NA 
HETATM   19  H   UNL     1      -8.182  20.474  64.948  1.00  0.00     0.000 HD 
HETATM   20  C   UNL     1      -7.351  19.832  66.801  1.00  0.00    -0.240 A  
HETATM   21  N   UNL     1      -7.842  19.265  67.877  1.00  0.00    -0.281 NA 
ENDBRANCH  14  15
ENDBRANCH  13  14
ENDBRANCH  12  13
ENDBRANCH  11  12
ENDBRANCH   5  11
TORSDOF 5
ENDMDL
MODEL       23
REMARK 921   NORMALIZED FREE ENERGY PREDICTED BY IDOCK:   -4.67 KCAL/MOL
REMARK 922        TOTAL FREE ENERGY PREDICTED BY IDOCK:   -7.00 KCAL/MOL
REMARK 923 INTER-LIGAND FREE ENERGY PREDICTED BY IDOCK:   -6.68 KCAL/MOL
REMARK 924 INTRA-LIGAND FREE ENERGY PREDICTED BY IDOCK:   -0.32 KCAL/MOL
REMARK 927      BINDING AFFINITY PREDICTED BY RF-SCORE:    0.00 PKD
ROOT
HETATM    1  C   UNL     1     -11.557  15.858  64.229  1.00  0.00    -0.178 C  
HETATM    2  N   UNL     1     -10.775  15.034  65.118  1.00  0.00    -0.384 NA 
HETATM    3  C   UNL     1     -10.400  13.748  64.856  1.00  0.00    -0.398 C  
HETATM    4  H   UNL     1     -10.482  15.441  66.007  1.00  0.00     0.000 HD 
HETATM    5  N   UNL     1      -9.691  13.157  65.875  1.00  0.00    -0.428 NA 
HETATM    6  N   UNL     1     -10.715  13.202  63.720  1.00  0.00    -0.504 NA 
HETATM    7  C   UNL     1     -10.330  11.948  63.481  1.00  0.00    -0.458 C  
HETATM    8  H   UNL     1      -9.380  12.197  65.723  1.00  0.00     0.000 HD 
HETATM    9  N   UNL     1      -9.976  10.856  63.313  1.00  0.00    -0.345 NA 
HETATM   10  H   UNL     1     -11.246  13.723  63.023  1.00  0.00     0.000 HD 
ENDROOT
BRANCH   5  11
HETATM   11  C   UNL     1      -9.340  13.763  67.148  1.00  0.00    -0.240 C  
BRANCH  11  12
HETATM   12  C   UNL     1      -9.967  13.067  68.359  1.00  0.00    -0.216 C  
BRANCH  12  13
HETATM   13  S   UNL     1     -11.733  13.530  68.367  1.00  0.00    -0.374 SA 
BRANCH  13  14
HETATM   14  C   UNL     1     -11.806  14.524  69.892  1.00  0.00    -0.317 C  
BRANCH  14  15
HETATM   15  C   UNL     1     -12.483  13.738  70.968  1.00  0.00    -0.380 A  
HETATM   16  C   UNL     1     -13.330  14.173  71.974  1.00  0.00    -0.415 A  
HETATM   17  C   UNL     1     -13.839  15.512  72.345  1.00  0.00    -0.662 C  
HETATM   18  N   UNL     1     -13.693  13.034  72.648  1.00  0.00    -0.725 NA 
HETATM   19  H   UNL     1     -14.319  12.985  73.452  1.00  0.00     0.000 HD 
HETATM   20  C   UNL     1     -13.067  11.979  72.052  1.00  0.00    -0.351 A  
HETATM   21  N   UNL     1     -12.319  12.370  71.047  1.00  0.00    -0.305 NA 
ENDBRANCH  14  15
ENDBRANCH  13  14
ENDBRANCH  12  13
ENDBRANCH  11  12
ENDBRANCH   5  11
TORSDOF 5
ENDMDL
MODEL       24
REMARK 921   NORMALIZED FREE ENERGY PREDICTED BY IDOCK:   -4.67 KCAL/MOL
REMARK 922        TOTAL FREE ENERGY PREDICTED BY IDOCK:   -7.00 KCAL/MOL
REMARK 923 INTER-LIGAND FREE ENERGY PREDICTED BY IDOCK:   -6.34 KCAL/MOL
REMARK 924 INTRA-LIGAND FREE ENERGY PREDICTED BY IDOCK:   -0.66 KCAL/MOL
REMARK 927      BINDING AFFINITY PREDICTED BY RF-SCORE:    0.00 PKD
ROOT
HETATM    1  C   UNL     1     -14.149   8.721  72.251  1.00  0.00    -0.441 C  
HETATM    2  N   UNL     1     -13.906  10.139  72.139  1.00  0.00    -0.333 NA 
HETATM    3  C   UNL     1     -12.952  10.702  71.341  1.00  0.00    -0.443 C  
HETATM    4  H   UNL     1     -14.489  10.765  72.695  1.00  0.00     0.000 HD 
HETATM    5  N   UNL     1     -12.887  12.073  71.435  1.00  0.00    -0.350 NA 
HETATM    6  N   UNL     1     -12.214   9.947  70.584  1.00  0.00    -0.406 NA 
HETATM    7  C   UNL     1     -11.295  10.519  69.807  1.00  0.00    -0.300 C  
HETATM    8  H   UNL     1     -12.194  12.541  70.851  1.00  0.00     0.000 HD 
HETATM    9  N   UNL     1     -10.507  11.056  69.146  1.00  0.00    -0.222 NA 
HETATM   10  H   UNL     1     -12.337   8.935  70.584  1.00  0.00     0.000 HD 
ENDROOT
BRANCH   5  11
HETATM   11  C   UNL     1     -13.708  12.919  72.283  1.00  0.00    -0.458 C  
BRANCH  11  12
HETATM   12  C   UNL     1     -13.058  14.261  72.633  1.00  0.00    -0.478 C  
BRANCH  12  13
HETATM   13  S   UNL     1     -13.455  15.403  71.265  1.00  0.00    -0.475 SA 
BRANCH  13  14
HETATM   14  C   UNL     1     -11.784  15.736  70.619  1.00  0.00    -0.385 C  
BRANCH  14  15
HETATM   15  C   UNL     1     -11.707  15.308  69.189  1.00  0.00    -0.335 A  
HETATM   16  C   UNL     1     -11.179  15.978  68.097  1.00  0.00    -0.325 A  
HETATM   17  C   UNL     1     -10.543  17.305  67.950  1.00  0.00    -0.384 C  
HETATM   18  N   UNL     1     -11.331  15.112  67.043  1.00  0.00    -0.316 NA 
HETATM   19  H   UNL     1     -11.043  15.282  66.080  1.00  0.00     0.000 HD 
HETATM   20  C   UNL     1     -11.934  13.983  67.514  1.00  0.00    -0.395 A  
HETATM   21  N   UNL     1     -12.188  14.074  68.798  1.00  0.00    -0.295 NA 
ENDBRANCH  14  15
ENDBRANCH  13  14
ENDBRANCH  12  13
ENDBRANCH  11  12
ENDBRANCH   5  11
TORSDOF 5
ENDMDL
MODEL       25
REMARK 921   NORMALIZED FREE ENERGY PREDICTED BY IDOCK:   -4.65 KCAL/MOL
REMARK 922        TOTAL FREE ENERGY PREDICTED BY IDOCK:   -6.97 KCAL/MOL
REMARK 923 INTER-LIGAND FREE ENERGY PREDICTED BY IDOCK:   -6.40 KCAL/MOL
REMARK 924 INTRA-LIGAND FREE ENERGY PREDICTED BY IDOCK:   -0.57 KCAL/MOL
REMARK 927      BINDING AFFINITY PREDICTED BY RF-SCORE:    0.00 PKD
ROOT
HETATM    1  C   UNL     1     -13.529  15.877  73.376  1.00  0.00    -0.421 C  
HETATM    2  N   UNL     1     -12.727  15.551  72.222  1.00  0.00    -0.368 NA 
HETATM    3  C   UNL     1     -12.567  14.292  71.719  1.00  0.00    -0.337 C  
HETATM    4  H   UNL     1     -12.246  16.315  71.748  1.00  0.00     0.000 HD 
HETATM    5  N   UNL     1     -11.724  14.229  70.634  1.00  0.00    -0.458 NA 
HETATM    6  N   UNL     1     -13.194  13.293  72.265  1.00  0.00    -0.473 NA 
HETATM    7  C   UNL     1     -13.029  12.074  71.751  1.00  0.00    -0.340 C  
HETATM    8  H   UNL     1     -11.578  13.309  70.217  1.00  0.00     0.000 HD 
HETATM    9  N   UNL     1     -12.859  11.030  71.275  1.00  0.00    -0.414 NA 
HETATM   10  H   UNL     1     -13.800  13.439  73.071  1.00  0.00     0.000 HD 
ENDROOT
BRANCH   5  11
HETATM   11  C   UNL     1     -11.019  15.343  70.024  1.00  0.00    -0.299 C  
BRANCH  11  12
HETATM   12  C   UNL     1     -11.594  15.773  68.672  1.00  0.00    -0.386 C  
BRANCH  12  13
HETATM   13  S   UNL     1     -10.167  16.061  67.569  1.00  0.00    -0.281 SA 
BRANCH  13  14
HETATM   14  C   UNL     1      -9.692  14.344  67.191  1.00  0.00    -0.248 C  
BRANCH  14  15
HETATM   15  C   UNL     1     -10.744  13.710  66.340  1.00  0.00    -0.281 A  
HETATM   16  C   UNL     1     -11.632  12.693  66.650  1.00  0.00    -0.381 A  
HETATM   17  C   UNL     1     -11.843  11.888  67.873  1.00  0.00    -0.308 C  
HETATM   18  N   UNL     1     -12.399  12.536  65.523  1.00  0.00    -0.642 NA 
HETATM   19  H   UNL     1     -13.162  11.870  65.402  1.00  0.00     0.000 HD 
HETATM   20  C   UNL     1     -11.960  13.431  64.592  1.00  0.00    -0.399 A  
HETATM   21  N   UNL     1     -10.955  14.143  65.046  1.00  0.00    -0.362 NA 
ENDBRANCH  14  15
ENDBRANCH  13  14
ENDBRANCH  12  13
ENDBRANCH  11  12
ENDBRANCH   5  11
TORSDOF 5
ENDMDL
MODEL       26
REMARK 921   NORMALIZED FREE ENERGY PREDICTED BY IDOCK:   -4.62 KCAL/MOL
REMARK 922        TOTAL FREE ENERGY PREDICTED BY IDOCK:   -6.94 KCAL/MOL
REMARK 923 INTER-LIGAND FREE ENERGY PREDICTED BY IDOCK:   -6.64 KCAL/MOL
REMARK 924 INTRA-LIGAND FREE ENERGY PREDICTED BY IDOCK:   -0.30 KCAL/MOL
REMARK 927      BINDING AFFINITY PREDICTED BY RF-SCORE:    0.00 PKD
ROOT
HETATM    1  C   UNL     1     -10.390  19.271  65.708  1.00  0.00    -0.316 C  
HETATM    2  N   UNL     1     -10.098  17.956  66.225  1.00  0.00    -0.404 NA 
HETATM    3  C   UNL     1     -10.618  16.795  65.729  1.00  0.00    -0.250 C  
HETATM    4  H   UNL     1      -9.458  17.889  67.016  1.00  0.00     0.000 HD 
HETATM    5  N   UNL     1     -10.220  15.671  66.415  1.00  0.00    -0.277 NA 
HETATM    6  N   UNL     1     -11.405  16.828  64.696  1.00  0.00    -0.837 NA 
HETATM    7  C   UNL     1     -11.893  15.681  64.225  1.00  0.00    -0.146 C  
HETATM    8  H   UNL     1     -10.576  14.776  66.077  1.00  0.00     0.000 HD 
HETATM    9  N   UNL     1     -12.297  14.661  63.845  1.00  0.00    -0.744 NA 
HETATM   10  H   UNL     1     -11.644  17.715  64.254  1.00  0.00     0.000 HD 
ENDROOT
BRANCH   5  11
HETATM   11  C   UNL     1      -9.343  15.631  67.572  1.00  0.00    -0.206 C  
BRANCH  11  12
HETATM   12  C   UNL     1      -9.544  14.399  68.459  1.00  0.00    -0.217 C  
BRANCH  12  13
HETATM   13  S   UNL     1     -11.330  14.313  68.830  1.00  0.00    -0.294 SA 
BRANCH  13  14
HETATM   14  C   UNL     1     -11.434  15.483  70.222  1.00  0.00    -0.334 C  
BRANCH  14  15
HETATM   15  C   UNL     1     -12.302  14.906  71.294  1.00  0.00    -0.322 A  
HETATM   16  C   UNL     1     -12.552  15.379  72.572  1.00  0.00    -0.385 A  
HETATM   17  C   UNL     1     -12.062  16.560  73.316  1.00  0.00    -0.478 C  
HETATM   18  N   UNL     1     -13.451  14.491  73.108  1.00  0.00    -0.581 NA 
HETATM   19  H   UNL     1     -13.858  14.538  74.042  1.00  0.00     0.000 HD 
HETATM   20  C   UNL     1     -13.703  13.534  72.169  1.00  0.00    -0.559 A  
HETATM   21  N   UNL     1     -13.017  13.747  71.071  1.00  0.00    -0.286 NA 
ENDBRANCH  14  15
ENDBRANCH  13  14
ENDBRANCH  12  13
ENDBRANCH  11  12
ENDBRANCH   5  11
TORSDOF 5
ENDMDL
MODEL       27
REMARK 921   NORMALIZED FREE ENERGY PREDICTED BY IDOCK:   -4.62 KCAL/MOL
REMARK 922        TOTAL FREE ENERGY PREDICTED BY IDOCK:   -6.94 KCAL/MOL
REMARK 923 INTER-LIGAND FREE ENERGY PREDICTED BY IDOCK:   -6.17 KCAL/MOL
REMARK 924 INTRA-LIGAND FREE ENERGY PREDICTED BY IDOCK:   -0.77 KCAL/MOL
REMARK 927      BINDING AFFINITY PREDICTED BY RF-SCORE:    0.00 PKD
ROOT
HETATM    1  C   UNL     1     -10.755  19.535  65.878  1.00  0.00    -0.420 C  
HETATM    2  N   UNL     1     -10.443  18.721  67.027  1.00  0.00    -0.398 NA 
HETATM    3  C   UNL     1      -9.300  18.828  67.766  1.00  0.00    -0.293 C  
HETATM    4  H   UNL     1     -11.124  18.016  67.308  1.00  0.00     0.000 HD 
HETATM    5  N   UNL     1      -9.213  17.915  68.791  1.00  0.00    -0.262 NA 
HETATM    6  N   UNL     1      -8.422  19.739  67.471  1.00  0.00    -0.312 NA 
HETATM    7  C   UNL     1      -7.318  19.830  68.212  1.00  0.00    -0.314 C  
HETATM    8  H   UNL     1      -8.380  17.959  69.378  1.00  0.00     0.000 HD 
HETATM    9  N   UNL     1      -6.371  19.876  68.881  1.00  0.00    -0.287 NA 
HETATM   10  H   UNL     1      -8.575  20.373  66.687  1.00  0.00     0.000 HD 
ENDROOT
BRANCH   5  11
HETATM   11  C   UNL     1     -10.191  16.893  69.121  1.00  0.00    -0.292 C  
BRANCH  11  12
HETATM   12  C   UNL     1      -9.578  15.519  69.408  1.00  0.00    -0.279 C  
BRANCH  12  13
HETATM   13  S   UNL     1      -9.143  14.797  67.789  1.00  0.00    -0.192 SA 
BRANCH  13  14
HETATM   14  C   UNL     1     -10.750  14.093  67.299  1.00  0.00    -0.279 C  
BRANCH  14  15
HETATM   15  C   UNL     1     -11.170  14.672  65.987  1.00  0.00    -0.342 A  
HETATM   16  C   UNL     1     -11.959  14.118  64.992  1.00  0.00    -0.408 A  
HETATM   17  C   UNL     1     -12.631  12.806  64.864  1.00  0.00    -0.541 C  
HETATM   18  N   UNL     1     -12.059  15.094  64.033  1.00  0.00    -0.936 NA 
HETATM   19  H   UNL     1     -12.576  15.025  63.157  1.00  0.00     0.000 HD 
HETATM   20  C   UNL     1     -11.342  16.173  64.460  1.00  0.00    -0.267 A  
HETATM   21  N   UNL     1     -10.782  15.947  65.626  1.00  0.00    -0.348 NA 
ENDBRANCH  14  15
ENDBRANCH  13  14
ENDBRANCH  12  13
ENDBRANCH  11  12
ENDBRANCH   5  11
TORSDOF 5
ENDMDL
MODEL       28
REMARK 921   NORMALIZED FREE ENERGY PREDICTED BY IDOCK:   -4.59 KCAL/MOL
REMARK 922        TOTAL FREE ENERGY PREDICTED BY IDOCK:   -6.89 KCAL/MOL
REMARK 923 INTER-LIGAND FREE ENERGY PREDICTED BY IDOCK:   -6.55 KCAL/MOL
REMARK 924 INTRA-LIGAND FREE ENERGY PREDICTED BY IDOCK:   -0.34 KCAL/MOL
REMARK 927      BINDING AFFINITY PREDICTED BY RF-SCORE:    0.00 PKD
ROOT
HETATM    1  C   UNL     1     -10.135  17.678  68.312  1.00  0.00    -0.362 C  
HETATM    2  N   UNL     1     -10.799  16.398  68.349  1.00  0.00    -0.327 NA 
HETATM    3  C   UNL     1     -11.385  15.860  69.459  1.00  0.00    -0.335 C  
HETATM    4  H   UNL     1     -10.835  15.857  67.486  1.00  0.00     0.000 HD 
HETATM    5  N   UNL     1     -11.921  14.610  69.254  1.00  0.00    -0.393 NA 
HETATM    6  N   UNL     1     -11.401  16.531  70.572  1.00  0.00    -0.496 NA 
HETATM    7  C   UNL     1     -11.986  15.989  71.640  1.00  0.00    -0.499 C  
HETATM    8  H   UNL     1     -12.378  14.168  70.053  1.00  0.00     0.000 HD 
HETATM    9  N   UNL     1     -12.504  15.483  72.546  1.00  0.00    -0.371 NA 
HETATM   10  H   UNL     1     -10.974  17.455  70.626  1.00  0.00     0.000 HD 
ENDROOT
BRANCH   5  11
HETATM   11  C   UNL     1     -11.902  13.856  68.013  1.00  0.00    -0.375 C  
BRANCH  11  12
HETATM   12  C   UNL     1     -11.845  12.339  68.211  1.00  0.00    -0.310 C  
BRANCH  12  13
HETATM   13  S   UNL     1     -12.023  12.043  70.005  1.00  0.00    -0.272 SA 
BRANCH  13  14
HETATM   14  C   UNL     1     -11.252  10.399  70.146  1.00  0.00    -0.321 C  
BRANCH  14  15
HETATM   15  C   UNL     1     -12.028   9.565  71.114  1.00  0.00    -0.348 A  
HETATM   16  C   UNL     1     -11.574   8.640  72.040  1.00  0.00    -0.370 A  
HETATM   17  C   UNL     1     -10.221   8.148  72.381  1.00  0.00    -0.368 C  
HETATM   18  N   UNL     1     -12.701   8.208  72.691  1.00  0.00    -0.596 NA 
HETATM   19  H   UNL     1     -12.734   7.521  73.445  1.00  0.00     0.000 HD 
HETATM   20  C   UNL     1     -13.771   8.859  72.151  1.00  0.00    -0.474 A  
HETATM   21  N   UNL     1     -13.402   9.673  71.190  1.00  0.00    -0.335 NA 
ENDBRANCH  14  15
ENDBRANCH  13  14
ENDBRANCH  12  13
ENDBRANCH  11  12
ENDBRANCH   5  11
TORSDOF 5
ENDMDL
MODEL       29
REMARK 921   NORMALIZED FREE ENERGY PREDICTED BY IDOCK:   -4.58 KCAL/MOL
REMARK 922        TOTAL FREE ENERGY PREDICTED BY IDOCK:   -6.89 KCAL/MOL
REMARK 923 INTER-LIGAND FREE ENERGY PREDICTED BY IDOCK:   -6.59 KCAL/MOL
REMARK 924 INTRA-LIGAND FREE ENERGY PREDICTED BY IDOCK:   -0.30 KCAL/MOL
REMARK 927      BINDING AFFINITY PREDICTED BY RF-SCORE:    0.00 PKD
ROOT
HETATM    1  C   UNL     1     -12.825  11.994  71.396  1.00  0.00    -0.288 C  
HETATM    2  N   UNL     1     -12.388  13.283  70.917  1.00  0.00    -0.393 NA 
HETATM    3  C   UNL     1     -12.408  14.432  71.653  1.00  0.00    -0.341 C  
HETATM    4  H   UNL     1     -12.040  13.340  69.960  1.00  0.00     0.000 HD 
HETATM    5  N   UNL     1     -11.978  15.542  70.964  1.00  0.00    -0.342 NA 
HETATM    6  N   UNL     1     -12.805  14.401  72.890  1.00  0.00    -0.438 NA 
HETATM    7  C   UNL     1     -12.807  15.534  73.592  1.00  0.00    -0.563 C  
HETATM    8  H   UNL     1     -11.967  16.425  71.474  1.00  0.00     0.000 HD 
HETATM    9  N   UNL     1     -12.794  16.541  74.169  1.00  0.00    -0.642 NA 
HETATM   10  H   UNL     1     -13.108  13.526  73.316  1.00  0.00     0.000 HD 
ENDROOT
BRANCH   5  11
HETATM   11  C   UNL     1     -11.537  15.581  69.580  1.00  0.00    -0.348 C  
BRANCH  11  12
HETATM   12  C   UNL     1     -10.029  15.785  69.416  1.00  0.00    -0.274 C  
BRANCH  12  13
HETATM   13  S   UNL     1      -9.803  16.801  67.916  1.00  0.00    -0.265 SA 
BRANCH  13  14
HETATM   14  C   UNL     1      -9.244  15.530  66.737  1.00  0.00    -0.248 C  
BRANCH  14  15
HETATM   15  C   UNL     1     -10.281  15.343  65.677  1.00  0.00    -0.376 A  
HETATM   16  C   UNL     1     -10.976  14.199  65.318  1.00  0.00    -0.337 A  
HETATM   17  C   UNL     1     -10.938  12.808  65.818  1.00  0.00    -0.306 C  
HETATM   18  N   UNL     1     -11.830  14.602  64.322  1.00  0.00    -0.664 NA 
HETATM   19  H   UNL     1     -12.498  14.011  63.827  1.00  0.00     0.000 HD 
HETATM   20  C   UNL     1     -11.625  15.934  64.109  1.00  0.00    -0.056 A  
HETATM   21  N   UNL     1     -10.689  16.407  64.898  1.00  0.00    -0.705 NA 
ENDBRANCH  14  15
ENDBRANCH  13  14
ENDBRANCH  12  13
ENDBRANCH  11  12
ENDBRANCH   5  11
TORSDOF 5
ENDMDL
MODEL       30
REMARK 921   NORMALIZED FREE ENERGY PREDICTED BY IDOCK:   -4.58 KCAL/MOL
REMARK 922        TOTAL FREE ENERGY PREDICTED BY IDOCK:   -6.88 KCAL/MOL
REMARK 923 INTER-LIGAND FREE ENERGY PREDICTED BY IDOCK:   -6.19 KCAL/MOL
REMARK 924 INTRA-LIGAND FREE ENERGY PREDICTED BY IDOCK:   -0.69 KCAL/MOL
REMARK 927      BINDING AFFINITY PREDICTED BY RF-SCORE:    0.00 PKD
ROOT
HETATM    1  C   UNL     1     -13.883  15.423  72.510  1.00  0.00    -0.553 C  
HETATM    2  N   UNL     1     -12.995  15.069  71.430  1.00  0.00    -0.340 NA 
HETATM    3  C   UNL     1     -12.657  13.791  71.090  1.00  0.00    -0.373 C  
HETATM    4  H   UNL     1     -12.590  15.827  70.881  1.00  0.00     0.000 HD 
HETATM    5  N   UNL     1     -11.763  13.710  70.048  1.00  0.00    -0.436 NA 
HETATM    6  N   UNL     1     -13.180  12.791  71.734  1.00  0.00    -0.420 NA 
HETATM    7  C   UNL     1     -12.842  11.551  71.379  1.00  0.00    -0.384 C  
HETATM    8  H   UNL     1     -11.485  12.774  69.751  1.00  0.00     0.000 HD 
HETATM    9  N   UNL     1     -12.523  10.489  71.039  1.00  0.00    -0.362 NA 
HETATM   10  H   UNL     1     -13.836  12.951  72.497  1.00  0.00     0.000 HD 
ENDROOT
BRANCH   5  11
HETATM   11  C   UNL     1     -11.174  14.826  69.328  1.00  0.00    -0.283 C  
BRANCH  11  12
HETATM   12  C   UNL     1     -10.238  14.405  68.192  1.00  0.00    -0.232 C  
BRANCH  12  13
HETATM   13  S   UNL     1     -10.976  15.043  66.648  1.00  0.00    -0.319 SA 
BRANCH  13  14
HETATM   14  C   UNL     1     -12.270  13.794  66.360  1.00  0.00    -0.436 C  
BRANCH  14  15
HETATM   15  C   UNL     1     -11.685  12.427  66.509  1.00  0.00    -0.379 A  
HETATM   16  C   UNL     1     -10.863  11.722  65.644  1.00  0.00    -0.292 A  
HETATM   17  C   UNL     1     -10.304  12.043  64.312  1.00  0.00    -0.357 C  
HETATM   18  N   UNL     1     -10.591  10.545  66.293  1.00  0.00    -0.178 NA 
HETATM   19  H   UNL     1     -10.006   9.786  65.943  1.00  0.00     0.000 HD 
HETATM   20  C   UNL     1     -11.243  10.569  67.491  1.00  0.00    -0.224 A  
HETATM   21  N   UNL     1     -11.922  11.681  67.646  1.00  0.00    -0.625 NA 
ENDBRANCH  14  15
ENDBRANCH  13  14
ENDBRANCH  12  13
ENDBRANCH  11  12
ENDBRANCH   5  11
TORSDOF 5
ENDMDL
MODEL       31
REMARK 921   NORMALIZED FREE ENERGY PREDICTED BY IDOCK:   -4.57 KCAL/MOL
REMARK 922        TOTAL FREE ENERGY PREDICTED BY IDOCK:   -6.88 KCAL/MOL
REMARK 923 INTER-LIGAND FREE ENERGY PREDICTED BY IDOCK:   -6.53 KCAL/MOL
REMARK 924 INTRA-LIGAND FREE ENERGY PREDICTED BY IDOCK:   -0.34 KCAL/MOL
REMARK 927      BINDING AFFINITY PREDICTED BY RF-SCORE:    0.00 PKD
ROOT
HETATM    1  C   UNL     1     -11.254  15.800  70.878  1.00  0.00    -0.366 C  
HETATM    2  N   UNL     1     -11.116  15.766  69.442  1.00  0.00    -0.288 NA 
HETATM    3  C   UNL     1     -10.657  16.803  68.682  1.00  0.00    -0.353 C  
HETATM    4  H   UNL     1     -11.379  14.906  68.961  1.00  0.00     0.000 HD 
HETATM    5  N   UNL     1     -10.653  16.542  67.331  1.00  0.00    -0.317 NA 
HETATM    6  N   UNL     1     -10.271  17.903  69.255  1.00  0.00    -0.337 NA 
HETATM    7  C   UNL     1      -9.819  18.899  68.493  1.00  0.00    -0.399 C  
HETATM    8  H   UNL     1     -10.310  17.285  66.721  1.00  0.00     0.000 HD 
HETATM    9  N   UNL     1      -9.432  19.741  67.795  1.00  0.00    -0.337 NA 
HETATM   10  H   UNL     1     -10.313  18.003  70.268  1.00  0.00     0.000 HD 
ENDROOT
BRANCH   5  11
HETATM   11  C   UNL     1     -11.087  15.315  66.687  1.00  0.00    -0.276 C  
BRANCH  11  12
HETATM   12  C   UNL     1     -10.005  14.646  65.836  1.00  0.00    -0.328 C  
BRANCH  12  13
HETATM   13  S   UNL     1      -9.535  13.110  66.706  1.00  0.00    -0.252 SA 
BRANCH  13  14
HETATM   14  C   UNL     1     -11.105  12.191  66.622  1.00  0.00    -0.306 C  
BRANCH  14  15
HETATM   15  C   UNL     1     -11.489  11.987  65.192  1.00  0.00    -0.287 A  
HETATM   16  C   UNL     1     -10.825  11.293  64.193  1.00  0.00    -0.337 A  
HETATM   17  C   UNL     1      -9.546  10.549  64.173  1.00  0.00    -0.369 C  
HETATM   18  N   UNL     1     -11.639  11.389  63.094  1.00  0.00    -0.873 NA 
HETATM   19  H   UNL     1     -11.459  10.985  62.175  1.00  0.00     0.000 HD 
HETATM   20  C   UNL     1     -12.734  12.123  63.448  1.00  0.00    -0.381 A  
HETATM   21  N   UNL     1     -12.667  12.510  64.700  1.00  0.00    -0.725 NA 
ENDBRANCH  14  15
ENDBRANCH  13  14
ENDBRANCH  12  13
ENDBRANCH  11  12
ENDBRANCH   5  11
TORSDOF 5
ENDMDL
MODEL       32
REMARK 921   NORMALIZED FREE ENERGY PREDICTED BY IDOCK:   -4.57 KCAL/MOL
REMARK 922        TOTAL FREE ENERGY PREDICTED BY IDOCK:   -6.87 KCAL/MOL
REMARK 923 INTER-LIGAND FREE ENERGY PREDICTED BY IDOCK:   -6.10 KCAL/MOL
REMARK 924 INTRA-LIGAND FREE ENERGY PREDICTED BY IDOCK:   -0.77 KCAL/MOL
REMARK 927      BINDING AFFINITY PREDICTED BY RF-SCORE:    0.00 PKD
ROOT
HETATM    1  C   UNL     1     -10.355  19.771  65.591  1.00  0.00    -0.324 C  
HETATM    2  N   UNL     1     -10.205  18.546  66.337  1.00  0.00    -0.400 NA 
HETATM    3  C   UNL     1     -10.642  17.323  65.917  1.00  0.00    -0.204 C  
HETATM    4  H   UNL     1      -9.739  18.597  67.243  1.00  0.00     0.000 HD 
HETATM    5  N   UNL     1     -10.417  16.312  66.822  1.00  0.00    -0.298 NA 
HETATM    6  N   UNL     1     -11.204  17.202  64.752  1.00  0.00    -0.850 NA 
HETATM    7  C   UNL     1     -11.614  15.996  64.359  1.00  0.00    -0.212 C  
HETATM    8  H   UNL     1     -10.719  15.375  66.550  1.00  0.00     0.000 HD 
HETATM    9  N   UNL     1     -11.957  14.931  64.055  1.00  0.00    -0.417 NA 
HETATM   10  H   UNL     1     -11.328  18.015  64.149  1.00  0.00     0.000 HD 
ENDROOT
BRANCH   5  11
HETATM   11  C   UNL     1      -9.793  16.444  68.127  1.00  0.00    -0.238 C  
BRANCH  11  12
HETATM   12  C   UNL     1     -10.784  16.701  69.264  1.00  0.00    -0.337 C  
BRANCH  12  13
HETATM   13  S   UNL     1     -10.758  15.213  70.322  1.00  0.00    -0.149 SA 
BRANCH  13  14
HETATM   14  C   UNL     1     -12.333  14.438  69.840  1.00  0.00    -0.314 C  
BRANCH  14  15
HETATM   15  C   UNL     1     -12.077  13.390  68.805  1.00  0.00    -0.246 A  
HETATM   16  C   UNL     1     -11.900  12.024  68.960  1.00  0.00    -0.315 A  
HETATM   17  C   UNL     1     -11.885  11.147  70.152  1.00  0.00    -0.449 C  
HETATM   18  N   UNL     1     -11.745  11.540  67.686  1.00  0.00    -0.594 NA 
HETATM   19  H   UNL     1     -11.598  10.564  67.428  1.00  0.00     0.000 HD 
HETATM   20  C   UNL     1     -11.822  12.596  66.826  1.00  0.00    -0.370 A  
HETATM   21  N   UNL     1     -12.007  13.725  67.468  1.00  0.00    -0.383 NA 
ENDBRANCH  14  15
ENDBRANCH  13  14
ENDBRANCH  12  13
ENDBRANCH  11  12
ENDBRANCH   5  11
TORSDOF 5
ENDMDL
MODEL       33
REMARK 921   NORMALIZED FREE ENERGY PREDICTED BY IDOCK:   -4.57 KCAL/MOL
REMARK 922        TOTAL FREE ENERGY PREDICTED BY IDOCK:   -6.87 KCAL/MOL
REMARK 923 INTER-LIGAND FREE ENERGY PREDICTED BY IDOCK:   -6.51 KCAL/MOL
REMARK 924 INTRA-LIGAND FREE ENERGY PREDICTED BY IDOCK:   -0.36 KCAL/MOL
REMARK 927      BINDING AFFINITY PREDICTED BY RF-SCORE:    0.00 PKD
ROOT
HETATM    1  C   UNL     1     -12.534  11.846  63.760  1.00  0.00    -0.427 C  
HETATM    2  N   UNL     1     -12.177  12.536  64.976  1.00  0.00    -0.459 NA 
HETATM    3  C   UNL     1     -11.878  13.866  65.054  1.00  0.00    -0.373 C  
HETATM    4  H   UNL     1     -12.146  11.992  65.838  1.00  0.00     0.000 HD 
HETATM    5  N   UNL     1     -11.531  14.284  66.317  1.00  0.00    -0.347 NA 
HETATM    6  N   UNL     1     -11.946  14.607  63.989  1.00  0.00    -0.801 NA 
HETATM    7  C   UNL     1     -11.658  15.905  64.091  1.00  0.00    -0.056 C  
HETATM    8  H   UNL     1     -11.306  15.273  66.429  1.00  0.00     0.000 HD 
HETATM    9  N   UNL     1     -11.401  17.028  64.223  1.00  0.00    -1.036 NA 
HETATM   10  H   UNL     1     -12.213  14.204  63.092  1.00  0.00     0.000 HD 
ENDROOT
BRANCH   5  11
HETATM   11  C   UNL     1     -11.451  13.457  67.509  1.00  0.00    -0.323 C  
BRANCH  11  12
HETATM   12  C   UNL     1     -11.061  14.228  68.773  1.00  0.00    -0.256 C  
BRANCH  12  13
HETATM   13  S   UNL     1     -11.416  15.988  68.437  1.00  0.00    -0.265 SA 
BRANCH  13  14
HETATM   14  C   UNL     1      -9.958  16.769  69.199  1.00  0.00    -0.252 C  
BRANCH  14  15
HETATM   15  C   UNL     1      -9.552  17.961  68.393  1.00  0.00    -0.320 A  
HETATM   16  C   UNL     1      -8.616  18.057  67.375  1.00  0.00    -0.244 A  
HETATM   17  C   UNL     1      -7.709  17.067  66.754  1.00  0.00    -0.274 C  
HETATM   18  N   UNL     1      -8.679  19.363  66.959  1.00  0.00    -0.283 NA 
HETATM   19  H   UNL     1      -8.124  19.784  66.214  1.00  0.00     0.000 HD 
HETATM   20  C   UNL     1      -9.616  19.999  67.720  1.00  0.00    -0.384 A  
HETATM   21  N   UNL     1     -10.150  19.187  68.602  1.00  0.00    -0.408 NA 
ENDBRANCH  14  15
ENDBRANCH  13  14
ENDBRANCH  12  13
ENDBRANCH  11  12
ENDBRANCH   5  11
TORSDOF 5
ENDMDL
MODEL       34
REMARK 921   NORMALIZED FREE ENERGY PREDICTED BY IDOCK:   -4.56 KCAL/MOL
REMARK 922        TOTAL FREE ENERGY PREDICTED BY IDOCK:   -6.86 KCAL/MOL
REMARK 923 INTER-LIGAND FREE ENERGY PREDICTED BY IDOCK:   -6.61 KCAL/MOL
REMARK 924 INTRA-LIGAND FREE ENERGY PREDICTED BY IDOCK:   -0.25 KCAL/MOL
REMARK 927      BINDING AFFINITY PREDICTED BY RF-SCORE:    0.00 PKD
ROOT
HETATM    1  C   UNL     1      -8.903   9.532  62.663  1.00  0.00    -0.244 C  
HETATM    2  N   UNL     1      -9.087  10.185  63.936  1.00  0.00    -0.238 NA 
HETATM    3  C   UNL     1     -10.073  11.089  64.208  1.00  0.00    -0.339 C  
HETATM    4  H   UNL     1      -8.435   9.954  64.686  1.00  0.00     0.000 HD 
HETATM    5  N   UNL     1     -10.019  11.603  65.483  1.00  0.00    -0.234 NA 
HETATM    6  N   UNL     1     -10.951  11.383  63.297  1.00  0.00    -0.792 NA 
HETATM    7  C   UNL     1     -11.909  12.262  63.589  1.00  0.00    -0.522 C  
HETATM    8  H   UNL     1     -10.740  12.278  65.738  1.00  0.00     0.000 HD 
HETATM    9  N   UNL     1     -12.727  13.031  63.882  1.00  0.00    -0.693 NA 
HETATM   10  H   UNL     1     -10.908  10.948  62.376  1.00  0.00     0.000 HD 
ENDROOT
BRANCH   5  11
HETATM   11  C   UNL     1      -9.036  11.280  66.503  1.00  0.00    -0.184 C  
BRANCH  11  12
HETATM   12  C   UNL     1      -9.410  11.776  67.902  1.00  0.00    -0.184 C  
BRANCH  12  13
HETATM   13  S   UNL     1     -10.963  10.929  68.356  1.00  0.00    -0.261 SA 
BRANCH  13  14
HETATM   14  C   UNL     1     -11.617  12.083  69.603  1.00  0.00    -0.301 C  
BRANCH  14  15
HETATM   15  C   UNL     1     -12.288  11.312  70.694  1.00  0.00    -0.383 A  
HETATM   16  C   UNL     1     -13.066  11.771  71.744  1.00  0.00    -0.375 A  
HETATM   17  C   UNL     1     -13.484  13.127  72.162  1.00  0.00    -0.653 C  
HETATM   18  N   UNL     1     -13.461  10.639  72.412  1.00  0.00    -0.502 NA 
HETATM   19  H   UNL     1     -14.054  10.607  73.242  1.00  0.00     0.000 HD 
HETATM   20  C   UNL     1     -12.920   9.565  71.769  1.00  0.00    -0.412 A  
HETATM   21  N   UNL     1     -12.196   9.936  70.740  1.00  0.00    -0.298 NA 
ENDBRANCH  14  15
ENDBRANCH  13  14
ENDBRANCH  12  13
ENDBRANCH  11  12
ENDBRANCH   5  11
TORSDOF 5
ENDMDL
MODEL       35
REMARK 921   NORMALIZED FREE ENERGY PREDICTED BY IDOCK:   -4.56 KCAL/MOL
REMARK 922        TOTAL FREE ENERGY PREDICTED BY IDOCK:   -6.86 KCAL/MOL
REMARK 923 INTER-LIGAND FREE ENERGY PREDICTED BY IDOCK:   -6.33 KCAL/MOL
REMARK 924 INTRA-LIGAND FREE ENERGY PREDICTED BY IDOCK:   -0.53 KCAL/MOL
REMARK 927      BINDING AFFINITY PREDICTED BY RF-SCORE:    0.00 PKD
ROOT
HETATM    1  C   UNL     1     -12.413  13.458  65.036  1.00  0.00    -0.428 C  
HETATM    2  N   UNL     1     -12.041  14.160  66.240  1.00  0.00    -0.431 NA 
HETATM    3  C   UNL     1     -11.860  13.570  67.457  1.00  0.00    -0.368 C  
HETATM    4  H   UNL     1     -11.904  15.168  66.177  1.00  0.00     0.000 HD 
HETATM    5  N   UNL     1     -11.546  14.454  68.463  1.00  0.00    -0.297 NA 
HETATM    6  N   UNL     1     -11.984  12.282  67.577  1.00  0.00    -0.528 NA 
HETATM    7  C   UNL     1     -11.794  11.727  68.774  1.00  0.00    -0.320 C  
HETATM    8  H   UNL     1     -11.393  14.060  69.392  1.00  0.00     0.000 HD 
HETATM    9  N   UNL     1     -11.620  11.283  69.832  1.00  0.00    -0.315 NA 
HETATM   10  H   UNL     1     -12.222  11.706  66.770  1.00  0.00     0.000 HD 
ENDROOT
BRANCH   5  11
HETATM   11  C   UNL     1     -11.410  15.895  68.334  1.00  0.00    -0.361 C  
BRANCH  11  12
HETATM   12  C   UNL     1     -10.290  16.491  69.190  1.00  0.00    -0.316 C  
BRANCH  12  13
HETATM   13  S   UNL     1      -8.728  16.160  68.304  1.00  0.00    -0.186 SA 
BRANCH  13  14
HETATM   14  C   UNL     1      -9.206  16.623  66.609  1.00  0.00    -0.253 C  
BRANCH  14  15
HETATM   15  C   UNL     1      -8.773  18.027  66.334  1.00  0.00    -0.227 A  
HETATM   16  C   UNL     1      -9.446  19.216  66.564  1.00  0.00    -0.356 A  
HETATM   17  C   UNL     1     -10.782  19.517  67.123  1.00  0.00    -0.599 C  
HETATM   18  N   UNL     1      -8.573  20.199  66.168  1.00  0.00    -0.556 NA 
HETATM   19  H   UNL     1      -8.743  21.204  66.204  1.00  0.00     0.000 HD 
HETATM   20  C   UNL     1      -7.438  19.592  65.718  1.00  0.00    -0.259 A  
HETATM   21  N   UNL     1      -7.531  18.285  65.790  1.00  0.00    -0.533 NA 
ENDBRANCH  14  15
ENDBRANCH  13  14
ENDBRANCH  12  13
ENDBRANCH  11  12
ENDBRANCH   5  11
TORSDOF 5
ENDMDL
MODEL       36
REMARK 921   NORMALIZED FREE ENERGY PREDICTED BY IDOCK:   -4.56 KCAL/MOL
REMARK 922        TOTAL FREE ENERGY PREDICTED BY IDOCK:   -6.85 KCAL/MOL
REMARK 923 INTER-LIGAND FREE ENERGY PREDICTED BY IDOCK:   -6.38 KCAL/MOL
REMARK 924 INTRA-LIGAND FREE ENERGY PREDICTED BY IDOCK:   -0.48 KCAL/MOL
REMARK 927      BINDING AFFINITY PREDICTED BY RF-SCORE:    0.00 PKD
ROOT
HETATM    1  C   UNL     1     -10.174   8.321  66.916  1.00  0.00    -0.318 C  
HETATM    2  N   UNL     1     -10.568   9.692  66.706  1.00  0.00    -0.180 NA 
HETATM    3  C   UNL     1     -11.145  10.488  67.654  1.00  0.00    -0.309 C  
HETATM    4  H   UNL     1     -10.405  10.097  65.784  1.00  0.00     0.000 HD 
HETATM    5  N   UNL     1     -11.467  11.747  67.202  1.00  0.00    -0.456 NA 
HETATM    6  N   UNL     1     -11.335  10.029  68.854  1.00  0.00    -0.463 NA 
HETATM    7  C   UNL     1     -11.891  10.827  69.766  1.00  0.00    -0.335 C  
HETATM    8  H   UNL     1     -11.893  12.383  67.877  1.00  0.00     0.000 HD 
HETATM    9  N   UNL     1     -12.378  11.553  70.529  1.00  0.00    -0.354 NA 
HETATM   10  H   UNL     1     -11.063   9.077  69.095  1.00  0.00     0.000 HD 
ENDROOT
BRANCH   5  11
HETATM   11  C   UNL     1     -11.259  12.261  65.860  1.00  0.00    -0.340 C  
BRANCH  11  12
HETATM   12  C   UNL     1     -12.529  12.810  65.204  1.00  0.00    -0.501 C  
BRANCH  12  13
HETATM   13  S   UNL     1     -12.087  14.435  64.498  1.00  0.00    -0.457 SA 
BRANCH  13  14
HETATM   14  C   UNL     1     -10.434  14.672  65.225  1.00  0.00    -0.398 C  
BRANCH  14  15
HETATM   15  C   UNL     1     -10.424  15.921  66.046  1.00  0.00    -0.345 A  
HETATM   16  C   UNL     1     -10.551  16.073  67.417  1.00  0.00    -0.316 A  
HETATM   17  C   UNL     1     -10.749  15.104  68.517  1.00  0.00    -0.240 C  
HETATM   18  N   UNL     1     -10.427  17.422  67.636  1.00  0.00    -0.361 NA 
HETATM   19  H   UNL     1     -10.466  17.890  68.542  1.00  0.00     0.000 HD 
HETATM   20  C   UNL     1     -10.243  18.026  66.427  1.00  0.00    -0.393 A  
HETATM   21  N   UNL     1     -10.251  17.153  65.448  1.00  0.00    -0.612 NA 
ENDBRANCH  14  15
ENDBRANCH  13  14
ENDBRANCH  12  13
ENDBRANCH  11  12
ENDBRANCH   5  11
TORSDOF 5
ENDMDL
MODEL       37
REMARK 921   NORMALIZED FREE ENERGY PREDICTED BY IDOCK:   -4.55 KCAL/MOL
REMARK 922        TOTAL FREE ENERGY PREDICTED BY IDOCK:   -6.84 KCAL/MOL
REMARK 923 INTER-LIGAND FREE ENERGY PREDICTED BY IDOCK:   -6.02 KCAL/MOL
REMARK 924 INTRA-LIGAND FREE ENERGY PREDICTED BY IDOCK:   -0.82 KCAL/MOL
REMARK 927      BINDING AFFINITY PREDICTED BY RF-SCORE:    0.00 PKD
ROOT
HETATM    1  C   UNL     1      -9.102   9.365  62.537  1.00  0.00    -0.158 C  
HETATM    2  N   UNL     1      -9.465   9.858  63.843  1.00  0.00    -0.385 NA 
HETATM    3  C   UNL     1     -10.402  10.824  64.075  1.00  0.00    -0.286 C  
HETATM    4  H   UNL     1      -8.988   9.458  64.650  1.00  0.00     0.000 HD 
HETATM    5  N   UNL     1     -10.544  11.153  65.403  1.00  0.00    -0.252 NA 
HETATM    6  N   UNL     1     -11.065  11.333  63.080  1.00  0.00    -0.846 NA 
HETATM    7  C   UNL     1     -11.982  12.267  63.331  1.00  0.00    -0.494 C  
HETATM    8  H   UNL     1     -11.240  11.865  65.628  1.00  0.00     0.000 HD 
HETATM    9  N   UNL     1     -12.771  13.078  63.592  1.00  0.00    -0.704 NA 
HETATM   10  H   UNL     1     -10.888  11.023  62.125  1.00  0.00     0.000 HD 
ENDROOT
BRANCH   5  11
HETATM   11  C   UNL     1      -9.802  10.588  66.516  1.00  0.00    -0.206 C  
BRANCH  11  12
HETATM   12  C   UNL     1     -10.410  10.899  67.887  1.00  0.00    -0.187 C  
BRANCH  12  13
HETATM   13  S   UNL     1     -11.750  12.105  67.598  1.00  0.00    -0.257 SA 
BRANCH  13  14
HETATM   14  C   UNL     1     -11.022  13.594  68.354  1.00  0.00    -0.262 C  
BRANCH  14  15
HETATM   15  C   UNL     1     -10.734  14.604  67.290  1.00  0.00    -0.290 A  
HETATM   16  C   UNL     1     -10.516  15.967  67.406  1.00  0.00    -0.306 A  
HETATM   17  C   UNL     1     -10.505  16.882  68.569  1.00  0.00    -0.361 C  
HETATM   18  N   UNL     1     -10.256  16.394  66.129  1.00  0.00    -0.333 NA 
HETATM   19  H   UNL     1     -10.044  17.351  65.847  1.00  0.00     0.000 HD 
HETATM   20  C   UNL     1     -10.330  15.311  65.303  1.00  0.00    -0.401 A  
HETATM   21  N   UNL     1     -10.630  14.221  65.968  1.00  0.00    -0.293 NA 
ENDBRANCH  14  15
ENDBRANCH  13  14
ENDBRANCH  12  13
ENDBRANCH  11  12
ENDBRANCH   5  11
TORSDOF 5
ENDMDL
MODEL       38
REMARK 921   NORMALIZED FREE ENERGY PREDICTED BY IDOCK:   -4.54 KCAL/MOL
REMARK 922        TOTAL FREE ENERGY PREDICTED BY IDOCK:   -6.83 KCAL/MOL
REMARK 923 INTER-LIGAND FREE ENERGY PREDICTED BY IDOCK:   -6.61 KCAL/MOL
REMARK 924 INTRA-LIGAND FREE ENERGY PREDICTED BY IDOCK:   -0.22 KCAL/MOL
REMARK 927      BINDING AFFINITY PREDICTED BY RF-SCORE:    0.00 PKD
ROOT
HETATM    1  C   UNL     1     -13.780   9.017  71.906  1.00  0.00    -0.441 C  
HETATM    2  N   UNL     1     -12.742   9.348  70.961  1.00  0.00    -0.488 NA 
HETATM    3  C   UNL     1     -11.939   8.435  70.340  1.00  0.00     0.184 C  
HETATM    4  H   UNL     1     -12.597  10.333  70.741  1.00  0.00     0.000 HD 
HETATM    5  N   UNL     1     -10.996   8.997  69.510  1.00  0.00    -0.400 NA 
HETATM    6  N   UNL     1     -12.113   7.166  70.557  1.00  0.00    -0.569 NA 
HETATM    7  C   UNL     1     -11.323   6.293  69.932  1.00  0.00    -0.434 C  
HETATM    8  H   UNL     1     -10.376   8.355  69.016  1.00  0.00     0.000 HD 
HETATM    9  N   UNL     1     -10.615   5.566  69.370  1.00  0.00    -0.292 NA 
HETATM   10  H   UNL     1     -12.842   6.844  71.193  1.00  0.00     0.000 HD 
ENDROOT
BRANCH   5  11
HETATM   11  C   UNL     1     -10.796  10.415  69.267  1.00  0.00    -0.241 C  
BRANCH  11  12
HETATM   12  C   UNL     1     -11.249  10.876  67.879  1.00  0.00    -0.321 C  
BRANCH  12  13
HETATM   13  S   UNL     1     -10.640  12.586  67.676  1.00  0.00    -0.221 SA 
BRANCH  13  14
HETATM   14  C   UNL     1     -10.095  12.537  65.939  1.00  0.00    -0.254 C  
BRANCH  14  15
HETATM   15  C   UNL     1     -10.870  13.538  65.144  1.00  0.00    -0.330 A  
HETATM   16  C   UNL     1     -11.809  13.333  64.146  1.00  0.00    -0.443 A  
HETATM   17  C   UNL     1     -12.350  12.107  63.519  1.00  0.00    -0.682 C  
HETATM   18  N   UNL     1     -12.234  14.589  63.795  1.00  0.00    -1.047 NA 
HETATM   19  H   UNL     1     -12.933  14.812  63.087  1.00  0.00     0.000 HD 
HETATM   20  C   UNL     1     -11.554  15.489  64.563  1.00  0.00    -0.283 A  
HETATM   21  N   UNL     1     -10.715  14.890  65.375  1.00  0.00    -0.349 NA 
ENDBRANCH  14  15
ENDBRANCH  13  14
ENDBRANCH  12  13
ENDBRANCH  11  12
ENDBRANCH   5  11
TORSDOF 5
ENDMDL
MODEL       39
REMARK 921   NORMALIZED FREE ENERGY PREDICTED BY IDOCK:   -4.54 KCAL/MOL
REMARK 922        TOTAL FREE ENERGY PREDICTED BY IDOCK:   -6.83 KCAL/MOL
REMARK 923 INTER-LIGAND FREE ENERGY PREDICTED BY IDOCK:   -6.11 KCAL/MOL
REMARK 924 INTRA-LIGAND FREE ENERGY PREDICTED BY IDOCK:   -0.71 KCAL/MOL
REMARK 927      BINDING AFFINITY PREDICTED BY RF-SCORE:    0.00 PKD
ROOT
HETATM    1  C   UNL     1     -10.379  16.395  65.501  1.00  0.00    -0.313 C  
HETATM    2  N   UNL     1      -9.984  15.018  65.673  1.00  0.00    -0.340 NA 
HETATM    3  C   UNL     1     -10.622  13.952  65.107  1.00  0.00    -0.379 C  
HETATM    4  H   UNL     1      -9.172  14.828  66.260  1.00  0.00     0.000 HD 
HETATM    5  N   UNL     1     -10.081  12.735  65.450  1.00  0.00    -0.352 NA 
HETATM    6  N   UNL     1     -11.636  14.149  64.319  1.00  0.00    -0.593 NA 
HETATM    7  C   UNL     1     -12.237  13.094  63.770  1.00  0.00    -0.456 C  
HETATM    8  H   UNL     1     -10.518  11.906  65.044  1.00  0.00     0.000 HD 
HETATM    9  N   UNL     1     -12.732  12.149  63.312  1.00  0.00    -0.699 NA 
HETATM   10  H   UNL     1     -11.966  15.094  64.124  1.00  0.00     0.000 HD 
ENDROOT
BRANCH   5  11
HETATM   11  C   UNL     1      -8.950  12.511  66.333  1.00  0.00    -0.073 C  
BRANCH  11  12
HETATM   12  C   UNL     1      -8.509  11.047  66.415  1.00  0.00    -0.164 C  
BRANCH  12  13
HETATM   13  S   UNL     1      -9.848  10.059  65.664  1.00  0.00    -0.294 SA 
BRANCH  13  14
HETATM   14  C   UNL     1     -10.467   9.174  67.131  1.00  0.00    -0.255 C  
BRANCH  14  15
HETATM   15  C   UNL     1     -10.896  10.163  68.166  1.00  0.00    -0.262 A  
HETATM   16  C   UNL     1     -10.509  10.274  69.492  1.00  0.00    -0.244 A  
HETATM   17  C   UNL     1      -9.585   9.482  70.333  1.00  0.00    -0.326 C  
HETATM   18  N   UNL     1     -11.173  11.377  69.964  1.00  0.00    -0.482 NA 
HETATM   19  H   UNL     1     -11.115  11.755  70.910  1.00  0.00     0.000 HD 
HETATM   20  C   UNL     1     -11.925  11.881  68.943  1.00  0.00    -0.254 A  
HETATM   21  N   UNL     1     -11.793  11.165  67.852  1.00  0.00    -0.630 NA 
ENDBRANCH  14  15
ENDBRANCH  13  14
ENDBRANCH  12  13
ENDBRANCH  11  12
ENDBRANCH   5  11
TORSDOF 5
ENDMDL
MODEL       40
REMARK 921   NORMALIZED FREE ENERGY PREDICTED BY IDOCK:   -4.53 KCAL/MOL
REMARK 922        TOTAL FREE ENERGY PREDICTED BY IDOCK:   -6.82 KCAL/MOL
REMARK 923 INTER-LIGAND FREE ENERGY PREDICTED BY IDOCK:   -6.43 KCAL/MOL
REMARK 924 INTRA-LIGAND FREE ENERGY PREDICTED BY IDOCK:   -0.38 KCAL/MOL
REMARK 927      BINDING AFFINITY PREDICTED BY RF-SCORE:    0.00 PKD
ROOT
HETATM    1  C   UNL     1      -9.924  19.520  68.844  1.00  0.00    -0.448 C  
HETATM    2  N   UNL     1     -10.002  18.504  67.823  1.00  0.00    -0.327 NA 
HETATM    3  C   UNL     1      -9.106  18.358  66.803  1.00  0.00    -0.292 C  
HETATM    4  H   UNL     1     -10.782  17.847  67.866  1.00  0.00     0.000 HD 
HETATM    5  N   UNL     1      -9.416  17.338  65.933  1.00  0.00    -0.525 NA 
HETATM    6  N   UNL     1      -8.075  19.145  66.731  1.00  0.00    -0.263 NA 
HETATM    7  C   UNL     1      -7.209  18.978  65.732  1.00  0.00    -0.230 C  
HETATM    8  H   UNL     1      -8.771  17.184  65.157  1.00  0.00     0.000 HD 
HETATM    9  N   UNL     1      -6.479  18.800  64.848  1.00  0.00    -0.506 NA 
HETATM   10  H   UNL     1      -7.931  19.876  67.427  1.00  0.00     0.000 HD 
ENDROOT
BRANCH   5  11
HETATM   11  C   UNL     1     -10.569  16.460  66.009  1.00  0.00    -0.269 C  
BRANCH  11  12
HETATM   12  C   UNL     1     -10.685  15.487  64.832  1.00  0.00    -0.392 C  
BRANCH  12  13
HETATM   13  S   UNL     1     -10.683  13.806  65.546  1.00  0.00    -0.315 SA 
BRANCH  13  14
HETATM   14  C   UNL     1     -12.217  13.862  66.525  1.00  0.00    -0.442 C  
BRANCH  14  15
HETATM   15  C   UNL     1     -11.970  13.269  67.875  1.00  0.00    -0.309 A  
HETATM   16  C   UNL     1     -11.754  13.903  69.088  1.00  0.00    -0.338 A  
HETATM   17  C   UNL     1     -11.676  15.330  69.471  1.00  0.00    -0.359 C  
HETATM   18  N   UNL     1     -11.629  12.887  70.001  1.00  0.00    -0.525 NA 
HETATM   19  H   UNL     1     -11.466  12.995  71.002  1.00  0.00     0.000 HD 
HETATM   20  C   UNL     1     -11.762  11.706  69.332  1.00  0.00    -0.340 A  
HETATM   21  N   UNL     1     -11.953  11.900  68.049  1.00  0.00    -0.553 NA 
ENDBRANCH  14  15
ENDBRANCH  13  14
ENDBRANCH  12  13
ENDBRANCH  11  12
ENDBRANCH   5  11
TORSDOF 5
ENDMDL
MODEL       41
REMARK 921   NORMALIZED FREE ENERGY PREDICTED BY IDOCK:   -4.53 KCAL/MOL
REMARK 922        TOTAL FREE ENERGY PREDICTED BY IDOCK:   -6.82 KCAL/MOL
REMARK 923 INTER-LIGAND FREE ENERGY PREDICTED BY IDOCK:   -6.47 KCAL/MOL
REMARK 924 INTRA-LIGAND FREE ENERGY PREDICTED BY IDOCK:   -0.35 KCAL/MOL
REMARK 927      BINDING AFFINITY PREDICTED BY RF-SCORE:    0.00 PKD
ROOT
HETATM    1  C   UNL     1      -8.474  15.410  67.744  1.00  0.00    -0.150 C  
HETATM    2  N   UNL     1      -9.749  15.425  68.418  1.00  0.00    -0.207 NA 
HETATM    3  C   UNL     1     -10.929  15.031  67.855  1.00  0.00    -0.291 C  
HETATM    4  H   UNL     1      -9.771  15.752  69.384  1.00  0.00     0.000 HD 
HETATM    5  N   UNL     1     -12.016  15.173  68.686  1.00  0.00    -0.552 NA 
HETATM    6  N   UNL     1     -10.943  14.568  66.642  1.00  0.00    -0.315 NA 
HETATM    7  C   UNL     1     -12.106  14.181  66.116  1.00  0.00    -0.435 C  
HETATM    8  H   UNL     1     -12.921  14.884  68.313  1.00  0.00     0.000 HD 
HETATM    9  N   UNL     1     -13.137  13.855  65.696  1.00  0.00    -0.602 NA 
HETATM   10  H   UNL     1     -10.081  14.501  66.102  1.00  0.00     0.000 HD 
ENDROOT
BRANCH   5  11
HETATM   11  C   UNL     1     -12.004  15.694  70.042  1.00  0.00    -0.368 C  
BRANCH  11  12
HETATM   12  C   UNL     1     -13.233  15.303  70.867  1.00  0.00    -0.450 C  
BRANCH  12  13
HETATM   13  S   UNL     1     -12.611  14.410  72.333  1.00  0.00    -0.232 SA 
BRANCH  13  14
HETATM   14  C   UNL     1     -13.583  12.874  72.221  1.00  0.00    -0.515 C  
BRANCH  14  15
HETATM   15  C   UNL     1     -12.887  11.908  71.317  1.00  0.00    -0.290 A  
HETATM   16  C   UNL     1     -12.897  10.523  71.334  1.00  0.00    -0.447 A  
HETATM   17  C   UNL     1     -13.556   9.539  72.221  1.00  0.00    -0.494 C  
HETATM   18  N   UNL     1     -12.130  10.149  70.260  1.00  0.00    -0.429 NA 
HETATM   19  H   UNL     1     -11.927   9.193  69.969  1.00  0.00     0.000 HD 
HETATM   20  C   UNL     1     -11.686  11.286  69.649  1.00  0.00    -0.350 A  
HETATM   21  N   UNL     1     -12.111  12.361  70.269  1.00  0.00    -0.341 NA 
ENDBRANCH  14  15
ENDBRANCH  13  14
ENDBRANCH  12  13
ENDBRANCH  11  12
ENDBRANCH   5  11
TORSDOF 5
ENDMDL
MODEL       42
REMARK 921   NORMALIZED FREE ENERGY PREDICTED BY IDOCK:   -4.53 KCAL/MOL
REMARK 922        TOTAL FREE ENERGY PREDICTED BY IDOCK:   -6.81 KCAL/MOL
REMARK 923 INTER-LIGAND FREE ENERGY PREDICTED BY IDOCK:   -6.07 KCAL/MOL
REMARK 924 INTRA-LIGAND FREE ENERGY PREDICTED BY IDOCK:   -0.75 KCAL/MOL
REMARK 927      BINDING AFFINITY PREDICTED BY RF-SCORE:    0.00 PKD
ROOT
HETATM    1  C   UNL     1      -8.856  12.493  66.977  1.00  0.00    -0.212 C  
HETATM    2  N   UNL     1      -9.311  13.862  66.963  1.00  0.00    -0.242 NA 
HETATM    3  C   UNL     1     -10.279  14.350  66.134  1.00  0.00    -0.306 C  
HETATM    4  H   UNL     1      -8.878  14.512  67.620  1.00  0.00     0.000 HD 
HETATM    5  N   UNL     1     -10.511  15.698  66.283  1.00  0.00    -0.297 NA 
HETATM    6  N   UNL     1     -10.887  13.551  65.309  1.00  0.00    -0.299 NA 
HETATM    7  C   UNL     1     -11.835  14.048  64.515  1.00  0.00    -0.434 C  
HETATM    8  H   UNL     1     -11.233  16.109  65.689  1.00  0.00     0.000 HD 
HETATM    9  N   UNL     1     -12.653  14.520  63.841  1.00  0.00    -0.789 NA 
HETATM   10  H   UNL     1     -10.643  12.562  65.271  1.00  0.00     0.000 HD 
ENDROOT
BRANCH   5  11
HETATM   11  C   UNL     1      -9.831  16.595  67.201  1.00  0.00    -0.257 C  
BRANCH  11  12
HETATM   12  C   UNL     1     -10.745  17.194  68.273  1.00  0.00    -0.363 C  
BRANCH  12  13
HETATM   13  S   UNL     1     -10.624  16.098  69.729  1.00  0.00    -0.299 SA 
BRANCH  13  14
HETATM   14  C   UNL     1     -12.303  15.392  69.750  1.00  0.00    -0.255 C  
BRANCH  14  15
HETATM   15  C   UNL     1     -12.224  13.926  70.034  1.00  0.00    -0.344 A  
HETATM   16  C   UNL     1     -12.659  13.221  71.145  1.00  0.00    -0.325 A  
HETATM   17  C   UNL     1     -13.314  13.640  72.403  1.00  0.00    -0.641 C  
HETATM   18  N   UNL     1     -12.378  11.908  70.862  1.00  0.00    -0.356 NA 
HETATM   19  H   UNL     1     -12.572  11.108  71.465  1.00  0.00     0.000 HD 
HETATM   20  C   UNL     1     -11.793  11.862  69.631  1.00  0.00    -0.337 A  
HETATM   21  N   UNL     1     -11.672  13.061  69.112  1.00  0.00    -0.310 NA 
ENDBRANCH  14  15
ENDBRANCH  13  14
ENDBRANCH  12  13
ENDBRANCH  11  12
ENDBRANCH   5  11
TORSDOF 5
ENDMDL
MODEL       43
REMARK 921   NORMALIZED FREE ENERGY PREDICTED BY IDOCK:   -4.50 KCAL/MOL
REMARK 922        TOTAL FREE ENERGY PREDICTED BY IDOCK:   -6.78 KCAL/MOL
REMARK 923 INTER-LIGAND FREE ENERGY PREDICTED BY IDOCK:   -6.21 KCAL/MOL
REMARK 924 INTRA-LIGAND FREE ENERGY PREDICTED BY IDOCK:   -0.57 KCAL/MOL
REMARK 927      BINDING AFFINITY PREDICTED BY RF-SCORE:    0.00 PKD
ROOT
HETATM    1  C   UNL     1     -11.188  16.073  69.149  1.00  0.00    -0.342 C  
HETATM    2  N   UNL     1     -10.935  15.909  67.738  1.00  0.00    -0.326 NA 
HETATM    3  C   UNL     1     -10.699  16.934  66.868  1.00  0.00    -0.130 C  
HETATM    4  H   UNL     1     -10.931  14.960  67.364  1.00  0.00     0.000 HD 
HETATM    5  N   UNL     1     -10.523  16.528  65.565  1.00  0.00    -0.546 NA 
HETATM    6  N   UNL     1     -10.652  18.157  67.306  1.00  0.00    -0.390 NA 
HETATM    7  C   UNL     1     -10.411  19.140  66.439  1.00  0.00    -0.463 C  
HETATM    8  H   UNL     1     -10.335  17.259  64.877  1.00  0.00     0.000 HD 
HETATM    9  N   UNL     1     -10.200  19.967  65.653  1.00  0.00    -0.370 NA 
HETATM   10  H   UNL     1     -10.797  18.359  68.294  1.00  0.00     0.000 HD 
ENDROOT
BRANCH   5  11
HETATM   11  C   UNL     1     -10.578  15.164  65.072  1.00  0.00    -0.413 C  
BRANCH  11  12
HETATM   12  C   UNL     1     -11.940  14.768  64.495  1.00  0.00    -0.440 C  
BRANCH  12  13
HETATM   13  S   UNL     1     -12.490  13.296  65.426  1.00  0.00    -0.469 SA 
BRANCH  13  14
HETATM   14  C   UNL     1     -10.881  12.557  65.854  1.00  0.00    -0.269 C  
BRANCH  14  15
HETATM   15  C   UNL     1     -10.900  12.113  67.281  1.00  0.00    -0.244 A  
HETATM   16  C   UNL     1      -9.933  12.262  68.262  1.00  0.00    -0.216 A  
HETATM   17  C   UNL     1      -8.586  12.873  68.253  1.00  0.00    -0.170 C  
HETATM   18  N   UNL     1     -10.486  11.713  69.391  1.00  0.00    -0.436 NA 
HETATM   19  H   UNL     1     -10.046  11.657  70.309  1.00  0.00     0.000 HD 
HETATM   20  C   UNL     1     -11.729  11.254  69.066  1.00  0.00    -0.342 A  
HETATM   21  N   UNL     1     -12.003  11.466  67.800  1.00  0.00    -0.646 NA 
ENDBRANCH  14  15
ENDBRANCH  13  14
ENDBRANCH  12  13
ENDBRANCH  11  12
ENDBRANCH   5  11
TORSDOF 5
ENDMDL
MODEL       44
REMARK 921   NORMALIZED FREE ENERGY PREDICTED BY IDOCK:   -4.50 KCAL/MOL
REMARK 922        TOTAL FREE ENERGY PREDICTED BY IDOCK:   -6.78 KCAL/MOL
REMARK 923 INTER-LIGAND FREE ENERGY PREDICTED BY IDOCK:   -6.52 KCAL/MOL
REMARK 924 INTRA-LIGAND FREE ENERGY PREDICTED BY IDOCK:   -0.26 KCAL/MOL
REMARK 927      BINDING AFFINITY PREDICTED BY RF-SCORE:    0.00 PKD
ROOT
HETATM    1  C   UNL     1      -7.497  15.804  69.362  1.00  0.00    -0.216 C  
HETATM    2  N   UNL     1      -8.935  15.746  69.252  1.00  0.00    -0.258 NA 
HETATM    3  C   UNL     1      -9.673  16.463  68.355  1.00  0.00    -0.229 C  
HETATM    4  H   UNL     1      -9.435  15.126  69.889  1.00  0.00     0.000 HD 
HETATM    5  N   UNL     1     -11.030  16.267  68.470  1.00  0.00    -0.329 NA 
HETATM    6  N   UNL     1      -9.077  17.235  67.497  1.00  0.00    -0.222 NA 
HETATM    7  C   UNL     1      -9.819  17.918  66.625  1.00  0.00    -0.342 C  
HETATM    8  H   UNL     1     -11.625  16.776  67.815  1.00  0.00     0.000 HD 
HETATM    9  N   UNL     1     -10.499  18.496  65.883  1.00  0.00    -0.600 NA 
HETATM   10  H   UNL     1      -8.061  17.316  67.490  1.00  0.00     0.000 HD 
ENDROOT
BRANCH   5  11
HETATM   11  C   UNL     1     -11.700  15.408  69.430  1.00  0.00    -0.351 C  
BRANCH  11  12
HETATM   12  C   UNL     1     -11.933  13.981  68.928  1.00  0.00    -0.352 C  
BRANCH  12  13
HETATM   13  S   UNL     1     -11.924  14.065  67.104  1.00  0.00    -0.405 SA 
BRANCH  13  14
HETATM   14  C   UNL     1     -11.239  12.426  66.701  1.00  0.00    -0.315 C  
BRANCH  14  15
HETATM   15  C   UNL     1     -11.476  12.127  65.256  1.00  0.00    -0.336 A  
HETATM   16  C   UNL     1     -10.680  11.435  64.358  1.00  0.00    -0.342 A  
HETATM   17  C   UNL     1      -9.358  10.783  64.490  1.00  0.00    -0.273 C  
HETATM   18  N   UNL     1     -11.395  11.420  63.188  1.00  0.00    -0.864 NA 
HETATM   19  H   UNL     1     -11.106  10.986  62.312  1.00  0.00     0.000 HD 
HETATM   20  C   UNL     1     -12.563  12.090  63.405  1.00  0.00    -0.469 A  
HETATM   21  N   UNL     1     -12.637  12.541  64.635  1.00  0.00    -0.614 NA 
ENDBRANCH  14  15
ENDBRANCH  13  14
ENDBRANCH  12  13
ENDBRANCH  11  12
ENDBRANCH   5  11
TORSDOF 5
ENDMDL
MODEL       45
REMARK 921   NORMALIZED FREE ENERGY PREDICTED BY IDOCK:   -4.50 KCAL/MOL
REMARK 922        TOTAL FREE ENERGY PREDICTED BY IDOCK:   -6.77 KCAL/MOL
REMARK 923 INTER-LIGAND FREE ENERGY PREDICTED BY IDOCK:   -6.27 KCAL/MOL
REMARK 924 INTRA-LIGAND FREE ENERGY PREDICTED BY IDOCK:   -0.51 KCAL/MOL
REMARK 927      BINDING AFFINITY PREDICTED BY RF-SCORE:    0.00 PKD
ROOT
HETATM    1  C   UNL     1     -11.592  15.995  71.065  1.00  0.00    -0.431 C  
HETATM    2  N   UNL     1     -10.522  15.671  70.154  1.00  0.00    -0.316 NA 
HETATM    3  C   UNL     1     -10.241  16.361  69.010  1.00  0.00    -0.269 C  
HETATM    4  H   UNL     1      -9.933  14.869  70.380  1.00  0.00     0.000 HD 
HETATM    5  N   UNL     1      -9.195  15.835  68.286  1.00  0.00    -0.186 NA 
HETATM    6  N   UNL     1     -10.937  17.413  68.702  1.00  0.00    -0.248 NA 
HETATM    7  C   UNL     1     -10.638  18.076  67.585  1.00  0.00    -0.399 C  
HETATM    8  H   UNL     1      -8.941  16.321  67.425  1.00  0.00     0.000 HD 
HETATM    9  N   UNL     1     -10.347  18.625  66.605  1.00  0.00    -0.394 NA 
HETATM   10  H   UNL     1     -11.697  17.727  69.304  1.00  0.00     0.000 HD 
ENDROOT
BRANCH   5  11
HETATM   11  C   UNL     1      -8.417  14.657  68.625  1.00  0.00    -0.164 C  
BRANCH  11  12
HETATM   12  C   UNL     1      -8.339  13.621  67.500  1.00  0.00    -0.188 C  
BRANCH  12  13
HETATM   13  S   UNL     1     -10.009  12.902  67.341  1.00  0.00    -0.220 SA 
BRANCH  13  14
HETATM   14  C   UNL     1     -10.038  12.528  65.558  1.00  0.00    -0.265 C  
BRANCH  14  15
HETATM   15  C   UNL     1     -10.921  13.509  64.857  1.00  0.00    -0.352 A  
HETATM   16  C   UNL     1     -11.979  13.279  63.993  1.00  0.00    -0.465 A  
HETATM   17  C   UNL     1     -12.584  12.039  63.460  1.00  0.00    -0.625 C  
HETATM   18  N   UNL     1     -12.459  14.527  63.681  1.00  0.00    -1.078 NA 
HETATM   19  H   UNL     1     -13.247  14.731  63.067  1.00  0.00     0.000 HD 
HETATM   20  C   UNL     1     -11.695  15.444  64.341  1.00  0.00    -0.258 A  
HETATM   21  N   UNL     1     -10.751  14.866  65.045  1.00  0.00    -0.409 NA 
ENDBRANCH  14  15
ENDBRANCH  13  14
ENDBRANCH  12  13
ENDBRANCH  11  12
ENDBRANCH   5  11
TORSDOF 5
ENDMDL
MODEL       46
REMARK 921   NORMALIZED FREE ENERGY PREDICTED BY IDOCK:   -4.49 KCAL/MOL
REMARK 922        TOTAL FREE ENERGY PREDICTED BY IDOCK:   -6.77 KCAL/MOL
REMARK 923 INTER-LIGAND FREE ENERGY PREDICTED BY IDOCK:   -6.31 KCAL/MOL
REMARK 924 INTRA-LIGAND FREE ENERGY PREDICTED BY IDOCK:   -0.46 KCAL/MOL
REMARK 927      BINDING AFFINITY PREDICTED BY RF-SCORE:    0.00 PKD
ROOT
HETATM    1  C   UNL     1     -10.864   9.989  67.791  1.00  0.00    -0.282 C  
HETATM    2  N   UNL     1     -11.260  11.357  68.020  1.00  0.00    -0.257 NA 
HETATM    3  C   UNL     1     -11.725  12.202  67.053  1.00  0.00    -0.303 C  
HETATM    4  H   UNL     1     -11.188  11.719  68.970  1.00  0.00     0.000 HD 
HETATM    5  N   UNL     1     -12.002  13.470  67.509  1.00  0.00    -0.362 NA 
HETATM    6  N   UNL     1     -11.873  11.773  65.836  1.00  0.00    -0.369 NA 
HETATM    7  C   UNL     1     -12.337  12.613  64.911  1.00  0.00    -0.498 C  
HETATM    8  H   UNL     1     -12.360  14.137  66.825  1.00  0.00     0.000 HD 
HETATM    9  N   UNL     1     -12.743  13.375  64.136  1.00  0.00    -0.659 NA 
HETATM   10  H   UNL     1     -11.639  10.811  65.593  1.00  0.00     0.000 HD 
ENDROOT
BRANCH   5  11
HETATM   11  C   UNL     1     -11.834  13.954  68.869  1.00  0.00    -0.358 C  
BRANCH  11  12
HETATM   12  C   UNL     1     -10.494  14.650  69.117  1.00  0.00    -0.233 C  
BRANCH  12  13
HETATM   13  S   UNL     1     -10.878  16.397  69.486  1.00  0.00    -0.326 SA 
BRANCH  13  14
HETATM   14  C   UNL     1      -9.452  17.220  68.706  1.00  0.00    -0.256 C  
BRANCH  14  15
HETATM   15  C   UNL     1      -9.920  18.033  67.543  1.00  0.00    -0.327 A  
HETATM   16  C   UNL     1     -10.363  17.616  66.298  1.00  0.00    -0.342 A  
HETATM   17  C   UNL     1     -10.513  16.276  65.688  1.00  0.00    -0.386 C  
HETATM   18  N   UNL     1     -10.708  18.769  65.640  1.00  0.00    -0.503 NA 
HETATM   19  H   UNL     1     -11.081  18.832  64.693  1.00  0.00     0.000 HD 
HETATM   20  C   UNL     1     -10.463  19.817  66.478  1.00  0.00    -0.500 A  
HETATM   21  N   UNL     1      -9.974  19.410  67.626  1.00  0.00    -0.349 NA 
ENDBRANCH  14  15
ENDBRANCH  13  14
ENDBRANCH  12  13
ENDBRANCH  11  12
ENDBRANCH   5  11
TORSDOF 5
ENDMDL
MODEL       47
REMARK 921   NORMALIZED FREE ENERGY PREDICTED BY IDOCK:   -4.49 KCAL/MOL
REMARK 922        TOTAL FREE ENERGY PREDICTED BY IDOCK:   -6.77 KCAL/MOL
REMARK 923 INTER-LIGAND FREE ENERGY PREDICTED BY IDOCK:   -6.53 KCAL/MOL
REMARK 924 INTRA-LIGAND FREE ENERGY PREDICTED BY IDOCK:   -0.24 KCAL/MOL
REMARK 927      BINDING AFFINITY PREDICTED BY RF-SCORE:    0.00 PKD
ROOT
HETATM    1  C   UNL     1     -13.350   8.714  71.877  1.00  0.00    -0.382 C  
HETATM    2  N   UNL     1     -12.765   9.658  70.956  1.00  0.00    -0.457 NA 
HETATM    3  C   UNL     1     -12.815  11.015  71.100  1.00  0.00    -0.392 C  
HETATM    4  H   UNL     1     -12.280   9.286  70.140  1.00  0.00     0.000 HD 
HETATM    5  N   UNL     1     -12.217  11.705  70.071  1.00  0.00    -0.285 NA 
HETATM    6  N   UNL     1     -13.386  11.534  72.145  1.00  0.00    -0.562 NA 
HETATM    7  C   UNL     1     -13.415  12.860  72.269  1.00  0.00    -0.531 C  
HETATM    8  H   UNL     1     -12.221  12.724  70.137  1.00  0.00     0.000 HD 
HETATM    9  N   UNL     1     -13.419  14.019  72.339  1.00  0.00    -0.494 NA 
HETATM   10  H   UNL     1     -13.804  10.937  72.858  1.00  0.00     0.000 HD 
ENDROOT
BRANCH   5  11
HETATM   11  C   UNL     1     -11.581  11.129  68.900  1.00  0.00    -0.317 C  
BRANCH  11  12
HETATM   12  C   UNL     1     -10.073  10.916  69.056  1.00  0.00    -0.196 C  
BRANCH  12  13
HETATM   13  S   UNL     1      -9.441  10.453  67.407  1.00  0.00    -0.150 SA 
BRANCH  13  14
HETATM   14  C   UNL     1      -9.951  11.909  66.438  1.00  0.00    -0.213 C  
BRANCH  14  15
HETATM   15  C   UNL     1     -10.152  11.513  65.010  1.00  0.00    -0.270 A  
HETATM   16  C   UNL     1     -11.212  11.788  64.162  1.00  0.00    -0.364 A  
HETATM   17  C   UNL     1     -12.480  12.525  64.353  1.00  0.00    -0.530 C  
HETATM   18  N   UNL     1     -10.859  11.226  62.961  1.00  0.00    -0.826 NA 
HETATM   19  H   UNL     1     -11.412  11.244  62.104  1.00  0.00     0.000 HD 
HETATM   20  C   UNL     1      -9.638  10.640  63.117  1.00  0.00    -0.348 A  
HETATM   21  N   UNL     1      -9.190  10.781  64.343  1.00  0.00    -0.213 NA 
ENDBRANCH  14  15
ENDBRANCH  13  14
ENDBRANCH  12  13
ENDBRANCH  11  12
ENDBRANCH   5  11
TORSDOF 5
ENDMDL
MODEL       48
REMARK 921   NORMALIZED FREE ENERGY PREDICTED BY IDOCK:   -4.49 KCAL/MOL
REMARK 922        TOTAL FREE ENERGY PREDICTED BY IDOCK:   -6.76 KCAL/MOL
REMARK 923 INTER-LIGAND FREE ENERGY PREDICTED BY IDOCK:   -6.44 KCAL/MOL
REMARK 924 INTRA-LIGAND FREE ENERGY PREDICTED BY IDOCK:   -0.32 KCAL/MOL
REMARK 927      BINDING AFFINITY PREDICTED BY RF-SCORE:    0.00 PKD
ROOT
HETATM    1  C   UNL     1     -13.851   8.901  71.535  1.00  0.00    -0.336 C  
HETATM    2  N   UNL     1     -13.035   9.858  70.828  1.00  0.00    -0.560 NA 
HETATM    3  C   UNL     1     -11.670   9.877  70.847  1.00  0.00    -0.364 C  
HETATM    4  H   UNL     1     -13.511  10.570  70.275  1.00  0.00     0.000 HD 
HETATM    5  N   UNL     1     -11.119  10.910  70.125  1.00  0.00    -0.455 NA 
HETATM    6  N   UNL     1     -11.019   8.964  71.504  1.00  0.00    -0.300 NA 
HETATM    7  C   UNL     1      -9.687   8.998  71.501  1.00  0.00    -0.295 C  
HETATM    8  H   UNL     1     -10.100  10.963  70.102  1.00  0.00     0.000 HD 
HETATM    9  N   UNL     1      -8.529   9.063  71.473  1.00  0.00    -0.342 NA 
HETATM   10  H   UNL     1     -11.519   8.236  72.013  1.00  0.00     0.000 HD 
ENDROOT
BRANCH   5  11
HETATM   11  C   UNL     1     -11.843  11.934  69.392  1.00  0.00    -0.327 C  
BRANCH  11  12
HETATM   12  C   UNL     1     -10.949  12.824  68.525  1.00  0.00    -0.258 C  
BRANCH  12  13
HETATM   13  S   UNL     1     -12.064  13.766  67.428  1.00  0.00    -0.273 SA 
BRANCH  13  14
HETATM   14  C   UNL     1     -10.958  14.066  66.012  1.00  0.00    -0.298 C  
BRANCH  14  15
HETATM   15  C   UNL     1     -11.254  13.079  64.930  1.00  0.00    -0.302 A  
HETATM   16  C   UNL     1     -10.626  11.879  64.637  1.00  0.00    -0.306 A  
HETATM   17  C   UNL     1      -9.477  11.176  65.250  1.00  0.00    -0.257 C  
HETATM   18  N   UNL     1     -11.328  11.361  63.578  1.00  0.00    -0.719 NA 
HETATM   19  H   UNL     1     -11.139  10.476  63.107  1.00  0.00     0.000 HD 
HETATM   20  C   UNL     1     -12.323  12.240  63.267  1.00  0.00    -0.409 A  
HETATM   21  N   UNL     1     -12.298  13.291  64.051  1.00  0.00    -0.636 NA 
ENDBRANCH  14  15
ENDBRANCH  13  14
ENDBRANCH  12  13
ENDBRANCH  11  12
ENDBRANCH   5  11
TORSDOF 5
ENDMDL
MODEL       49
REMARK 921   NORMALIZED FREE ENERGY PREDICTED BY IDOCK:   -4.48 KCAL/MOL
REMARK 922        TOTAL FREE ENERGY PREDICTED BY IDOCK:   -6.76 KCAL/MOL
REMARK 923 INTER-LIGAND FREE ENERGY PREDICTED BY IDOCK:   -6.05 KCAL/MOL
REMARK 924 INTRA-LIGAND FREE ENERGY PREDICTED BY IDOCK:   -0.71 KCAL/MOL
REMARK 927      BINDING AFFINITY PREDICTED BY RF-SCORE:    0.00 PKD
ROOT
HETATM    1  C   UNL     1     -12.989  11.850  63.579  1.00  0.00    -0.171 C  
HETATM    2  N   UNL     1     -12.720  12.468  64.854  1.00  0.00    -0.754 NA 
HETATM    3  C   UNL     1     -12.282  13.750  65.018  1.00  0.00    -0.424 C  
HETATM    4  H   UNL     1     -12.868  11.907  65.693  1.00  0.00     0.000 HD 
HETATM    5  N   UNL     1     -12.060  14.098  66.331  1.00  0.00    -0.441 NA 
HETATM    6  N   UNL     1     -12.120  14.516  63.982  1.00  0.00    -0.838 NA 
HETATM    7  C   UNL     1     -11.699  15.767  64.167  1.00  0.00    -0.067 C  
HETATM    8  H   UNL     1     -11.739  15.051  66.506  1.00  0.00     0.000 HD 
HETATM    9  N   UNL     1     -11.333  16.849  64.371  1.00  0.00    -1.090 NA 
HETATM   10  H   UNL     1     -12.310  14.166  63.043  1.00  0.00     0.000 HD 
ENDROOT
BRANCH   5  11
HETATM   11  C   UNL     1     -12.238  13.244  67.492  1.00  0.00    -0.164 C  
BRANCH  11  12
HETATM   12  C   UNL     1     -11.081  13.312  68.493  1.00  0.00    -0.265 C  
BRANCH  12  13
HETATM   13  S   UNL     1     -10.624  11.586  68.875  1.00  0.00    -0.178 SA 
BRANCH  13  14
HETATM   14  C   UNL     1      -9.082  11.434  67.918  1.00  0.00    -0.164 C  
BRANCH  14  15
HETATM   15  C   UNL     1      -9.345  10.658  66.668  1.00  0.00    -0.165 A  
HETATM   16  C   UNL     1      -9.279   9.291  66.450  1.00  0.00    -0.180 A  
HETATM   17  C   UNL     1      -8.926   8.155  67.329  1.00  0.00    -0.149 C  
HETATM   18  N   UNL     1      -9.659   9.123  65.143  1.00  0.00    -0.446 NA 
HETATM   19  H   UNL     1      -9.729   8.234  64.647  1.00  0.00     0.000 HD 
HETATM   20  C   UNL     1      -9.927  10.355  64.623  1.00  0.00    -0.338 A  
HETATM   21  N   UNL     1      -9.734  11.302  65.510  1.00  0.00    -0.220 NA 
ENDBRANCH  14  15
ENDBRANCH  13  14
ENDBRANCH  12  13
ENDBRANCH  11  12
ENDBRANCH   5  11
TORSDOF 5
ENDMDL
MODEL       50
REMARK 921   NORMALIZED FREE ENERGY PREDICTED BY IDOCK:   -4.46 KCAL/MOL
REMARK 922        TOTAL FREE ENERGY PREDICTED BY IDOCK:   -6.73 KCAL/MOL
REMARK 923 INTER-LIGAND FREE ENERGY PREDICTED BY IDOCK:   -6.06 KCAL/MOL
REMARK 924 INTRA-LIGAND FREE ENERGY PREDICTED BY IDOCK:   -0.67 KCAL/MOL
REMARK 927      BINDING AFFINITY PREDICTED BY RF-SCORE:    0.00 PKD
ROOT
HETATM    1  C   UNL     1     -10.482   8.062  66.861  1.00  0.00    -0.317 C  
HETATM    2  N   UNL     1      -9.819   9.338  66.980  1.00  0.00    -0.183 NA 
HETATM    3  C   UNL     1      -9.521  10.158  65.930  1.00  0.00    -0.196 C  
HETATM    4  H   UNL     1      -9.554   9.649  67.914  1.00  0.00     0.000 HD 
HETATM    5  N   UNL     1      -8.852  11.304  66.292  1.00  0.00    -0.188 NA 
HETATM    6  N   UNL     1      -9.876   9.822  64.726  1.00  0.00    -0.417 NA 
HETATM    7  C   UNL     1      -9.582  10.643  63.718  1.00  0.00    -0.306 C  
HETATM    8  H   UNL     1      -8.613  11.954  65.542  1.00  0.00     0.000 HD 
HETATM    9  N   UNL     1      -9.307  11.384  62.868  1.00  0.00    -0.362 NA 
HETATM   10  H   UNL     1     -10.370   8.947  64.556  1.00  0.00     0.000 HD 
ENDROOT
BRANCH   5  11
HETATM   11  C   UNL     1      -8.450  11.681  67.636  1.00  0.00    -0.142 C  
BRANCH  11  12
HETATM   12  C   UNL     1      -9.383  12.698  68.299  1.00  0.00    -0.195 C  
BRANCH  12  13
HETATM   13  S   UNL     1      -9.851  13.894  67.001  1.00  0.00    -0.264 SA 
BRANCH  13  14
HETATM   14  C   UNL     1     -11.637  13.559  66.873  1.00  0.00    -0.363 C  
BRANCH  14  15
HETATM   15  C   UNL     1     -12.021  13.442  65.433  1.00  0.00    -0.387 A  
HETATM   16  C   UNL     1     -12.014  14.407  64.439  1.00  0.00    -0.452 A  
HETATM   17  C   UNL     1     -11.658  15.842  64.441  1.00  0.00    -0.234 C  
HETATM   18  N   UNL     1     -12.415  13.748  63.304  1.00  0.00    -1.092 NA 
HETATM   19  H   UNL     1     -12.518  14.158  62.376  1.00  0.00     0.000 HD 
HETATM   20  C   UNL     1     -12.652  12.447  63.638  1.00  0.00    -0.443 A  
HETATM   21  N   UNL     1     -12.439  12.233  64.914  1.00  0.00    -0.520 NA 
ENDBRANCH  14  15
ENDBRANCH  13  14
ENDBRANCH  12  13
ENDBRANCH  11  12
ENDBRANCH   5  11
TORSDOF 5
ENDMDL
MODEL       51
REMARK 921   NORMALIZED FREE ENERGY PREDICTED BY IDOCK:   -4.46 KCAL/MOL
REMARK 922        TOTAL FREE ENERGY PREDICTED BY IDOCK:   -6.73 KCAL/MOL
REMARK 923 INTER-LIGAND FREE ENERGY PREDICTED BY IDOCK:   -6.51 KCAL/MOL
REMARK 924 INTRA-LIGAND FREE ENERGY PREDICTED BY IDOCK:   -0.22 KCAL/MOL
REMARK 927      BINDING AFFINITY PREDICTED BY RF-SCORE:    0.00 PKD
ROOT
HETATM    1  C   UNL     1     -10.209  16.465  65.713  1.00  0.00    -0.348 C  
HETATM    2  N   UNL     1     -10.849  15.361  66.386  1.00  0.00    -0.315 NA 
HETATM    3  C   UNL     1     -11.477  14.327  65.754  1.00  0.00    -0.335 C  
HETATM    4  H   UNL     1     -10.832  15.353  67.406  1.00  0.00     0.000 HD 
HETATM    5  N   UNL     1     -12.046  13.414  66.612  1.00  0.00    -0.390 NA 
HETATM    6  N   UNL     1     -11.489  14.273  64.456  1.00  0.00    -0.505 NA 
HETATM    7  C   UNL     1     -12.100  13.248  63.861  1.00  0.00    -0.468 C  
HETATM    8  H   UNL     1     -12.521  12.617  66.187  1.00  0.00     0.000 HD 
HETATM    9  N   UNL     1     -12.642  12.341  63.383  1.00  0.00    -0.735 NA 
HETATM   10  H   UNL     1     -11.038  15.001  63.903  1.00  0.00     0.000 HD 
ENDROOT
BRANCH   5  11
HETATM   11  C   UNL     1     -12.038  13.473  68.064  1.00  0.00    -0.262 C  
BRANCH  11  12
HETATM   12  C   UNL     1     -11.017  12.537  68.716  1.00  0.00    -0.253 C  
BRANCH  12  13
HETATM   13  S   UNL     1     -11.881  10.958  69.022  1.00  0.00    -0.243 SA 
BRANCH  13  14
HETATM   14  C   UNL     1     -12.106  11.050  70.827  1.00  0.00    -0.366 C  
BRANCH  14  15
HETATM   15  C   UNL     1     -11.870   9.702  71.428  1.00  0.00    -0.406 A  
HETATM   16  C   UNL     1     -12.785   8.724  71.782  1.00  0.00    -0.359 A  
HETATM   17  C   UNL     1     -14.262   8.664  71.714  1.00  0.00    -0.490 C  
HETATM   18  N   UNL     1     -12.025   7.678  72.243  1.00  0.00    -0.405 NA 
HETATM   19  H   UNL     1     -12.378   6.784  72.584  1.00  0.00     0.000 HD 
HETATM   20  C   UNL     1     -10.715   8.048  72.163  1.00  0.00    -0.276 A  
HETATM   21  N   UNL     1     -10.587   9.265  71.691  1.00  0.00    -0.348 NA 
ENDBRANCH  14  15
ENDBRANCH  13  14
ENDBRANCH  12  13
ENDBRANCH  11  12
ENDBRANCH   5  11
TORSDOF 5
ENDMDL
MODEL       52
REMARK 921   NORMALIZED FREE ENERGY PREDICTED BY IDOCK:   -4.45 KCAL/MOL
REMARK 922        TOTAL FREE ENERGY PREDICTED BY IDOCK:   -6.71 KCAL/MOL
REMARK 923 INTER-LIGAND FREE ENERGY PREDICTED BY IDOCK:   -5.92 KCAL/MOL
REMARK 924 INTRA-LIGAND FREE ENERGY PREDICTED BY IDOCK:   -0.79 KCAL/MOL
REMARK 927      BINDING AFFINITY PREDICTED BY RF-SCORE:    0.00 PKD
ROOT
HETATM    1  C   UNL     1     -11.665  15.503  69.578  1.00  0.00    -0.365 C  
HETATM    2  N   UNL     1     -10.928  14.440  68.939  1.00  0.00    -0.247 NA 
HETATM    3  C   UNL     1     -11.236  13.905  67.721  1.00  0.00    -0.293 C  
HETATM    4  H   UNL     1     -10.119  14.061  69.432  1.00  0.00     0.000 HD 
HETATM    5  N   UNL     1     -10.408  12.875  67.341  1.00  0.00    -0.232 NA 
HETATM    6  N   UNL     1     -12.232  14.383  67.038  1.00  0.00    -0.563 NA 
HETATM    7  C   UNL     1     -12.509  13.851  65.848  1.00  0.00    -0.481 C  
HETATM    8  H   UNL     1     -10.593  12.446  66.433  1.00  0.00     0.000 HD 
HETATM    9  N   UNL     1     -12.717  13.361  64.817  1.00  0.00    -0.685 NA 
HETATM   10  H   UNL     1     -12.792  15.152  67.406  1.00  0.00     0.000 HD 
ENDROOT
BRANCH   5  11
HETATM   11  C   UNL     1      -9.296  12.335  68.103  1.00  0.00    -0.205 C  
BRANCH  11  12
HETATM   12  C   UNL     1      -9.083  10.831  67.907  1.00  0.00    -0.150 C  
BRANCH  12  13
HETATM   13  S   UNL     1      -9.253  10.064  69.556  1.00  0.00    -0.210 SA 
BRANCH  13  14
HETATM   14  C   UNL     1     -10.975   9.477  69.469  1.00  0.00    -0.195 C  
BRANCH  14  15
HETATM   15  C   UNL     1     -11.830  10.304  70.375  1.00  0.00    -0.309 A  
HETATM   16  C   UNL     1     -12.490   9.939  71.537  1.00  0.00    -0.411 A  
HETATM   17  C   UNL     1     -12.598   8.655  72.265  1.00  0.00    -0.457 C  
HETATM   18  N   UNL     1     -13.084  11.092  71.984  1.00  0.00    -0.517 NA 
HETATM   19  H   UNL     1     -13.652  11.189  72.826  1.00  0.00     0.000 HD 
HETATM   20  C   UNL     1     -12.782  12.086  71.100  1.00  0.00    -0.266 A  
HETATM   21  N   UNL     1     -12.041  11.642  70.113  1.00  0.00    -0.336 NA 
ENDBRANCH  14  15
ENDBRANCH  13  14
ENDBRANCH  12  13
ENDBRANCH  11  12
ENDBRANCH   5  11
TORSDOF 5
ENDMDL
MODEL       53
REMARK 921   NORMALIZED FREE ENERGY PREDICTED BY IDOCK:   -4.45 KCAL/MOL
REMARK 922        TOTAL FREE ENERGY PREDICTED BY IDOCK:   -6.71 KCAL/MOL
REMARK 923 INTER-LIGAND FREE ENERGY PREDICTED BY IDOCK:   -6.46 KCAL/MOL
REMARK 924 INTRA-LIGAND FREE ENERGY PREDICTED BY IDOCK:   -0.25 KCAL/MOL
REMARK 927      BINDING AFFINITY PREDICTED BY RF-SCORE:    0.00 PKD
ROOT
HETATM    1  C   UNL     1     -12.370  11.882  63.406  1.00  0.00    -0.462 C  
HETATM    2  N   UNL     1     -11.672  12.413  64.553  1.00  0.00    -0.345 NA 
HETATM    3  C   UNL     1     -11.404  13.736  64.754  1.00  0.00    -0.360 C  
HETATM    4  H   UNL     1     -11.357  11.752  65.263  1.00  0.00     0.000 HD 
HETATM    5  N   UNL     1     -10.693  13.990  65.904  1.00  0.00    -0.288 NA 
HETATM    6  N   UNL     1     -11.822  14.618  63.897  1.00  0.00    -0.793 NA 
HETATM    7  C   UNL     1     -11.556  15.905  64.119  1.00  0.00    -0.056 C  
HETATM    8  H   UNL     1     -10.474  14.967  66.103  1.00  0.00     0.000 HD 
HETATM    9  N   UNL     1     -11.304  17.014  64.348  1.00  0.00    -1.052 NA 
HETATM   10  H   UNL     1     -12.344  14.331  63.070  1.00  0.00     0.000 HD 
ENDROOT
BRANCH   5  11
HETATM   11  C   UNL     1     -10.221  13.007  66.862  1.00  0.00    -0.244 C  
BRANCH  11  12
HETATM   12  C   UNL     1     -10.824  13.166  68.261  1.00  0.00    -0.253 C  
BRANCH  12  13
HETATM   13  S   UNL     1     -11.794  11.652  68.582  1.00  0.00    -0.257 SA 
BRANCH  13  14
HETATM   14  C   UNL     1     -10.738  10.842  69.825  1.00  0.00    -0.186 C  
BRANCH  14  15
HETATM   15  C   UNL     1     -11.596  10.177  70.852  1.00  0.00    -0.372 A  
HETATM   16  C   UNL     1     -11.359   9.024  71.584  1.00  0.00    -0.360 A  
HETATM   17  C   UNL     1     -10.232   8.066  71.605  1.00  0.00    -0.256 C  
HETATM   18  N   UNL     1     -12.449   8.898  72.407  1.00  0.00    -0.364 NA 
HETATM   19  H   UNL     1     -12.604   8.156  73.090  1.00  0.00     0.000 HD 
HETATM   20  C   UNL     1     -13.290   9.941  72.150  1.00  0.00    -0.399 A  
HETATM   21  N   UNL     1     -12.813  10.721  71.209  1.00  0.00    -0.408 NA 
ENDBRANCH  14  15
ENDBRANCH  13  14
ENDBRANCH  12  13
ENDBRANCH  11  12
ENDBRANCH   5  11
TORSDOF 5
ENDMDL
MODEL       54
REMARK 921   NORMALIZED FREE ENERGY PREDICTED BY IDOCK:   -4.44 KCAL/MOL
REMARK 922        TOTAL FREE ENERGY PREDICTED BY IDOCK:   -6.70 KCAL/MOL
REMARK 923 INTER-LIGAND FREE ENERGY PREDICTED BY IDOCK:   -5.73 KCAL/MOL
REMARK 924 INTRA-LIGAND FREE ENERGY PREDICTED BY IDOCK:   -0.97 KCAL/MOL
REMARK 927      BINDING AFFINITY PREDICTED BY RF-SCORE:    0.00 PKD
ROOT
HETATM    1  C   UNL     1     -10.388  19.778  65.799  1.00  0.00    -0.423 C  
HETATM    2  N   UNL     1     -10.589  18.367  65.579  1.00  0.00    -0.567 NA 
HETATM    3  C   UNL     1     -10.604  17.422  66.564  1.00  0.00    -0.184 C  
HETATM    4  H   UNL     1     -10.730  18.052  64.619  1.00  0.00     0.000 HD 
HETATM    5  N   UNL     1     -10.775  16.138  66.100  1.00  0.00    -0.266 NA 
HETATM    6  N   UNL     1     -10.470  17.780  67.805  1.00  0.00    -0.384 NA 
HETATM    7  C   UNL     1     -10.497  16.841  68.751  1.00  0.00    -0.338 C  
HETATM    8  H   UNL     1     -10.801  15.396  66.801  1.00  0.00     0.000 HD 
HETATM    9  N   UNL     1     -10.526  15.994  69.543  1.00  0.00    -0.264 NA 
HETATM   10  H   UNL     1     -10.347  18.762  68.052  1.00  0.00     0.000 HD 
ENDROOT
BRANCH   5  11
HETATM   11  C   UNL     1     -10.921  15.734  64.713  1.00  0.00    -0.393 C  
BRANCH  11  12
HETATM   12  C   UNL     1     -12.131  14.832  64.455  1.00  0.00    -0.446 C  
BRANCH  12  13
HETATM   13  S   UNL     1     -11.524  13.112  64.538  1.00  0.00    -0.373 SA 
BRANCH  13  14
HETATM   14  C   UNL     1     -12.030  12.664  66.229  1.00  0.00    -0.374 C  
BRANCH  14  15
HETATM   15  C   UNL     1     -10.872  12.834  67.159  1.00  0.00    -0.256 A  
HETATM   16  C   UNL     1     -10.816  12.674  68.534  1.00  0.00    -0.252 A  
HETATM   17  C   UNL     1     -11.838  12.311  69.541  1.00  0.00    -0.380 C  
HETATM   18  N   UNL     1      -9.506  12.910  68.865  1.00  0.00    -0.390 NA 
HETATM   19  H   UNL     1      -9.107  12.872  69.803  1.00  0.00     0.000 HD 
HETATM   20  C   UNL     1      -8.831  13.203  67.717  1.00  0.00    -0.191 A  
HETATM   21  N   UNL     1      -9.627  13.180  66.673  1.00  0.00    -0.255 NA 
ENDBRANCH  14  15
ENDBRANCH  13  14
ENDBRANCH  12  13
ENDBRANCH  11  12
ENDBRANCH   5  11
TORSDOF 5
ENDMDL
MODEL       55
REMARK 921   NORMALIZED FREE ENERGY PREDICTED BY IDOCK:   -4.42 KCAL/MOL
REMARK 922        TOTAL FREE ENERGY PREDICTED BY IDOCK:   -6.67 KCAL/MOL
REMARK 923 INTER-LIGAND FREE ENERGY PREDICTED BY IDOCK:   -6.32 KCAL/MOL
REMARK 924 INTRA-LIGAND FREE ENERGY PREDICTED BY IDOCK:   -0.35 KCAL/MOL
REMARK 927      BINDING AFFINITY PREDICTED BY RF-SCORE:    0.00 PKD
ROOT
HETATM    1  C   UNL     1     -10.579  16.548  69.639  1.00  0.00    -0.302 C  
HETATM    2  N   UNL     1     -11.004  15.178  69.481  1.00  0.00    -0.259 NA 
HETATM    3  C   UNL     1     -11.947  14.565  70.255  1.00  0.00    -0.314 C  
HETATM    4  H   UNL     1     -10.569  14.629  68.740  1.00  0.00     0.000 HD 
HETATM    5  N   UNL     1     -12.153  13.243  69.936  1.00  0.00    -0.324 NA 
HETATM    6  N   UNL     1     -12.558  15.236  71.184  1.00  0.00    -0.357 NA 
HETATM    7  C   UNL     1     -13.482  14.619  71.920  1.00  0.00    -0.370 C  
HETATM    8  H   UNL     1     -12.855  12.742  70.481  1.00  0.00     0.000 HD 
HETATM    9  N   UNL     1     -14.278  14.045  72.539  1.00  0.00    -0.648 NA 
HETATM   10  H   UNL     1     -12.335  16.218  71.347  1.00  0.00     0.000 HD 
ENDROOT
BRANCH   5  11
HETATM   11  C   UNL     1     -11.469  12.488  68.900  1.00  0.00    -0.307 C  
BRANCH  11  12
HETATM   12  C   UNL     1     -11.318  10.998  69.217  1.00  0.00    -0.282 C  
BRANCH  12  13
HETATM   13  S   UNL     1     -10.906  10.171  67.642  1.00  0.00    -0.260 SA 
BRANCH  13  14
HETATM   14  C   UNL     1     -10.197  11.568  66.713  1.00  0.00    -0.219 C  
BRANCH  14  15
HETATM   15  C   UNL     1     -10.807  11.622  65.349  1.00  0.00    -0.280 A  
HETATM   16  C   UNL     1     -10.373  11.042  64.168  1.00  0.00    -0.369 A  
HETATM   17  C   UNL     1      -9.195  10.212  63.835  1.00  0.00    -0.322 C  
HETATM   18  N   UNL     1     -11.328  11.374  63.240  1.00  0.00    -0.848 NA 
HETATM   19  H   UNL     1     -11.329  11.106  62.256  1.00  0.00     0.000 HD 
HETATM   20  C   UNL     1     -12.276  12.127  63.867  1.00  0.00    -0.489 A  
HETATM   21  N   UNL     1     -11.986  12.308  65.134  1.00  0.00    -0.370 NA 
ENDBRANCH  14  15
ENDBRANCH  13  14
ENDBRANCH  12  13
ENDBRANCH  11  12
ENDBRANCH   5  11
TORSDOF 5
ENDMDL
MODEL       56
REMARK 921   NORMALIZED FREE ENERGY PREDICTED BY IDOCK:   -4.42 KCAL/MOL
REMARK 922        TOTAL FREE ENERGY PREDICTED BY IDOCK:   -6.67 KCAL/MOL
REMARK 923 INTER-LIGAND FREE ENERGY PREDICTED BY IDOCK:   -6.47 KCAL/MOL
REMARK 924 INTRA-LIGAND FREE ENERGY PREDICTED BY IDOCK:   -0.21 KCAL/MOL
REMARK 927      BINDING AFFINITY PREDICTED BY RF-SCORE:    0.00 PKD
ROOT
HETATM    1  C   UNL     1     -14.277   8.232  71.719  1.00  0.00    -0.464 C  
HETATM    2  N   UNL     1     -13.426   9.257  71.168  1.00  0.00    -0.557 NA 
HETATM    3  C   UNL     1     -12.082   9.353  71.390  1.00  0.00    -0.363 C  
HETATM    4  H   UNL     1     -13.858   9.962  70.570  1.00  0.00     0.000 HD 
HETATM    5  N   UNL     1     -11.494  10.440  70.786  1.00  0.00    -0.343 NA 
HETATM    6  N   UNL     1     -11.480   8.455  72.111  1.00  0.00    -0.345 NA 
HETATM    7  C   UNL     1     -10.166   8.563  72.306  1.00  0.00    -0.325 C  
HETATM    8  H   UNL     1     -10.488  10.551  70.916  1.00  0.00     0.000 HD 
HETATM    9  N   UNL     1      -9.023   8.693  72.453  1.00  0.00    -0.373 NA 
HETATM   10  H   UNL     1     -12.004   7.681  72.519  1.00  0.00     0.000 HD 
ENDROOT
BRANCH   5  11
HETATM   11  C   UNL     1     -12.164  11.448  69.983  1.00  0.00    -0.301 C  
BRANCH  11  12
HETATM   12  C   UNL     1     -11.467  11.742  68.651  1.00  0.00    -0.288 C  
BRANCH  12  13
HETATM   13  S   UNL     1     -11.673  13.530  68.342  1.00  0.00    -0.374 SA 
BRANCH  13  14
HETATM   14  C   UNL     1     -10.151  13.879  67.405  1.00  0.00    -0.244 C  
BRANCH  14  15
HETATM   15  C   UNL     1     -10.464  14.801  66.270  1.00  0.00    -0.296 A  
HETATM   16  C   UNL     1     -10.894  14.502  64.987  1.00  0.00    -0.412 A  
HETATM   17  C   UNL     1     -11.172  13.223  64.298  1.00  0.00    -0.417 C  
HETATM   18  N   UNL     1     -11.068  15.720  64.380  1.00  0.00    -0.852 NA 
HETATM   19  H   UNL     1     -11.386  15.875  63.423  1.00  0.00     0.000 HD 
HETATM   20  C   UNL     1     -10.741  16.688  65.284  1.00  0.00    -0.204 A  
HETATM   21  N   UNL     1     -10.359  16.168  66.427  1.00  0.00    -0.305 NA 
ENDBRANCH  14  15
ENDBRANCH  13  14
ENDBRANCH  12  13
ENDBRANCH  11  12
ENDBRANCH   5  11
TORSDOF 5
ENDMDL
MODEL       57
REMARK 921   NORMALIZED FREE ENERGY PREDICTED BY IDOCK:   -4.42 KCAL/MOL
REMARK 922        TOTAL FREE ENERGY PREDICTED BY IDOCK:   -6.67 KCAL/MOL
REMARK 923 INTER-LIGAND FREE ENERGY PREDICTED BY IDOCK:   -6.39 KCAL/MOL
REMARK 924 INTRA-LIGAND FREE ENERGY PREDICTED BY IDOCK:   -0.28 KCAL/MOL
REMARK 927      BINDING AFFINITY PREDICTED BY RF-SCORE:    0.00 PKD
ROOT
HETATM    1  C   UNL     1     -10.563  14.351  67.073  1.00  0.00    -0.274 C  
HETATM    2  N   UNL     1     -10.799  14.950  68.365  1.00  0.00    -0.244 NA 
HETATM    3  C   UNL     1     -10.714  16.286  68.628  1.00  0.00    -0.309 C  
HETATM    4  H   UNL     1     -11.048  14.330  69.136  1.00  0.00     0.000 HD 
HETATM    5  N   UNL     1     -10.946  16.610  69.944  1.00  0.00    -0.416 NA 
HETATM    6  N   UNL     1     -10.441  17.118  67.668  1.00  0.00    -0.348 NA 
HETATM    7  C   UNL     1     -10.372  18.420  67.946  1.00  0.00    -0.401 C  
HETATM    8  H   UNL     1     -10.901  17.600  70.190  1.00  0.00     0.000 HD 
HETATM    9  N   UNL     1     -10.320  19.544  68.230  1.00  0.00    -0.430 NA 
HETATM   10  H   UNL     1     -10.283  16.782  66.718  1.00  0.00     0.000 HD 
ENDROOT
BRANCH   5  11
HETATM   11  C   UNL     1     -11.247  15.682  71.021  1.00  0.00    -0.364 C  
BRANCH  11  12
HETATM   12  C   UNL     1     -12.682  15.789  71.546  1.00  0.00    -0.450 C  
BRANCH  12  13
HETATM   13  S   UNL     1     -13.215  14.088  71.945  1.00  0.00    -0.428 SA 
BRANCH  13  14
HETATM   14  C   UNL     1     -12.321  13.153  70.664  1.00  0.00    -0.326 C  
BRANCH  14  15
HETATM   15  C   UNL     1     -12.533  11.688  70.875  1.00  0.00    -0.341 A  
HETATM   16  C   UNL     1     -12.133  10.619  70.090  1.00  0.00    -0.333 A  
HETATM   17  C   UNL     1     -11.399  10.539  68.809  1.00  0.00    -0.310 C  
HETATM   18  N   UNL     1     -12.550   9.504  70.772  1.00  0.00    -0.496 NA 
HETATM   19  H   UNL     1     -12.415   8.536  70.481  1.00  0.00     0.000 HD 
HETATM   20  C   UNL     1     -13.177   9.920  71.910  1.00  0.00    -0.458 A  
HETATM   21  N   UNL     1     -13.197  11.230  71.995  1.00  0.00    -0.459 NA 
ENDBRANCH  14  15
ENDBRANCH  13  14
ENDBRANCH  12  13
ENDBRANCH  11  12
ENDBRANCH   5  11
TORSDOF 5
ENDMDL
MODEL       58
REMARK 921   NORMALIZED FREE ENERGY PREDICTED BY IDOCK:   -4.41 KCAL/MOL
REMARK 922        TOTAL FREE ENERGY PREDICTED BY IDOCK:   -6.67 KCAL/MOL
REMARK 923 INTER-LIGAND FREE ENERGY PREDICTED BY IDOCK:   -6.27 KCAL/MOL
REMARK 924 INTRA-LIGAND FREE ENERGY PREDICTED BY IDOCK:   -0.40 KCAL/MOL
REMARK 927      BINDING AFFINITY PREDICTED BY RF-SCORE:    0.00 PKD
ROOT
HETATM    1  C   UNL     1      -9.160  16.567  66.121  1.00  0.00    -0.306 C  
HETATM    2  N   UNL     1      -9.274  15.144  66.328  1.00  0.00    -0.326 NA 
HETATM    3  C   UNL     1     -10.172  14.337  65.691  1.00  0.00    -0.347 C  
HETATM    4  H   UNL     1      -8.640  14.710  66.999  1.00  0.00     0.000 HD 
HETATM    5  N   UNL     1     -10.114  13.021  66.085  1.00  0.00    -0.281 NA 
HETATM    6  N   UNL     1     -10.972  14.839  64.798  1.00  0.00    -0.533 NA 
HETATM    7  C   UNL     1     -11.834  14.030  64.182  1.00  0.00    -0.365 C  
HETATM    8  H   UNL     1     -10.761  12.375  65.630  1.00  0.00     0.000 HD 
HETATM    9  N   UNL     1     -12.568  13.293  63.669  1.00  0.00    -0.725 NA 
HETATM   10  H   UNL     1     -10.941  15.832  64.573  1.00  0.00     0.000 HD 
ENDROOT
BRANCH   5  11
HETATM   11  C   UNL     1      -9.223  12.458  67.085  1.00  0.00    -0.199 C  
BRANCH  11  12
HETATM   12  C   UNL     1      -9.925  11.550  68.098  1.00  0.00    -0.192 C  
BRANCH  12  13
HETATM   13  S   UNL     1     -11.644  12.151  68.229  1.00  0.00    -0.339 SA 
BRANCH  13  14
HETATM   14  C   UNL     1     -11.426  13.517  69.414  1.00  0.00    -0.282 C  
BRANCH  14  15
HETATM   15  C   UNL     1     -12.310  13.296  70.599  1.00  0.00    -0.339 A  
HETATM   16  C   UNL     1     -12.868  14.222  71.466  1.00  0.00    -0.346 A  
HETATM   17  C   UNL     1     -12.785  15.697  71.542  1.00  0.00    -0.522 C  
HETATM   18  N   UNL     1     -13.622  13.480  72.339  1.00  0.00    -0.581 NA 
HETATM   19  H   UNL     1     -14.179  13.844  73.112  1.00  0.00     0.000 HD 
HETATM   20  C   UNL     1     -13.495  12.167  71.990  1.00  0.00    -0.286 A  
HETATM   21  N   UNL     1     -12.701  12.021  70.956  1.00  0.00    -0.304 NA 
ENDBRANCH  14  15
ENDBRANCH  13  14
ENDBRANCH  12  13
ENDBRANCH  11  12
ENDBRANCH   5  11
TORSDOF 5
ENDMDL
MODEL       59
REMARK 921   NORMALIZED FREE ENERGY PREDICTED BY IDOCK:   -4.40 KCAL/MOL
REMARK 922        TOTAL FREE ENERGY PREDICTED BY IDOCK:   -6.66 KCAL/MOL
REMARK 923 INTER-LIGAND FREE ENERGY PREDICTED BY IDOCK:   -5.62 KCAL/MOL
REMARK 924 INTRA-LIGAND FREE ENERGY PREDICTED BY IDOCK:   -1.04 KCAL/MOL
REMARK 927      BINDING AFFINITY PREDICTED BY RF-SCORE:    0.00 PKD
ROOT
HETATM    1  C   UNL     1     -11.751  15.502  72.128  1.00  0.00    -0.476 C  
HETATM    2  N   UNL     1     -11.486  15.794  70.741  1.00  0.00    -0.360 NA 
HETATM    3  C   UNL     1     -11.442  14.860  69.746  1.00  0.00    -0.295 C  
HETATM    4  H   UNL     1     -11.319  16.767  70.484  1.00  0.00     0.000 HD 
HETATM    5  N   UNL     1     -11.133  15.378  68.510  1.00  0.00    -0.279 NA 
HETATM    6  N   UNL     1     -11.689  13.614  70.018  1.00  0.00    -0.436 NA 
HETATM    7  C   UNL     1     -11.650  12.721  69.029  1.00  0.00    -0.316 C  
HETATM    8  H   UNL     1     -11.096  14.720  67.731  1.00  0.00     0.000 HD 
HETATM    9  N   UNL     1     -11.606  11.976  68.141  1.00  0.00    -0.322 NA 
HETATM   10  H   UNL     1     -11.910  13.324  70.970  1.00  0.00     0.000 HD 
ENDROOT
BRANCH   5  11
HETATM   11  C   UNL     1     -10.853  16.770  68.203  1.00  0.00    -0.353 C  
BRANCH  11  12
HETATM   12  C   UNL     1      -9.784  16.963  67.123  1.00  0.00    -0.253 C  
BRANCH  12  13
HETATM   13  S   UNL     1      -9.240  15.292  66.627  1.00  0.00    -0.295 SA 
BRANCH  13  14
HETATM   14  C   UNL     1     -10.016  15.167  64.984  1.00  0.00    -0.143 C  
BRANCH  14  15
HETATM   15  C   UNL     1     -11.189  14.244  65.055  1.00  0.00    -0.364 A  
HETATM   16  C   UNL     1     -11.323  12.952  64.572  1.00  0.00    -0.341 A  
HETATM   17  C   UNL     1     -10.404  12.062  63.830  1.00  0.00    -0.457 C  
HETATM   18  N   UNL     1     -12.583  12.561  64.949  1.00  0.00    -0.653 NA 
HETATM   19  H   UNL     1     -13.014  11.656  64.760  1.00  0.00     0.000 HD 
HETATM   20  C   UNL     1     -13.158  13.600  65.621  1.00  0.00    -0.064 A  
HETATM   21  N   UNL     1     -12.351  14.633  65.690  1.00  0.00    -0.214 NA 
ENDBRANCH  14  15
ENDBRANCH  13  14
ENDBRANCH  12  13
ENDBRANCH  11  12
ENDBRANCH   5  11
TORSDOF 5
ENDMDL
MODEL       60
REMARK 921   NORMALIZED FREE ENERGY PREDICTED BY IDOCK:   -4.40 KCAL/MOL
REMARK 922        TOTAL FREE ENERGY PREDICTED BY IDOCK:   -6.65 KCAL/MOL
REMARK 923 INTER-LIGAND FREE ENERGY PREDICTED BY IDOCK:   -6.04 KCAL/MOL
REMARK 924 INTRA-LIGAND FREE ENERGY PREDICTED BY IDOCK:   -0.61 KCAL/MOL
REMARK 927      BINDING AFFINITY PREDICTED BY RF-SCORE:    0.00 PKD
ROOT
HETATM    1  C   UNL     1     -11.956  15.628  69.617  1.00  0.00    -0.349 C  
HETATM    2  N   UNL     1     -12.153  14.812  68.443  1.00  0.00    -0.585 NA 
HETATM    3  C   UNL     1     -11.886  13.475  68.374  1.00  0.00    -0.373 C  
HETATM    4  H   UNL     1     -12.516  15.266  67.605  1.00  0.00     0.000 HD 
HETATM    5  N   UNL     1     -12.119  12.924  67.135  1.00  0.00    -0.397 NA 
HETATM    6  N   UNL     1     -11.461  12.845  69.428  1.00  0.00    -0.374 NA 
HETATM    7  C   UNL     1     -11.216  11.538  69.340  1.00  0.00    -0.259 C  
HETATM    8  H   UNL     1     -11.942  11.924  67.035  1.00  0.00     0.000 HD 
HETATM    9  N   UNL     1     -11.015  10.401  69.221  1.00  0.00    -0.227 NA 
HETATM   10  H   UNL     1     -11.318  13.342  70.307  1.00  0.00     0.000 HD 
ENDROOT
BRANCH   5  11
HETATM   11  C   UNL     1     -12.591  13.626  65.954  1.00  0.00    -0.425 C  
BRANCH  11  12
HETATM   12  C   UNL     1     -11.562  13.693  64.822  1.00  0.00    -0.355 C  
BRANCH  12  13
HETATM   13  S   UNL     1     -11.178  15.461  64.575  1.00  0.00    -0.209 SA 
BRANCH  13  14
HETATM   14  C   UNL     1      -9.772  15.655  65.716  1.00  0.00    -0.345 C  
BRANCH  14  15
HETATM   15  C   UNL     1      -9.848  16.993  66.379  1.00  0.00    -0.299 A  
HETATM   16  C   UNL     1      -9.305  17.410  67.583  1.00  0.00    -0.245 A  
HETATM   17  C   UNL     1      -8.503  16.714  68.613  1.00  0.00    -0.253 C  
HETATM   18  N   UNL     1      -9.643  18.736  67.683  1.00  0.00    -0.302 NA 
HETATM   19  H   UNL     1      -9.398  19.363  68.450  1.00  0.00     0.000 HD 
HETATM   20  C   UNL     1     -10.364  19.068  66.574  1.00  0.00    -0.439 A  
HETATM   21  N   UNL     1     -10.519  18.038  65.776  1.00  0.00    -0.601 NA 
ENDBRANCH  14  15
ENDBRANCH  13  14
ENDBRANCH  12  13
ENDBRANCH  11  12
ENDBRANCH   5  11
TORSDOF 5
ENDMDL
MODEL       61
REMARK 921   NORMALIZED FREE ENERGY PREDICTED BY IDOCK:   -4.40 KCAL/MOL
REMARK 922        TOTAL FREE ENERGY PREDICTED BY IDOCK:   -6.64 KCAL/MOL
REMARK 923 INTER-LIGAND FREE ENERGY PREDICTED BY IDOCK:   -6.36 KCAL/MOL
REMARK 924 INTRA-LIGAND FREE ENERGY PREDICTED BY IDOCK:   -0.29 KCAL/MOL
REMARK 927      BINDING AFFINITY PREDICTED BY RF-SCORE:    0.00 PKD
ROOT
HETATM    1  C   UNL     1     -14.309   7.477  71.585  1.00  0.00    -0.477 C  
HETATM    2  N   UNL     1     -13.006   7.547  70.971  1.00  0.00    -0.574 NA 
HETATM    3  C   UNL     1     -11.824   7.447  71.646  1.00  0.00    -0.291 C  
HETATM    4  H   UNL     1     -12.965   7.682  69.960  1.00  0.00     0.000 HD 
HETATM    5  N   UNL     1     -10.713   7.583  70.845  1.00  0.00    -0.232 NA 
HETATM    6  N   UNL     1     -11.827   7.234  72.927  1.00  0.00    -0.545 NA 
HETATM    7  C   UNL     1     -10.660   7.131  73.564  1.00  0.00    -0.374 C  
HETATM    8  H   UNL     1      -9.804   7.508  71.303  1.00  0.00     0.000 HD 
HETATM    9  N   UNL     1      -9.625   7.047  74.080  1.00  0.00    -0.263 NA 
HETATM   10  H   UNL     1     -12.706   7.148  73.437  1.00  0.00     0.000 HD 
ENDROOT
BRANCH   5  11
HETATM   11  C   UNL     1     -10.706   7.825  69.413  1.00  0.00    -0.171 C  
BRANCH  11  12
HETATM   12  C   UNL     1      -9.760   8.948  68.979  1.00  0.00    -0.171 C  
BRANCH  12  13
HETATM   13  S   UNL     1     -10.684   9.969  67.780  1.00  0.00    -0.280 SA 
BRANCH  13  14
HETATM   14  C   UNL     1     -11.418  11.206  68.897  1.00  0.00    -0.295 C  
BRANCH  14  15
HETATM   15  C   UNL     1     -11.797  12.422  68.115  1.00  0.00    -0.315 A  
HETATM   16  C   UNL     1     -11.957  13.730  68.544  1.00  0.00    -0.367 A  
HETATM   17  C   UNL     1     -11.835  14.368  69.873  1.00  0.00    -0.382 C  
HETATM   18  N   UNL     1     -12.263  14.440  67.411  1.00  0.00    -0.617 NA 
HETATM   19  H   UNL     1     -12.441  15.443  67.359  1.00  0.00     0.000 HD 
HETATM   20  C   UNL     1     -12.284  13.566  66.364  1.00  0.00    -0.400 A  
HETATM   21  N   UNL     1     -12.023  12.341  66.755  1.00  0.00    -0.605 NA 
ENDBRANCH  14  15
ENDBRANCH  13  14
ENDBRANCH  12  13
ENDBRANCH  11  12
ENDBRANCH   5  11
TORSDOF 5
ENDMDL
MODEL       62
REMARK 921   NORMALIZED FREE ENERGY PREDICTED BY IDOCK:   -4.39 KCAL/MOL
REMARK 922        TOTAL FREE ENERGY PREDICTED BY IDOCK:   -6.64 KCAL/MOL
REMARK 923 INTER-LIGAND FREE ENERGY PREDICTED BY IDOCK:   -6.46 KCAL/MOL
REMARK 924 INTRA-LIGAND FREE ENERGY PREDICTED BY IDOCK:   -0.19 KCAL/MOL
REMARK 927      BINDING AFFINITY PREDICTED BY RF-SCORE:    0.00 PKD
ROOT
HETATM    1  C   UNL     1     -10.960   6.317  69.062  1.00  0.00    -0.372 C  
HETATM    2  N   UNL     1     -10.829   7.745  69.225  1.00  0.00    -0.400 NA 
HETATM    3  C   UNL     1     -11.569   8.498  70.090  1.00  0.00     0.097 C  
HETATM    4  H   UNL     1     -10.134   8.225  68.654  1.00  0.00     0.000 HD 
HETATM    5  N   UNL     1     -11.287   9.843  70.037  1.00  0.00    -0.283 NA 
HETATM    6  N   UNL     1     -12.437   7.923  70.868  1.00  0.00    -0.514 NA 
HETATM    7  C   UNL     1     -13.141   8.678  71.712  1.00  0.00    -0.361 C  
HETATM    8  H   UNL     1     -11.810  10.448  70.672  1.00  0.00     0.000 HD 
HETATM    9  N   UNL     1     -13.734   9.369  72.431  1.00  0.00    -0.447 NA 
HETATM   10  H   UNL     1     -12.576   6.914  70.834  1.00  0.00     0.000 HD 
ENDROOT
BRANCH   5  11
HETATM   11  C   UNL     1     -10.321  10.489  69.167  1.00  0.00    -0.220 C  
BRANCH  11  12
HETATM   12  C   UNL     1     -10.861  10.807  67.770  1.00  0.00    -0.269 C  
BRANCH  12  13
HETATM   13  S   UNL     1     -10.331  12.512  67.385  1.00  0.00    -0.217 SA 
BRANCH  13  14
HETATM   14  C   UNL     1     -11.932  13.266  66.956  1.00  0.00    -0.365 C  
BRANCH  14  15
HETATM   15  C   UNL     1     -12.122  13.224  65.473  1.00  0.00    -0.435 A  
HETATM   16  C   UNL     1     -11.982  14.238  64.540  1.00  0.00    -0.462 A  
HETATM   17  C   UNL     1     -11.628  15.669  64.663  1.00  0.00    -0.249 C  
HETATM   18  N   UNL     1     -12.230  13.642  63.329  1.00  0.00    -1.063 NA 
HETATM   19  H   UNL     1     -12.209  14.099  62.418  1.00  0.00     0.000 HD 
HETATM   20  C   UNL     1     -12.511  12.327  63.562  1.00  0.00    -0.534 A  
HETATM   21  N   UNL     1     -12.469  12.046  64.843  1.00  0.00    -0.362 NA 
ENDBRANCH  14  15
ENDBRANCH  13  14
ENDBRANCH  12  13
ENDBRANCH  11  12
ENDBRANCH   5  11
TORSDOF 5
ENDMDL
MODEL       63
REMARK 921   NORMALIZED FREE ENERGY PREDICTED BY IDOCK:   -4.38 KCAL/MOL
REMARK 922        TOTAL FREE ENERGY PREDICTED BY IDOCK:   -6.63 KCAL/MOL
REMARK 923 INTER-LIGAND FREE ENERGY PREDICTED BY IDOCK:   -6.34 KCAL/MOL
REMARK 924 INTRA-LIGAND FREE ENERGY PREDICTED BY IDOCK:   -0.29 KCAL/MOL
REMARK 927      BINDING AFFINITY PREDICTED BY RF-SCORE:    0.00 PKD
ROOT
HETATM    1  C   UNL     1      -8.456   9.957  62.690  1.00  0.00    -0.169 C  
HETATM    2  N   UNL     1      -9.067  10.050  63.993  1.00  0.00    -0.240 NA 
HETATM    3  C   UNL     1     -10.225  10.722  64.261  1.00  0.00    -0.354 C  
HETATM    4  H   UNL     1      -8.602   9.579  64.770  1.00  0.00     0.000 HD 
HETATM    5  N   UNL     1     -10.587  10.699  65.588  1.00  0.00    -0.161 NA 
HETATM    6  N   UNL     1     -10.874  11.302  63.296  1.00  0.00    -0.785 NA 
HETATM    7  C   UNL     1     -12.006  11.945  63.580  1.00  0.00    -0.476 C  
HETATM    8  H   UNL     1     -11.451  11.182  65.838  1.00  0.00     0.000 HD 
HETATM    9  N   UNL     1     -12.987  12.494  63.869  1.00  0.00    -0.750 NA 
HETATM   10  H   UNL     1     -10.524  11.265  62.340  1.00  0.00     0.000 HD 
ENDROOT
BRANCH   5  11
HETATM   11  C   UNL     1      -9.862  10.055  66.669  1.00  0.00    -0.203 C  
BRANCH  11  12
HETATM   12  C   UNL     1     -10.518  10.226  68.042  1.00  0.00    -0.196 C  
BRANCH  12  13
HETATM   13  S   UNL     1     -11.427  11.809  67.989  1.00  0.00    -0.324 SA 
BRANCH  13  14
HETATM   14  C   UNL     1     -11.903  11.975  69.739  1.00  0.00    -0.331 C  
BRANCH  14  15
HETATM   15  C   UNL     1     -12.179  13.411  70.048  1.00  0.00    -0.298 A  
HETATM   16  C   UNL     1     -12.758  13.974  71.174  1.00  0.00    -0.364 A  
HETATM   17  C   UNL     1     -13.304  13.386  72.417  1.00  0.00    -0.629 C  
HETATM   18  N   UNL     1     -12.727  15.327  70.949  1.00  0.00    -0.401 NA 
HETATM   19  H   UNL     1     -13.070  16.049  71.582  1.00  0.00     0.000 HD 
HETATM   20  C   UNL     1     -12.154  15.534  69.729  1.00  0.00    -0.349 A  
HETATM   21  N   UNL     1     -11.826  14.402  69.153  1.00  0.00    -0.308 NA 
ENDBRANCH  14  15
ENDBRANCH  13  14
ENDBRANCH  12  13
ENDBRANCH  11  12
ENDBRANCH   5  11
TORSDOF 5
ENDMDL
MODEL       64
REMARK 921   NORMALIZED FREE ENERGY PREDICTED BY IDOCK:   -4.38 KCAL/MOL
REMARK 922        TOTAL FREE ENERGY PREDICTED BY IDOCK:   -6.62 KCAL/MOL
REMARK 923 INTER-LIGAND FREE ENERGY PREDICTED BY IDOCK:   -6.35 KCAL/MOL
REMARK 924 INTRA-LIGAND FREE ENERGY PREDICTED BY IDOCK:   -0.27 KCAL/MOL
REMARK 927      BINDING AFFINITY PREDICTED BY RF-SCORE:    0.00 PKD
ROOT
HETATM    1  C   UNL     1     -10.630  19.637  65.866  1.00  0.00    -0.466 C  
HETATM    2  N   UNL     1     -10.542  18.699  66.959  1.00  0.00    -0.407 NA 
HETATM    3  C   UNL     1      -9.470  18.582  67.796  1.00  0.00    -0.289 C  
HETATM    4  H   UNL     1     -11.337  18.080  67.118  1.00  0.00     0.000 HD 
HETATM    5  N   UNL     1      -9.606  17.589  68.738  1.00  0.00    -0.292 NA 
HETATM    6  N   UNL     1      -8.452  19.377  67.657  1.00  0.00    -0.297 NA 
HETATM    7  C   UNL     1      -7.420  19.250  68.492  1.00  0.00    -0.325 C  
HETATM    8  H   UNL     1      -8.833  17.468  69.393  1.00  0.00     0.000 HD 
HETATM    9  N   UNL     1      -6.543  19.107  69.238  1.00  0.00    -0.298 NA 
HETATM   10  H   UNL     1      -8.442  20.085  66.924  1.00  0.00     0.000 HD 
ENDROOT
BRANCH   5  11
HETATM   11  C   UNL     1     -10.741  16.696  68.893  1.00  0.00    -0.337 C  
BRANCH  11  12
HETATM   12  C   UNL     1     -10.386  15.214  68.753  1.00  0.00    -0.236 C  
BRANCH  12  13
HETATM   13  S   UNL     1     -10.328  14.861  66.962  1.00  0.00    -0.267 SA 
BRANCH  13  14
HETATM   14  C   UNL     1     -11.886  13.941  66.757  1.00  0.00    -0.424 C  
BRANCH  14  15
HETATM   15  C   UNL     1     -12.081  13.606  65.313  1.00  0.00    -0.406 A  
HETATM   16  C   UNL     1     -12.174  14.450  64.219  1.00  0.00    -0.423 A  
HETATM   17  C   UNL     1     -12.134  15.923  64.086  1.00  0.00     0.175 C  
HETATM   18  N   UNL     1     -12.303  13.616  63.137  1.00  0.00    -1.076 NA 
HETATM   19  H   UNL     1     -12.392  13.904  62.163  1.00  0.00     0.000 HD 
HETATM   20  C   UNL     1     -12.292  12.332  63.597  1.00  0.00    -0.562 A  
HETATM   21  N   UNL     1     -12.174  12.291  64.903  1.00  0.00    -0.421 NA 
ENDBRANCH  14  15
ENDBRANCH  13  14
ENDBRANCH  12  13
ENDBRANCH  11  12
ENDBRANCH   5  11
TORSDOF 5
ENDMDL
MODEL       65
REMARK 921   NORMALIZED FREE ENERGY PREDICTED BY IDOCK:   -4.37 KCAL/MOL
REMARK 922        TOTAL FREE ENERGY PREDICTED BY IDOCK:   -6.61 KCAL/MOL
REMARK 923 INTER-LIGAND FREE ENERGY PREDICTED BY IDOCK:   -6.27 KCAL/MOL
REMARK 924 INTRA-LIGAND FREE ENERGY PREDICTED BY IDOCK:   -0.34 KCAL/MOL
REMARK 927      BINDING AFFINITY PREDICTED BY RF-SCORE:    0.00 PKD
ROOT
HETATM    1  C   UNL     1     -12.986  10.559  71.944  1.00  0.00    -0.447 C  
HETATM    2  N   UNL     1     -11.912  10.446  70.988  1.00  0.00    -0.367 NA 
HETATM    3  C   UNL     1     -11.459   9.268  70.466  1.00  0.00    -0.248 C  
HETATM    4  H   UNL     1     -11.458  11.306  70.679  1.00  0.00     0.000 HD 
HETATM    5  N   UNL     1     -10.398   9.414  69.602  1.00  0.00    -0.205 NA 
HETATM    6  N   UNL     1     -12.033   8.151  70.798  1.00  0.00    -0.471 NA 
HETATM    7  C   UNL     1     -11.579   7.014  70.269  1.00  0.00    -0.262 C  
HETATM    8  H   UNL     1     -10.029   8.562  69.179  1.00  0.00     0.000 HD 
HETATM    9  N   UNL     1     -11.155   6.048  69.787  1.00  0.00    -0.397 NA 
HETATM   10  H   UNL     1     -12.816   8.143  71.451  1.00  0.00     0.000 HD 
ENDROOT
BRANCH   5  11
HETATM   11  C   UNL     1      -9.752  10.661  69.232  1.00  0.00    -0.160 C  
BRANCH  11  12
HETATM   12  C   UNL     1      -9.948  11.048  67.764  1.00  0.00    -0.173 C  
BRANCH  12  13
HETATM   13  S   UNL     1     -11.362  12.202  67.716  1.00  0.00    -0.330 SA 
BRANCH  13  14
HETATM   14  C   UNL     1     -10.702  13.487  66.607  1.00  0.00    -0.282 C  
BRANCH  14  15
HETATM   15  C   UNL     1     -11.380  13.397  65.278  1.00  0.00    -0.296 A  
HETATM   16  C   UNL     1     -11.664  14.400  64.365  1.00  0.00    -0.375 A  
HETATM   17  C   UNL     1     -11.426  15.860  64.377  1.00  0.00    -0.268 C  
HETATM   18  N   UNL     1     -12.252  13.758  63.305  1.00  0.00    -1.096 NA 
HETATM   19  H   UNL     1     -12.585  14.196  62.446  1.00  0.00     0.000 HD 
HETATM   20  C   UNL     1     -12.310  12.428  63.603  1.00  0.00    -0.548 A  
HETATM   21  N   UNL     1     -11.808  12.179  64.790  1.00  0.00    -0.344 NA 
ENDBRANCH  14  15
ENDBRANCH  13  14
ENDBRANCH  12  13
ENDBRANCH  11  12
ENDBRANCH   5  11
TORSDOF 5
ENDMDL
MODEL       66
REMARK 921   NORMALIZED FREE ENERGY PREDICTED BY IDOCK:   -4.37 KCAL/MOL
REMARK 922        TOTAL FREE ENERGY PREDICTED BY IDOCK:   -6.61 KCAL/MOL
REMARK 923 INTER-LIGAND FREE ENERGY PREDICTED BY IDOCK:   -6.12 KCAL/MOL
REMARK 924 INTRA-LIGAND FREE ENERGY PREDICTED BY IDOCK:   -0.48 KCAL/MOL
REMARK 927      BINDING AFFINITY PREDICTED BY RF-SCORE:    0.00 PKD
ROOT
HETATM    1  C   UNL     1     -12.746  13.792  65.326  1.00  0.00    -0.439 C  
HETATM    2  N   UNL     1     -12.345  14.266  66.628  1.00  0.00    -0.541 NA 
HETATM    3  C   UNL     1     -11.914  13.465  67.646  1.00  0.00    -0.322 C  
HETATM    4  H   UNL     1     -12.387  15.270  66.801  1.00  0.00     0.000 HD 
HETATM    5  N   UNL     1     -11.625  14.147  68.806  1.00  0.00    -0.304 NA 
HETATM    6  N   UNL     1     -11.805  12.184  67.460  1.00  0.00    -0.553 NA 
HETATM    7  C   UNL     1     -11.373  11.423  68.466  1.00  0.00    -0.271 C  
HETATM    8  H   UNL     1     -11.290  13.592  69.594  1.00  0.00     0.000 HD 
HETATM    9  N   UNL     1     -10.994  10.796  69.365  1.00  0.00    -0.237 NA 
HETATM   10  H   UNL     1     -12.045  11.768  66.561  1.00  0.00     0.000 HD 
ENDROOT
BRANCH   5  11
HETATM   11  C   UNL     1     -11.748  15.578  69.019  1.00  0.00    -0.377 C  
BRANCH  11  12
HETATM   12  C   UNL     1     -10.484  16.232  69.581  1.00  0.00    -0.294 C  
BRANCH  12  13
HETATM   13  S   UNL     1      -9.210  16.104  68.279  1.00  0.00    -0.202 SA 
BRANCH  13  14
HETATM   14  C   UNL     1     -10.030  17.006  66.926  1.00  0.00    -0.289 C  
BRANCH  14  15
HETATM   15  C   UNL     1      -9.621  18.443  66.965  1.00  0.00    -0.298 A  
HETATM   16  C   UNL     1      -8.416  19.025  66.604  1.00  0.00    -0.304 A  
HETATM   17  C   UNL     1      -7.148  18.463  66.090  1.00  0.00    -0.300 C  
HETATM   18  N   UNL     1      -8.601  20.371  66.797  1.00  0.00    -0.516 NA 
HETATM   19  H   UNL     1      -7.913  21.103  66.625  1.00  0.00     0.000 HD 
HETATM   20  C   UNL     1      -9.871  20.555  67.262  1.00  0.00    -0.441 A  
HETATM   21  N   UNL     1     -10.506  19.414  67.388  1.00  0.00    -0.437 NA 
ENDBRANCH  14  15
ENDBRANCH  13  14
ENDBRANCH  12  13
ENDBRANCH  11  12
ENDBRANCH   5  11
TORSDOF 5
ENDMDL
MODEL       67
REMARK 921   NORMALIZED FREE ENERGY PREDICTED BY IDOCK:   -4.37 KCAL/MOL
REMARK 922        TOTAL FREE ENERGY PREDICTED BY IDOCK:   -6.61 KCAL/MOL
REMARK 923 INTER-LIGAND FREE ENERGY PREDICTED BY IDOCK:   -6.05 KCAL/MOL
REMARK 924 INTRA-LIGAND FREE ENERGY PREDICTED BY IDOCK:   -0.56 KCAL/MOL
REMARK 927      BINDING AFFINITY PREDICTED BY RF-SCORE:    0.00 PKD
ROOT
HETATM    1  C   UNL     1     -10.588   6.793  68.819  1.00  0.00    -0.226 C  
HETATM    2  N   UNL     1     -11.048   8.159  68.778  1.00  0.00    -0.376 NA 
HETATM    3  C   UNL     1     -10.827   9.022  67.744  1.00  0.00    -0.057 C  
HETATM    4  H   UNL     1     -11.577   8.506  69.579  1.00  0.00     0.000 HD 
HETATM    5  N   UNL     1     -11.332  10.284  67.954  1.00  0.00    -0.575 NA 
HETATM    6  N   UNL     1     -10.195   8.613  66.685  1.00  0.00    -0.289 NA 
HETATM    7  C   UNL     1      -9.998   9.470  65.683  1.00  0.00    -0.199 C  
HETATM    8  H   UNL     1     -11.198  10.964  67.204  1.00  0.00     0.000 HD 
HETATM    9  N   UNL     1      -9.847  10.246  64.834  1.00  0.00    -0.321 NA 
HETATM   10  H   UNL     1      -9.856   7.653  66.621  1.00  0.00     0.000 HD 
ENDROOT
BRANCH   5  11
HETATM   11  C   UNL     1     -12.036  10.746  69.137  1.00  0.00    -0.230 C  
BRANCH  11  12
HETATM   12  C   UNL     1     -11.982  12.263  69.337  1.00  0.00    -0.259 C  
BRANCH  12  13
HETATM   13  S   UNL     1     -10.746  12.898  68.154  1.00  0.00    -0.249 SA 
BRANCH  13  14
HETATM   14  C   UNL     1     -11.745  14.135  67.265  1.00  0.00    -0.392 C  
BRANCH  14  15
HETATM   15  C   UNL     1     -11.931  13.700  65.847  1.00  0.00    -0.405 A  
HETATM   16  C   UNL     1     -11.790  14.431  64.678  1.00  0.00    -0.451 A  
HETATM   17  C   UNL     1     -11.438  15.844  64.417  1.00  0.00    -0.268 C  
HETATM   18  N   UNL     1     -12.034  13.533  63.668  1.00  0.00    -0.719 NA 
HETATM   19  H   UNL     1     -12.010  13.732  62.668  1.00  0.00     0.000 HD 
HETATM   20  C   UNL     1     -12.313  12.327  64.241  1.00  0.00    -0.427 A  
HETATM   21  N   UNL     1     -12.274  12.397  65.551  1.00  0.00    -0.604 NA 
ENDBRANCH  14  15
ENDBRANCH  13  14
ENDBRANCH  12  13
ENDBRANCH  11  12
ENDBRANCH   5  11
TORSDOF 5
ENDMDL
MODEL       68
REMARK 921   NORMALIZED FREE ENERGY PREDICTED BY IDOCK:   -4.35 KCAL/MOL
REMARK 922        TOTAL FREE ENERGY PREDICTED BY IDOCK:   -6.59 KCAL/MOL
REMARK 923 INTER-LIGAND FREE ENERGY PREDICTED BY IDOCK:   -6.22 KCAL/MOL
REMARK 924 INTRA-LIGAND FREE ENERGY PREDICTED BY IDOCK:   -0.37 KCAL/MOL
REMARK 927      BINDING AFFINITY PREDICTED BY RF-SCORE:    0.00 PKD
ROOT
HETATM    1  C   UNL     1     -14.134   8.195  71.948  1.00  0.00    -0.415 C  
HETATM    2  N   UNL     1     -13.341   9.130  71.188  1.00  0.00    -0.547 NA 
HETATM    3  C   UNL     1     -11.988   9.270  71.300  1.00  0.00    -0.340 C  
HETATM    4  H   UNL     1     -13.826   9.729  70.520  1.00  0.00     0.000 HD 
HETATM    5  N   UNL     1     -11.463  10.256  70.497  1.00  0.00    -0.321 NA 
HETATM    6  N   UNL     1     -11.323   8.500  72.107  1.00  0.00    -0.352 NA 
HETATM    7  C   UNL     1     -10.001   8.649  72.193  1.00  0.00    -0.316 C  
HETATM    8  H   UNL     1     -10.453  10.394  70.538  1.00  0.00     0.000 HD 
HETATM    9  N   UNL     1      -8.853   8.810  72.238  1.00  0.00    -0.395 NA 
HETATM   10  H   UNL     1     -11.803   7.795  72.665  1.00  0.00     0.000 HD 
ENDROOT
BRANCH   5  11
HETATM   11  C   UNL     1     -12.204  11.121  69.595  1.00  0.00    -0.290 C  
BRANCH  11  12
HETATM   12  C   UNL     1     -11.526  11.329  68.239  1.00  0.00    -0.308 C  
BRANCH  12  13
HETATM   13  S   UNL     1     -10.620  12.911  68.349  1.00  0.00    -0.256 SA 
BRANCH  13  14
HETATM   14  C   UNL     1     -12.008  14.089  68.307  1.00  0.00    -0.349 C  
BRANCH  14  15
HETATM   15  C   UNL     1     -12.048  14.859  69.588  1.00  0.00    -0.295 A  
HETATM   16  C   UNL     1     -11.364  16.011  69.943  1.00  0.00    -0.340 A  
HETATM   17  C   UNL     1     -10.379  16.851  69.227  1.00  0.00    -0.298 C  
HETATM   18  N   UNL     1     -11.806  16.309  71.207  1.00  0.00    -0.636 NA 
HETATM   19  H   UNL     1     -11.512  17.103  71.775  1.00  0.00     0.000 HD 
HETATM   20  C   UNL     1     -12.710  15.354  71.569  1.00  0.00    -0.411 A  
HETATM   21  N   UNL     1     -12.867  14.458  70.623  1.00  0.00    -0.349 NA 
ENDBRANCH  14  15
ENDBRANCH  13  14
ENDBRANCH  12  13
ENDBRANCH  11  12
ENDBRANCH   5  11
TORSDOF 5
ENDMDL
MODEL       69
REMARK 921   NORMALIZED FREE ENERGY PREDICTED BY IDOCK:   -4.35 KCAL/MOL
REMARK 922        TOTAL FREE ENERGY PREDICTED BY IDOCK:   -6.59 KCAL/MOL
REMARK 923 INTER-LIGAND FREE ENERGY PREDICTED BY IDOCK:   -6.30 KCAL/MOL
REMARK 924 INTRA-LIGAND FREE ENERGY PREDICTED BY IDOCK:   -0.29 KCAL/MOL
REMARK 927      BINDING AFFINITY PREDICTED BY RF-SCORE:    0.00 PKD
ROOT
HETATM    1  C   UNL     1     -14.226  15.199  71.855  1.00  0.00    -0.579 C  
HETATM    2  N   UNL     1     -13.296  15.218  70.752  1.00  0.00    -0.684 NA 
HETATM    3  C   UNL     1     -12.556  14.147  70.343  1.00  0.00    -0.332 C  
HETATM    4  H   UNL     1     -13.184  16.094  70.241  1.00  0.00     0.000 HD 
HETATM    5  N   UNL     1     -11.712  14.423  69.292  1.00  0.00    -0.297 NA 
HETATM    6  N   UNL     1     -12.696  12.999  70.936  1.00  0.00    -0.266 NA 
HETATM    7  C   UNL     1     -11.970  11.965  70.513  1.00  0.00    -0.267 C  
HETATM    8  H   UNL     1     -11.143  13.650  68.944  1.00  0.00     0.000 HD 
HETATM    9  N   UNL     1     -11.320  11.090  70.115  1.00  0.00    -0.281 NA 
HETATM   10  H   UNL     1     -13.351  12.892  71.710  1.00  0.00     0.000 HD 
ENDROOT
BRANCH   5  11
HETATM   11  C   UNL     1     -11.551  15.704  68.628  1.00  0.00    -0.382 C  
BRANCH  11  12
HETATM   12  C   UNL     1     -10.699  15.641  67.358  1.00  0.00    -0.309 C  
BRANCH  12  13
HETATM   13  S   UNL     1      -9.055  16.300  67.802  1.00  0.00    -0.195 SA 
BRANCH  13  14
HETATM   14  C   UNL     1      -9.535  17.825  68.674  1.00  0.00    -0.283 C  
BRANCH  14  15
HETATM   15  C   UNL     1      -8.900  19.002  68.006  1.00  0.00    -0.309 A  
HETATM   16  C   UNL     1      -9.319  19.716  66.895  1.00  0.00    -0.355 A  
HETATM   17  C   UNL     1     -10.484  19.572  65.995  1.00  0.00    -0.611 C  
HETATM   18  N   UNL     1      -8.391  20.716  66.746  1.00  0.00    -0.558 NA 
HETATM   19  H   UNL     1      -8.394  21.436  66.024  1.00  0.00     0.000 HD 
HETATM   20  C   UNL     1      -7.464  20.576  67.736  1.00  0.00    -0.241 A  
HETATM   21  N   UNL     1      -7.732  19.545  68.503  1.00  0.00    -0.346 NA 
ENDBRANCH  14  15
ENDBRANCH  13  14
ENDBRANCH  12  13
ENDBRANCH  11  12
ENDBRANCH   5  11
TORSDOF 5
ENDMDL
MODEL       70
REMARK 921   NORMALIZED FREE ENERGY PREDICTED BY IDOCK:   -4.34 KCAL/MOL
REMARK 922        TOTAL FREE ENERGY PREDICTED BY IDOCK:   -6.57 KCAL/MOL
REMARK 923 INTER-LIGAND FREE ENERGY PREDICTED BY IDOCK:   -6.07 KCAL/MOL
REMARK 924 INTRA-LIGAND FREE ENERGY PREDICTED BY IDOCK:   -0.49 KCAL/MOL
REMARK 927      BINDING AFFINITY PREDICTED BY RF-SCORE:    0.00 PKD
ROOT
HETATM    1  C   UNL     1     -12.294  15.713  70.204  1.00  0.00    -0.336 C  
HETATM    2  N   UNL     1     -11.923  14.922  69.056  1.00  0.00    -0.476 NA 
HETATM    3  C   UNL     1     -11.320  15.416  67.935  1.00  0.00    -0.325 C  
HETATM    4  H   UNL     1     -12.126  13.923  69.083  1.00  0.00     0.000 HD 
HETATM    5  N   UNL     1     -11.102  14.471  66.959  1.00  0.00    -0.313 NA 
HETATM    6  N   UNL     1     -11.005  16.675  67.872  1.00  0.00    -0.318 NA 
HETATM    7  C   UNL     1     -10.409  17.133  66.772  1.00  0.00    -0.302 C  
HETATM    8  H   UNL     1     -10.645  14.791  66.104  1.00  0.00     0.000 HD 
HETATM    9  N   UNL     1      -9.891  17.492  65.797  1.00  0.00    -0.551 NA 
HETATM   10  H   UNL     1     -11.209  17.300  68.651  1.00  0.00     0.000 HD 
ENDROOT
BRANCH   5  11
HETATM   11  C   UNL     1     -11.456  13.064  67.025  1.00  0.00    -0.333 C  
BRANCH  11  12
HETATM   12  C   UNL     1     -10.424  12.199  67.753  1.00  0.00    -0.205 C  
BRANCH  12  13
HETATM   13  S   UNL     1     -11.216  10.579  68.041  1.00  0.00    -0.242 SA 
BRANCH  13  14
HETATM   14  C   UNL     1     -10.749  10.289  69.777  1.00  0.00    -0.285 C  
BRANCH  14  15
HETATM   15  C   UNL     1     -11.844  10.766  70.675  1.00  0.00    -0.360 A  
HETATM   16  C   UNL     1     -12.632  10.049  71.561  1.00  0.00    -0.425 A  
HETATM   17  C   UNL     1     -12.686   8.613  71.915  1.00  0.00    -0.413 C  
HETATM   18  N   UNL     1     -13.441  10.985  72.154  1.00  0.00    -0.529 NA 
HETATM   19  H   UNL     1     -14.146  10.804  72.868  1.00  0.00     0.000 HD 
HETATM   20  C   UNL     1     -13.133  12.202  71.620  1.00  0.00    -0.310 A  
HETATM   21  N   UNL     1     -12.186  12.103  70.716  1.00  0.00    -0.351 NA 
ENDBRANCH  14  15
ENDBRANCH  13  14
ENDBRANCH  12  13
ENDBRANCH  11  12
ENDBRANCH   5  11
TORSDOF 5
ENDMDL
MODEL       71
REMARK 921   NORMALIZED FREE ENERGY PREDICTED BY IDOCK:   -4.30 KCAL/MOL
REMARK 922        TOTAL FREE ENERGY PREDICTED BY IDOCK:   -6.52 KCAL/MOL
REMARK 923 INTER-LIGAND FREE ENERGY PREDICTED BY IDOCK:   -6.18 KCAL/MOL
REMARK 924 INTRA-LIGAND FREE ENERGY PREDICTED BY IDOCK:   -0.33 KCAL/MOL
REMARK 927      BINDING AFFINITY PREDICTED BY RF-SCORE:    0.00 PKD
ROOT
HETATM    1  C   UNL     1     -12.506  12.041  63.580  1.00  0.00    -0.540 C  
HETATM    2  N   UNL     1     -11.906  13.150  64.282  1.00  0.00    -0.383 NA 
HETATM    3  C   UNL     1     -11.689  13.189  65.629  1.00  0.00    -0.364 C  
HETATM    4  H   UNL     1     -11.624  13.962  63.733  1.00  0.00     0.000 HD 
HETATM    5  N   UNL     1     -11.139  14.371  66.069  1.00  0.00    -0.318 NA 
HETATM    6  N   UNL     1     -11.994  12.162  66.363  1.00  0.00    -0.621 NA 
HETATM    7  C   UNL     1     -11.765  12.220  67.675  1.00  0.00    -0.334 C  
HETATM    8  H   UNL     1     -10.950  14.446  67.069  1.00  0.00     0.000 HD 
HETATM    9  N   UNL     1     -11.550  12.310  68.812  1.00  0.00    -0.306 NA 
HETATM   10  H   UNL     1     -12.400  11.326  65.944  1.00  0.00     0.000 HD 
ENDROOT
BRANCH   5  11
HETATM   11  C   UNL     1     -10.800  15.523  65.252  1.00  0.00    -0.411 C  
BRANCH  11  12
HETATM   12  C   UNL     1      -9.581  16.301  65.753  1.00  0.00    -0.231 C  
BRANCH  12  13
HETATM   13  S   UNL     1      -9.515  16.054  67.561  1.00  0.00    -0.224 SA 
BRANCH  13  14
HETATM   14  C   UNL     1     -10.560  17.436  68.121  1.00  0.00    -0.376 C  
BRANCH  14  15
HETATM   15  C   UNL     1     -10.180  18.679  67.382  1.00  0.00    -0.384 A  
HETATM   16  C   UNL     1      -9.040  19.458  67.497  1.00  0.00    -0.302 A  
HETATM   17  C   UNL     1      -7.845  19.359  68.364  1.00  0.00    -0.377 C  
HETATM   18  N   UNL     1      -9.189  20.446  66.557  1.00  0.00    -0.604 NA 
HETATM   19  H   UNL     1      -8.527  21.197  66.363  1.00  0.00     0.000 HD 
HETATM   20  C   UNL     1     -10.382  20.245  65.926  1.00  0.00    -0.218 A  
HETATM   21  N   UNL     1     -11.010  19.199  66.409  1.00  0.00    -0.191 NA 
ENDBRANCH  14  15
ENDBRANCH  13  14
ENDBRANCH  12  13
ENDBRANCH  11  12
ENDBRANCH   5  11
TORSDOF 5
ENDMDL
MODEL       72
REMARK 921   NORMALIZED FREE ENERGY PREDICTED BY IDOCK:   -4.29 KCAL/MOL
REMARK 922        TOTAL FREE ENERGY PREDICTED BY IDOCK:   -6.51 KCAL/MOL
REMARK 923 INTER-LIGAND FREE ENERGY PREDICTED BY IDOCK:   -6.24 KCAL/MOL
REMARK 924 INTRA-LIGAND FREE ENERGY PREDICTED BY IDOCK:   -0.28 KCAL/MOL
REMARK 927      BINDING AFFINITY PREDICTED BY RF-SCORE:    0.00 PKD
ROOT
HETATM    1  C   UNL     1     -10.240  17.764  68.653  1.00  0.00    -0.377 C  
HETATM    2  N   UNL     1     -10.952  16.627  68.123  1.00  0.00    -0.351 NA 
HETATM    3  C   UNL     1     -11.761  15.807  68.856  1.00  0.00    -0.394 C  
HETATM    4  H   UNL     1     -10.843  16.419  67.130  1.00  0.00     0.000 HD 
HETATM    5  N   UNL     1     -12.299  14.767  68.135  1.00  0.00    -0.572 NA 
HETATM    6  N   UNL     1     -11.963  16.056  70.115  1.00  0.00    -0.375 NA 
HETATM    7  C   UNL     1     -12.765  15.248  70.809  1.00  0.00    -0.433 C  
HETATM    8  H   UNL     1     -12.919  14.130  68.638  1.00  0.00     0.000 HD 
HETATM    9  N   UNL     1     -13.469  14.521  71.377  1.00  0.00    -0.364 NA 
HETATM   10  H   UNL     1     -11.518  16.856  70.564  1.00  0.00     0.000 HD 
ENDROOT
BRANCH   5  11
HETATM   11  C   UNL     1     -12.073  14.484  66.729  1.00  0.00    -0.288 C  
BRANCH  11  12
HETATM   12  C   UNL     1     -12.009  12.990  66.400  1.00  0.00    -0.402 C  
BRANCH  12  13
HETATM   13  S   UNL     1     -11.978  12.860  64.579  1.00  0.00    -0.424 SA 
BRANCH  13  14
HETATM   14  C   UNL     1     -10.181  12.827  64.281  1.00  0.00    -0.327 C  
BRANCH  14  15
HETATM   15  C   UNL     1      -9.782  11.473  63.790  1.00  0.00    -0.276 A  
HETATM   16  C   UNL     1      -9.718  10.271  64.477  1.00  0.00    -0.329 A  
HETATM   17  C   UNL     1      -9.994   9.908  65.885  1.00  0.00    -0.347 C  
HETATM   18  N   UNL     1      -9.336   9.347  63.538  1.00  0.00    -0.441 NA 
HETATM   19  H   UNL     1      -9.196   8.349  63.699  1.00  0.00     0.000 HD 
HETATM   20  C   UNL     1      -9.178   9.999  62.351  1.00  0.00    -0.296 A  
HETATM   21  N   UNL     1      -9.424  11.282  62.471  1.00  0.00    -0.240 NA 
ENDBRANCH  14  15
ENDBRANCH  13  14
ENDBRANCH  12  13
ENDBRANCH  11  12
ENDBRANCH   5  11
TORSDOF 5
ENDMDL
MODEL       73
REMARK 921   NORMALIZED FREE ENERGY PREDICTED BY IDOCK:   -4.29 KCAL/MOL
REMARK 922        TOTAL FREE ENERGY PREDICTED BY IDOCK:   -6.51 KCAL/MOL
REMARK 923 INTER-LIGAND FREE ENERGY PREDICTED BY IDOCK:   -6.29 KCAL/MOL
REMARK 924 INTRA-LIGAND FREE ENERGY PREDICTED BY IDOCK:   -0.22 KCAL/MOL
REMARK 927      BINDING AFFINITY PREDICTED BY RF-SCORE:    0.00 PKD
ROOT
HETATM    1  C   UNL     1     -13.154  15.309  71.085  1.00  0.00    -0.479 C  
HETATM    2  N   UNL     1     -12.715  14.950  69.758  1.00  0.00    -0.598 NA 
HETATM    3  C   UNL     1     -11.763  15.624  69.047  1.00  0.00    -0.395 C  
HETATM    4  H   UNL     1     -13.146  14.136  69.320  1.00  0.00     0.000 HD 
HETATM    5  N   UNL     1     -11.544  15.112  67.789  1.00  0.00    -0.322 NA 
HETATM    6  N   UNL     1     -11.157  16.641  69.581  1.00  0.00    -0.362 NA 
HETATM    7  C   UNL     1     -10.225  17.278  68.871  1.00  0.00    -0.349 C  
HETATM    8  H   UNL     1     -10.834  15.577  67.221  1.00  0.00     0.000 HD 
HETATM    9  N   UNL     1      -9.421  17.804  68.221  1.00  0.00    -0.280 NA 
HETATM   10  H   UNL     1     -11.390  16.948  70.525  1.00  0.00     0.000 HD 
ENDROOT
BRANCH   5  11
HETATM   11  C   UNL     1     -12.222  13.977  67.189  1.00  0.00    -0.321 C  
BRANCH  11  12
HETATM   12  C   UNL     1     -11.616  12.623  67.568  1.00  0.00    -0.359 C  
BRANCH  12  13
HETATM   13  S   UNL     1      -9.820  12.756  67.271  1.00  0.00    -0.210 SA 
BRANCH  13  14
HETATM   14  C   UNL     1      -9.815  13.445  65.585  1.00  0.00    -0.163 C  
BRANCH  14  15
HETATM   15  C   UNL     1     -10.109  12.359  64.601  1.00  0.00    -0.240 A  
HETATM   16  C   UNL     1     -11.137  12.264  63.677  1.00  0.00    -0.469 A  
HETATM   17  C   UNL     1     -12.276  13.150  63.353  1.00  0.00    -0.521 C  
HETATM   18  N   UNL     1     -10.903  11.090  63.007  1.00  0.00    -0.787 NA 
HETATM   19  H   UNL     1     -11.468  10.707  62.249  1.00  0.00     0.000 HD 
HETATM   20  C   UNL     1      -9.779  10.525  63.535  1.00  0.00    -0.319 A  
HETATM   21  N   UNL     1      -9.285  11.256  64.506  1.00  0.00    -0.118 NA 
ENDBRANCH  14  15
ENDBRANCH  13  14
ENDBRANCH  12  13
ENDBRANCH  11  12
ENDBRANCH   5  11
TORSDOF 5
ENDMDL
MODEL       74
REMARK 921   NORMALIZED FREE ENERGY PREDICTED BY IDOCK:   -4.29 KCAL/MOL
REMARK 922        TOTAL FREE ENERGY PREDICTED BY IDOCK:   -6.51 KCAL/MOL
REMARK 923 INTER-LIGAND FREE ENERGY PREDICTED BY IDOCK:   -6.25 KCAL/MOL
REMARK 924 INTRA-LIGAND FREE ENERGY PREDICTED BY IDOCK:   -0.26 KCAL/MOL
REMARK 927      BINDING AFFINITY PREDICTED BY RF-SCORE:    0.00 PKD
ROOT
HETATM    1  C   UNL     1     -11.949  10.989  70.490  1.00  0.00    -0.379 C  
HETATM    2  N   UNL     1     -11.923  12.284  69.853  1.00  0.00    -0.327 NA 
HETATM    3  C   UNL     1     -12.441  13.425  70.394  1.00  0.00    -0.252 C  
HETATM    4  H   UNL     1     -11.486  12.351  68.934  1.00  0.00     0.000 HD 
HETATM    5  N   UNL     1     -12.329  14.527  69.579  1.00  0.00    -0.520 NA 
HETATM    6  N   UNL     1     -12.970  13.396  71.580  1.00  0.00    -0.367 NA 
HETATM    7  C   UNL     1     -13.462  14.524  72.092  1.00  0.00    -0.400 C  
HETATM    8  H   UNL     1     -12.695  15.408  69.942  1.00  0.00     0.000 HD 
HETATM    9  N   UNL     1     -13.879  15.527  72.500  1.00  0.00    -0.559 NA 
HETATM   10  H   UNL     1     -13.009  12.526  72.110  1.00  0.00     0.000 HD 
ENDROOT
BRANCH   5  11
HETATM   11  C   UNL     1     -11.741  14.562  68.251  1.00  0.00    -0.335 C  
BRANCH  11  12
HETATM   12  C   UNL     1     -11.357  15.968  67.781  1.00  0.00    -0.167 C  
BRANCH  12  13
HETATM   13  S   UNL     1      -9.833  16.417  68.681  1.00  0.00    -0.245 SA 
BRANCH  13  14
HETATM   14  C   UNL     1     -10.134  18.189  68.977  1.00  0.00    -0.275 C  
BRANCH  14  15
HETATM   15  C   UNL     1      -9.179  19.000  68.163  1.00  0.00    -0.323 A  
HETATM   16  C   UNL     1      -9.373  19.620  66.939  1.00  0.00    -0.355 A  
HETATM   17  C   UNL     1     -10.534  19.689  66.025  1.00  0.00    -0.622 C  
HETATM   18  N   UNL     1      -8.188  20.261  66.675  1.00  0.00    -0.473 NA 
HETATM   19  H   UNL     1      -7.980  20.824  65.851  1.00  0.00     0.000 HD 
HETATM   20  C   UNL     1      -7.338  20.010  67.712  1.00  0.00    -0.293 A  
HETATM   21  N   UNL     1      -7.898  19.242  68.617  1.00  0.00    -0.352 NA 
ENDBRANCH  14  15
ENDBRANCH  13  14
ENDBRANCH  12  13
ENDBRANCH  11  12
ENDBRANCH   5  11
TORSDOF 5
ENDMDL
MODEL       75
REMARK 921   NORMALIZED FREE ENERGY PREDICTED BY IDOCK:   -4.29 KCAL/MOL
REMARK 922        TOTAL FREE ENERGY PREDICTED BY IDOCK:   -6.51 KCAL/MOL
REMARK 923 INTER-LIGAND FREE ENERGY PREDICTED BY IDOCK:   -6.18 KCAL/MOL
REMARK 924 INTRA-LIGAND FREE ENERGY PREDICTED BY IDOCK:   -0.32 KCAL/MOL
REMARK 927      BINDING AFFINITY PREDICTED BY RF-SCORE:    0.00 PKD
ROOT
HETATM    1  C   UNL     1      -8.786  10.161  63.398  1.00  0.00    -0.231 C  
HETATM    2  N   UNL     1      -9.068  11.112  64.445  1.00  0.00    -0.371 NA 
HETATM    3  C   UNL     1     -10.057  12.052  64.394  1.00  0.00    -0.271 C  
HETATM    4  H   UNL     1      -8.488  11.080  65.283  1.00  0.00     0.000 HD 
HETATM    5  N   UNL     1     -10.104  12.869  65.500  1.00  0.00    -0.327 NA 
HETATM    6  N   UNL     1     -10.848  12.103  63.365  1.00  0.00    -0.598 NA 
HETATM    7  C   UNL     1     -11.812  13.023  63.341  1.00  0.00    -0.476 C  
HETATM    8  H   UNL     1     -10.833  13.584  65.513  1.00  0.00     0.000 HD 
HETATM    9  N   UNL     1     -12.638  13.838  63.360  1.00  0.00    -0.789 NA 
HETATM   10  H   UNL     1     -10.734  11.451  62.590  1.00  0.00     0.000 HD 
ENDROOT
BRANCH   5  11
HETATM   11  C   UNL     1      -9.220  12.817  66.650  1.00  0.00    -0.212 C  
BRANCH  11  12
HETATM   12  C   UNL     1      -9.253  14.080  67.515  1.00  0.00    -0.197 C  
BRANCH  12  13
HETATM   13  S   UNL     1      -9.027  15.492  66.379  1.00  0.00    -0.329 SA 
BRANCH  13  14
HETATM   14  C   UNL     1     -10.487  16.494  66.803  1.00  0.00    -0.269 C  
BRANCH  14  15
HETATM   15  C   UNL     1     -10.046  17.816  67.343  1.00  0.00    -0.338 A  
HETATM   16  C   UNL     1     -10.226  19.085  66.817  1.00  0.00    -0.396 A  
HETATM   17  C   UNL     1     -10.876  19.573  65.581  1.00  0.00    -0.354 C  
HETATM   18  N   UNL     1      -9.663  19.933  67.738  1.00  0.00    -0.373 NA 
HETATM   19  H   UNL     1      -9.622  20.950  67.672  1.00  0.00     0.000 HD 
HETATM   20  C   UNL     1      -9.168  19.173  68.757  1.00  0.00    -0.359 A  
HETATM   21  N   UNL     1      -9.369  17.894  68.543  1.00  0.00    -0.292 NA 
ENDBRANCH  14  15
ENDBRANCH  13  14
ENDBRANCH  12  13
ENDBRANCH  11  12
ENDBRANCH   5  11
TORSDOF 5
ENDMDL
MODEL       76
REMARK 921   NORMALIZED FREE ENERGY PREDICTED BY IDOCK:   -4.29 KCAL/MOL
REMARK 922        TOTAL FREE ENERGY PREDICTED BY IDOCK:   -6.51 KCAL/MOL
REMARK 923 INTER-LIGAND FREE ENERGY PREDICTED BY IDOCK:   -6.31 KCAL/MOL
REMARK 924 INTRA-LIGAND FREE ENERGY PREDICTED BY IDOCK:   -0.20 KCAL/MOL
REMARK 927      BINDING AFFINITY PREDICTED BY RF-SCORE:    0.00 PKD
ROOT
HETATM    1  C   UNL     1     -11.130   6.066  69.126  1.00  0.00    -0.335 C  
HETATM    2  N   UNL     1     -11.767   6.951  70.071  1.00  0.00    -0.597 NA 
HETATM    3  C   UNL     1     -11.546   6.935  71.418  1.00  0.00    -0.299 C  
HETATM    4  H   UNL     1     -12.430   7.636  69.708  1.00  0.00     0.000 HD 
HETATM    5  N   UNL     1     -12.300   7.850  72.116  1.00  0.00    -0.403 NA 
HETATM    6  N   UNL     1     -10.680   6.108  71.922  1.00  0.00    -0.224 NA 
HETATM    7  C   UNL     1     -10.474   6.118  73.239  1.00  0.00    -0.243 C  
HETATM    8  H   UNL     1     -12.165   7.883  73.127  1.00  0.00     0.000 HD 
HETATM    9  N   UNL     1     -10.324   6.157  74.389  1.00  0.00    -0.303 NA 
HETATM   10  H   UNL     1     -10.167   5.464  71.321  1.00  0.00     0.000 HD 
ENDROOT
BRANCH   5  11
HETATM   11  C   UNL     1     -13.272   8.774  71.556  1.00  0.00    -0.314 C  
BRANCH  11  12
HETATM   12  C   UNL     1     -13.389  10.091  72.328  1.00  0.00    -0.289 C  
BRANCH  12  13
HETATM   13  S   UNL     1     -12.838  11.409  71.190  1.00  0.00    -0.266 SA 
BRANCH  13  14
HETATM   14  C   UNL     1     -13.489  12.878  72.048  1.00  0.00    -0.473 C  
BRANCH  14  15
HETATM   15  C   UNL     1     -12.817  14.104  71.518  1.00  0.00    -0.354 A  
HETATM   16  C   UNL     1     -12.638  15.338  72.121  1.00  0.00    -0.351 A  
HETATM   17  C   UNL     1     -13.041  15.876  73.439  1.00  0.00    -0.694 C  
HETATM   18  N   UNL     1     -11.922  16.075  71.212  1.00  0.00    -0.523 NA 
HETATM   19  H   UNL     1     -11.609  17.039  71.332  1.00  0.00     0.000 HD 
HETATM   20  C   UNL     1     -11.704  15.291  70.117  1.00  0.00    -0.312 A  
HETATM   21  N   UNL     1     -12.242  14.103  70.263  1.00  0.00    -0.329 NA 
ENDBRANCH  14  15
ENDBRANCH  13  14
ENDBRANCH  12  13
ENDBRANCH  11  12
ENDBRANCH   5  11
TORSDOF 5
ENDMDL
MODEL       77
REMARK 921   NORMALIZED FREE ENERGY PREDICTED BY IDOCK:   -4.29 KCAL/MOL
REMARK 922        TOTAL FREE ENERGY PREDICTED BY IDOCK:   -6.50 KCAL/MOL
REMARK 923 INTER-LIGAND FREE ENERGY PREDICTED BY IDOCK:   -5.87 KCAL/MOL
REMARK 924 INTRA-LIGAND FREE ENERGY PREDICTED BY IDOCK:   -0.64 KCAL/MOL
REMARK 927      BINDING AFFINITY PREDICTED BY RF-SCORE:    0.00 PKD
ROOT
HETATM    1  C   UNL     1     -12.356  10.825  71.140  1.00  0.00    -0.393 C  
HETATM    2  N   UNL     1     -12.061  12.078  70.489  1.00  0.00    -0.448 NA 
HETATM    3  C   UNL     1     -11.701  12.205  69.179  1.00  0.00    -0.328 C  
HETATM    4  H   UNL     1     -12.127  12.929  71.047  1.00  0.00     0.000 HD 
HETATM    5  N   UNL     1     -11.433  13.500  68.799  1.00  0.00    -0.287 NA 
HETATM    6  N   UNL     1     -11.644  11.154  68.418  1.00  0.00    -0.399 NA 
HETATM    7  C   UNL     1     -11.299  11.304  67.139  1.00  0.00    -0.220 C  
HETATM    8  H   UNL     1     -11.167  13.649  67.825  1.00  0.00     0.000 HD 
HETATM    9  N   UNL     1     -10.994  11.477  66.033  1.00  0.00    -0.284 NA 
HETATM   10  H   UNL     1     -11.861  10.230  68.792  1.00  0.00     0.000 HD 
ENDROOT
BRANCH   5  11
HETATM   11  C   UNL     1     -11.492  14.678  69.647  1.00  0.00    -0.289 C  
BRANCH  11  12
HETATM   12  C   UNL     1     -11.724  15.983  68.880  1.00  0.00    -0.319 C  
BRANCH  12  13
HETATM   13  S   UNL     1     -10.212  16.985  69.093  1.00  0.00    -0.253 SA 
BRANCH  13  14
HETATM   14  C   UNL     1      -9.136  16.230  67.832  1.00  0.00    -0.196 C  
BRANCH  14  15
HETATM   15  C   UNL     1      -9.881  16.124  66.540  1.00  0.00    -0.267 A  
HETATM   16  C   UNL     1     -10.376  17.130  65.725  1.00  0.00    -0.240 A  
HETATM   17  C   UNL     1     -10.364  18.605  65.837  1.00  0.00    -0.358 C  
HETATM   18  N   UNL     1     -10.927  16.476  64.652  1.00  0.00    -0.897 NA 
HETATM   19  H   UNL     1     -11.381  16.913  63.850  1.00  0.00     0.000 HD 
HETATM   20  C   UNL     1     -10.761  15.136  64.849  1.00  0.00    -0.398 A  
HETATM   21  N   UNL     1     -10.148  14.890  65.982  1.00  0.00    -0.293 NA 
ENDBRANCH  14  15
ENDBRANCH  13  14
ENDBRANCH  12  13
ENDBRANCH  11  12
ENDBRANCH   5  11
TORSDOF 5
ENDMDL
MODEL       78
REMARK 921   NORMALIZED FREE ENERGY PREDICTED BY IDOCK:   -4.27 KCAL/MOL
REMARK 922        TOTAL FREE ENERGY PREDICTED BY IDOCK:   -6.48 KCAL/MOL
REMARK 923 INTER-LIGAND FREE ENERGY PREDICTED BY IDOCK:   -5.96 KCAL/MOL
REMARK 924 INTRA-LIGAND FREE ENERGY PREDICTED BY IDOCK:   -0.53 KCAL/MOL
REMARK 927      BINDING AFFINITY PREDICTED BY RF-SCORE:    0.00 PKD
ROOT
HETATM    1  C   UNL     1     -12.974   8.840  71.453  1.00  0.00    -0.268 C  
HETATM    2  N   UNL     1     -12.385   9.972  70.779  1.00  0.00    -0.365 NA 
HETATM    3  C   UNL     1     -12.619  11.277  71.105  1.00  0.00    -0.397 C  
HETATM    4  H   UNL     1     -11.748   9.783  70.005  1.00  0.00     0.000 HD 
HETATM    5  N   UNL     1     -11.970  12.177  70.292  1.00  0.00    -0.462 NA 
HETATM    6  N   UNL     1     -13.389  11.564  72.110  1.00  0.00    -0.562 NA 
HETATM    7  C   UNL     1     -13.596  12.845  72.416  1.00  0.00    -0.478 C  
HETATM    8  H   UNL     1     -12.107  13.167  70.501  1.00  0.00     0.000 HD 
HETATM    9  N   UNL     1     -13.750  13.971  72.648  1.00  0.00    -0.683 NA 
HETATM   10  H   UNL     1     -13.828  10.823  72.656  1.00  0.00     0.000 HD 
ENDROOT
BRANCH   5  11
HETATM   11  C   UNL     1     -11.111  11.859  69.165  1.00  0.00    -0.228 C  
BRANCH  11  12
HETATM   12  C   UNL     1     -11.688  12.275  67.809  1.00  0.00    -0.337 C  
BRANCH  12  13
HETATM   13  S   UNL     1     -10.383  13.228  66.960  1.00  0.00    -0.247 SA 
BRANCH  13  14
HETATM   14  C   UNL     1     -11.031  14.919  67.154  1.00  0.00    -0.323 C  
BRANCH  14  15
HETATM   15  C   UNL     1     -11.128  15.253  68.607  1.00  0.00    -0.279 A  
HETATM   16  C   UNL     1     -10.117  15.468  69.530  1.00  0.00    -0.278 A  
HETATM   17  C   UNL     1      -8.642  15.433  69.424  1.00  0.00    -0.249 C  
HETATM   18  N   UNL     1     -10.765  15.781  70.698  1.00  0.00    -0.256 NA 
HETATM   19  H   UNL     1     -10.323  16.005  71.590  1.00  0.00     0.000 HD 
HETATM   20  C   UNL     1     -12.107  15.739  70.456  1.00  0.00    -0.374 A  
HETATM   21  N   UNL     1     -12.360  15.409  69.211  1.00  0.00    -0.171 NA 
ENDBRANCH  14  15
ENDBRANCH  13  14
ENDBRANCH  12  13
ENDBRANCH  11  12
ENDBRANCH   5  11
TORSDOF 5
ENDMDL
MODEL       79
REMARK 921   NORMALIZED FREE ENERGY PREDICTED BY IDOCK:   -4.27 KCAL/MOL
REMARK 922        TOTAL FREE ENERGY PREDICTED BY IDOCK:   -6.48 KCAL/MOL
REMARK 923 INTER-LIGAND FREE ENERGY PREDICTED BY IDOCK:   -6.11 KCAL/MOL
REMARK 924 INTRA-LIGAND FREE ENERGY PREDICTED BY IDOCK:   -0.36 KCAL/MOL
REMARK 927      BINDING AFFINITY PREDICTED BY RF-SCORE:    0.00 PKD
ROOT
HETATM    1  C   UNL     1     -11.617  11.308  68.181  1.00  0.00    -0.289 C  
HETATM    2  N   UNL     1     -11.675  12.750  68.202  1.00  0.00    -0.332 NA 
HETATM    3  C   UNL     1     -11.924  13.532  67.111  1.00  0.00    -0.381 C  
HETATM    4  H   UNL     1     -11.519  13.217  69.095  1.00  0.00     0.000 HD 
HETATM    5  N   UNL     1     -11.889  14.882  67.376  1.00  0.00    -0.405 NA 
HETATM    6  N   UNL     1     -12.170  12.980  65.961  1.00  0.00    -0.460 NA 
HETATM    7  C   UNL     1     -12.419  13.764  64.913  1.00  0.00    -0.386 C  
HETATM    8  H   UNL     1     -12.077  15.509  66.594  1.00  0.00     0.000 HD 
HETATM    9  N   UNL     1     -12.630  14.481  64.026  1.00  0.00    -0.799 NA 
HETATM   10  H   UNL     1     -12.172  11.965  65.863  1.00  0.00     0.000 HD 
ENDROOT
BRANCH   5  11
HETATM   11  C   UNL     1     -11.611  15.503  68.660  1.00  0.00    -0.368 C  
BRANCH  11  12
HETATM   12  C   UNL     1     -10.749  16.764  68.563  1.00  0.00    -0.358 C  
BRANCH  12  13
HETATM   13  S   UNL     1     -10.380  17.007  66.791  1.00  0.00    -0.274 SA 
BRANCH  13  14
HETATM   14  C   UNL     1      -9.911  18.766  66.790  1.00  0.00    -0.343 C  
BRANCH  14  15
HETATM   15  C   UNL     1      -8.584  18.929  67.460  1.00  0.00    -0.275 A  
HETATM   16  C   UNL     1      -7.316  18.636  66.984  1.00  0.00    -0.211 A  
HETATM   17  C   UNL     1      -6.835  18.067  65.706  1.00  0.00    -0.281 C  
HETATM   18  N   UNL     1      -6.464  19.020  67.988  1.00  0.00    -0.222 NA 
HETATM   19  H   UNL     1      -5.447  18.951  67.972  1.00  0.00     0.000 HD 
HETATM   20  C   UNL     1      -7.219  19.512  69.012  1.00  0.00    -0.362 A  
HETATM   21  N   UNL     1      -8.500  19.457  68.732  1.00  0.00    -0.369 NA 
ENDBRANCH  14  15
ENDBRANCH  13  14
ENDBRANCH  12  13
ENDBRANCH  11  12
ENDBRANCH   5  11
TORSDOF 5
ENDMDL
MODEL       80
REMARK 921   NORMALIZED FREE ENERGY PREDICTED BY IDOCK:   -4.27 KCAL/MOL
REMARK 922        TOTAL FREE ENERGY PREDICTED BY IDOCK:   -6.48 KCAL/MOL
REMARK 923 INTER-LIGAND FREE ENERGY PREDICTED BY IDOCK:   -6.11 KCAL/MOL
REMARK 924 INTRA-LIGAND FREE ENERGY PREDICTED BY IDOCK:   -0.37 KCAL/MOL
REMARK 927      BINDING AFFINITY PREDICTED BY RF-SCORE:    0.00 PKD
ROOT
HETATM    1  C   UNL     1     -12.090  10.795  69.821  1.00  0.00    -0.318 C  
HETATM    2  N   UNL     1     -12.009  12.016  69.058  1.00  0.00    -0.295 NA 
HETATM    3  C   UNL     1     -11.968  13.269  69.600  1.00  0.00    -0.314 C  
HETATM    4  H   UNL     1     -11.980  11.939  68.041  1.00  0.00     0.000 HD 
HETATM    5  N   UNL     1     -11.931  14.278  68.666  1.00  0.00    -0.459 NA 
HETATM    6  N   UNL     1     -11.961  13.415  70.891  1.00  0.00    -0.480 NA 
HETATM    7  C   UNL     1     -11.911  14.647  71.397  1.00  0.00    -0.343 C  
HETATM    8  H   UNL     1     -11.891  15.233  69.022  1.00  0.00     0.000 HD 
HETATM    9  N   UNL     1     -11.867  15.735  71.798  1.00  0.00    -0.421 NA 
HETATM   10  H   UNL     1     -11.991  12.602  71.505  1.00  0.00     0.000 HD 
ENDROOT
BRANCH   5  11
HETATM   11  C   UNL     1     -11.943  14.118  67.222  1.00  0.00    -0.414 C  
BRANCH  11  12
HETATM   12  C   UNL     1     -11.064  15.129  66.480  1.00  0.00    -0.305 C  
BRANCH  12  13
HETATM   13  S   UNL     1     -10.337  14.240  65.060  1.00  0.00    -0.380 SA 
BRANCH  13  14
HETATM   14  C   UNL     1     -11.175  12.630  65.215  1.00  0.00    -0.300 C  
BRANCH  14  15
HETATM   15  C   UNL     1     -10.390  11.587  64.487  1.00  0.00    -0.302 A  
HETATM   16  C   UNL     1      -9.984  10.333  64.916  1.00  0.00    -0.323 A  
HETATM   17  C   UNL     1     -10.156   9.609  66.194  1.00  0.00    -0.328 C  
HETATM   18  N   UNL     1      -9.337   9.783  63.838  1.00  0.00    -0.400 NA 
HETATM   19  H   UNL     1      -8.912   8.857  63.800  1.00  0.00     0.000 HD 
HETATM   20  C   UNL     1      -9.364  10.696  62.824  1.00  0.00    -0.327 A  
HETATM   21  N   UNL     1      -9.977  11.798  63.187  1.00  0.00    -0.400 NA 
ENDBRANCH  14  15
ENDBRANCH  13  14
ENDBRANCH  12  13
ENDBRANCH  11  12
ENDBRANCH   5  11
TORSDOF 5
ENDMDL
MODEL       81
REMARK 921   NORMALIZED FREE ENERGY PREDICTED BY IDOCK:   -4.26 KCAL/MOL
REMARK 922        TOTAL FREE ENERGY PREDICTED BY IDOCK:   -6.47 KCAL/MOL
REMARK 923 INTER-LIGAND FREE ENERGY PREDICTED BY IDOCK:   -6.04 KCAL/MOL
REMARK 924 INTRA-LIGAND FREE ENERGY PREDICTED BY IDOCK:   -0.43 KCAL/MOL
REMARK 927      BINDING AFFINITY PREDICTED BY RF-SCORE:    0.00 PKD
ROOT
HETATM    1  C   UNL     1     -10.944  17.017  65.319  1.00  0.00    -0.006 C  
HETATM    2  N   UNL     1     -10.610  15.699  65.800  1.00  0.00    -0.342 NA 
HETATM    3  C   UNL     1     -11.098  14.536  65.278  1.00  0.00    -0.353 C  
HETATM    4  H   UNL     1      -9.963  15.631  66.586  1.00  0.00     0.000 HD 
HETATM    5  N   UNL     1     -10.662  13.407  65.933  1.00  0.00    -0.277 NA 
HETATM    6  N   UNL     1     -11.891  14.571  64.250  1.00  0.00    -0.646 NA 
HETATM    7  C   UNL     1     -12.348  13.422  63.752  1.00  0.00    -0.349 C  
HETATM    8  H   UNL     1     -10.993  12.510  65.574  1.00  0.00     0.000 HD 
HETATM    9  N   UNL     1     -12.723  12.401  63.349  1.00  0.00    -0.741 NA 
HETATM   10  H   UNL     1     -12.160  15.461  63.832  1.00  0.00     0.000 HD 
ENDROOT
BRANCH   5  11
HETATM   11  C   UNL     1      -9.778  13.364  67.084  1.00  0.00    -0.237 C  
BRANCH  11  12
HETATM   12  C   UNL     1     -10.464  12.912  68.376  1.00  0.00    -0.251 C  
BRANCH  12  13
HETATM   13  S   UNL     1     -10.753  14.419  69.365  1.00  0.00    -0.102 SA 
BRANCH  13  14
HETATM   14  C   UNL     1     -12.574  14.459  69.380  1.00  0.00     0.066 C  
BRANCH  14  15
HETATM   15  C   UNL     1     -13.061  14.489  70.793  1.00  0.00    -0.306 A  
HETATM   16  C   UNL     1     -13.150  13.458  71.714  1.00  0.00    -0.388 A  
HETATM   17  C   UNL     1     -12.825  12.016  71.637  1.00  0.00    -0.399 C  
HETATM   18  N   UNL     1     -13.619  14.047  72.861  1.00  0.00    -0.662 NA 
HETATM   19  H   UNL     1     -13.800  13.577  73.748  1.00  0.00     0.000 HD 
HETATM   20  C   UNL     1     -13.802  15.374  72.603  1.00  0.00    -0.529 A  
HETATM   21  N   UNL     1     -13.490  15.670  71.364  1.00  0.00    -0.521 NA 
ENDBRANCH  14  15
ENDBRANCH  13  14
ENDBRANCH  12  13
ENDBRANCH  11  12
ENDBRANCH   5  11
TORSDOF 5
ENDMDL
MODEL       82
REMARK 921   NORMALIZED FREE ENERGY PREDICTED BY IDOCK:   -4.26 KCAL/MOL
REMARK 922        TOTAL FREE ENERGY PREDICTED BY IDOCK:   -6.47 KCAL/MOL
REMARK 923 INTER-LIGAND FREE ENERGY PREDICTED BY IDOCK:   -6.18 KCAL/MOL
REMARK 924 INTRA-LIGAND FREE ENERGY PREDICTED BY IDOCK:   -0.29 KCAL/MOL
REMARK 927      BINDING AFFINITY PREDICTED BY RF-SCORE:    0.00 PKD
ROOT
HETATM    1  C   UNL     1      -8.446   7.776  68.211  1.00  0.00    -0.124 C  
HETATM    2  N   UNL     1      -9.541   8.687  68.444  1.00  0.00    -0.145 NA 
HETATM    3  C   UNL     1     -10.588   8.443  69.284  1.00  0.00    -0.182 C  
HETATM    4  H   UNL     1      -9.531   9.577  67.945  1.00  0.00     0.000 HD 
HETATM    5  N   UNL     1     -11.527   9.448  69.309  1.00  0.00    -0.423 NA 
HETATM    6  N   UNL     1     -10.622   7.342  69.973  1.00  0.00    -0.228 NA 
HETATM    7  C   UNL     1     -11.650   7.129  70.794  1.00  0.00    -0.318 C  
HETATM    8  H   UNL     1     -12.327   9.315  69.929  1.00  0.00     0.000 HD 
HETATM    9  N   UNL     1     -12.561   6.982  71.497  1.00  0.00    -0.377 NA 
HETATM   10  H   UNL     1      -9.875   6.653  69.886  1.00  0.00     0.000 HD 
ENDROOT
BRANCH   5  11
HETATM   11  C   UNL     1     -11.495  10.678  68.538  1.00  0.00    -0.265 C  
BRANCH  11  12
HETATM   12  C   UNL     1     -11.716  11.940  69.377  1.00  0.00    -0.339 C  
BRANCH  12  13
HETATM   13  S   UNL     1     -11.701  13.346  68.212  1.00  0.00    -0.367 SA 
BRANCH  13  14
HETATM   14  C   UNL     1     -11.593  12.459  66.626  1.00  0.00    -0.385 C  
BRANCH  14  15
HETATM   15  C   UNL     1     -11.799  13.421  65.500  1.00  0.00    -0.363 A  
HETATM   16  C   UNL     1     -12.231  13.182  64.206  1.00  0.00    -0.396 A  
HETATM   17  C   UNL     1     -12.614  11.944  63.492  1.00  0.00    -0.579 C  
HETATM   18  N   UNL     1     -12.281  14.419  63.615  1.00  0.00    -1.068 NA 
HETATM   19  H   UNL     1     -12.566  14.616  62.655  1.00  0.00     0.000 HD 
HETATM   20  C   UNL     1     -11.882  15.340  64.539  1.00  0.00    -0.295 A  
HETATM   21  N   UNL     1     -11.571  14.771  65.680  1.00  0.00    -0.324 NA 
ENDBRANCH  14  15
ENDBRANCH  13  14
ENDBRANCH  12  13
ENDBRANCH  11  12
ENDBRANCH   5  11
TORSDOF 5
ENDMDL
MODEL       83
REMARK 921   NORMALIZED FREE ENERGY PREDICTED BY IDOCK:   -4.26 KCAL/MOL
REMARK 922        TOTAL FREE ENERGY PREDICTED BY IDOCK:   -6.46 KCAL/MOL
REMARK 923 INTER-LIGAND FREE ENERGY PREDICTED BY IDOCK:   -6.11 KCAL/MOL
REMARK 924 INTRA-LIGAND FREE ENERGY PREDICTED BY IDOCK:   -0.36 KCAL/MOL
REMARK 927      BINDING AFFINITY PREDICTED BY RF-SCORE:    0.00 PKD
ROOT
HETATM    1  C   UNL     1      -9.185   8.854  71.019  1.00  0.00    -0.245 C  
HETATM    2  N   UNL     1     -10.243   9.616  70.402  1.00  0.00    -0.272 NA 
HETATM    3  C   UNL     1     -11.545   9.611  70.813  1.00  0.00    -0.321 C  
HETATM    4  H   UNL     1     -10.002  10.201  69.602  1.00  0.00     0.000 HD 
HETATM    5  N   UNL     1     -12.375  10.390  70.041  1.00  0.00    -0.503 NA 
HETATM    6  N   UNL     1     -11.892   8.914  71.854  1.00  0.00    -0.349 NA 
HETATM    7  C   UNL     1     -13.167   8.932  72.242  1.00  0.00    -0.447 C  
HETATM    8  H   UNL     1     -13.358  10.426  70.314  1.00  0.00     0.000 HD 
HETATM    9  N   UNL     1     -14.285   8.973  72.548  1.00  0.00    -0.558 NA 
HETATM   10  H   UNL     1     -11.201   8.365  72.364  1.00  0.00     0.000 HD 
ENDROOT
BRANCH   5  11
HETATM   11  C   UNL     1     -11.992  11.168  68.876  1.00  0.00    -0.298 C  
BRANCH  11  12
HETATM   12  C   UNL     1     -11.836  12.665  69.154  1.00  0.00    -0.297 C  
BRANCH  12  13
HETATM   13  S   UNL     1     -11.623  13.475  67.531  1.00  0.00    -0.372 SA 
BRANCH  13  14
HETATM   14  C   UNL     1     -10.078  12.690  66.971  1.00  0.00    -0.224 C  
BRANCH  14  15
HETATM   15  C   UNL     1     -10.254  12.182  65.577  1.00  0.00    -0.265 A  
HETATM   16  C   UNL     1     -10.180  10.883  65.098  1.00  0.00    -0.297 A  
HETATM   17  C   UNL     1      -9.898   9.589  65.756  1.00  0.00    -0.363 C  
HETATM   18  N   UNL     1     -10.465  10.983  63.759  1.00  0.00    -0.476 NA 
HETATM   19  H   UNL     1     -10.503  10.212  63.093  1.00  0.00     0.000 HD 
HETATM   20  C   UNL     1     -10.687  12.299  63.477  1.00  0.00    -0.451 A  
HETATM   21  N   UNL     1     -10.553  13.049  64.546  1.00  0.00    -0.371 NA 
ENDBRANCH  14  15
ENDBRANCH  13  14
ENDBRANCH  12  13
ENDBRANCH  11  12
ENDBRANCH   5  11
TORSDOF 5
ENDMDL
MODEL       84
REMARK 921   NORMALIZED FREE ENERGY PREDICTED BY IDOCK:   -4.25 KCAL/MOL
REMARK 922        TOTAL FREE ENERGY PREDICTED BY IDOCK:   -6.46 KCAL/MOL
REMARK 923 INTER-LIGAND FREE ENERGY PREDICTED BY IDOCK:   -6.17 KCAL/MOL
REMARK 924 INTRA-LIGAND FREE ENERGY PREDICTED BY IDOCK:   -0.29 KCAL/MOL
REMARK 927      BINDING AFFINITY PREDICTED BY RF-SCORE:    0.00 PKD
ROOT
HETATM    1  C   UNL     1      -8.946  10.676  64.768  1.00  0.00    -0.199 C  
HETATM    2  N   UNL     1      -9.344  11.722  65.679  1.00  0.00    -0.358 NA 
HETATM    3  C   UNL     1     -10.264  12.690  65.394  1.00  0.00    -0.284 C  
HETATM    4  H   UNL     1      -8.908  11.740  66.600  1.00  0.00     0.000 HD 
HETATM    5  N   UNL     1     -10.446  13.600  66.409  1.00  0.00    -0.284 NA 
HETATM    6  N   UNL     1     -10.876  12.683  64.248  1.00  0.00    -0.351 NA 
HETATM    7  C   UNL     1     -11.777  13.633  63.995  1.00  0.00    -0.364 C  
HETATM    8  H   UNL     1     -11.131  14.340  66.247  1.00  0.00     0.000 HD 
HETATM    9  N   UNL     1     -12.553  14.476  63.815  1.00  0.00    -0.750 NA 
HETATM   10  H   UNL     1     -10.672  11.964  63.555  1.00  0.00     0.000 HD 
ENDROOT
BRANCH   5  11
HETATM   11  C   UNL     1      -9.761  13.613  67.690  1.00  0.00    -0.228 C  
BRANCH  11  12
HETATM   12  C   UNL     1      -9.264  14.998  68.112  1.00  0.00    -0.183 C  
BRANCH  12  13
HETATM   13  S   UNL     1     -10.682  16.135  67.933  1.00  0.00    -0.322 SA 
BRANCH  13  14
HETATM   14  C   UNL     1     -10.042  17.600  68.806  1.00  0.00    -0.377 C  
BRANCH  14  15
HETATM   15  C   UNL     1      -9.802  18.701  67.825  1.00  0.00    -0.325 A  
HETATM   16  C   UNL     1      -8.718  19.556  67.709  1.00  0.00    -0.319 A  
HETATM   17  C   UNL     1      -7.467  19.695  68.487  1.00  0.00    -0.369 C  
HETATM   18  N   UNL     1      -8.997  20.337  66.616  1.00  0.00    -0.522 NA 
HETATM   19  H   UNL     1      -8.405  21.076  66.238  1.00  0.00     0.000 HD 
HETATM   20  C   UNL     1     -10.209  19.948  66.124  1.00  0.00    -0.503 A  
HETATM   21  N   UNL     1     -10.727  18.976  66.837  1.00  0.00    -0.432 NA 
ENDBRANCH  14  15
ENDBRANCH  13  14
ENDBRANCH  12  13
ENDBRANCH  11  12
ENDBRANCH   5  11
TORSDOF 5
ENDMDL
MODEL       85
REMARK 921   NORMALIZED FREE ENERGY PREDICTED BY IDOCK:   -4.25 KCAL/MOL
REMARK 922        TOTAL FREE ENERGY PREDICTED BY IDOCK:   -6.45 KCAL/MOL
REMARK 923 INTER-LIGAND FREE ENERGY PREDICTED BY IDOCK:   -6.24 KCAL/MOL
REMARK 924 INTRA-LIGAND FREE ENERGY PREDICTED BY IDOCK:   -0.22 KCAL/MOL
REMARK 927      BINDING AFFINITY PREDICTED BY RF-SCORE:    0.00 PKD
ROOT
HETATM    1  C   UNL     1     -14.336   7.396  71.474  1.00  0.00    -0.440 C  
HETATM    2  N   UNL     1     -13.071   7.811  70.920  1.00  0.00    -0.540 NA 
HETATM    3  C   UNL     1     -11.880   7.766  71.585  1.00  0.00    -0.287 C  
HETATM    4  H   UNL     1     -13.065   8.163  69.962  1.00  0.00     0.000 HD 
HETATM    5  N   UNL     1     -10.818   8.252  70.858  1.00  0.00    -0.225 NA 
HETATM    6  N   UNL     1     -11.831   7.286  72.792  1.00  0.00    -0.546 NA 
HETATM    7  C   UNL     1     -10.655   7.244  73.419  1.00  0.00    -0.389 C  
HETATM    8  H   UNL     1      -9.903   8.232  71.310  1.00  0.00     0.000 HD 
HETATM    9  N   UNL     1      -9.614   7.225  73.929  1.00  0.00    -0.274 NA 
HETATM   10  H   UNL     1     -12.676   6.948  73.250  1.00  0.00     0.000 HD 
ENDROOT
BRANCH   5  11
HETATM   11  C   UNL     1     -10.869   8.792  69.511  1.00  0.00    -0.142 C  
BRANCH  11  12
HETATM   12  C   UNL     1     -10.357  10.231  69.400  1.00  0.00    -0.235 C  
BRANCH  12  13
HETATM   13  S   UNL     1     -11.587  11.144  68.406  1.00  0.00    -0.286 SA 
BRANCH  13  14
HETATM   14  C   UNL     1     -10.597  11.522  66.924  1.00  0.00    -0.247 C  
BRANCH  14  15
HETATM   15  C   UNL     1     -11.375  12.423  66.021  1.00  0.00    -0.353 A  
HETATM   16  C   UNL     1     -11.451  12.430  64.637  1.00  0.00    -0.331 A  
HETATM   17  C   UNL     1     -10.808  11.599  63.596  1.00  0.00    -0.503 C  
HETATM   18  N   UNL     1     -12.339  13.432  64.336  1.00  0.00    -0.569 NA 
HETATM   19  H   UNL     1     -12.636  13.711  63.402  1.00  0.00     0.000 HD 
HETATM   20  C   UNL     1     -12.755  13.988  65.511  1.00  0.00    -0.486 A  
HETATM   21  N   UNL     1     -12.182  13.414  66.543  1.00  0.00    -0.386 NA 
ENDBRANCH  14  15
ENDBRANCH  13  14
ENDBRANCH  12  13
ENDBRANCH  11  12
ENDBRANCH   5  11
TORSDOF 5
ENDMDL
MODEL       86
REMARK 921   NORMALIZED FREE ENERGY PREDICTED BY IDOCK:   -4.23 KCAL/MOL
REMARK 922        TOTAL FREE ENERGY PREDICTED BY IDOCK:   -6.43 KCAL/MOL
REMARK 923 INTER-LIGAND FREE ENERGY PREDICTED BY IDOCK:   -6.08 KCAL/MOL
REMARK 924 INTRA-LIGAND FREE ENERGY PREDICTED BY IDOCK:   -0.36 KCAL/MOL
REMARK 927      BINDING AFFINITY PREDICTED BY RF-SCORE:    0.00 PKD
ROOT
HETATM    1  C   UNL     1     -14.216   7.937  71.523  1.00  0.00    -0.420 C  
HETATM    2  N   UNL     1     -13.373   8.927  70.899  1.00  0.00    -0.501 NA 
HETATM    3  C   UNL     1     -12.053   9.117  71.191  1.00  0.00    -0.299 C  
HETATM    4  H   UNL     1     -13.792   9.528  70.190  1.00  0.00     0.000 HD 
HETATM    5  N   UNL     1     -11.472  10.149  70.491  1.00  0.00    -0.313 NA 
HETATM    6  N   UNL     1     -11.465   8.349  72.058  1.00  0.00    -0.324 NA 
HETATM    7  C   UNL     1     -10.173   8.547  72.320  1.00  0.00    -0.325 C  
HETATM    8  H   UNL     1     -10.482  10.326  70.669  1.00  0.00     0.000 HD 
HETATM    9  N   UNL     1      -9.049   8.753  72.520  1.00  0.00    -0.353 NA 
HETATM   10  H   UNL     1     -11.982   7.607  72.529  1.00  0.00     0.000 HD 
ENDROOT
BRANCH   5  11
HETATM   11  C   UNL     1     -12.127  11.013  69.524  1.00  0.00    -0.329 C  
BRANCH  11  12
HETATM   12  C   UNL     1     -11.754  12.491  69.661  1.00  0.00    -0.302 C  
BRANCH  12  13
HETATM   13  S   UNL     1     -10.510  12.834  68.369  1.00  0.00    -0.239 SA 
BRANCH  13  14
HETATM   14  C   UNL     1     -11.577  12.898  66.894  1.00  0.00    -0.368 C  
BRANCH  14  15
HETATM   15  C   UNL     1     -11.061  11.947  65.863  1.00  0.00    -0.316 A  
HETATM   16  C   UNL     1     -11.283  11.925  64.495  1.00  0.00    -0.319 A  
HETATM   17  C   UNL     1     -12.088  12.785  63.600  1.00  0.00    -0.624 C  
HETATM   18  N   UNL     1     -10.536  10.872  64.032  1.00  0.00    -0.482 NA 
HETATM   19  H   UNL     1     -10.462  10.569  63.061  1.00  0.00     0.000 HD 
HETATM   20  C   UNL     1      -9.910  10.301  65.101  1.00  0.00    -0.321 A  
HETATM   21  N   UNL     1     -10.216  10.915  66.220  1.00  0.00    -0.240 NA 
ENDBRANCH  14  15
ENDBRANCH  13  14
ENDBRANCH  12  13
ENDBRANCH  11  12
ENDBRANCH   5  11
TORSDOF 5
ENDMDL
MODEL       87
REMARK 921   NORMALIZED FREE ENERGY PREDICTED BY IDOCK:   -4.23 KCAL/MOL
REMARK 922        TOTAL FREE ENERGY PREDICTED BY IDOCK:   -6.43 KCAL/MOL
REMARK 923 INTER-LIGAND FREE ENERGY PREDICTED BY IDOCK:   -5.72 KCAL/MOL
REMARK 924 INTRA-LIGAND FREE ENERGY PREDICTED BY IDOCK:   -0.71 KCAL/MOL
REMARK 927      BINDING AFFINITY PREDICTED BY RF-SCORE:    0.00 PKD
ROOT
HETATM    1  C   UNL     1      -8.056  12.286  67.177  1.00  0.00    -0.173 C  
HETATM    2  N   UNL     1      -8.852  11.831  66.062  1.00  0.00    -0.377 NA 
HETATM    3  C   UNL     1      -9.475  10.618  65.997  1.00  0.00    -0.193 C  
HETATM    4  H   UNL     1      -8.956  12.461  65.267  1.00  0.00     0.000 HD 
HETATM    5  N   UNL     1     -10.143  10.400  64.815  1.00  0.00    -0.347 NA 
HETATM    6  N   UNL     1      -9.404   9.800  67.004  1.00  0.00    -0.145 NA 
HETATM    7  C   UNL     1     -10.028   8.625  66.922  1.00  0.00    -0.260 C  
HETATM    8  H   UNL     1     -10.633   9.509  64.721  1.00  0.00     0.000 HD 
HETATM    9  N   UNL     1     -10.585   7.614  66.810  1.00  0.00    -0.286 NA 
HETATM   10  H   UNL     1      -8.882  10.053  67.842  1.00  0.00     0.000 HD 
ENDROOT
BRANCH   5  11
HETATM   11  C   UNL     1     -10.221  11.310  63.686  1.00  0.00    -0.392 C  
BRANCH  11  12
HETATM   12  C   UNL     1     -11.518  12.123  63.635  1.00  0.00    -0.481 C  
BRANCH  12  13
HETATM   13  S   UNL     1     -11.173  13.704  64.480  1.00  0.00    -0.376 SA 
BRANCH  13  14
HETATM   14  C   UNL     1     -12.576  13.771  65.640  1.00  0.00    -0.509 C  
BRANCH  14  15
HETATM   15  C   UNL     1     -12.149  13.240  66.970  1.00  0.00    -0.320 A  
HETATM   16  C   UNL     1     -11.774  13.928  68.113  1.00  0.00    -0.353 A  
HETATM   17  C   UNL     1     -11.649  15.371  68.416  1.00  0.00    -0.368 C  
HETATM   18  N   UNL     1     -11.526  12.955  69.047  1.00  0.00    -0.289 NA 
HETATM   19  H   UNL     1     -11.231  13.108  70.012  1.00  0.00     0.000 HD 
HETATM   20  C   UNL     1     -11.744  11.744  68.457  1.00  0.00    -0.330 A  
HETATM   21  N   UNL     1     -12.106  11.880  67.203  1.00  0.00    -0.522 NA 
ENDBRANCH  14  15
ENDBRANCH  13  14
ENDBRANCH  12  13
ENDBRANCH  11  12
ENDBRANCH   5  11
TORSDOF 5
ENDMDL
MODEL       88
REMARK 921   NORMALIZED FREE ENERGY PREDICTED BY IDOCK:   -4.23 KCAL/MOL
REMARK 922        TOTAL FREE ENERGY PREDICTED BY IDOCK:   -6.43 KCAL/MOL
REMARK 923 INTER-LIGAND FREE ENERGY PREDICTED BY IDOCK:   -6.12 KCAL/MOL
REMARK 924 INTRA-LIGAND FREE ENERGY PREDICTED BY IDOCK:   -0.30 KCAL/MOL
REMARK 927      BINDING AFFINITY PREDICTED BY RF-SCORE:    0.00 PKD
ROOT
HETATM    1  C   UNL     1     -10.816   9.961  67.353  1.00  0.00    -0.227 C  
HETATM    2  N   UNL     1     -11.201  11.132  68.103  1.00  0.00    -0.267 NA 
HETATM    3  C   UNL     1     -11.868  11.107  69.293  1.00  0.00    -0.352 C  
HETATM    4  H   UNL     1     -10.957  12.044  67.716  1.00  0.00     0.000 HD 
HETATM    5  N   UNL     1     -12.157  12.354  69.795  1.00  0.00    -0.262 NA 
HETATM    6  N   UNL     1     -12.163   9.968  69.845  1.00  0.00    -0.486 NA 
HETATM    7  C   UNL     1     -12.807   9.968  71.012  1.00  0.00    -0.365 C  
HETATM    8  H   UNL     1     -12.649  12.388  70.689  1.00  0.00     0.000 HD 
HETATM    9  N   UNL     1     -13.368  10.011  72.027  1.00  0.00    -0.439 NA 
HETATM   10  H   UNL     1     -11.906   9.091  69.394  1.00  0.00     0.000 HD 
ENDROOT
BRANCH   5  11
HETATM   11  C   UNL     1     -11.832  13.629  69.179  1.00  0.00    -0.348 C  
BRANCH  11  12
HETATM   12  C   UNL     1     -12.279  14.844  69.997  1.00  0.00    -0.333 C  
BRANCH  12  13
HETATM   13  S   UNL     1     -10.947  16.085  69.853  1.00  0.00    -0.374 SA 
BRANCH  13  14
HETATM   14  C   UNL     1     -10.145  15.530  68.315  1.00  0.00    -0.218 C  
BRANCH  14  15
HETATM   15  C   UNL     1     -10.294  16.585  67.266  1.00  0.00    -0.296 A  
HETATM   16  C   UNL     1     -10.522  16.447  65.907  1.00  0.00    -0.337 A  
HETATM   17  C   UNL     1     -10.678  15.263  65.034  1.00  0.00    -0.461 C  
HETATM   18  N   UNL     1     -10.617  17.730  65.432  1.00  0.00    -0.614 NA 
HETATM   19  H   UNL     1     -10.789  18.002  64.464  1.00  0.00     0.000 HD 
HETATM   20  C   UNL     1     -10.441  18.579  66.485  1.00  0.00    -0.398 A  
HETATM   21  N   UNL     1     -10.230  17.922  67.601  1.00  0.00    -0.348 NA 
ENDBRANCH  14  15
ENDBRANCH  13  14
ENDBRANCH  12  13
ENDBRANCH  11  12
ENDBRANCH   5  11
TORSDOF 5
ENDMDL
MODEL       89
REMARK 921   NORMALIZED FREE ENERGY PREDICTED BY IDOCK:   -4.23 KCAL/MOL
REMARK 922        TOTAL FREE ENERGY PREDICTED BY IDOCK:   -6.43 KCAL/MOL
REMARK 923 INTER-LIGAND FREE ENERGY PREDICTED BY IDOCK:   -6.07 KCAL/MOL
REMARK 924 INTRA-LIGAND FREE ENERGY PREDICTED BY IDOCK:   -0.35 KCAL/MOL
REMARK 927      BINDING AFFINITY PREDICTED BY RF-SCORE:    0.00 PKD
ROOT
HETATM    1  C   UNL     1     -13.825  13.477  72.281  1.00  0.00    -0.581 C  
HETATM    2  N   UNL     1     -12.832  13.974  71.361  1.00  0.00    -0.342 NA 
HETATM    3  C   UNL     1     -12.168  13.207  70.447  1.00  0.00    -0.316 C  
HETATM    4  H   UNL     1     -12.610  14.969  71.395  1.00  0.00     0.000 HD 
HETATM    5  N   UNL     1     -11.240  13.903  69.707  1.00  0.00    -0.452 NA 
HETATM    6  N   UNL     1     -12.448  11.943  70.338  1.00  0.00    -0.218 NA 
HETATM    7  C   UNL     1     -11.794  11.216  69.432  1.00  0.00    -0.345 C  
HETATM    8  H   UNL     1     -10.723  13.374  69.003  1.00  0.00     0.000 HD 
HETATM    9  N   UNL     1     -11.202  10.619  68.632  1.00  0.00    -0.262 NA 
HETATM   10  H   UNL     1     -13.155  11.515  70.934  1.00  0.00     0.000 HD 
ENDROOT
BRANCH   5  11
HETATM   11  C   UNL     1     -10.923  15.315  69.828  1.00  0.00    -0.284 C  
BRANCH  11  12
HETATM   12  C   UNL     1     -11.451  16.170  68.673  1.00  0.00    -0.340 C  
BRANCH  12  13
HETATM   13  S   UNL     1     -10.683  15.517  67.151  1.00  0.00    -0.311 SA 
BRANCH  13  14
HETATM   14  C   UNL     1      -9.189  16.555  67.064  1.00  0.00    -0.218 C  
BRANCH  14  15
HETATM   15  C   UNL     1      -9.582  17.976  66.816  1.00  0.00    -0.303 A  
HETATM   16  C   UNL     1      -9.327  19.106  67.577  1.00  0.00    -0.303 A  
HETATM   17  C   UNL     1      -8.619  19.308  68.860  1.00  0.00    -0.331 C  
HETATM   18  N   UNL     1      -9.875  20.143  66.865  1.00  0.00    -0.428 NA 
HETATM   19  H   UNL     1      -9.866  21.127  67.134  1.00  0.00     0.000 HD 
HETATM   20  C   UNL     1     -10.435  19.624  65.735  1.00  0.00    -0.444 A  
HETATM   21  N   UNL     1     -10.290  18.321  65.682  1.00  0.00    -0.597 NA 
ENDBRANCH  14  15
ENDBRANCH  13  14
ENDBRANCH  12  13
ENDBRANCH  11  12
ENDBRANCH   5  11
TORSDOF 5
ENDMDL
MODEL       90
REMARK 921   NORMALIZED FREE ENERGY PREDICTED BY IDOCK:   -4.16 KCAL/MOL
REMARK 922        TOTAL FREE ENERGY PREDICTED BY IDOCK:   -6.34 KCAL/MOL
REMARK 923 INTER-LIGAND FREE ENERGY PREDICTED BY IDOCK:   -5.65 KCAL/MOL
REMARK 924 INTRA-LIGAND FREE ENERGY PREDICTED BY IDOCK:   -0.70 KCAL/MOL
REMARK 927      BINDING AFFINITY PREDICTED BY RF-SCORE:    0.00 PKD
ROOT
HETATM    1  C   UNL     1     -12.651  13.705  71.204  1.00  0.00    -0.371 C  
HETATM    2  N   UNL     1     -12.057  12.593  70.502  1.00  0.00    -0.500 NA 
HETATM    3  C   UNL     1     -12.301  11.280  70.781  1.00  0.00    -0.398 C  
HETATM    4  H   UNL     1     -11.407  12.804  69.745  1.00  0.00     0.000 HD 
HETATM    5  N   UNL     1     -11.585  10.403  69.999  1.00  0.00    -0.280 NA 
HETATM    6  N   UNL     1     -13.153  10.963  71.710  1.00  0.00    -0.480 NA 
HETATM    7  C   UNL     1     -13.383   9.674  71.958  1.00  0.00    -0.457 C  
HETATM    8  H   UNL     1     -11.740   9.408  70.164  1.00  0.00     0.000 HD 
HETATM    9  N   UNL     1     -13.554   8.541  72.143  1.00  0.00    -0.367 NA 
HETATM   10  H   UNL     1     -13.637  11.688  72.239  1.00  0.00     0.000 HD 
ENDROOT
BRANCH   5  11
HETATM   11  C   UNL     1     -10.630  10.753  68.962  1.00  0.00    -0.219 C  
BRANCH  11  12
HETATM   12  C   UNL     1     -11.027  10.269  67.565  1.00  0.00    -0.280 C  
BRANCH  12  13
HETATM   13  S   UNL     1     -11.120  11.755  66.508  1.00  0.00    -0.309 SA 
BRANCH  13  14
HETATM   14  C   UNL     1      -9.703  12.704  67.149  1.00  0.00    -0.211 C  
BRANCH  14  15
HETATM   15  C   UNL     1     -10.147  14.087  67.499  1.00  0.00    -0.237 A  
HETATM   16  C   UNL     1     -10.596  15.103  66.670  1.00  0.00    -0.304 A  
HETATM   17  C   UNL     1     -10.776  15.193  65.205  1.00  0.00    -0.442 C  
HETATM   18  N   UNL     1     -10.910  16.137  67.516  1.00  0.00    -0.313 NA 
HETATM   19  H   UNL     1     -11.278  17.048  67.241  1.00  0.00     0.000 HD 
HETATM   20  C   UNL     1     -10.642  15.730  68.790  1.00  0.00    -0.239 A  
HETATM   21  N   UNL     1     -10.168  14.507  68.814  1.00  0.00    -0.241 NA 
ENDBRANCH  14  15
ENDBRANCH  13  14
ENDBRANCH  12  13
ENDBRANCH  11  12
ENDBRANCH   5  11
TORSDOF 5
ENDMDL
MODEL       91
REMARK 921   NORMALIZED FREE ENERGY PREDICTED BY IDOCK:   -4.15 KCAL/MOL
REMARK 922        TOTAL FREE ENERGY PREDICTED BY IDOCK:   -6.33 KCAL/MOL
REMARK 923 INTER-LIGAND FREE ENERGY PREDICTED BY IDOCK:   -6.07 KCAL/MOL
REMARK 924 INTRA-LIGAND FREE ENERGY PREDICTED BY IDOCK:   -0.26 KCAL/MOL
REMARK 927      BINDING AFFINITY PREDICTED BY RF-SCORE:    0.00 PKD
ROOT
HETATM    1  C   UNL     1     -11.699  15.527  64.105  1.00  0.00    -0.086 C  
HETATM    2  N   UNL     1     -10.951  15.464  65.337  1.00  0.00    -0.362 NA 
HETATM    3  C   UNL     1     -10.386  16.541  65.958  1.00  0.00    -0.345 C  
HETATM    4  H   UNL     1     -10.836  14.550  65.776  1.00  0.00     0.000 HD 
HETATM    5  N   UNL     1      -9.690  16.221  67.101  1.00  0.00    -0.234 NA 
HETATM    6  N   UNL     1     -10.541  17.730  65.458  1.00  0.00    -0.615 NA 
HETATM    7  C   UNL     1      -9.987  18.767  66.086  1.00  0.00    -0.345 C  
HETATM    8  H   UNL     1      -9.255  16.994  67.606  1.00  0.00     0.000 HD 
HETATM    9  N   UNL     1      -9.490  19.643  66.663  1.00  0.00    -0.351 NA 
HETATM   10  H   UNL     1     -11.076  17.867  64.602  1.00  0.00     0.000 HD 
ENDROOT
BRANCH   5  11
HETATM   11  C   UNL     1      -9.511  14.893  67.660  1.00  0.00    -0.199 C  
BRANCH  11  12
HETATM   12  C   UNL     1     -10.272  14.665  68.968  1.00  0.00    -0.220 C  
BRANCH  12  13
HETATM   13  S   UNL     1     -11.822  13.806  68.524  1.00  0.00    -0.373 SA 
BRANCH  13  14
HETATM   14  C   UNL     1     -11.747  12.383  69.659  1.00  0.00    -0.307 C  
BRANCH  14  15
HETATM   15  C   UNL     1     -12.519  12.693  70.900  1.00  0.00    -0.278 A  
HETATM   16  C   UNL     1     -13.172  11.833  71.768  1.00  0.00    -0.329 A  
HETATM   17  C   UNL     1     -13.348  10.364  71.776  1.00  0.00    -0.456 C  
HETATM   18  N   UNL     1     -13.674  12.641  72.757  1.00  0.00    -0.654 NA 
HETATM   19  H   UNL     1     -14.211  12.336  73.568  1.00  0.00     0.000 HD 
HETATM   20  C   UNL     1     -13.328  13.927  72.460  1.00  0.00    -0.554 A  
HETATM   21  N   UNL     1     -12.645  13.995  71.342  1.00  0.00    -0.359 NA 
ENDBRANCH  14  15
ENDBRANCH  13  14
ENDBRANCH  12  13
ENDBRANCH  11  12
ENDBRANCH   5  11
TORSDOF 5
ENDMDL
MODEL       92
REMARK 921   NORMALIZED FREE ENERGY PREDICTED BY IDOCK:   -4.15 KCAL/MOL
REMARK 922        TOTAL FREE ENERGY PREDICTED BY IDOCK:   -6.32 KCAL/MOL
REMARK 923 INTER-LIGAND FREE ENERGY PREDICTED BY IDOCK:   -6.00 KCAL/MOL
REMARK 924 INTRA-LIGAND FREE ENERGY PREDICTED BY IDOCK:   -0.33 KCAL/MOL
REMARK 927      BINDING AFFINITY PREDICTED BY RF-SCORE:    0.00 PKD
ROOT
HETATM    1  C   UNL     1     -12.887  15.783  73.725  1.00  0.00    -0.580 C  
HETATM    2  N   UNL     1     -12.842  14.570  72.945  1.00  0.00    -0.444 NA 
HETATM    3  C   UNL     1     -12.515  14.512  71.621  1.00  0.00    -0.352 C  
HETATM    4  H   UNL     1     -13.071  13.695  73.415  1.00  0.00     0.000 HD 
HETATM    5  N   UNL     1     -12.581  13.245  71.088  1.00  0.00    -0.361 NA 
HETATM    6  N   UNL     1     -12.177  15.595  70.989  1.00  0.00    -0.381 NA 
HETATM    7  C   UNL     1     -11.853  15.513  69.699  1.00  0.00    -0.366 C  
HETATM    8  H   UNL     1     -12.337  13.148  70.101  1.00  0.00     0.000 HD 
HETATM    9  N   UNL     1     -11.579  15.398  68.578  1.00  0.00    -0.351 NA 
HETATM   10  H   UNL     1     -12.159  16.493  71.472  1.00  0.00     0.000 HD 
ENDROOT
BRANCH   5  11
HETATM   11  C   UNL     1     -12.962  12.032  71.789  1.00  0.00    -0.340 C  
BRANCH  11  12
HETATM   12  C   UNL     1     -12.588  10.745  71.049  1.00  0.00    -0.420 C  
BRANCH  12  13
HETATM   13  S   UNL     1     -13.029   9.362  72.157  1.00  0.00    -0.417 SA 
BRANCH  13  14
HETATM   14  C   UNL     1     -11.997   8.036  71.456  1.00  0.00    -0.297 C  
BRANCH  14  15
HETATM   15  C   UNL     1     -10.643   8.070  72.089  1.00  0.00    -0.272 A  
HETATM   16  C   UNL     1      -9.446   8.548  71.581  1.00  0.00    -0.246 A  
HETATM   17  C   UNL     1      -9.083   9.156  70.282  1.00  0.00    -0.247 C  
HETATM   18  N   UNL     1      -8.537   8.374  72.594  1.00  0.00    -0.292 NA 
HETATM   19  H   UNL     1      -7.548   8.624  72.564  1.00  0.00     0.000 HD 
HETATM   20  C   UNL     1      -9.190   7.806  73.648  1.00  0.00    -0.284 A  
HETATM   21  N   UNL     1     -10.455   7.596  73.372  1.00  0.00    -0.345 NA 
ENDBRANCH  14  15
ENDBRANCH  13  14
ENDBRANCH  12  13
ENDBRANCH  11  12
ENDBRANCH   5  11
TORSDOF 5
ENDMDL
MODEL       93
REMARK 921   NORMALIZED FREE ENERGY PREDICTED BY IDOCK:   -4.14 KCAL/MOL
REMARK 922        TOTAL FREE ENERGY PREDICTED BY IDOCK:   -6.31 KCAL/MOL
REMARK 923 INTER-LIGAND FREE ENERGY PREDICTED BY IDOCK:   -5.60 KCAL/MOL
REMARK 924 INTRA-LIGAND FREE ENERGY PREDICTED BY IDOCK:   -0.71 KCAL/MOL
REMARK 927      BINDING AFFINITY PREDICTED BY RF-SCORE:    0.00 PKD
ROOT
HETATM    1  C   UNL     1      -9.324  18.448  68.000  1.00  0.00    -0.291 C  
HETATM    2  N   UNL     1      -9.149  17.100  67.518  1.00  0.00    -0.224 NA 
HETATM    3  C   UNL     1      -9.771  16.582  66.419  1.00  0.00    -0.285 C  
HETATM    4  H   UNL     1      -8.515  16.490  68.034  1.00  0.00     0.000 HD 
HETATM    5  N   UNL     1      -9.473  15.260  66.182  1.00  0.00    -0.306 NA 
HETATM    6  N   UNL     1     -10.556  17.333  65.705  1.00  0.00    -0.464 NA 
HETATM    7  C   UNL     1     -11.145  16.808  64.631  1.00  0.00     0.076 C  
HETATM    8  H   UNL     1      -9.908  14.829  65.365  1.00  0.00     0.000 HD 
HETATM    9  N   UNL     1     -11.639  16.314  63.705  1.00  0.00    -0.894 NA 
HETATM   10  H   UNL     1     -10.716  18.306  65.962  1.00  0.00     0.000 HD 
ENDROOT
BRANCH   5  11
HETATM   11  C   UNL     1      -8.600  14.416  66.979  1.00  0.00    -0.203 C  
BRANCH  11  12
HETATM   12  C   UNL     1      -9.343  13.375  67.820  1.00  0.00    -0.211 C  
BRANCH  12  13
HETATM   13  S   UNL     1      -8.711  11.742  67.302  1.00  0.00    -0.170 SA 
BRANCH  13  14
HETATM   14  C   UNL     1     -10.247  10.970  66.702  1.00  0.00    -0.235 C  
BRANCH  14  15
HETATM   15  C   UNL     1     -11.048  11.976  65.941  1.00  0.00    -0.324 A  
HETATM   16  C   UNL     1     -10.914  12.397  64.627  1.00  0.00    -0.305 A  
HETATM   17  C   UNL     1      -9.964  12.033  63.553  1.00  0.00    -0.393 C  
HETATM   18  N   UNL     1     -11.932  13.296  64.438  1.00  0.00    -0.386 NA 
HETATM   19  H   UNL     1     -12.136  13.801  63.575  1.00  0.00     0.000 HD 
HETATM   20  C   UNL     1     -12.626  13.395  65.608  1.00  0.00    -0.438 A  
HETATM   21  N   UNL     1     -12.111  12.625  66.538  1.00  0.00    -0.552 NA 
ENDBRANCH  14  15
ENDBRANCH  13  14
ENDBRANCH  12  13
ENDBRANCH  11  12
ENDBRANCH   5  11
TORSDOF 5
ENDMDL
MODEL       94
REMARK 921   NORMALIZED FREE ENERGY PREDICTED BY IDOCK:   -4.14 KCAL/MOL
REMARK 922        TOTAL FREE ENERGY PREDICTED BY IDOCK:   -6.31 KCAL/MOL
REMARK 923 INTER-LIGAND FREE ENERGY PREDICTED BY IDOCK:   -5.90 KCAL/MOL
REMARK 924 INTRA-LIGAND FREE ENERGY PREDICTED BY IDOCK:   -0.41 KCAL/MOL
REMARK 927      BINDING AFFINITY PREDICTED BY RF-SCORE:    0.00 PKD
ROOT
HETATM    1  C   UNL     1     -12.574  12.766  65.055  1.00  0.00    -0.468 C  
HETATM    2  N   UNL     1     -12.023  12.309  66.308  1.00  0.00    -0.626 NA 
HETATM    3  C   UNL     1     -11.842  13.096  67.409  1.00  0.00    -0.361 C  
HETATM    4  H   UNL     1     -11.749  11.329  66.376  1.00  0.00     0.000 HD 
HETATM    5  N   UNL     1     -11.264  12.441  68.471  1.00  0.00    -0.257 NA 
HETATM    6  N   UNL     1     -12.214  14.341  67.382  1.00  0.00    -0.604 NA 
HETATM    7  C   UNL     1     -12.036  15.088  68.472  1.00  0.00    -0.225 C  
HETATM    8  H   UNL     1     -11.115  12.986  69.322  1.00  0.00     0.000 HD 
HETATM    9  N   UNL     1     -11.863  15.703  69.440  1.00  0.00    -0.376 NA 
HETATM   10  H   UNL     1     -12.635  14.739  66.543  1.00  0.00     0.000 HD 
ENDROOT
BRANCH   5  11
HETATM   11  C   UNL     1     -10.844  11.051  68.503  1.00  0.00    -0.213 C  
BRANCH  11  12
HETATM   12  C   UNL     1      -9.336  10.864  68.695  1.00  0.00    -0.187 C  
BRANCH  12  13
HETATM   13  S   UNL     1      -9.129   9.445  69.824  1.00  0.00    -0.209 SA 
BRANCH  13  14
HETATM   14  C   UNL     1     -10.611   8.472  69.407  1.00  0.00    -0.195 C  
BRANCH  14  15
HETATM   15  C   UNL     1     -11.219   7.926  70.659  1.00  0.00    -0.263 A  
HETATM   16  C   UNL     1     -12.110   8.523  71.537  1.00  0.00    -0.304 A  
HETATM   17  C   UNL     1     -12.743   9.860  71.565  1.00  0.00    -0.515 C  
HETATM   18  N   UNL     1     -12.370   7.564  72.483  1.00  0.00    -0.534 NA 
HETATM   19  H   UNL     1     -12.994   7.664  73.284  1.00  0.00     0.000 HD 
HETATM   20  C   UNL     1     -11.645   6.454  72.163  1.00  0.00    -0.313 A  
HETATM   21  N   UNL     1     -10.930   6.644  71.079  1.00  0.00    -0.247 NA 
ENDBRANCH  14  15
ENDBRANCH  13  14
ENDBRANCH  12  13
ENDBRANCH  11  12
ENDBRANCH   5  11
TORSDOF 5
ENDMDL
MODEL       95
REMARK 921   NORMALIZED FREE ENERGY PREDICTED BY IDOCK:   -4.13 KCAL/MOL
REMARK 922        TOTAL FREE ENERGY PREDICTED BY IDOCK:   -6.30 KCAL/MOL
REMARK 923 INTER-LIGAND FREE ENERGY PREDICTED BY IDOCK:   -6.05 KCAL/MOL
REMARK 924 INTRA-LIGAND FREE ENERGY PREDICTED BY IDOCK:   -0.25 KCAL/MOL
REMARK 927      BINDING AFFINITY PREDICTED BY RF-SCORE:    0.00 PKD
ROOT
HETATM    1  C   UNL     1     -12.645   6.994  71.821  1.00  0.00    -0.350 C  
HETATM    2  N   UNL     1     -11.973   7.967  70.994  1.00  0.00    -0.383 NA 
HETATM    3  C   UNL     1     -11.407   7.695  69.782  1.00  0.00     0.065 C  
HETATM    4  H   UNL     1     -11.917   8.925  71.339  1.00  0.00     0.000 HD 
HETATM    5  N   UNL     1     -10.790   8.779  69.200  1.00  0.00    -0.412 NA 
HETATM    6  N   UNL     1     -11.490   6.498  69.283  1.00  0.00    -0.636 NA 
HETATM    7  C   UNL     1     -10.937   6.259  68.093  1.00  0.00    -0.323 C  
HETATM    8  H   UNL     1     -10.359   8.628  68.288  1.00  0.00     0.000 HD 
HETATM    9  N   UNL     1     -10.444   6.092  67.057  1.00  0.00    -0.236 NA 
HETATM   10  H   UNL     1     -11.969   5.756  69.791  1.00  0.00     0.000 HD 
ENDROOT
BRANCH   5  11
HETATM   11  C   UNL     1     -10.693  10.117  69.757  1.00  0.00    -0.279 C  
BRANCH  11  12
HETATM   12  C   UNL     1     -11.744  11.090  69.217  1.00  0.00    -0.326 C  
BRANCH  12  13
HETATM   13  S   UNL     1     -10.935  12.040  67.884  1.00  0.00    -0.236 SA 
BRANCH  13  14
HETATM   14  C   UNL     1     -12.265  13.209  67.457  1.00  0.00    -0.116 C  
BRANCH  14  15
HETATM   15  C   UNL     1     -12.095  13.664  66.043  1.00  0.00    -0.441 A  
HETATM   16  C   UNL     1     -11.279  14.661  65.532  1.00  0.00    -0.343 A  
HETATM   17  C   UNL     1     -10.335  15.605  66.168  1.00  0.00    -0.329 C  
HETATM   18  N   UNL     1     -11.484  14.624  64.176  1.00  0.00    -0.632 NA 
HETATM   19  H   UNL     1     -11.035  15.224  63.484  1.00  0.00     0.000 HD 
HETATM   20  C   UNL     1     -12.395  13.642  63.917  1.00  0.00    -0.316 A  
HETATM   21  N   UNL     1     -12.794  13.055  65.021  1.00  0.00    -0.753 NA 
ENDBRANCH  14  15
ENDBRANCH  13  14
ENDBRANCH  12  13
ENDBRANCH  11  12
ENDBRANCH   5  11
TORSDOF 5
ENDMDL
MODEL       96
REMARK 921   NORMALIZED FREE ENERGY PREDICTED BY IDOCK:   -4.13 KCAL/MOL
REMARK 922        TOTAL FREE ENERGY PREDICTED BY IDOCK:   -6.30 KCAL/MOL
REMARK 923 INTER-LIGAND FREE ENERGY PREDICTED BY IDOCK:   -5.94 KCAL/MOL
REMARK 924 INTRA-LIGAND FREE ENERGY PREDICTED BY IDOCK:   -0.36 KCAL/MOL
REMARK 927      BINDING AFFINITY PREDICTED BY RF-SCORE:    0.00 PKD
ROOT
HETATM    1  C   UNL     1     -12.612  10.440  70.339  1.00  0.00    -0.254 C  
HETATM    2  N   UNL     1     -12.302  11.124  69.108  1.00  0.00    -0.543 NA 
HETATM    3  C   UNL     1     -11.534  10.607  68.105  1.00  0.00    -0.228 C  
HETATM    4  H   UNL     1     -12.683  12.061  68.977  1.00  0.00     0.000 HD 
HETATM    5  N   UNL     1     -11.349  11.466  67.046  1.00  0.00    -0.435 NA 
HETATM    6  N   UNL     1     -11.060   9.401  68.209  1.00  0.00    -0.495 NA 
HETATM    7  C   UNL     1     -10.320   8.914  67.213  1.00  0.00    -0.280 C  
HETATM    8  H   UNL     1     -10.788  11.121  66.266  1.00  0.00     0.000 HD 
HETATM    9  N   UNL     1      -9.681   8.527  66.325  1.00  0.00    -0.246 NA 
HETATM   10  H   UNL     1     -11.252   8.838  69.037  1.00  0.00     0.000 HD 
ENDROOT
BRANCH   5  11
HETATM   11  C   UNL     1     -11.874  12.815  66.928  1.00  0.00    -0.371 C  
BRANCH  11  12
HETATM   12  C   UNL     1     -12.332  13.180  65.513  1.00  0.00    -0.474 C  
BRANCH  12  13
HETATM   13  S   UNL     1     -10.879  13.891  64.665  1.00  0.00    -0.384 SA 
BRANCH  13  14
HETATM   14  C   UNL     1     -11.090  15.653  65.072  1.00  0.00    -0.389 C  
BRANCH  14  15
HETATM   15  C   UNL     1      -9.943  16.113  65.912  1.00  0.00    -0.356 A  
HETATM   16  C   UNL     1      -9.705  17.358  66.471  1.00  0.00    -0.293 A  
HETATM   17  C   UNL     1     -10.454  18.633  66.429  1.00  0.00    -0.463 C  
HETATM   18  N   UNL     1      -8.537  17.212  67.177  1.00  0.00    -0.199 NA 
HETATM   19  H   UNL     1      -8.068  17.937  67.720  1.00  0.00     0.000 HD 
HETATM   20  C   UNL     1      -8.113  15.925  67.021  1.00  0.00    -0.230 A  
HETATM   21  N   UNL     1      -8.929  15.240  66.254  1.00  0.00    -0.302 NA 
ENDBRANCH  14  15
ENDBRANCH  13  14
ENDBRANCH  12  13
ENDBRANCH  11  12
ENDBRANCH   5  11
TORSDOF 5
ENDMDL
MODEL       97
REMARK 921   NORMALIZED FREE ENERGY PREDICTED BY IDOCK:   -4.13 KCAL/MOL
REMARK 922        TOTAL FREE ENERGY PREDICTED BY IDOCK:   -6.30 KCAL/MOL
REMARK 923 INTER-LIGAND FREE ENERGY PREDICTED BY IDOCK:   -6.13 KCAL/MOL
REMARK 924 INTRA-LIGAND FREE ENERGY PREDICTED BY IDOCK:   -0.17 KCAL/MOL
REMARK 927      BINDING AFFINITY PREDICTED BY RF-SCORE:    0.00 PKD
ROOT
HETATM    1  C   UNL     1      -9.422  10.987  62.730  1.00  0.00    -0.334 C  
HETATM    2  N   UNL     1     -10.375  11.895  63.319  1.00  0.00    -0.590 NA 
HETATM    3  C   UNL     1     -10.859  11.793  64.591  1.00  0.00    -0.307 C  
HETATM    4  H   UNL     1     -10.710  12.669  62.745  1.00  0.00     0.000 HD 
HETATM    5  N   UNL     1     -11.788  12.757  64.912  1.00  0.00    -0.357 NA 
HETATM    6  N   UNL     1     -10.430  10.849  65.374  1.00  0.00    -0.251 NA 
HETATM    7  C   UNL     1     -10.911  10.775  66.615  1.00  0.00    -0.164 C  
HETATM    8  H   UNL     1     -12.174  12.728  65.856  1.00  0.00     0.000 HD 
HETATM    9  N   UNL     1     -11.354  10.745  67.686  1.00  0.00    -0.460 NA 
HETATM   10  H   UNL     1      -9.737  10.178  65.044  1.00  0.00     0.000 HD 
ENDROOT
BRANCH   5  11
HETATM   11  C   UNL     1     -12.273  13.812  64.039  1.00  0.00    -0.380 C  
BRANCH  11  12
HETATM   12  C   UNL     1     -11.847  15.218  64.471  1.00  0.00    -0.295 C  
BRANCH  12  13
HETATM   13  S   UNL     1     -11.081  15.044  66.119  1.00  0.00    -0.301 SA 
BRANCH  13  14
HETATM   14  C   UNL     1      -9.694  16.214  65.963  1.00  0.00    -0.344 C  
BRANCH  14  15
HETATM   15  C   UNL     1     -10.014  17.469  66.708  1.00  0.00    -0.313 A  
HETATM   16  C   UNL     1     -10.331  17.641  68.046  1.00  0.00    -0.375 A  
HETATM   17  C   UNL     1     -10.480  16.690  69.169  1.00  0.00    -0.333 C  
HETATM   18  N   UNL     1     -10.486  18.996  68.202  1.00  0.00    -0.361 NA 
HETATM   19  H   UNL     1     -10.719  19.478  69.070  1.00  0.00     0.000 HD 
HETATM   20  C   UNL     1     -10.271  19.583  66.989  1.00  0.00    -0.426 A  
HETATM   21  N   UNL     1      -9.999  18.691  66.066  1.00  0.00    -0.534 NA 
ENDBRANCH  14  15
ENDBRANCH  13  14
ENDBRANCH  12  13
ENDBRANCH  11  12
ENDBRANCH   5  11
TORSDOF 5
ENDMDL
MODEL       98
REMARK 921   NORMALIZED FREE ENERGY PREDICTED BY IDOCK:   -4.11 KCAL/MOL
REMARK 922        TOTAL FREE ENERGY PREDICTED BY IDOCK:   -6.28 KCAL/MOL
REMARK 923 INTER-LIGAND FREE ENERGY PREDICTED BY IDOCK:   -6.06 KCAL/MOL
REMARK 924 INTRA-LIGAND FREE ENERGY PREDICTED BY IDOCK:   -0.22 KCAL/MOL
REMARK 927      BINDING AFFINITY PREDICTED BY RF-SCORE:    0.00 PKD
ROOT
HETATM    1  C   UNL     1      -9.242   8.128  70.969  1.00  0.00    -0.152 C  
HETATM    2  N   UNL     1     -10.175   9.081  70.418  1.00  0.00    -0.196 NA 
HETATM    3  C   UNL     1     -11.472   9.220  70.822  1.00  0.00    -0.292 C  
HETATM    4  H   UNL     1      -9.842   9.693  69.673  1.00  0.00     0.000 HD 
HETATM    5  N   UNL     1     -12.174  10.171  70.118  1.00  0.00    -0.484 NA 
HETATM    6  N   UNL     1     -11.928   8.490  71.795  1.00  0.00    -0.309 NA 
HETATM    7  C   UNL     1     -13.194   8.650  72.178  1.00  0.00    -0.383 C  
HETATM    8  H   UNL     1     -13.147  10.318  70.389  1.00  0.00     0.000 HD 
HETATM    9  N   UNL     1     -14.301   8.819  72.481  1.00  0.00    -0.584 NA 
HETATM   10  H   UNL     1     -11.328   7.808  72.257  1.00  0.00     0.000 HD 
ENDROOT
BRANCH   5  11
HETATM   11  C   UNL     1     -11.668  10.986  69.027  1.00  0.00    -0.333 C  
BRANCH  11  12
HETATM   12  C   UNL     1     -11.596  12.480  69.353  1.00  0.00    -0.305 C  
BRANCH  12  13
HETATM   13  S   UNL     1     -10.371  13.202  68.207  1.00  0.00    -0.255 SA 
BRANCH  13  14
HETATM   14  C   UNL     1     -11.013  14.900  68.065  1.00  0.00    -0.279 C  
BRANCH  14  15
HETATM   15  C   UNL     1     -11.127  15.272  66.622  1.00  0.00    -0.276 A  
HETATM   16  C   UNL     1     -10.515  16.304  65.929  1.00  0.00    -0.345 A  
HETATM   17  C   UNL     1      -9.582  17.374  66.345  1.00  0.00    -0.291 C  
HETATM   18  N   UNL     1     -10.934  16.156  64.631  1.00  0.00    -0.857 NA 
HETATM   19  H   UNL     1     -10.671  16.747  63.843  1.00  0.00     0.000 HD 
HETATM   20  C   UNL     1     -11.768  15.077  64.582  1.00  0.00    -0.382 A  
HETATM   21  N   UNL     1     -11.917  14.532  65.766  1.00  0.00    -0.341 NA 
ENDBRANCH  14  15
ENDBRANCH  13  14
ENDBRANCH  12  13
ENDBRANCH  11  12
ENDBRANCH   5  11
TORSDOF 5
ENDMDL
MODEL       99
REMARK 921   NORMALIZED FREE ENERGY PREDICTED BY IDOCK:   -4.10 KCAL/MOL
REMARK 922        TOTAL FREE ENERGY PREDICTED BY IDOCK:   -6.27 KCAL/MOL
REMARK 923 INTER-LIGAND FREE ENERGY PREDICTED BY IDOCK:   -5.94 KCAL/MOL
REMARK 924 INTRA-LIGAND FREE ENERGY PREDICTED BY IDOCK:   -0.33 KCAL/MOL
REMARK 927      BINDING AFFINITY PREDICTED BY RF-SCORE:    0.00 PKD
ROOT
HETATM    1  C   UNL     1      -6.373  20.126  69.245  1.00  0.00    -0.320 C  
HETATM    2  N   UNL     1      -7.161  18.953  68.954  1.00  0.00    -0.314 NA 
HETATM    3  C   UNL     1      -8.254  18.937  68.136  1.00  0.00    -0.311 C  
HETATM    4  H   UNL     1      -6.882  18.075  69.390  1.00  0.00     0.000 HD 
HETATM    5  N   UNL     1      -8.861  17.706  68.046  1.00  0.00    -0.250 NA 
HETATM    6  N   UNL     1      -8.622  20.023  67.526  1.00  0.00    -0.332 NA 
HETATM    7  C   UNL     1      -9.687  19.981  66.725  1.00  0.00    -0.435 C  
HETATM    8  H   UNL     1      -9.679  17.640  67.439  1.00  0.00     0.000 HD 
HETATM    9  N   UNL     1     -10.618  19.901  66.038  1.00  0.00    -0.467 NA 
HETATM   10  H   UNL     1      -8.105  20.892  67.658  1.00  0.00     0.000 HD 
ENDROOT
BRANCH   5  11
HETATM   11  C   UNL     1      -8.455  16.490  68.729  1.00  0.00    -0.248 C  
BRANCH  11  12
HETATM   12  C   UNL     1      -9.124  15.223  68.189  1.00  0.00    -0.174 C  
BRANCH  12  13
HETATM   13  S   UNL     1      -9.124  15.372  66.369  1.00  0.00    -0.321 SA 
BRANCH  13  14
HETATM   14  C   UNL     1     -10.902  15.615  66.058  1.00  0.00    -0.275 C  
BRANCH  14  15
HETATM   15  C   UNL     1     -11.521  14.315  65.655  1.00  0.00    -0.329 A  
HETATM   16  C   UNL     1     -11.936  13.256  66.446  1.00  0.00    -0.410 A  
HETATM   17  C   UNL     1     -11.905  13.026  67.907  1.00  0.00    -0.389 C  
HETATM   18  N   UNL     1     -12.467  12.345  65.568  1.00  0.00    -0.591 NA 
HETATM   19  H   UNL     1     -12.874  11.442  65.811  1.00  0.00     0.000 HD 
HETATM   20  C   UNL     1     -12.353  12.862  64.311  1.00  0.00    -0.385 A  
HETATM   21  N   UNL     1     -11.775  14.040  64.327  1.00  0.00    -0.390 NA 
ENDBRANCH  14  15
ENDBRANCH  13  14
ENDBRANCH  12  13
ENDBRANCH  11  12
ENDBRANCH   5  11
TORSDOF 5
ENDMDL
MODEL      100
REMARK 921   NORMALIZED FREE ENERGY PREDICTED BY IDOCK:   -4.09 KCAL/MOL
REMARK 922        TOTAL FREE ENERGY PREDICTED BY IDOCK:   -6.25 KCAL/MOL
REMARK 923 INTER-LIGAND FREE ENERGY PREDICTED BY IDOCK:   -5.87 KCAL/MOL
REMARK 924 INTRA-LIGAND FREE ENERGY PREDICTED BY IDOCK:   -0.38 KCAL/MOL
REMARK 927      BINDING AFFINITY PREDICTED BY RF-SCORE:    0.00 PKD
ROOT
HETATM    1  C   UNL     1     -11.535   6.374  69.928  1.00  0.00    -0.415 C  
HETATM    2  N   UNL     1     -11.229   7.781  70.013  1.00  0.00    -0.428 NA 
HETATM    3  C   UNL     1     -10.334   8.329  70.885  1.00  0.00    -0.192 C  
HETATM    4  H   UNL     1     -11.717   8.411  69.377  1.00  0.00     0.000 HD 
HETATM    5  N   UNL     1     -10.243   9.699  70.802  1.00  0.00    -0.290 NA 
HETATM    6  N   UNL     1      -9.659   7.561  71.687  1.00  0.00    -0.150 NA 
HETATM    7  C   UNL     1      -8.783   8.117  72.524  1.00  0.00    -0.203 C  
HETATM    8  H   UNL     1      -9.580  10.156  71.429  1.00  0.00     0.000 HD 
HETATM    9  N   UNL     1      -8.031   8.641  73.236  1.00  0.00    -0.410 NA 
HETATM   10  H   UNL     1      -9.796   6.551  71.676  1.00  0.00     0.000 HD 
ENDROOT
BRANCH   5  11
HETATM   11  C   UNL     1     -10.999  10.561  69.910  1.00  0.00    -0.298 C  
BRANCH  11  12
HETATM   12  C   UNL     1     -10.151  11.213  68.814  1.00  0.00    -0.201 C  
BRANCH  12  13
HETATM   13  S   UNL     1     -10.502  10.298  67.273  1.00  0.00    -0.262 SA 
BRANCH  13  14
HETATM   14  C   UNL     1      -9.909  11.496  66.036  1.00  0.00    -0.225 C  
BRANCH  14  15
HETATM   15  C   UNL     1     -11.058  11.962  65.202  1.00  0.00    -0.305 A  
HETATM   16  C   UNL     1     -12.029  12.907  65.493  1.00  0.00    -0.436 A  
HETATM   17  C   UNL     1     -12.282  13.748  66.684  1.00  0.00    -0.454 C  
HETATM   18  N   UNL     1     -12.807  12.974  64.365  1.00  0.00    -0.701 NA 
HETATM   19  H   UNL     1     -13.617  13.578  64.228  1.00  0.00     0.000 HD 
HETATM   20  C   UNL     1     -12.302  12.089  63.457  1.00  0.00    -0.551 A  
HETATM   21  N   UNL     1     -11.259  11.454  63.935  1.00  0.00    -0.354 NA 
ENDBRANCH  14  15
ENDBRANCH  13  14
ENDBRANCH  12  13
ENDBRANCH  11  12
ENDBRANCH   5  11
TORSDOF 5
ENDMDL
MODEL      101
REMARK 921   NORMALIZED FREE ENERGY PREDICTED BY IDOCK:   -4.09 KCAL/MOL
REMARK 922        TOTAL FREE ENERGY PREDICTED BY IDOCK:   -6.24 KCAL/MOL
REMARK 923 INTER-LIGAND FREE ENERGY PREDICTED BY IDOCK:   -6.11 KCAL/MOL
REMARK 924 INTRA-LIGAND FREE ENERGY PREDICTED BY IDOCK:   -0.13 KCAL/MOL
REMARK 927      BINDING AFFINITY PREDICTED BY RF-SCORE:    0.00 PKD
ROOT
HETATM    1  C   UNL     1     -11.081  15.806  68.215  1.00  0.00    -0.342 C  
HETATM    2  N   UNL     1     -11.383  14.408  68.402  1.00  0.00    -0.273 NA 
HETATM    3  C   UNL     1     -11.866  13.581  67.429  1.00  0.00    -0.384 C  
HETATM    4  H   UNL     1     -11.225  14.009  69.327  1.00  0.00     0.000 HD 
HETATM    5  N   UNL     1     -12.113  12.299  67.861  1.00  0.00    -0.434 NA 
HETATM    6  N   UNL     1     -12.044  14.035  66.225  1.00  0.00    -0.435 NA 
HETATM    7  C   UNL     1     -12.508  13.207  65.289  1.00  0.00    -0.495 C  
HETATM    8  H   UNL     1     -12.468  11.640  67.167  1.00  0.00     0.000 HD 
HETATM    9  N   UNL     1     -12.913  12.455  64.504  1.00  0.00    -0.810 NA 
HETATM   10  H   UNL     1     -11.832  15.006  66.000  1.00  0.00     0.000 HD 
ENDROOT
BRANCH   5  11
HETATM   11  C   UNL     1     -11.918  11.789  69.207  1.00  0.00    -0.291 C  
BRANCH  11  12
HETATM   12  C   UNL     1     -10.776  10.777  69.327  1.00  0.00    -0.229 C  
BRANCH  12  13
HETATM   13  S   UNL     1     -11.072   9.841  70.867  1.00  0.00    -0.361 SA 
BRANCH  13  14
HETATM   14  C   UNL     1      -9.515   8.903  70.987  1.00  0.00    -0.252 C  
BRANCH  14  15
HETATM   15  C   UNL     1      -9.397   8.305  72.352  1.00  0.00    -0.268 A  
HETATM   16  C   UNL     1     -10.211   7.374  72.978  1.00  0.00    -0.286 A  
HETATM   17  C   UNL     1     -11.444   6.677  72.552  1.00  0.00    -0.269 C  
HETATM   18  N   UNL     1      -9.618   7.147  74.194  1.00  0.00    -0.365 NA 
HETATM   19  H   UNL     1      -9.952   6.508  74.915  1.00  0.00     0.000 HD 
HETATM   20  C   UNL     1      -8.503   7.929  74.268  1.00  0.00    -0.223 A  
HETATM   21  N   UNL     1      -8.349   8.649  73.182  1.00  0.00    -0.398 NA 
ENDBRANCH  14  15
ENDBRANCH  13  14
ENDBRANCH  12  13
ENDBRANCH  11  12
ENDBRANCH   5  11
TORSDOF 5
ENDMDL
MODEL      102
REMARK 921   NORMALIZED FREE ENERGY PREDICTED BY IDOCK:   -4.09 KCAL/MOL
REMARK 922        TOTAL FREE ENERGY PREDICTED BY IDOCK:   -6.24 KCAL/MOL
REMARK 923 INTER-LIGAND FREE ENERGY PREDICTED BY IDOCK:   -6.05 KCAL/MOL
REMARK 924 INTRA-LIGAND FREE ENERGY PREDICTED BY IDOCK:   -0.19 KCAL/MOL
REMARK 927      BINDING AFFINITY PREDICTED BY RF-SCORE:    0.00 PKD
ROOT
HETATM    1  C   UNL     1     -14.275   7.715  71.564  1.00  0.00    -0.439 C  
HETATM    2  N   UNL     1     -12.997   7.582  70.908  1.00  0.00    -0.585 NA 
HETATM    3  C   UNL     1     -11.802   7.448  71.555  1.00  0.00    -0.297 C  
HETATM    4  H   UNL     1     -12.985   7.589  69.888  1.00  0.00     0.000 HD 
HETATM    5  N   UNL     1     -10.718   7.378  70.712  1.00  0.00    -0.228 NA 
HETATM    6  N   UNL     1     -11.773   7.392  72.853  1.00  0.00    -0.582 NA 
HETATM    7  C   UNL     1     -10.596   7.252  73.463  1.00  0.00    -0.362 C  
HETATM    8  H   UNL     1      -9.802   7.269  71.149  1.00  0.00     0.000 HD 
HETATM    9  N   UNL     1      -9.552   7.130  73.955  1.00  0.00    -0.270 NA 
HETATM   10  H   UNL     1     -12.634   7.454  73.395  1.00  0.00     0.000 HD 
ENDROOT
BRANCH   5  11
HETATM   11  C   UNL     1     -10.747   7.443  69.261  1.00  0.00    -0.185 C  
BRANCH  11  12
HETATM   12  C   UNL     1      -9.873   8.555  68.674  1.00  0.00    -0.170 C  
BRANCH  12  13
HETATM   13  S   UNL     1     -10.051   8.451  66.860  1.00  0.00    -0.312 SA 
BRANCH  13  14
HETATM   14  C   UNL     1     -10.122  10.220  66.433  1.00  0.00    -0.234 C  
BRANCH  14  15
HETATM   15  C   UNL     1     -10.033  10.380  64.950  1.00  0.00    -0.339 A  
HETATM   16  C   UNL     1     -10.729  11.238  64.114  1.00  0.00    -0.369 A  
HETATM   17  C   UNL     1     -11.778  12.250  64.368  1.00  0.00    -0.437 C  
HETATM   18  N   UNL     1     -10.225  10.997  62.860  1.00  0.00    -0.721 NA 
HETATM   19  H   UNL     1     -10.511  11.462  61.998  1.00  0.00     0.000 HD 
HETATM   20  C   UNL     1      -9.274  10.025  62.972  1.00  0.00    -0.286 A  
HETATM   21  N   UNL     1      -9.144   9.622  64.214  1.00  0.00    -0.239 NA 
ENDBRANCH  14  15
ENDBRANCH  13  14
ENDBRANCH  12  13
ENDBRANCH  11  12
ENDBRANCH   5  11
TORSDOF 5
ENDMDL
MODEL      103
REMARK 921   NORMALIZED FREE ENERGY PREDICTED BY IDOCK:   -4.09 KCAL/MOL
REMARK 922        TOTAL FREE ENERGY PREDICTED BY IDOCK:   -6.24 KCAL/MOL
REMARK 923 INTER-LIGAND FREE ENERGY PREDICTED BY IDOCK:   -5.82 KCAL/MOL
REMARK 924 INTRA-LIGAND FREE ENERGY PREDICTED BY IDOCK:   -0.43 KCAL/MOL
REMARK 927      BINDING AFFINITY PREDICTED BY RF-SCORE:    0.00 PKD
ROOT
HETATM    1  C   UNL     1      -8.321  11.701  66.807  1.00  0.00    -0.171 C  
HETATM    2  N   UNL     1      -9.541  12.079  67.477  1.00  0.00    -0.175 NA 
HETATM    3  C   UNL     1     -10.734  12.301  66.851  1.00  0.00    -0.232 C  
HETATM    4  H   UNL     1      -9.511  12.188  68.491  1.00  0.00     0.000 HD 
HETATM    5  N   UNL     1     -11.744  12.688  67.701  1.00  0.00    -0.355 NA 
HETATM    6  N   UNL     1     -10.831  12.133  65.566  1.00  0.00    -0.274 NA 
HETATM    7  C   UNL     1     -12.007  12.347  64.978  1.00  0.00    -0.402 C  
HETATM    8  H   UNL     1     -12.659  12.858  67.280  1.00  0.00     0.000 HD 
HETATM    9  N   UNL     1     -13.048  12.543  64.504  1.00  0.00    -0.839 NA 
HETATM   10  H   UNL     1     -10.021  11.844  65.018  1.00  0.00     0.000 HD 
ENDROOT
BRANCH   5  11
HETATM   11  C   UNL     1     -11.639  12.879  69.136  1.00  0.00    -0.322 C  
BRANCH  11  12
HETATM   12  C   UNL     1     -11.917  14.314  69.592  1.00  0.00    -0.336 C  
BRANCH  12  13
HETATM   13  S   UNL     1     -10.316  15.192  69.548  1.00  0.00    -0.224 SA 
BRANCH  13  14
HETATM   14  C   UNL     1     -10.818  16.752  68.754  1.00  0.00    -0.318 C  
BRANCH  14  15
HETATM   15  C   UNL     1      -9.854  17.088  67.661  1.00  0.00    -0.257 A  
HETATM   16  C   UNL     1      -9.706  18.268  66.951  1.00  0.00    -0.315 A  
HETATM   17  C   UNL     1     -10.423  19.562  67.000  1.00  0.00    -0.587 C  
HETATM   18  N   UNL     1      -8.650  18.042  66.105  1.00  0.00    -0.491 NA 
HETATM   19  H   UNL     1      -8.262  18.708  65.436  1.00  0.00     0.000 HD 
HETATM   20  C   UNL     1      -8.210  16.768  66.317  1.00  0.00    -0.324 A  
HETATM   21  N   UNL     1      -8.923  16.162  67.237  1.00  0.00    -0.193 NA 
ENDBRANCH  14  15
ENDBRANCH  13  14
ENDBRANCH  12  13
ENDBRANCH  11  12
ENDBRANCH   5  11
TORSDOF 5
ENDMDL
MODEL      104
REMARK 921   NORMALIZED FREE ENERGY PREDICTED BY IDOCK:   -4.07 KCAL/MOL
REMARK 922        TOTAL FREE ENERGY PREDICTED BY IDOCK:   -6.22 KCAL/MOL
REMARK 923 INTER-LIGAND FREE ENERGY PREDICTED BY IDOCK:   -5.59 KCAL/MOL
REMARK 924 INTRA-LIGAND FREE ENERGY PREDICTED BY IDOCK:   -0.64 KCAL/MOL
REMARK 927      BINDING AFFINITY PREDICTED BY RF-SCORE:    0.00 PKD
ROOT
HETATM    1  C   UNL     1     -10.111   5.020  65.858  1.00  0.00    -0.168 C  
HETATM    2  N   UNL     1     -10.499   5.585  67.128  1.00  0.00    -0.249 NA 
HETATM    3  C   UNL     1     -10.479   6.918  67.422  1.00  0.00    -0.269 C  
HETATM    4  H   UNL     1     -10.809   4.944  67.857  1.00  0.00     0.000 HD 
HETATM    5  N   UNL     1     -10.857   7.208  68.712  1.00  0.00    -0.395 NA 
HETATM    6  N   UNL     1     -10.130   7.776  66.511  1.00  0.00    -0.453 NA 
HETATM    7  C   UNL     1     -10.126   9.073  66.819  1.00  0.00    -0.274 C  
HETATM    8  H   UNL     1     -10.866   8.193  68.979  1.00  0.00     0.000 HD 
HETATM    9  N   UNL     1     -10.137  10.192  67.126  1.00  0.00    -0.199 NA 
HETATM   10  H   UNL     1      -9.864   7.463  65.578  1.00  0.00     0.000 HD 
ENDROOT
BRANCH   5  11
HETATM   11  C   UNL     1     -11.244   6.251  69.734  1.00  0.00    -0.430 C  
BRANCH  11  12
HETATM   12  C   UNL     1     -10.254   6.152  70.897  1.00  0.00    -0.201 C  
BRANCH  12  13
HETATM   13  S   UNL     1     -11.214   6.445  72.423  1.00  0.00    -0.286 SA 
BRANCH  13  14
HETATM   14  C   UNL     1     -10.914   8.226  72.664  1.00  0.00    -0.316 C  
BRANCH  14  15
HETATM   15  C   UNL     1     -11.697   9.004  71.656  1.00  0.00    -0.361 A  
HETATM   16  C   UNL     1     -13.070   9.117  71.505  1.00  0.00    -0.349 A  
HETATM   17  C   UNL     1     -14.209   8.524  72.239  1.00  0.00    -0.471 C  
HETATM   18  N   UNL     1     -13.240   9.987  70.457  1.00  0.00    -0.601 NA 
HETATM   19  H   UNL     1     -14.133  10.301  70.076  1.00  0.00     0.000 HD 
HETATM   20  C   UNL     1     -12.004  10.355  70.015  1.00  0.00    -0.247 A  
HETATM   21  N   UNL     1     -11.053   9.770  70.706  1.00  0.00    -0.320 NA 
ENDBRANCH  14  15
ENDBRANCH  13  14
ENDBRANCH  12  13
ENDBRANCH  11  12
ENDBRANCH   5  11
TORSDOF 5
ENDMDL
MODEL      105
REMARK 921   NORMALIZED FREE ENERGY PREDICTED BY IDOCK:   -4.06 KCAL/MOL
REMARK 922        TOTAL FREE ENERGY PREDICTED BY IDOCK:   -6.21 KCAL/MOL
REMARK 923 INTER-LIGAND FREE ENERGY PREDICTED BY IDOCK:   -5.85 KCAL/MOL
REMARK 924 INTRA-LIGAND FREE ENERGY PREDICTED BY IDOCK:   -0.36 KCAL/MOL
REMARK 927      BINDING AFFINITY PREDICTED BY RF-SCORE:    0.00 PKD
ROOT
HETATM    1  C   UNL     1     -13.996   8.693  71.780  1.00  0.00    -0.434 C  
HETATM    2  N   UNL     1     -13.176   9.638  71.061  1.00  0.00    -0.554 NA 
HETATM    3  C   UNL     1     -11.812   9.669  71.100  1.00  0.00    -0.367 C  
HETATM    4  H   UNL     1     -13.649  10.331  70.482  1.00  0.00     0.000 HD 
HETATM    5  N   UNL     1     -11.257  10.687  70.360  1.00  0.00    -0.417 NA 
HETATM    6  N   UNL     1     -11.164   8.779  71.791  1.00  0.00    -0.315 NA 
HETATM    7  C   UNL     1      -9.832   8.824  71.808  1.00  0.00    -0.321 C  
HETATM    8  H   UNL     1     -10.239  10.748  70.351  1.00  0.00     0.000 HD 
HETATM    9  N   UNL     1      -8.674   8.898  71.797  1.00  0.00    -0.356 NA 
HETATM   10  H   UNL     1     -11.666   8.060  72.311  1.00  0.00     0.000 HD 
ENDROOT
BRANCH   5  11
HETATM   11  C   UNL     1     -11.978  11.685  69.589  1.00  0.00    -0.324 C  
BRANCH  11  12
HETATM   12  C   UNL     1     -11.782  11.560  68.076  1.00  0.00    -0.273 C  
BRANCH  12  13
HETATM   13  S   UNL     1     -11.832  13.257  67.404  1.00  0.00    -0.346 SA 
BRANCH  13  14
HETATM   14  C   UNL     1     -10.301  13.939  68.117  1.00  0.00    -0.247 C  
BRANCH  14  15
HETATM   15  C   UNL     1     -10.490  15.394  68.405  1.00  0.00    -0.239 A  
HETATM   16  C   UNL     1     -10.947  16.010  69.560  1.00  0.00    -0.326 A  
HETATM   17  C   UNL     1     -11.408  15.479  70.861  1.00  0.00    -0.406 C  
HETATM   18  N   UNL     1     -10.878  17.354  69.294  1.00  0.00    -0.296 NA 
HETATM   19  H   UNL     1     -11.136  18.107  69.932  1.00  0.00     0.000 HD 
HETATM   20  C   UNL     1     -10.404  17.505  68.024  1.00  0.00    -0.368 A  
HETATM   21  N   UNL     1     -10.174  16.345  67.456  1.00  0.00    -0.267 NA 
ENDBRANCH  14  15
ENDBRANCH  13  14
ENDBRANCH  12  13
ENDBRANCH  11  12
ENDBRANCH   5  11
TORSDOF 5
ENDMDL
MODEL      106
REMARK 921   NORMALIZED FREE ENERGY PREDICTED BY IDOCK:   -4.06 KCAL/MOL
REMARK 922        TOTAL FREE ENERGY PREDICTED BY IDOCK:   -6.21 KCAL/MOL
REMARK 923 INTER-LIGAND FREE ENERGY PREDICTED BY IDOCK:   -5.72 KCAL/MOL
REMARK 924 INTRA-LIGAND FREE ENERGY PREDICTED BY IDOCK:   -0.48 KCAL/MOL
REMARK 927      BINDING AFFINITY PREDICTED BY RF-SCORE:    0.00 PKD
ROOT
HETATM    1  C   UNL     1     -11.416  16.095  69.390  1.00  0.00    -0.296 C  
HETATM    2  N   UNL     1     -11.533  14.658  69.361  1.00  0.00    -0.279 NA 
HETATM    3  C   UNL     1     -11.937  13.934  68.275  1.00  0.00    -0.357 C  
HETATM    4  H   UNL     1     -11.297  14.145  70.210  1.00  0.00     0.000 HD 
HETATM    5  N   UNL     1     -12.005  12.580  68.505  1.00  0.00    -0.284 NA 
HETATM    6  N   UNL     1     -12.207  14.541  67.159  1.00  0.00    -0.558 NA 
HETATM    7  C   UNL     1     -12.591  13.813  66.110  1.00  0.00    -0.371 C  
HETATM    8  H   UNL     1     -12.295  11.994  67.720  1.00  0.00     0.000 HD 
HETATM    9  N   UNL     1     -12.921  13.144  65.221  1.00  0.00    -0.700 NA 
HETATM   10  H   UNL     1     -12.127  15.554  67.086  1.00  0.00     0.000 HD 
ENDROOT
BRANCH   5  11
HETATM   11  C   UNL     1     -11.707  11.899  69.752  1.00  0.00    -0.331 C  
BRANCH  11  12
HETATM   12  C   UNL     1     -12.481  10.592  69.946  1.00  0.00    -0.173 C  
BRANCH  12  13
HETATM   13  S   UNL     1     -11.521   9.592  71.134  1.00  0.00    -0.390 SA 
BRANCH  13  14
HETATM   14  C   UNL     1     -10.057   9.197  70.125  1.00  0.00    -0.202 C  
BRANCH  14  15
HETATM   15  C   UNL     1     -10.442   8.246  69.038  1.00  0.00    -0.197 A  
HETATM   16  C   UNL     1     -10.531   8.461  67.672  1.00  0.00    -0.239 A  
HETATM   17  C   UNL     1     -10.305   9.656  66.830  1.00  0.00    -0.307 C  
HETATM   18  N   UNL     1     -10.882   7.244  67.144  1.00  0.00    -0.498 NA 
HETATM   19  H   UNL     1     -11.030   7.037  66.156  1.00  0.00     0.000 HD 
HETATM   20  C   UNL     1     -10.999   6.359  68.176  1.00  0.00    -0.307 A  
HETATM   21  N   UNL     1     -10.755   6.934  69.330  1.00  0.00    -0.235 NA 
ENDBRANCH  14  15
ENDBRANCH  13  14
ENDBRANCH  12  13
ENDBRANCH  11  12
ENDBRANCH   5  11
TORSDOF 5
ENDMDL
MODEL      107
REMARK 921   NORMALIZED FREE ENERGY PREDICTED BY IDOCK:   -4.05 KCAL/MOL
REMARK 922        TOTAL FREE ENERGY PREDICTED BY IDOCK:   -6.20 KCAL/MOL
REMARK 923 INTER-LIGAND FREE ENERGY PREDICTED BY IDOCK:   -5.71 KCAL/MOL
REMARK 924 INTRA-LIGAND FREE ENERGY PREDICTED BY IDOCK:   -0.50 KCAL/MOL
REMARK 927      BINDING AFFINITY PREDICTED BY RF-SCORE:    0.00 PKD
ROOT
HETATM    1  C   UNL     1      -8.878  10.851  62.417  1.00  0.00    -0.313 C  
HETATM    2  N   UNL     1      -9.972  11.366  63.205  1.00  0.00    -0.502 NA 
HETATM    3  C   UNL     1     -10.260  10.977  64.481  1.00  0.00    -0.344 C  
HETATM    4  H   UNL     1     -10.572  12.072  62.778  1.00  0.00     0.000 HD 
HETATM    5  N   UNL     1     -11.376  11.584  65.009  1.00  0.00    -0.163 NA 
HETATM    6  N   UNL     1      -9.499  10.112  65.080  1.00  0.00    -0.237 NA 
HETATM    7  C   UNL     1      -9.794   9.753  66.330  1.00  0.00    -0.250 C  
HETATM    8  H   UNL     1     -11.628  11.331  65.965  1.00  0.00     0.000 HD 
HETATM    9  N   UNL     1     -10.086   9.468  67.416  1.00  0.00    -0.193 NA 
HETATM   10  H   UNL     1      -8.690   9.714  64.604  1.00  0.00     0.000 HD 
ENDROOT
BRANCH   5  11
HETATM   11  C   UNL     1     -12.231  12.549  64.340  1.00  0.00    -0.449 C  
BRANCH  11  12
HETATM   12  C   UNL     1     -12.570  13.773  65.196  1.00  0.00    -0.433 C  
BRANCH  12  13
HETATM   13  S   UNL     1     -11.050  14.203  66.111  1.00  0.00    -0.318 SA 
BRANCH  13  14
HETATM   14  C   UNL     1     -11.768  14.936  67.616  1.00  0.00    -0.307 C  
BRANCH  14  15
HETATM   15  C   UNL     1     -11.842  13.898  68.689  1.00  0.00    -0.372 A  
HETATM   16  C   UNL     1     -12.359  13.994  69.972  1.00  0.00    -0.337 A  
HETATM   17  C   UNL     1     -12.981  15.109  70.718  1.00  0.00    -0.468 C  
HETATM   18  N   UNL     1     -12.211  12.740  70.507  1.00  0.00    -0.419 NA 
HETATM   19  H   UNL     1     -12.492  12.449  71.444  1.00  0.00     0.000 HD 
HETATM   20  C   UNL     1     -11.621  11.950  69.565  1.00  0.00    -0.327 A  
HETATM   21  N   UNL     1     -11.372  12.620  68.464  1.00  0.00    -0.272 NA 
ENDBRANCH  14  15
ENDBRANCH  13  14
ENDBRANCH  12  13
ENDBRANCH  11  12
ENDBRANCH   5  11
TORSDOF 5
ENDMDL
MODEL      108
REMARK 921   NORMALIZED FREE ENERGY PREDICTED BY IDOCK:   -4.04 KCAL/MOL
REMARK 922        TOTAL FREE ENERGY PREDICTED BY IDOCK:   -6.19 KCAL/MOL
REMARK 923 INTER-LIGAND FREE ENERGY PREDICTED BY IDOCK:   -5.77 KCAL/MOL
REMARK 924 INTRA-LIGAND FREE ENERGY PREDICTED BY IDOCK:   -0.42 KCAL/MOL
REMARK 927      BINDING AFFINITY PREDICTED BY RF-SCORE:    0.00 PKD
ROOT
HETATM    1  C   UNL     1     -11.519  15.404  64.231  1.00  0.00    -0.171 C  
HETATM    2  N   UNL     1     -10.845  15.606  65.491  1.00  0.00    -0.350 NA 
HETATM    3  C   UNL     1     -10.472  16.823  65.984  1.00  0.00    -0.293 C  
HETATM    4  H   UNL     1     -10.633  14.781  66.052  1.00  0.00     0.000 HD 
HETATM    5  N   UNL     1      -9.810  16.755  67.188  1.00  0.00    -0.252 NA 
HETATM    6  N   UNL     1     -10.759  17.904  65.324  1.00  0.00    -0.565 NA 
HETATM    7  C   UNL     1     -10.393  19.082  65.830  1.00  0.00    -0.371 C  
HETATM    8  H   UNL     1      -9.517  17.640  67.603  1.00  0.00     0.000 HD 
HETATM    9  N   UNL     1     -10.057  20.086  66.305  1.00  0.00    -0.477 NA 
HETATM   10  H   UNL     1     -11.255  17.853  64.435  1.00  0.00     0.000 HD 
ENDROOT
BRANCH   5  11
HETATM   11  C   UNL     1      -9.485  15.548  67.927  1.00  0.00    -0.201 C  
BRANCH  11  12
HETATM   12  C   UNL     1      -9.891  15.597  69.403  1.00  0.00    -0.284 C  
BRANCH  12  13
HETATM   13  S   UNL     1     -11.558  14.859  69.506  1.00  0.00    -0.323 SA 
BRANCH  13  14
HETATM   14  C   UNL     1     -11.357  13.432  68.393  1.00  0.00    -0.294 C  
BRANCH  14  15
HETATM   15  C   UNL     1     -11.700  12.175  69.127  1.00  0.00    -0.328 A  
HETATM   16  C   UNL     1     -11.520  10.856  68.743  1.00  0.00    -0.308 A  
HETATM   17  C   UNL     1     -10.966  10.237  67.519  1.00  0.00    -0.344 C  
HETATM   18  N   UNL     1     -11.967  10.114  69.808  1.00  0.00    -0.478 NA 
HETATM   19  H   UNL     1     -11.976   9.096  69.869  1.00  0.00     0.000 HD 
HETATM   20  C   UNL     1     -12.397  10.980  70.769  1.00  0.00    -0.398 A  
HETATM   21  N   UNL     1     -12.264  12.228  70.386  1.00  0.00    -0.329 NA 
ENDBRANCH  14  15
ENDBRANCH  13  14
ENDBRANCH  12  13
ENDBRANCH  11  12
ENDBRANCH   5  11
TORSDOF 5
ENDMDL
MODEL      109
REMARK 921   NORMALIZED FREE ENERGY PREDICTED BY IDOCK:   -4.04 KCAL/MOL
REMARK 922        TOTAL FREE ENERGY PREDICTED BY IDOCK:   -6.18 KCAL/MOL
REMARK 923 INTER-LIGAND FREE ENERGY PREDICTED BY IDOCK:   -5.51 KCAL/MOL
REMARK 924 INTRA-LIGAND FREE ENERGY PREDICTED BY IDOCK:   -0.67 KCAL/MOL
REMARK 927      BINDING AFFINITY PREDICTED BY RF-SCORE:    0.00 PKD
ROOT
HETATM    1  C   UNL     1     -12.559  12.652  63.336  1.00  0.00    -0.260 C  
HETATM    2  N   UNL     1     -11.778  12.050  64.389  1.00  0.00    -0.338 NA 
HETATM    3  C   UNL     1     -10.738  11.189  64.188  1.00  0.00    -0.345 C  
HETATM    4  H   UNL     1     -12.021  12.283  65.352  1.00  0.00     0.000 HD 
HETATM    5  N   UNL     1     -10.174  10.718  65.351  1.00  0.00    -0.277 NA 
HETATM    6  N   UNL     1     -10.366  10.895  62.979  1.00  0.00    -0.754 NA 
HETATM    7  C   UNL     1      -9.341  10.060  62.807  1.00  0.00    -0.260 C  
HETATM    8  H   UNL     1      -9.386  10.077  65.254  1.00  0.00     0.000 HD 
HETATM    9  N   UNL     1      -8.446   9.330  62.701  1.00  0.00    -0.195 NA 
HETATM   10  H   UNL     1     -10.848  11.297  62.176  1.00  0.00     0.000 HD 
ENDROOT
BRANCH   5  11
HETATM   11  C   UNL     1     -10.589  11.042  66.705  1.00  0.00    -0.262 C  
BRANCH  11  12
HETATM   12  C   UNL     1      -9.441  11.481  67.617  1.00  0.00    -0.168 C  
BRANCH  12  13
HETATM   13  S   UNL     1      -8.990  13.175  67.103  1.00  0.00    -0.231 SA 
BRANCH  13  14
HETATM   14  C   UNL     1     -10.568  14.037  67.390  1.00  0.00    -0.278 C  
BRANCH  14  15
HETATM   15  C   UNL     1     -10.675  15.203  66.460  1.00  0.00    -0.310 A  
HETATM   16  C   UNL     1     -10.363  16.535  66.681  1.00  0.00    -0.298 A  
HETATM   17  C   UNL     1      -9.850  17.260  67.864  1.00  0.00    -0.283 C  
HETATM   18  N   UNL     1     -10.609  17.159  65.484  1.00  0.00    -0.579 NA 
HETATM   19  H   UNL     1     -10.481  18.151  65.285  1.00  0.00     0.000 HD 
HETATM   20  C   UNL     1     -11.057  16.216  64.606  1.00  0.00    -0.296 A  
HETATM   21  N   UNL     1     -11.122  15.031  65.166  1.00  0.00    -0.380 NA 
ENDBRANCH  14  15
ENDBRANCH  13  14
ENDBRANCH  12  13
ENDBRANCH  11  12
ENDBRANCH   5  11
TORSDOF 5
ENDMDL
MODEL      110
REMARK 921   NORMALIZED FREE ENERGY PREDICTED BY IDOCK:   -4.04 KCAL/MOL
REMARK 922        TOTAL FREE ENERGY PREDICTED BY IDOCK:   -6.18 KCAL/MOL
REMARK 923 INTER-LIGAND FREE ENERGY PREDICTED BY IDOCK:   -5.46 KCAL/MOL
REMARK 924 INTRA-LIGAND FREE ENERGY PREDICTED BY IDOCK:   -0.72 KCAL/MOL
REMARK 927      BINDING AFFINITY PREDICTED BY RF-SCORE:    0.00 PKD
ROOT
HETATM    1  C   UNL     1     -13.978  14.585  72.143  1.00  0.00    -0.501 C  
HETATM    2  N   UNL     1     -13.318  13.453  71.539  1.00  0.00    -0.308 NA 
HETATM    3  C   UNL     1     -12.287  13.540  70.649  1.00  0.00    -0.358 C  
HETATM    4  H   UNL     1     -13.646  12.521  71.795  1.00  0.00     0.000 HD 
HETATM    5  N   UNL     1     -11.850  12.322  70.183  1.00  0.00    -0.493 NA 
HETATM    6  N   UNL     1     -11.809  14.704  70.325  1.00  0.00    -0.285 NA 
HETATM    7  C   UNL     1     -10.796  14.764  69.461  1.00  0.00    -0.250 C  
HETATM    8  H   UNL     1     -11.074  12.334  69.521  1.00  0.00     0.000 HD 
HETATM    9  N   UNL     1      -9.915  14.773  68.706  1.00  0.00    -0.229 NA 
HETATM   10  H   UNL     1     -12.202  15.555  70.725  1.00  0.00     0.000 HD 
ENDROOT
BRANCH   5  11
HETATM   11  C   UNL     1     -12.384  11.019  70.541  1.00  0.00    -0.373 C  
BRANCH  11  12
HETATM   12  C   UNL     1     -11.311   9.952  70.773  1.00  0.00    -0.353 C  
BRANCH  12  13
HETATM   13  S   UNL     1      -9.996  10.263  69.545  1.00  0.00    -0.204 SA 
BRANCH  13  14
HETATM   14  C   UNL     1     -10.912   9.964  67.999  1.00  0.00    -0.213 C  
BRANCH  14  15
HETATM   15  C   UNL     1     -10.808  11.167  67.117  1.00  0.00    -0.273 A  
HETATM   16  C   UNL     1      -9.724  11.634  66.391  1.00  0.00    -0.214 A  
HETATM   17  C   UNL     1      -8.335  11.147  66.242  1.00  0.00    -0.163 C  
HETATM   18  N   UNL     1     -10.192  12.740  65.728  1.00  0.00    -0.285 NA 
HETATM   19  H   UNL     1      -9.657  13.333  65.094  1.00  0.00     0.000 HD 
HETATM   20  C   UNL     1     -11.502  12.908  66.070  1.00  0.00    -0.340 A  
HETATM   21  N   UNL     1     -11.900  11.986  66.915  1.00  0.00    -0.616 NA 
ENDBRANCH  14  15
ENDBRANCH  13  14
ENDBRANCH  12  13
ENDBRANCH  11  12
ENDBRANCH   5  11
TORSDOF 5
ENDMDL
MODEL      111
REMARK 921   NORMALIZED FREE ENERGY PREDICTED BY IDOCK:   -4.02 KCAL/MOL
REMARK 922        TOTAL FREE ENERGY PREDICTED BY IDOCK:   -6.16 KCAL/MOL
REMARK 923 INTER-LIGAND FREE ENERGY PREDICTED BY IDOCK:   -5.33 KCAL/MOL
REMARK 924 INTRA-LIGAND FREE ENERGY PREDICTED BY IDOCK:   -0.84 KCAL/MOL
REMARK 927      BINDING AFFINITY PREDICTED BY RF-SCORE:    0.00 PKD
ROOT
HETATM    1  C   UNL     1      -7.820  13.961  67.776  1.00  0.00    -0.168 C  
HETATM    2  N   UNL     1      -8.458  13.006  66.903  1.00  0.00    -0.390 NA 
HETATM    3  C   UNL     1      -9.086  11.869  67.323  1.00  0.00    -0.178 C  
HETATM    4  H   UNL     1      -8.439  13.194  65.901  1.00  0.00     0.000 HD 
HETATM    5  N   UNL     1      -9.585  11.099  66.298  1.00  0.00    -0.200 NA 
HETATM    6  N   UNL     1      -9.171  11.609  68.593  1.00  0.00    -0.338 NA 
HETATM    7  C   UNL     1      -9.797  10.497  68.979  1.00  0.00    -0.212 C  
HETATM    8  H   UNL     1     -10.071  10.241  66.561  1.00  0.00     0.000 HD 
HETATM    9  N   UNL     1     -10.349   9.520  69.274  1.00  0.00    -0.200 NA 
HETATM   10  H   UNL     1      -8.768  12.243  69.281  1.00  0.00     0.000 HD 
ENDROOT
BRANCH   5  11
HETATM   11  C   UNL     1      -9.488  11.385  64.877  1.00  0.00    -0.171 C  
BRANCH  11  12
HETATM   12  C   UNL     1     -10.733  10.988  64.079  1.00  0.00    -0.261 C  
BRANCH  12  13
HETATM   13  S   UNL     1     -11.542  12.545  63.573  1.00  0.00    -0.499 SA 
BRANCH  13  14
HETATM   14  C   UNL     1     -12.389  12.995  65.122  1.00  0.00    -0.484 C  
BRANCH  14  15
HETATM   15  C   UNL     1     -11.744  14.210  65.708  1.00  0.00    -0.359 A  
HETATM   16  C   UNL     1     -11.600  14.574  67.037  1.00  0.00    -0.386 A  
HETATM   17  C   UNL     1     -12.025  13.935  68.301  1.00  0.00    -0.392 C  
HETATM   18  N   UNL     1     -10.897  15.752  67.007  1.00  0.00    -0.305 NA 
HETATM   19  H   UNL     1     -10.609  16.301  67.817  1.00  0.00     0.000 HD 
HETATM   20  C   UNL     1     -10.651  16.058  65.701  1.00  0.00    -0.377 A  
HETATM   21  N   UNL     1     -11.160  15.158  64.893  1.00  0.00    -0.410 NA 
ENDBRANCH  14  15
ENDBRANCH  13  14
ENDBRANCH  12  13
ENDBRANCH  11  12
ENDBRANCH   5  11
TORSDOF 5
ENDMDL
MODEL      112
REMARK 921   NORMALIZED FREE ENERGY PREDICTED BY IDOCK:   -4.02 KCAL/MOL
REMARK 922        TOTAL FREE ENERGY PREDICTED BY IDOCK:   -6.16 KCAL/MOL
REMARK 923 INTER-LIGAND FREE ENERGY PREDICTED BY IDOCK:   -5.49 KCAL/MOL
REMARK 924 INTRA-LIGAND FREE ENERGY PREDICTED BY IDOCK:   -0.67 KCAL/MOL
REMARK 927      BINDING AFFINITY PREDICTED BY RF-SCORE:    0.00 PKD
ROOT
HETATM    1  C   UNL     1     -12.033  11.715  70.200  1.00  0.00    -0.359 C  
HETATM    2  N   UNL     1     -11.897  11.885  68.774  1.00  0.00    -0.319 NA 
HETATM    3  C   UNL     1     -11.410  10.936  67.922  1.00  0.00    -0.308 C  
HETATM    4  H   UNL     1     -12.186  12.777  68.373  1.00  0.00     0.000 HD 
HETATM    5  N   UNL     1     -11.342  11.347  66.611  1.00  0.00    -0.387 NA 
HETATM    6  N   UNL     1     -11.069   9.769  68.381  1.00  0.00    -0.473 NA 
HETATM    7  C   UNL     1     -10.605   8.855  67.529  1.00  0.00    -0.237 C  
HETATM    8  H   UNL     1     -10.992  10.669  65.934  1.00  0.00     0.000 HD 
HETATM    9  N   UNL     1     -10.206   8.088  66.755  1.00  0.00    -0.300 NA 
HETATM   10  H   UNL     1     -11.156   9.556  69.374  1.00  0.00     0.000 HD 
ENDROOT
BRANCH   5  11
HETATM   11  C   UNL     1     -11.719  12.652  66.096  1.00  0.00    -0.406 C  
BRANCH  11  12
HETATM   12  C   UNL     1     -10.593  13.371  65.347  1.00  0.00    -0.303 C  
BRANCH  12  13
HETATM   13  S   UNL     1     -11.170  15.080  65.061  1.00  0.00    -0.410 SA 
BRANCH  13  14
HETATM   14  C   UNL     1     -10.092  15.989  66.214  1.00  0.00    -0.313 C  
BRANCH  14  15
HETATM   15  C   UNL     1     -10.354  15.527  67.612  1.00  0.00    -0.269 A  
HETATM   16  C   UNL     1      -9.504  14.892  68.503  1.00  0.00    -0.210 A  
HETATM   17  C   UNL     1      -8.098  14.445  68.397  1.00  0.00    -0.143 C  
HETATM   18  N   UNL     1     -10.242  14.740  69.649  1.00  0.00    -0.428 NA 
HETATM   19  H   UNL     1      -9.923  14.311  70.517  1.00  0.00     0.000 HD 
HETATM   20  C   UNL     1     -11.481  15.264  69.421  1.00  0.00    -0.315 A  
HETATM   21  N   UNL     1     -11.586  15.733  68.200  1.00  0.00    -0.311 NA 
ENDBRANCH  14  15
ENDBRANCH  13  14
ENDBRANCH  12  13
ENDBRANCH  11  12
ENDBRANCH   5  11
TORSDOF 5
ENDMDL
MODEL      113
REMARK 921   NORMALIZED FREE ENERGY PREDICTED BY IDOCK:   -4.02 KCAL/MOL
REMARK 922        TOTAL FREE ENERGY PREDICTED BY IDOCK:   -6.16 KCAL/MOL
REMARK 923 INTER-LIGAND FREE ENERGY PREDICTED BY IDOCK:   -5.90 KCAL/MOL
REMARK 924 INTRA-LIGAND FREE ENERGY PREDICTED BY IDOCK:   -0.26 KCAL/MOL
REMARK 927      BINDING AFFINITY PREDICTED BY RF-SCORE:    0.00 PKD
ROOT
HETATM    1  C   UNL     1     -12.785  12.088  63.261  1.00  0.00    -0.303 C  
HETATM    2  N   UNL     1     -11.663  12.274  64.148  1.00  0.00    -0.372 NA 
HETATM    3  C   UNL     1     -10.394  11.839  63.895  1.00  0.00    -0.385 C  
HETATM    4  H   UNL     1     -11.829  12.765  65.026  1.00  0.00     0.000 HD 
HETATM    5  N   UNL     1      -9.504  12.101  64.911  1.00  0.00    -0.450 NA 
HETATM    6  N   UNL     1     -10.125  11.245  62.771  1.00  0.00    -0.614 NA 
HETATM    7  C   UNL     1      -8.877  10.837  62.543  1.00  0.00    -0.296 C  
HETATM    8  H   UNL     1      -8.539  11.802  64.765  1.00  0.00     0.000 HD 
HETATM    9  N   UNL     1      -7.779  10.497  62.382  1.00  0.00    -0.154 NA 
HETATM   10  H   UNL     1     -10.856  11.094  62.077  1.00  0.00     0.000 HD 
ENDROOT
BRANCH   5  11
HETATM   11  C   UNL     1      -9.801  12.762  66.170  1.00  0.00    -0.267 C  
BRANCH  11  12
HETATM   12  C   UNL     1      -9.730  14.289  66.099  1.00  0.00    -0.303 C  
BRANCH  12  13
HETATM   13  S   UNL     1      -9.893  14.896  67.814  1.00  0.00    -0.218 SA 
BRANCH  13  14
HETATM   14  C   UNL     1     -11.696  14.774  68.037  1.00  0.00    -0.333 C  
BRANCH  14  15
HETATM   15  C   UNL     1     -11.997  13.880  69.197  1.00  0.00    -0.363 A  
HETATM   16  C   UNL     1     -12.470  14.204  70.458  1.00  0.00    -0.361 A  
HETATM   17  C   UNL     1     -12.819  15.493  71.094  1.00  0.00    -0.551 C  
HETATM   18  N   UNL     1     -12.606  13.002  71.105  1.00  0.00    -0.353 NA 
HETATM   19  H   UNL     1     -12.939  12.867  72.059  1.00  0.00     0.000 HD 
HETATM   20  C   UNL     1     -12.215  12.018  70.244  1.00  0.00    -0.266 A  
HETATM   21  N   UNL     1     -11.829  12.514  69.093  1.00  0.00    -0.306 NA 
ENDBRANCH  14  15
ENDBRANCH  13  14
ENDBRANCH  12  13
ENDBRANCH  11  12
ENDBRANCH   5  11
TORSDOF 5
ENDMDL
MODEL      114
REMARK 921   NORMALIZED FREE ENERGY PREDICTED BY IDOCK:   -4.02 KCAL/MOL
REMARK 922        TOTAL FREE ENERGY PREDICTED BY IDOCK:   -6.15 KCAL/MOL
REMARK 923 INTER-LIGAND FREE ENERGY PREDICTED BY IDOCK:   -5.61 KCAL/MOL
REMARK 924 INTRA-LIGAND FREE ENERGY PREDICTED BY IDOCK:   -0.54 KCAL/MOL
REMARK 927      BINDING AFFINITY PREDICTED BY RF-SCORE:    0.00 PKD
ROOT
HETATM    1  C   UNL     1      -7.601  15.501  69.124  1.00  0.00    -0.204 C  
HETATM    2  N   UNL     1      -8.966  15.708  69.540  1.00  0.00    -0.270 NA 
HETATM    3  C   UNL     1      -9.769  16.718  69.094  1.00  0.00    -0.204 C  
HETATM    4  H   UNL     1      -9.360  15.053  70.216  1.00  0.00     0.000 HD 
HETATM    5  N   UNL     1     -11.020  16.729  69.667  1.00  0.00    -0.372 NA 
HETATM    6  N   UNL     1      -9.324  17.551  68.202  1.00  0.00    -0.268 NA 
HETATM    7  C   UNL     1     -10.129  18.524  67.774  1.00  0.00    -0.364 C  
HETATM    8  H   UNL     1     -11.660  17.461  69.359  1.00  0.00     0.000 HD 
HETATM    9  N   UNL     1     -10.860  19.356  67.429  1.00  0.00    -0.490 NA 
HETATM   10  H   UNL     1      -8.377  17.462  67.836  1.00  0.00     0.000 HD 
ENDROOT
BRANCH   5  11
HETATM   11  C   UNL     1     -11.519  15.801  70.667  1.00  0.00    -0.390 C  
BRANCH  11  12
HETATM   12  C   UNL     1     -12.654  14.904  70.167  1.00  0.00    -0.264 C  
BRANCH  12  13
HETATM   13  S   UNL     1     -11.868  13.541  69.240  1.00  0.00    -0.342 SA 
BRANCH  13  14
HETATM   14  C   UNL     1     -12.281  14.021  67.533  1.00  0.00    -0.223 C  
BRANCH  14  15
HETATM   15  C   UNL     1     -11.404  13.276  66.578  1.00  0.00    -0.322 A  
HETATM   16  C   UNL     1     -10.351  13.738  65.806  1.00  0.00    -0.307 A  
HETATM   17  C   UNL     1      -9.748  15.079  65.638  1.00  0.00    -0.344 C  
HETATM   18  N   UNL     1      -9.876  12.628  65.155  1.00  0.00    -0.463 NA 
HETATM   19  H   UNL     1      -9.092  12.604  64.502  1.00  0.00     0.000 HD 
HETATM   20  C   UNL     1     -10.637  11.563  65.536  1.00  0.00    -0.281 A  
HETATM   21  N   UNL     1     -11.575  11.920  66.380  1.00  0.00    -0.501 NA 
ENDBRANCH  14  15
ENDBRANCH  13  14
ENDBRANCH  12  13
ENDBRANCH  11  12
ENDBRANCH   5  11
TORSDOF 5
ENDMDL
MODEL      115
REMARK 921   NORMALIZED FREE ENERGY PREDICTED BY IDOCK:   -4.01 KCAL/MOL
REMARK 922        TOTAL FREE ENERGY PREDICTED BY IDOCK:   -6.15 KCAL/MOL
REMARK 923 INTER-LIGAND FREE ENERGY PREDICTED BY IDOCK:   -5.95 KCAL/MOL
REMARK 924 INTRA-LIGAND FREE ENERGY PREDICTED BY IDOCK:   -0.20 KCAL/MOL
REMARK 927      BINDING AFFINITY PREDICTED BY RF-SCORE:    0.00 PKD
ROOT
HETATM    1  C   UNL     1     -12.351  12.562  63.522  1.00  0.00    -0.525 C  
HETATM    2  N   UNL     1     -11.787  13.587  64.368  1.00  0.00    -0.396 NA 
HETATM    3  C   UNL     1     -11.619  13.473  65.718  1.00  0.00    -0.330 C  
HETATM    4  H   UNL     1     -11.495  14.458  63.926  1.00  0.00     0.000 HD 
HETATM    5  N   UNL     1     -11.096  14.599  66.309  1.00  0.00    -0.331 NA 
HETATM    6  N   UNL     1     -11.939  12.366  66.318  1.00  0.00    -0.607 NA 
HETATM    7  C   UNL     1     -11.757  12.275  67.636  1.00  0.00    -0.334 C  
HETATM    8  H   UNL     1     -10.944  14.561  67.318  1.00  0.00     0.000 HD 
HETATM    9  N   UNL     1     -11.583  12.236  68.782  1.00  0.00    -0.306 NA 
HETATM   10  H   UNL     1     -12.322  11.582  65.791  1.00  0.00     0.000 HD 
ENDROOT
BRANCH   5  11
HETATM   11  C   UNL     1     -10.741  15.839  65.642  1.00  0.00    -0.348 C  
BRANCH  11  12
HETATM   12  C   UNL     1      -9.571  16.581  66.295  1.00  0.00    -0.306 C  
BRANCH  12  13
HETATM   13  S   UNL     1     -10.261  18.116  67.003  1.00  0.00    -0.380 SA 
BRANCH  13  14
HETATM   14  C   UNL     1      -9.171  19.354  66.232  1.00  0.00    -0.348 C  
BRANCH  14  15
HETATM   15  C   UNL     1      -7.746  18.926  66.381  1.00  0.00    -0.273 A  
HETATM   16  C   UNL     1      -6.955  18.884  67.518  1.00  0.00    -0.202 A  
HETATM   17  C   UNL     1      -7.211  19.245  68.929  1.00  0.00    -0.393 C  
HETATM   18  N   UNL     1      -5.754  18.373  67.094  1.00  0.00    -0.138 NA 
HETATM   19  H   UNL     1      -4.935  18.201  67.677  1.00  0.00     0.000 HD 
HETATM   20  C   UNL     1      -5.850  18.136  65.754  1.00  0.00    -0.215 A  
HETATM   21  N   UNL     1      -7.031  18.472  65.291  1.00  0.00    -0.517 NA 
ENDBRANCH  14  15
ENDBRANCH  13  14
ENDBRANCH  12  13
ENDBRANCH  11  12
ENDBRANCH   5  11
TORSDOF 5
ENDMDL
MODEL      116
REMARK 921   NORMALIZED FREE ENERGY PREDICTED BY IDOCK:   -4.00 KCAL/MOL
REMARK 922        TOTAL FREE ENERGY PREDICTED BY IDOCK:   -6.14 KCAL/MOL
REMARK 923 INTER-LIGAND FREE ENERGY PREDICTED BY IDOCK:   -5.95 KCAL/MOL
REMARK 924 INTRA-LIGAND FREE ENERGY PREDICTED BY IDOCK:   -0.18 KCAL/MOL
REMARK 927      BINDING AFFINITY PREDICTED BY RF-SCORE:    0.00 PKD
ROOT
HETATM    1  C   UNL     1     -12.392  10.961  70.733  1.00  0.00    -0.390 C  
HETATM    2  N   UNL     1     -12.261  11.995  69.735  1.00  0.00    -0.208 NA 
HETATM    3  C   UNL     1     -12.107  13.323  70.010  1.00  0.00    -0.315 C  
HETATM    4  H   UNL     1     -12.286  11.713  68.755  1.00  0.00     0.000 HD 
HETATM    5  N   UNL     1     -12.043  14.118  68.889  1.00  0.00    -0.485 NA 
HETATM    6  N   UNL     1     -12.028  13.723  71.243  1.00  0.00    -0.402 NA 
HETATM    7  C   UNL     1     -11.868  15.024  71.487  1.00  0.00    -0.372 C  
HETATM    8  H   UNL     1     -11.919  15.120  69.043  1.00  0.00     0.000 HD 
HETATM    9  N   UNL     1     -11.729  16.163  71.657  1.00  0.00    -0.494 NA 
HETATM   10  H   UNL     1     -12.087  13.055  72.010  1.00  0.00     0.000 HD 
ENDROOT
BRANCH   5  11
HETATM   11  C   UNL     1     -12.134  13.675  67.509  1.00  0.00    -0.316 C  
BRANCH  11  12
HETATM   12  C   UNL     1     -11.764  14.753  66.487  1.00  0.00    -0.271 C  
BRANCH  12  13
HETATM   13  S   UNL     1     -10.153  15.435  67.011  1.00  0.00    -0.254 SA 
BRANCH  13  14
HETATM   14  C   UNL     1     -10.222  17.079  66.231  1.00  0.00    -0.329 C  
BRANCH  14  15
HETATM   15  C   UNL     1      -9.937  18.130  67.256  1.00  0.00    -0.330 A  
HETATM   16  C   UNL     1      -8.830  18.283  68.075  1.00  0.00    -0.280 A  
HETATM   17  C   UNL     1      -7.591  17.492  68.239  1.00  0.00    -0.240 C  
HETATM   18  N   UNL     1      -9.071  19.432  68.784  1.00  0.00    -0.377 NA 
HETATM   19  H   UNL     1      -8.455  19.849  69.482  1.00  0.00     0.000 HD 
HETATM   20  C   UNL     1     -10.283  19.920  68.390  1.00  0.00    -0.433 A  
HETATM   21  N   UNL     1     -10.837  19.151  67.482  1.00  0.00    -0.459 NA 
ENDBRANCH  14  15
ENDBRANCH  13  14
ENDBRANCH  12  13
ENDBRANCH  11  12
ENDBRANCH   5  11
TORSDOF 5
ENDMDL
MODEL      117
REMARK 921   NORMALIZED FREE ENERGY PREDICTED BY IDOCK:   -3.99 KCAL/MOL
REMARK 922        TOTAL FREE ENERGY PREDICTED BY IDOCK:   -6.13 KCAL/MOL
REMARK 923 INTER-LIGAND FREE ENERGY PREDICTED BY IDOCK:   -5.79 KCAL/MOL
REMARK 924 INTRA-LIGAND FREE ENERGY PREDICTED BY IDOCK:   -0.33 KCAL/MOL
REMARK 927      BINDING AFFINITY PREDICTED BY RF-SCORE:    0.00 PKD
ROOT
HETATM    1  C   UNL     1     -11.343   6.372  69.512  1.00  0.00    -0.393 C  
HETATM    2  N   UNL     1     -10.822   7.079  68.367  1.00  0.00    -0.401 NA 
HETATM    3  C   UNL     1     -10.518   6.498  67.169  1.00  0.00    -0.287 C  
HETATM    4  H   UNL     1     -10.669   8.083  68.459  1.00  0.00     0.000 HD 
HETATM    5  N   UNL     1      -9.998   7.373  66.244  1.00  0.00    -0.457 NA 
HETATM    6  N   UNL     1     -10.734   5.230  66.992  1.00  0.00    -0.313 NA 
HETATM    7  C   UNL     1     -10.438   4.687  65.811  1.00  0.00    -0.255 C  
HETATM    8  H   UNL     1      -9.763   6.988  65.328  1.00  0.00     0.000 HD 
HETATM    9  N   UNL     1     -10.167   4.253  64.770  1.00  0.00    -0.177 NA 
HETATM   10  H   UNL     1     -11.124   4.660  67.742  1.00  0.00     0.000 HD 
ENDROOT
BRANCH   5  11
HETATM   11  C   UNL     1      -9.752   8.791  66.440  1.00  0.00    -0.265 C  
BRANCH  11  12
HETATM   12  C   UNL     1      -8.522   9.315  65.692  1.00  0.00    -0.139 C  
BRANCH  12  13
HETATM   13  S   UNL     1      -8.829  11.086  65.367  1.00  0.00    -0.098 SA 
BRANCH  13  14
HETATM   14  C   UNL     1     -10.456  11.289  66.158  1.00  0.00    -0.254 C  
BRANCH  14  15
HETATM   15  C   UNL     1     -11.324  12.154  65.301  1.00  0.00    -0.336 A  
HETATM   16  C   UNL     1     -12.068  13.271  65.646  1.00  0.00    -0.441 A  
HETATM   17  C   UNL     1     -12.279  13.974  66.930  1.00  0.00    -0.415 C  
HETATM   18  N   UNL     1     -12.632  13.697  64.470  1.00  0.00    -0.643 NA 
HETATM   19  H   UNL     1     -13.243  14.506  64.355  1.00  0.00     0.000 HD 
HETATM   20  C   UNL     1     -12.231  12.846  63.482  1.00  0.00    -0.512 A  
HETATM   21  N   UNL     1     -11.455  11.898  63.951  1.00  0.00    -0.407 NA 
ENDBRANCH  14  15
ENDBRANCH  13  14
ENDBRANCH  12  13
ENDBRANCH  11  12
ENDBRANCH   5  11
TORSDOF 5
ENDMDL
MODEL      118
REMARK 921   NORMALIZED FREE ENERGY PREDICTED BY IDOCK:   -3.98 KCAL/MOL
REMARK 922        TOTAL FREE ENERGY PREDICTED BY IDOCK:   -6.11 KCAL/MOL
REMARK 923 INTER-LIGAND FREE ENERGY PREDICTED BY IDOCK:   -5.52 KCAL/MOL
REMARK 924 INTRA-LIGAND FREE ENERGY PREDICTED BY IDOCK:   -0.59 KCAL/MOL
REMARK 927      BINDING AFFINITY PREDICTED BY RF-SCORE:    0.00 PKD
ROOT
HETATM    1  C   UNL     1     -11.029   6.344  67.189  1.00  0.00    -0.399 C  
HETATM    2  N   UNL     1     -10.949   7.780  67.306  1.00  0.00    -0.524 NA 
HETATM    3  C   UNL     1     -10.123   8.574  66.564  1.00  0.00    -0.258 C  
HETATM    4  H   UNL     1     -11.553   8.234  67.991  1.00  0.00     0.000 HD 
HETATM    5  N   UNL     1     -10.200   9.909  66.885  1.00  0.00    -0.230 NA 
HETATM    6  N   UNL     1      -9.366   8.044  65.650  1.00  0.00    -0.413 NA 
HETATM    7  C   UNL     1      -8.574   8.840  64.932  1.00  0.00    -0.150 C  
HETATM    8  H   UNL     1      -9.606  10.546  66.352  1.00  0.00     0.000 HD 
HETATM    9  N   UNL     1      -7.900   9.567  64.329  1.00  0.00    -0.122 NA 
HETATM   10  H   UNL     1      -9.378   7.038  65.485  1.00  0.00     0.000 HD 
ENDROOT
BRANCH   5  11
HETATM   11  C   UNL     1     -11.042  10.504  67.908  1.00  0.00    -0.304 C  
BRANCH  11  12
HETATM   12  C   UNL     1     -10.611  11.913  68.323  1.00  0.00    -0.213 C  
BRANCH  12  13
HETATM   13  S   UNL     1      -9.094  12.290  67.379  1.00  0.00    -0.192 SA 
BRANCH  13  14
HETATM   14  C   UNL     1      -9.583  13.852  66.579  1.00  0.00    -0.287 C  
BRANCH  14  15
HETATM   15  C   UNL     1     -10.903  13.672  65.899  1.00  0.00    -0.275 A  
HETATM   16  C   UNL     1     -11.215  12.940  64.765  1.00  0.00    -0.306 A  
HETATM   17  C   UNL     1     -10.396  12.121  63.845  1.00  0.00    -0.441 C  
HETATM   18  N   UNL     1     -12.571  13.086  64.612  1.00  0.00    -0.659 NA 
HETATM   19  H   UNL     1     -13.141  12.672  63.875  1.00  0.00     0.000 HD 
HETATM   20  C   UNL     1     -13.022  13.883  65.623  1.00  0.00    -0.315 A  
HETATM   21  N   UNL     1     -12.041  14.265  66.407  1.00  0.00    -0.431 NA 
ENDBRANCH  14  15
ENDBRANCH  13  14
ENDBRANCH  12  13
ENDBRANCH  11  12
ENDBRANCH   5  11
TORSDOF 5
ENDMDL
MODEL      119
REMARK 921   NORMALIZED FREE ENERGY PREDICTED BY IDOCK:   -3.98 KCAL/MOL
REMARK 922        TOTAL FREE ENERGY PREDICTED BY IDOCK:   -6.11 KCAL/MOL
REMARK 923 INTER-LIGAND FREE ENERGY PREDICTED BY IDOCK:   -5.69 KCAL/MOL
REMARK 924 INTRA-LIGAND FREE ENERGY PREDICTED BY IDOCK:   -0.43 KCAL/MOL
REMARK 927      BINDING AFFINITY PREDICTED BY RF-SCORE:    0.00 PKD
ROOT
HETATM    1  C   UNL     1     -10.905  12.880  68.049  1.00  0.00    -0.241 C  
HETATM    2  N   UNL     1     -10.755  14.275  68.382  1.00  0.00    -0.244 NA 
HETATM    3  C   UNL     1     -11.558  14.956  69.250  1.00  0.00    -0.306 C  
HETATM    4  H   UNL     1      -9.995  14.790  67.937  1.00  0.00     0.000 HD 
HETATM    5  N   UNL     1     -11.239  16.289  69.374  1.00  0.00    -0.326 NA 
HETATM    6  N   UNL     1     -12.513  14.333  69.872  1.00  0.00    -0.457 NA 
HETATM    7  C   UNL     1     -13.280  15.016  70.722  1.00  0.00    -0.348 C  
HETATM    8  H   UNL     1     -11.807  16.840  70.019  1.00  0.00     0.000 HD 
HETATM    9  N   UNL     1     -13.923  15.647  71.453  1.00  0.00    -0.534 NA 
HETATM   10  H   UNL     1     -12.674  13.339  69.713  1.00  0.00     0.000 HD 
ENDROOT
BRANCH   5  11
HETATM   11  C   UNL     1     -10.174  16.990  68.678  1.00  0.00    -0.321 C  
BRANCH  11  12
HETATM   12  C   UNL     1     -10.672  18.051  67.694  1.00  0.00    -0.344 C  
BRANCH  12  13
HETATM   13  S   UNL     1      -9.957  19.641  68.239  1.00  0.00    -0.454 SA 
BRANCH  13  14
HETATM   14  C   UNL     1      -8.206  19.172  68.411  1.00  0.00    -0.349 C  
BRANCH  14  15
HETATM   15  C   UNL     1      -7.542  19.221  67.072  1.00  0.00    -0.235 A  
HETATM   16  C   UNL     1      -7.030  18.186  66.306  1.00  0.00    -0.254 A  
HETATM   17  C   UNL     1      -6.943  16.726  66.528  1.00  0.00    -0.224 C  
HETATM   18  N   UNL     1      -6.581  18.785  65.157  1.00  0.00    -0.502 NA 
HETATM   19  H   UNL     1      -6.145  18.314  64.364  1.00  0.00     0.000 HD 
HETATM   20  C   UNL     1      -6.820  20.124  65.263  1.00  0.00    -0.300 A  
HETATM   21  N   UNL     1      -7.384  20.421  66.410  1.00  0.00    -0.249 NA 
ENDBRANCH  14  15
ENDBRANCH  13  14
ENDBRANCH  12  13
ENDBRANCH  11  12
ENDBRANCH   5  11
TORSDOF 5
ENDMDL
MODEL      120
REMARK 921   NORMALIZED FREE ENERGY PREDICTED BY IDOCK:   -3.98 KCAL/MOL
REMARK 922        TOTAL FREE ENERGY PREDICTED BY IDOCK:   -6.10 KCAL/MOL
REMARK 923 INTER-LIGAND FREE ENERGY PREDICTED BY IDOCK:   -5.79 KCAL/MOL
REMARK 924 INTRA-LIGAND FREE ENERGY PREDICTED BY IDOCK:   -0.31 KCAL/MOL
REMARK 927      BINDING AFFINITY PREDICTED BY RF-SCORE:    0.00 PKD
ROOT
HETATM    1  C   UNL     1      -7.274  11.447  66.816  1.00  0.00    -0.131 C  
HETATM    2  N   UNL     1      -8.443  12.125  66.311  1.00  0.00    -0.397 NA 
HETATM    3  C   UNL     1      -9.697  12.003  66.835  1.00  0.00    -0.203 C  
HETATM    4  H   UNL     1      -8.323  12.738  65.504  1.00  0.00     0.000 HD 
HETATM    5  N   UNL     1     -10.656  12.719  66.154  1.00  0.00    -0.263 NA 
HETATM    6  N   UNL     1      -9.890  11.266  67.887  1.00  0.00    -0.172 NA 
HETATM    7  C   UNL     1     -11.122  11.170  68.386  1.00  0.00    -0.247 C  
HETATM    8  H   UNL     1     -11.610  12.667  66.513  1.00  0.00     0.000 HD 
HETATM    9  N   UNL     1     -12.209  11.112  68.790  1.00  0.00    -0.535 NA 
HETATM   10  H   UNL     1      -9.113  10.770  68.323  1.00  0.00     0.000 HD 
ENDROOT
BRANCH   5  11
HETATM   11  C   UNL     1     -10.444  13.541  64.976  1.00  0.00    -0.376 C  
BRANCH  11  12
HETATM   12  C   UNL     1     -10.770  15.022  65.188  1.00  0.00    -0.415 C  
BRANCH  12  13
HETATM   13  S   UNL     1      -9.389  15.724  66.155  1.00  0.00    -0.354 SA 
BRANCH  13  14
HETATM   14  C   UNL     1     -10.048  17.384  66.512  1.00  0.00    -0.320 C  
BRANCH  14  15
HETATM   15  C   UNL     1      -8.962  18.397  66.346  1.00  0.00    -0.249 A  
HETATM   16  C   UNL     1      -8.925  19.722  66.750  1.00  0.00    -0.359 A  
HETATM   17  C   UNL     1      -9.907  20.583  67.447  1.00  0.00    -0.574 C  
HETATM   18  N   UNL     1      -7.681  20.170  66.385  1.00  0.00    -0.378 NA 
HETATM   19  H   UNL     1      -7.311  21.108  66.537  1.00  0.00     0.000 HD 
HETATM   20  C   UNL     1      -7.026  19.136  65.782  1.00  0.00    -0.275 A  
HETATM   21  N   UNL     1      -7.774  18.060  65.730  1.00  0.00    -0.545 NA 
ENDBRANCH  14  15
ENDBRANCH  13  14
ENDBRANCH  12  13
ENDBRANCH  11  12
ENDBRANCH   5  11
TORSDOF 5
ENDMDL
MODEL      121
REMARK 921   NORMALIZED FREE ENERGY PREDICTED BY IDOCK:   -3.97 KCAL/MOL
REMARK 922        TOTAL FREE ENERGY PREDICTED BY IDOCK:   -6.09 KCAL/MOL
REMARK 923 INTER-LIGAND FREE ENERGY PREDICTED BY IDOCK:   -5.83 KCAL/MOL
REMARK 924 INTRA-LIGAND FREE ENERGY PREDICTED BY IDOCK:   -0.26 KCAL/MOL
REMARK 927      BINDING AFFINITY PREDICTED BY RF-SCORE:    0.00 PKD
ROOT
HETATM    1  C   UNL     1     -13.188  10.531  72.078  1.00  0.00    -0.378 C  
HETATM    2  N   UNL     1     -12.801  11.558  71.142  1.00  0.00    -0.356 NA 
HETATM    3  C   UNL     1     -13.028  12.892  71.317  1.00  0.00    -0.228 C  
HETATM    4  H   UNL     1     -12.324  11.266  70.288  1.00  0.00     0.000 HD 
HETATM    5  N   UNL     1     -12.600  13.671  70.267  1.00  0.00    -0.239 NA 
HETATM    6  N   UNL     1     -13.595  13.315  72.407  1.00  0.00    -0.598 NA 
HETATM    7  C   UNL     1     -13.797  14.623  72.560  1.00  0.00    -0.458 C  
HETATM    8  H   UNL     1     -12.740  14.679  70.354  1.00  0.00     0.000 HD 
HETATM    9  N   UNL     1     -13.956  15.769  72.654  1.00  0.00    -0.560 NA 
HETATM   10  H   UNL     1     -13.879  12.657  73.132  1.00  0.00     0.000 HD 
ENDROOT
BRANCH   5  11
HETATM   11  C   UNL     1     -11.969  13.203  69.045  1.00  0.00    -0.285 C  
BRANCH  11  12
HETATM   12  C   UNL     1     -10.603  13.837  68.771  1.00  0.00    -0.239 C  
BRANCH  12  13
HETATM   13  S   UNL     1     -10.878  15.639  68.671  1.00  0.00    -0.291 SA 
BRANCH  13  14
HETATM   14  C   UNL     1      -9.441  16.137  67.669  1.00  0.00    -0.220 C  
BRANCH  14  15
HETATM   15  C   UNL     1      -9.842  17.229  66.730  1.00  0.00    -0.294 A  
HETATM   16  C   UNL     1     -10.554  17.152  65.544  1.00  0.00    -0.150 A  
HETATM   17  C   UNL     1     -11.136  16.015  64.799  1.00  0.00    -0.378 C  
HETATM   18  N   UNL     1     -10.674  18.451  65.119  1.00  0.00    -0.486 NA 
HETATM   19  H   UNL     1     -11.150  18.765  64.273  1.00  0.00     0.000 HD 
HETATM   20  C   UNL     1     -10.044  19.248  66.029  1.00  0.00    -0.387 A  
HETATM   21  N   UNL     1      -9.519  18.543  67.003  1.00  0.00    -0.281 NA 
ENDBRANCH  14  15
ENDBRANCH  13  14
ENDBRANCH  12  13
ENDBRANCH  11  12
ENDBRANCH   5  11
TORSDOF 5
ENDMDL
MODEL      122
REMARK 921   NORMALIZED FREE ENERGY PREDICTED BY IDOCK:   -3.96 KCAL/MOL
REMARK 922        TOTAL FREE ENERGY PREDICTED BY IDOCK:   -6.08 KCAL/MOL
REMARK 923 INTER-LIGAND FREE ENERGY PREDICTED BY IDOCK:   -5.67 KCAL/MOL
REMARK 924 INTRA-LIGAND FREE ENERGY PREDICTED BY IDOCK:   -0.41 KCAL/MOL
REMARK 927      BINDING AFFINITY PREDICTED BY RF-SCORE:    0.00 PKD
ROOT
HETATM    1  C   UNL     1      -6.307  16.905  66.911  1.00  0.00    -0.202 C  
HETATM    2  N   UNL     1      -7.608  16.505  66.433  1.00  0.00    -0.263 NA 
HETATM    3  C   UNL     1      -8.671  17.348  66.279  1.00  0.00    -0.207 C  
HETATM    4  H   UNL     1      -7.743  15.523  66.193  1.00  0.00     0.000 HD 
HETATM    5  N   UNL     1      -9.817  16.723  65.844  1.00  0.00    -0.511 NA 
HETATM    6  N   UNL     1      -8.534  18.615  66.532  1.00  0.00    -0.286 NA 
HETATM    7  C   UNL     1      -9.583  19.420  66.365  1.00  0.00    -0.377 C  
HETATM    8  H   UNL     1     -10.638  17.313  65.705  1.00  0.00     0.000 HD 
HETATM    9  N   UNL     1     -10.520  20.086  66.208  1.00  0.00    -0.449 NA 
HETATM   10  H   UNL     1      -7.640  18.986  66.852  1.00  0.00     0.000 HD 
ENDROOT
BRANCH   5  11
HETATM   11  C   UNL     1      -9.975  15.307  65.563  1.00  0.00    -0.348 C  
BRANCH  11  12
HETATM   12  C   UNL     1     -11.393  14.913  65.141  1.00  0.00    -0.379 C  
BRANCH  12  13
HETATM   13  S   UNL     1     -12.049  13.842  66.466  1.00  0.00    -0.432 SA 
BRANCH  13  14
HETATM   14  C   UNL     1     -10.758  14.054  67.733  1.00  0.00    -0.243 C  
BRANCH  14  15
HETATM   15  C   UNL     1     -11.378  14.545  69.001  1.00  0.00    -0.272 A  
HETATM   16  C   UNL     1     -11.327  15.805  69.575  1.00  0.00    -0.328 A  
HETATM   17  C   UNL     1     -10.657  17.061  69.172  1.00  0.00    -0.303 C  
HETATM   18  N   UNL     1     -12.103  15.712  70.703  1.00  0.00    -0.381 NA 
HETATM   19  H   UNL     1     -12.291  16.463  71.367  1.00  0.00     0.000 HD 
HETATM   20  C   UNL     1     -12.580  14.436  70.777  1.00  0.00    -0.357 A  
HETATM   21  N   UNL     1     -12.150  13.704  69.777  1.00  0.00    -0.336 NA 
ENDBRANCH  14  15
ENDBRANCH  13  14
ENDBRANCH  12  13
ENDBRANCH  11  12
ENDBRANCH   5  11
TORSDOF 5
ENDMDL
MODEL      123
REMARK 921   NORMALIZED FREE ENERGY PREDICTED BY IDOCK:   -3.94 KCAL/MOL
REMARK 922        TOTAL FREE ENERGY PREDICTED BY IDOCK:   -6.06 KCAL/MOL
REMARK 923 INTER-LIGAND FREE ENERGY PREDICTED BY IDOCK:   -5.56 KCAL/MOL
REMARK 924 INTRA-LIGAND FREE ENERGY PREDICTED BY IDOCK:   -0.49 KCAL/MOL
REMARK 927      BINDING AFFINITY PREDICTED BY RF-SCORE:    0.00 PKD
ROOT
HETATM    1  C   UNL     1     -10.265  16.491  66.814  1.00  0.00    -0.295 C  
HETATM    2  N   UNL     1     -10.835  15.365  67.513  1.00  0.00    -0.299 NA 
HETATM    3  C   UNL     1     -11.577  14.382  66.925  1.00  0.00    -0.388 C  
HETATM    4  H   UNL     1     -10.672  15.299  68.518  1.00  0.00     0.000 HD 
HETATM    5  N   UNL     1     -12.044  13.434  67.807  1.00  0.00    -0.312 NA 
HETATM    6  N   UNL     1     -11.776  14.402  65.641  1.00  0.00    -0.352 NA 
HETATM    7  C   UNL     1     -12.497  13.427  65.088  1.00  0.00    -0.459 C  
HETATM    8  H   UNL     1     -12.598  12.673  67.414  1.00  0.00     0.000 HD 
HETATM    9  N   UNL     1     -13.128  12.560  64.645  1.00  0.00    -0.837 NA 
HETATM   10  H   UNL     1     -11.389  15.150  65.068  1.00  0.00     0.000 HD 
ENDROOT
BRANCH   5  11
HETATM   11  C   UNL     1     -11.826  13.411  69.243  1.00  0.00    -0.334 C  
BRANCH  11  12
HETATM   12  C   UNL     1     -11.700  12.001  69.826  1.00  0.00    -0.319 C  
BRANCH  12  13
HETATM   13  S   UNL     1     -11.689  10.851  68.408  1.00  0.00    -0.120 SA 
BRANCH  13  14
HETATM   14  C   UNL     1      -9.927  10.909  67.950  1.00  0.00    -0.176 C  
BRANCH  14  15
HETATM   15  C   UNL     1      -9.780  10.610  66.493  1.00  0.00    -0.194 A  
HETATM   16  C   UNL     1      -9.583   9.393  65.860  1.00  0.00    -0.270 A  
HETATM   17  C   UNL     1      -9.436   8.013  66.371  1.00  0.00    -0.268 C  
HETATM   18  N   UNL     1      -9.563   9.690  64.521  1.00  0.00    -0.431 NA 
HETATM   19  H   UNL     1      -9.442   9.023  63.759  1.00  0.00     0.000 HD 
HETATM   20  C   UNL     1      -9.736  11.036  64.389  1.00  0.00    -0.280 A  
HETATM   21  N   UNL     1      -9.855  11.622  65.557  1.00  0.00    -0.229 NA 
ENDBRANCH  14  15
ENDBRANCH  13  14
ENDBRANCH  12  13
ENDBRANCH  11  12
ENDBRANCH   5  11
TORSDOF 5
ENDMDL
MODEL      124
REMARK 921   NORMALIZED FREE ENERGY PREDICTED BY IDOCK:   -3.93 KCAL/MOL
REMARK 922        TOTAL FREE ENERGY PREDICTED BY IDOCK:   -6.04 KCAL/MOL
REMARK 923 INTER-LIGAND FREE ENERGY PREDICTED BY IDOCK:   -5.65 KCAL/MOL
REMARK 924 INTRA-LIGAND FREE ENERGY PREDICTED BY IDOCK:   -0.40 KCAL/MOL
REMARK 927      BINDING AFFINITY PREDICTED BY RF-SCORE:    0.00 PKD
ROOT
HETATM    1  C   UNL     1     -12.535  15.137  64.178  1.00  0.00     0.029 C  
HETATM    2  N   UNL     1     -11.441  14.682  65.001  1.00  0.00    -0.371 NA 
HETATM    3  C   UNL     1     -10.657  13.600  64.722  1.00  0.00    -0.422 C  
HETATM    4  H   UNL     1     -11.239  15.206  65.853  1.00  0.00     0.000 HD 
HETATM    5  N   UNL     1      -9.703  13.343  65.679  1.00  0.00    -0.481 NA 
HETATM    6  N   UNL     1     -10.850  12.927  63.628  1.00  0.00    -0.531 NA 
HETATM    7  C   UNL     1     -10.067  11.879  63.372  1.00  0.00    -0.438 C  
HETATM    8  H   UNL     1      -9.086  12.548  65.511  1.00  0.00     0.000 HD 
HETATM    9  N   UNL     1      -9.364  10.975  63.186  1.00  0.00    -0.296 NA 
HETATM   10  H   UNL     1     -11.588  13.195  62.977  1.00  0.00     0.000 HD 
ENDROOT
BRANCH   5  11
HETATM   11  C   UNL     1      -9.486  14.091  66.905  1.00  0.00    -0.265 C  
BRANCH  11  12
HETATM   12  C   UNL     1      -8.011  14.347  67.222  1.00  0.00    -0.180 C  
BRANCH  12  13
HETATM   13  S   UNL     1      -7.874  16.111  67.671  1.00  0.00    -0.155 SA 
BRANCH  13  14
HETATM   14  C   UNL     1      -8.846  16.869  66.330  1.00  0.00    -0.279 C  
BRANCH  14  15
HETATM   15  C   UNL     1      -9.050  18.321  66.620  1.00  0.00    -0.288 A  
HETATM   16  C   UNL     1      -8.190  19.388  66.414  1.00  0.00    -0.325 A  
HETATM   17  C   UNL     1      -6.816  19.476  65.873  1.00  0.00    -0.285 C  
HETATM   18  N   UNL     1      -8.897  20.494  66.814  1.00  0.00    -0.560 NA 
HETATM   19  H   UNL     1      -8.567  21.459  66.794  1.00  0.00     0.000 HD 
HETATM   20  C   UNL     1     -10.122  20.074  67.244  1.00  0.00    -0.437 A  
HETATM   21  N   UNL     1     -10.241  18.770  67.154  1.00  0.00    -0.363 NA 
ENDBRANCH  14  15
ENDBRANCH  13  14
ENDBRANCH  12  13
ENDBRANCH  11  12
ENDBRANCH   5  11
TORSDOF 5
ENDMDL
MODEL      125
REMARK 921   NORMALIZED FREE ENERGY PREDICTED BY IDOCK:   -3.92 KCAL/MOL
REMARK 922        TOTAL FREE ENERGY PREDICTED BY IDOCK:   -6.03 KCAL/MOL
REMARK 923 INTER-LIGAND FREE ENERGY PREDICTED BY IDOCK:   -5.16 KCAL/MOL
REMARK 924 INTRA-LIGAND FREE ENERGY PREDICTED BY IDOCK:   -0.87 KCAL/MOL
REMARK 927      BINDING AFFINITY PREDICTED BY RF-SCORE:    0.00 PKD
ROOT
HETATM    1  C   UNL     1     -11.823  12.525  63.301  1.00  0.00    -0.413 C  
HETATM    2  N   UNL     1     -11.168  13.481  64.160  1.00  0.00    -0.546 NA 
HETATM    3  C   UNL     1     -11.213  13.458  65.524  1.00  0.00    -0.288 C  
HETATM    4  H   UNL     1     -10.633  14.228  63.716  1.00  0.00     0.000 HD 
HETATM    5  N   UNL     1     -10.540  14.499  66.120  1.00  0.00    -0.298 NA 
HETATM    6  N   UNL     1     -11.847  12.502  66.134  1.00  0.00    -0.489 NA 
HETATM    7  C   UNL     1     -11.870  12.495  67.466  1.00  0.00    -0.323 C  
HETATM    8  H   UNL     1     -10.538  14.521  67.141  1.00  0.00     0.000 HD 
HETATM    9  N   UNL     1     -11.866  12.525  68.626  1.00  0.00    -0.312 NA 
HETATM   10  H   UNL     1     -12.319  11.771  65.602  1.00  0.00     0.000 HD 
ENDROOT
BRANCH   5  11
HETATM   11  C   UNL     1      -9.833  15.571  65.442  1.00  0.00    -0.256 C  
BRANCH  11  12
HETATM   12  C   UNL     1     -10.617  16.884  65.373  1.00  0.00    -0.162 C  
BRANCH  12  13
HETATM   13  S   UNL     1      -9.956  17.953  66.698  1.00  0.00    -0.372 SA 
BRANCH  13  14
HETATM   14  C   UNL     1     -11.134  17.585  68.037  1.00  0.00     0.022 C  
BRANCH  14  15
HETATM   15  C   UNL     1     -10.583  16.497  68.902  1.00  0.00    -0.326 A  
HETATM   16  C   UNL     1     -11.229  15.704  69.836  1.00  0.00    -0.331 A  
HETATM   17  C   UNL     1     -12.630  15.656  70.310  1.00  0.00    -0.319 C  
HETATM   18  N   UNL     1     -10.264  14.846  70.300  1.00  0.00    -0.474 NA 
HETATM   19  H   UNL     1     -10.395  14.116  71.001  1.00  0.00     0.000 HD 
HETATM   20  C   UNL     1      -9.098  15.143  69.658  1.00  0.00    -0.061 A  
HETATM   21  N   UNL     1      -9.252  16.141  68.820  1.00  0.00    -0.213 NA 
ENDBRANCH  14  15
ENDBRANCH  13  14
ENDBRANCH  12  13
ENDBRANCH  11  12
ENDBRANCH   5  11
TORSDOF 5
ENDMDL
MODEL      126
REMARK 921   NORMALIZED FREE ENERGY PREDICTED BY IDOCK:   -3.92 KCAL/MOL
REMARK 922        TOTAL FREE ENERGY PREDICTED BY IDOCK:   -6.02 KCAL/MOL
REMARK 923 INTER-LIGAND FREE ENERGY PREDICTED BY IDOCK:   -5.41 KCAL/MOL
REMARK 924 INTRA-LIGAND FREE ENERGY PREDICTED BY IDOCK:   -0.61 KCAL/MOL
REMARK 927      BINDING AFFINITY PREDICTED BY RF-SCORE:    0.00 PKD
ROOT
HETATM    1  C   UNL     1     -10.623  12.570  63.767  1.00  0.00    -0.436 C  
HETATM    2  N   UNL     1      -9.999  13.095  64.957  1.00  0.00    -0.530 NA 
HETATM    3  C   UNL     1     -10.088  12.527  66.195  1.00  0.00    -0.251 C  
HETATM    4  H   UNL     1      -9.451  13.951  64.867  1.00  0.00     0.000 HD 
HETATM    5  N   UNL     1      -9.438  13.235  67.179  1.00  0.00    -0.231 NA 
HETATM    6  N   UNL     1     -10.740  11.414  66.351  1.00  0.00    -0.268 NA 
HETATM    7  C   UNL     1     -10.806  10.874  67.567  1.00  0.00    -0.272 C  
HETATM    8  H   UNL     1      -9.469  12.846  68.123  1.00  0.00     0.000 HD 
HETATM    9  N   UNL     1     -10.841  10.436  68.641  1.00  0.00    -0.217 NA 
HETATM   10  H   UNL     1     -11.192  10.963  65.557  1.00  0.00     0.000 HD 
ENDROOT
BRANCH   5  11
HETATM   11  C   UNL     1      -8.711  14.481  67.010  1.00  0.00    -0.234 C  
BRANCH  11  12
HETATM   12  C   UNL     1      -9.613  15.715  66.909  1.00  0.00    -0.230 C  
BRANCH  12  13
HETATM   13  S   UNL     1      -9.554  16.535  68.539  1.00  0.00    -0.242 SA 
BRANCH  13  14
HETATM   14  C   UNL     1     -11.328  16.587  68.946  1.00  0.00    -0.206 C  
BRANCH  14  15
HETATM   15  C   UNL     1     -11.689  15.385  69.758  1.00  0.00    -0.333 A  
HETATM   16  C   UNL     1     -11.932  15.283  71.119  1.00  0.00    -0.345 A  
HETATM   17  C   UNL     1     -11.907  16.274  72.216  1.00  0.00    -0.601 C  
HETATM   18  N   UNL     1     -12.262  13.967  71.321  1.00  0.00    -0.387 NA 
HETATM   19  H   UNL     1     -12.507  13.539  72.214  1.00  0.00     0.000 HD 
HETATM   20  C   UNL     1     -12.203  13.331  70.116  1.00  0.00    -0.306 A  
HETATM   21  N   UNL     1     -11.847  14.153  69.157  1.00  0.00    -0.321 NA 
ENDBRANCH  14  15
ENDBRANCH  13  14
ENDBRANCH  12  13
ENDBRANCH  11  12
ENDBRANCH   5  11
TORSDOF 5
ENDMDL
MODEL      127
REMARK 921   NORMALIZED FREE ENERGY PREDICTED BY IDOCK:   -3.87 KCAL/MOL
REMARK 922        TOTAL FREE ENERGY PREDICTED BY IDOCK:   -5.97 KCAL/MOL
REMARK 923 INTER-LIGAND FREE ENERGY PREDICTED BY IDOCK:   -5.46 KCAL/MOL
REMARK 924 INTRA-LIGAND FREE ENERGY PREDICTED BY IDOCK:   -0.51 KCAL/MOL
REMARK 927      BINDING AFFINITY PREDICTED BY RF-SCORE:    0.00 PKD
ROOT
HETATM    1  C   UNL     1     -12.452  14.310  70.852  1.00  0.00    -0.354 C  
HETATM    2  N   UNL     1     -12.257  14.248  69.424  1.00  0.00    -0.465 NA 
HETATM    3  C   UNL     1     -11.644  15.217  68.683  1.00  0.00    -0.338 C  
HETATM    4  H   UNL     1     -12.600  13.422  68.934  1.00  0.00     0.000 HD 
HETATM    5  N   UNL     1     -11.611  14.947  67.334  1.00  0.00    -0.354 NA 
HETATM    6  N   UNL     1     -11.153  16.267  69.269  1.00  0.00    -0.323 NA 
HETATM    7  C   UNL     1     -10.551  17.195  68.525  1.00  0.00    -0.361 C  
HETATM    8  H   UNL     1     -11.156  15.638  66.737  1.00  0.00     0.000 HD 
HETATM    9  N   UNL     1     -10.036  17.979  67.843  1.00  0.00    -0.315 NA 
HETATM   10  H   UNL     1     -11.227  16.379  70.280  1.00  0.00     0.000 HD 
ENDROOT
BRANCH   5  11
HETATM   11  C   UNL     1     -12.162  13.775  66.675  1.00  0.00    -0.409 C  
BRANCH  11  12
HETATM   12  C   UNL     1     -11.139  12.993  65.847  1.00  0.00    -0.280 C  
BRANCH  12  13
HETATM   13  S   UNL     1     -10.059  12.129  67.039  1.00  0.00    -0.205 SA 
BRANCH  13  14
HETATM   14  C   UNL     1     -11.295  11.164  67.965  1.00  0.00    -0.312 C  
BRANCH  14  15
HETATM   15  C   UNL     1     -10.638  10.503  69.134  1.00  0.00    -0.229 A  
HETATM   16  C   UNL     1     -11.172  10.164  70.367  1.00  0.00    -0.330 A  
HETATM   17  C   UNL     1     -12.517  10.339  70.956  1.00  0.00    -0.484 C  
HETATM   18  N   UNL     1     -10.148   9.544  71.037  1.00  0.00    -0.272 NA 
HETATM   19  H   UNL     1     -10.193   9.159  71.981  1.00  0.00     0.000 HD 
HETATM   20  C   UNL     1      -9.057   9.535  70.217  1.00  0.00    -0.253 A  
HETATM   21  N   UNL     1      -9.315  10.117  69.070  1.00  0.00    -0.177 NA 
ENDBRANCH  14  15
ENDBRANCH  13  14
ENDBRANCH  12  13
ENDBRANCH  11  12
ENDBRANCH   5  11
TORSDOF 5
ENDMDL
MODEL      128
REMARK 921   NORMALIZED FREE ENERGY PREDICTED BY IDOCK:   -3.87 KCAL/MOL
REMARK 922        TOTAL FREE ENERGY PREDICTED BY IDOCK:   -5.96 KCAL/MOL
REMARK 923 INTER-LIGAND FREE ENERGY PREDICTED BY IDOCK:   -5.66 KCAL/MOL
REMARK 924 INTRA-LIGAND FREE ENERGY PREDICTED BY IDOCK:   -0.30 KCAL/MOL
REMARK 927      BINDING AFFINITY PREDICTED BY RF-SCORE:    0.00 PKD
ROOT
HETATM    1  C   UNL     1     -11.567  13.144  66.987  1.00  0.00    -0.359 C  
HETATM    2  N   UNL     1     -11.830  12.627  68.307  1.00  0.00    -0.328 NA 
HETATM    3  C   UNL     1     -11.942  13.392  69.432  1.00  0.00    -0.315 C  
HETATM    4  H   UNL     1     -11.939  11.618  68.408  1.00  0.00     0.000 HD 
HETATM    5  N   UNL     1     -12.156  12.665  70.580  1.00  0.00    -0.507 NA 
HETATM    6  N   UNL     1     -11.852  14.685  69.346  1.00  0.00    -0.312 NA 
HETATM    7  C   UNL     1     -11.975  15.413  70.457  1.00  0.00    -0.357 C  
HETATM    8  H   UNL     1     -12.255  13.193  71.448  1.00  0.00     0.000 HD 
HETATM    9  N   UNL     1     -12.087  16.009  71.446  1.00  0.00    -0.441 NA 
HETATM   10  H   UNL     1     -11.691  15.135  68.446  1.00  0.00     0.000 HD 
ENDROOT
BRANCH   5  11
HETATM   11  C   UNL     1     -12.254  11.219  70.680  1.00  0.00    -0.393 C  
BRANCH  11  12
HETATM   12  C   UNL     1     -13.152  10.737  71.823  1.00  0.00    -0.468 C  
BRANCH  12  13
HETATM   13  S   UNL     1     -13.223   8.917  71.693  1.00  0.00    -0.362 SA 
BRANCH  13  14
HETATM   14  C   UNL     1     -11.518   8.486  72.164  1.00  0.00    -0.376 C  
BRANCH  14  15
HETATM   15  C   UNL     1     -10.980   7.466  71.213  1.00  0.00    -0.242 A  
HETATM   16  C   UNL     1      -9.682   7.004  71.060  1.00  0.00    -0.173 A  
HETATM   17  C   UNL     1      -8.413   7.345  71.738  1.00  0.00    -0.115 C  
HETATM   18  N   UNL     1      -9.761   6.047  70.080  1.00  0.00    -0.162 NA 
HETATM   19  H   UNL     1      -8.986   5.493  69.717  1.00  0.00     0.000 HD 
HETATM   20  C   UNL     1     -11.062   5.968  69.677  1.00  0.00    -0.404 A  
HETATM   21  N   UNL     1     -11.819   6.819  70.329  1.00  0.00    -0.349 NA 
ENDBRANCH  14  15
ENDBRANCH  13  14
ENDBRANCH  12  13
ENDBRANCH  11  12
ENDBRANCH   5  11
TORSDOF 5
ENDMDL
MODEL      129
REMARK 921   NORMALIZED FREE ENERGY PREDICTED BY IDOCK:   -3.86 KCAL/MOL
REMARK 922        TOTAL FREE ENERGY PREDICTED BY IDOCK:   -5.95 KCAL/MOL
REMARK 923 INTER-LIGAND FREE ENERGY PREDICTED BY IDOCK:   -5.71 KCAL/MOL
REMARK 924 INTRA-LIGAND FREE ENERGY PREDICTED BY IDOCK:   -0.23 KCAL/MOL
REMARK 927      BINDING AFFINITY PREDICTED BY RF-SCORE:    0.00 PKD
ROOT
HETATM    1  C   UNL     1     -10.300  16.417  68.582  1.00  0.00    -0.273 C  
HETATM    2  N   UNL     1     -10.853  15.114  68.858  1.00  0.00    -0.231 NA 
HETATM    3  C   UNL     1     -11.536  14.353  67.953  1.00  0.00    -0.345 C  
HETATM    4  H   UNL     1     -10.725  14.733  69.795  1.00  0.00     0.000 HD 
HETATM    5  N   UNL     1     -11.999  13.163  68.464  1.00  0.00    -0.331 NA 
HETATM    6  N   UNL     1     -11.688  14.778  66.734  1.00  0.00    -0.341 NA 
HETATM    7  C   UNL     1     -12.350  14.015  65.866  1.00  0.00    -0.486 C  
HETATM    8  H   UNL     1     -12.510  12.555  67.823  1.00  0.00     0.000 HD 
HETATM    9  N   UNL     1     -12.933  13.321  65.141  1.00  0.00    -0.698 NA 
HETATM   10  H   UNL     1     -11.307  15.680  66.448  1.00  0.00     0.000 HD 
ENDROOT
BRANCH   5  11
HETATM   11  C   UNL     1     -11.835  12.686  69.826  1.00  0.00    -0.309 C  
BRANCH  11  12
HETATM   12  C   UNL     1     -11.687  11.166  69.936  1.00  0.00    -0.355 C  
BRANCH  12  13
HETATM   13  S   UNL     1     -12.582  10.667  71.448  1.00  0.00    -0.423 SA 
BRANCH  13  14
HETATM   14  C   UNL     1     -12.621   8.860  71.226  1.00  0.00    -0.262 C  
BRANCH  14  15
HETATM   15  C   UNL     1     -11.234   8.313  71.336  1.00  0.00    -0.255 A  
HETATM   16  C   UNL     1     -10.648   7.256  70.657  1.00  0.00    -0.226 A  
HETATM   17  C   UNL     1     -11.161   6.317  69.636  1.00  0.00    -0.506 C  
HETATM   18  N   UNL     1      -9.354   7.218  71.111  1.00  0.00    -0.156 NA 
HETATM   19  H   UNL     1      -8.633   6.561  70.816  1.00  0.00     0.000 HD 
HETATM   20  C   UNL     1      -9.204   8.218  72.027  1.00  0.00    -0.204 A  
HETATM   21  N   UNL     1     -10.320   8.886  72.197  1.00  0.00    -0.312 NA 
ENDBRANCH  14  15
ENDBRANCH  13  14
ENDBRANCH  12  13
ENDBRANCH  11  12
ENDBRANCH   5  11
TORSDOF 5
ENDMDL
MODEL      130
REMARK 921   NORMALIZED FREE ENERGY PREDICTED BY IDOCK:   -3.85 KCAL/MOL
REMARK 922        TOTAL FREE ENERGY PREDICTED BY IDOCK:   -5.95 KCAL/MOL
REMARK 923 INTER-LIGAND FREE ENERGY PREDICTED BY IDOCK:   -5.72 KCAL/MOL
REMARK 924 INTRA-LIGAND FREE ENERGY PREDICTED BY IDOCK:   -0.23 KCAL/MOL
REMARK 927      BINDING AFFINITY PREDICTED BY RF-SCORE:    0.00 PKD
ROOT
HETATM    1  C   UNL     1     -11.915  11.863  69.628  1.00  0.00    -0.298 C  
HETATM    2  N   UNL     1     -11.222  13.093  69.333  1.00  0.00    -0.427 NA 
HETATM    3  C   UNL     1     -11.288  14.223  70.097  1.00  0.00    -0.129 C  
HETATM    4  H   UNL     1     -10.642  13.122  68.494  1.00  0.00     0.000 HD 
HETATM    5  N   UNL     1     -10.570  15.280  69.588  1.00  0.00    -0.262 NA 
HETATM    6  N   UNL     1     -11.981  14.221  71.196  1.00  0.00    -0.444 NA 
HETATM    7  C   UNL     1     -12.024  15.333  71.930  1.00  0.00    -0.401 C  
HETATM    8  H   UNL     1     -10.581  16.146  70.129  1.00  0.00     0.000 HD 
HETATM    9  N   UNL     1     -12.035  16.319  72.540  1.00  0.00    -0.550 NA 
HETATM   10  H   UNL     1     -12.483  13.384  71.491  1.00  0.00     0.000 HD 
ENDROOT
BRANCH   5  11
HETATM   11  C   UNL     1      -9.797  15.287  68.359  1.00  0.00    -0.216 C  
BRANCH  11  12
HETATM   12  C   UNL     1     -10.099  16.478  67.444  1.00  0.00    -0.279 C  
BRANCH  12  13
HETATM   13  S   UNL     1     -10.055  15.841  65.733  1.00  0.00    -0.388 SA 
BRANCH  13  14
HETATM   14  C   UNL     1      -9.897  14.055  66.050  1.00  0.00    -0.297 C  
BRANCH  14  15
HETATM   15  C   UNL     1     -10.755  13.300  65.086  1.00  0.00    -0.322 A  
HETATM   16  C   UNL     1     -12.099  13.461  64.791  1.00  0.00    -0.406 A  
HETATM   17  C   UNL     1     -13.133  14.383  65.309  1.00  0.00     0.052 C  
HETATM   18  N   UNL     1     -12.359  12.538  63.809  1.00  0.00    -0.601 NA 
HETATM   19  H   UNL     1     -13.257  12.385  63.352  1.00  0.00     0.000 HD 
HETATM   20  C   UNL     1     -11.201  11.864  63.553  1.00  0.00    -0.418 A  
HETATM   21  N   UNL     1     -10.220  12.287  64.315  1.00  0.00    -0.328 NA 
ENDBRANCH  14  15
ENDBRANCH  13  14
ENDBRANCH  12  13
ENDBRANCH  11  12
ENDBRANCH   5  11
TORSDOF 5
ENDMDL
MODEL      131
REMARK 921   NORMALIZED FREE ENERGY PREDICTED BY IDOCK:   -3.85 KCAL/MOL
REMARK 922        TOTAL FREE ENERGY PREDICTED BY IDOCK:   -5.94 KCAL/MOL
REMARK 923 INTER-LIGAND FREE ENERGY PREDICTED BY IDOCK:   -5.56 KCAL/MOL
REMARK 924 INTRA-LIGAND FREE ENERGY PREDICTED BY IDOCK:   -0.38 KCAL/MOL
REMARK 927      BINDING AFFINITY PREDICTED BY RF-SCORE:    0.00 PKD
ROOT
HETATM    1  C   UNL     1     -12.102  15.850  72.549  1.00  0.00    -0.509 C  
HETATM    2  N   UNL     1     -11.893  15.014  71.391  1.00  0.00    -0.336 NA 
HETATM    3  C   UNL     1     -11.431  15.460  70.186  1.00  0.00    -0.317 C  
HETATM    4  H   UNL     1     -12.105  14.021  71.479  1.00  0.00     0.000 HD 
HETATM    5  N   UNL     1     -11.352  14.479  69.224  1.00  0.00    -0.271 NA 
HETATM    6  N   UNL     1     -11.108  16.709  70.039  1.00  0.00    -0.435 NA 
HETATM    7  C   UNL     1     -10.650  17.120  68.856  1.00  0.00    -0.314 C  
HETATM    8  H   UNL     1     -11.004  14.762  68.307  1.00  0.00     0.000 HD 
HETATM    9  N   UNL     1     -10.256  17.436  67.812  1.00  0.00    -0.329 NA 
HETATM   10  H   UNL     1     -11.202  17.364  70.815  1.00  0.00     0.000 HD 
ENDROOT
BRANCH   5  11
HETATM   11  C   UNL     1     -11.715  13.082  69.384  1.00  0.00    -0.326 C  
BRANCH  11  12
HETATM   12  C   UNL     1     -12.110  12.392  68.076  1.00  0.00    -0.028 C  
BRANCH  12  13
HETATM   13  S   UNL     1     -11.019  10.937  67.907  1.00  0.00    -0.293 SA 
BRANCH  13  14
HETATM   14  C   UNL     1     -10.540  11.086  66.156  1.00  0.00    -0.228 C  
BRANCH  14  15
HETATM   15  C   UNL     1     -10.340  12.528  65.814  1.00  0.00    -0.265 A  
HETATM   16  C   UNL     1     -10.900  13.275  64.791  1.00  0.00    -0.360 A  
HETATM   17  C   UNL     1     -11.843  12.932  63.703  1.00  0.00    -0.599 C  
HETATM   18  N   UNL     1     -10.409  14.543  64.968  1.00  0.00    -0.420 NA 
HETATM   19  H   UNL     1     -10.621  15.357  64.391  1.00  0.00     0.000 HD 
HETATM   20  C   UNL     1      -9.586  14.524  66.056  1.00  0.00    -0.275 A  
HETATM   21  N   UNL     1      -9.511  13.323  66.580  1.00  0.00    -0.259 NA 
ENDBRANCH  14  15
ENDBRANCH  13  14
ENDBRANCH  12  13
ENDBRANCH  11  12
ENDBRANCH   5  11
TORSDOF 5
ENDMDL
MODEL      132
REMARK 921   NORMALIZED FREE ENERGY PREDICTED BY IDOCK:   -3.84 KCAL/MOL
REMARK 922        TOTAL FREE ENERGY PREDICTED BY IDOCK:   -5.93 KCAL/MOL
REMARK 923 INTER-LIGAND FREE ENERGY PREDICTED BY IDOCK:   -5.55 KCAL/MOL
REMARK 924 INTRA-LIGAND FREE ENERGY PREDICTED BY IDOCK:   -0.37 KCAL/MOL
REMARK 927      BINDING AFFINITY PREDICTED BY RF-SCORE:    0.00 PKD
ROOT
HETATM    1  C   UNL     1     -10.219   6.723  67.757  1.00  0.00    -0.171 C  
HETATM    2  N   UNL     1     -10.547   8.103  68.017  1.00  0.00    -0.399 NA 
HETATM    3  C   UNL     1     -10.336   9.129  67.141  1.00  0.00    -0.267 C  
HETATM    4  H   UNL     1     -10.965   8.330  68.919  1.00  0.00     0.000 HD 
HETATM    5  N   UNL     1     -10.695  10.363  67.633  1.00  0.00    -0.264 NA 
HETATM    6  N   UNL     1      -9.844   8.883  65.964  1.00  0.00    -0.417 NA 
HETATM    7  C   UNL     1      -9.655   9.899  65.122  1.00  0.00    -0.300 C  
HETATM    8  H   UNL     1     -10.564  11.161  67.011  1.00  0.00     0.000 HD 
HETATM    9  N   UNL     1      -9.506  10.811  64.420  1.00  0.00    -0.236 NA 
HETATM   10  H   UNL     1      -9.606   7.931  65.690  1.00  0.00     0.000 HD 
ENDROOT
BRANCH   5  11
HETATM   11  C   UNL     1     -11.243  10.641  68.949  1.00  0.00    -0.275 C  
BRANCH  11  12
HETATM   12  C   UNL     1     -11.447  12.132  69.232  1.00  0.00    -0.302 C  
BRANCH  12  13
HETATM   13  S   UNL     1     -10.418  13.035  68.023  1.00  0.00    -0.233 SA 
BRANCH  13  14
HETATM   14  C   UNL     1     -11.416  14.542  67.800  1.00  0.00    -0.340 C  
BRANCH  14  15
HETATM   15  C   UNL     1     -11.349  14.978  66.372  1.00  0.00    -0.275 A  
HETATM   16  C   UNL     1     -11.833  14.349  65.236  1.00  0.00    -0.373 A  
HETATM   17  C   UNL     1     -12.545  13.069  65.028  1.00  0.00    -0.515 C  
HETATM   18  N   UNL     1     -11.539  15.206  64.205  1.00  0.00    -0.680 NA 
HETATM   19  H   UNL     1     -11.759  15.059  63.220  1.00  0.00     0.000 HD 
HETATM   20  C   UNL     1     -10.898  16.289  64.732  1.00  0.00    -0.224 A  
HETATM   21  N   UNL     1     -10.755  16.177  66.032  1.00  0.00    -0.282 NA 
ENDBRANCH  14  15
ENDBRANCH  13  14
ENDBRANCH  12  13
ENDBRANCH  11  12
ENDBRANCH   5  11
TORSDOF 5
ENDMDL
MODEL      133
REMARK 921   NORMALIZED FREE ENERGY PREDICTED BY IDOCK:   -3.83 KCAL/MOL
REMARK 922        TOTAL FREE ENERGY PREDICTED BY IDOCK:   -5.91 KCAL/MOL
REMARK 923 INTER-LIGAND FREE ENERGY PREDICTED BY IDOCK:   -5.64 KCAL/MOL
REMARK 924 INTRA-LIGAND FREE ENERGY PREDICTED BY IDOCK:   -0.27 KCAL/MOL
REMARK 927      BINDING AFFINITY PREDICTED BY RF-SCORE:    0.00 PKD
ROOT
HETATM    1  C   UNL     1     -12.536  15.457  70.612  1.00  0.00    -0.428 C  
HETATM    2  N   UNL     1     -12.169  14.103  70.272  1.00  0.00    -0.329 NA 
HETATM    3  C   UNL     1     -12.102  13.614  68.999  1.00  0.00    -0.309 C  
HETATM    4  H   UNL     1     -11.945  13.467  71.037  1.00  0.00     0.000 HD 
HETATM    5  N   UNL     1     -11.767  12.281  68.933  1.00  0.00    -0.313 NA 
HETATM    6  N   UNL     1     -12.339  14.398  67.991  1.00  0.00    -0.589 NA 
HETATM    7  C   UNL     1     -12.259  13.900  66.757  1.00  0.00    -0.399 C  
HETATM    8  H   UNL     1     -11.696  11.870  68.002  1.00  0.00     0.000 HD 
HETATM    9  N   UNL     1     -12.179  13.428  65.701  1.00  0.00    -0.435 NA 
HETATM   10  H   UNL     1     -12.582  15.377  68.141  1.00  0.00     0.000 HD 
ENDROOT
BRANCH   5  11
HETATM   11  C   UNL     1     -11.504  11.400  70.058  1.00  0.00    -0.247 C  
BRANCH  11  12
HETATM   12  C   UNL     1     -11.339   9.929  69.667  1.00  0.00    -0.165 C  
BRANCH  12  13
HETATM   13  S   UNL     1     -10.074   9.235  70.786  1.00  0.00    -0.303 SA 
BRANCH  13  14
HETATM   14  C   UNL     1     -10.165   7.473  70.333  1.00  0.00    -0.202 C  
BRANCH  14  15
HETATM   15  C   UNL     1     -10.755   6.696  71.467  1.00  0.00    -0.230 A  
HETATM   16  C   UNL     1     -12.072   6.619  71.889  1.00  0.00    -0.340 A  
HETATM   17  C   UNL     1     -13.316   7.258  71.407  1.00  0.00    -0.399 C  
HETATM   18  N   UNL     1     -12.057   5.734  72.937  1.00  0.00    -0.518 NA 
HETATM   19  H   UNL     1     -12.864   5.437  73.485  1.00  0.00     0.000 HD 
HETATM   20  C   UNL     1     -10.769   5.322  73.116  1.00  0.00    -0.266 A  
HETATM   21  N   UNL     1      -9.958   5.893  72.257  1.00  0.00    -0.168 NA 
ENDBRANCH  14  15
ENDBRANCH  13  14
ENDBRANCH  12  13
ENDBRANCH  11  12
ENDBRANCH   5  11
TORSDOF 5
ENDMDL
MODEL      134
REMARK 921   NORMALIZED FREE ENERGY PREDICTED BY IDOCK:   -3.82 KCAL/MOL
REMARK 922        TOTAL FREE ENERGY PREDICTED BY IDOCK:   -5.91 KCAL/MOL
REMARK 923 INTER-LIGAND FREE ENERGY PREDICTED BY IDOCK:   -5.66 KCAL/MOL
REMARK 924 INTRA-LIGAND FREE ENERGY PREDICTED BY IDOCK:   -0.25 KCAL/MOL
REMARK 927      BINDING AFFINITY PREDICTED BY RF-SCORE:    0.00 PKD
ROOT
HETATM    1  C   UNL     1     -12.688   7.473  71.455  1.00  0.00    -0.359 C  
HETATM    2  N   UNL     1     -12.031   8.416  70.582  1.00  0.00    -0.484 NA 
HETATM    3  C   UNL     1     -10.837   8.194  69.959  1.00  0.00    -0.233 C  
HETATM    4  H   UNL     1     -12.491   9.311  70.419  1.00  0.00     0.000 HD 
HETATM    5  N   UNL     1     -10.396   9.259  69.208  1.00  0.00    -0.209 NA 
HETATM    6  N   UNL     1     -10.234   7.053  70.104  1.00  0.00    -0.191 NA 
HETATM    7  C   UNL     1      -9.073   6.855  69.479  1.00  0.00    -0.142 C  
HETATM    8  H   UNL     1      -9.510   9.139  68.715  1.00  0.00     0.000 HD 
HETATM    9  N   UNL     1      -8.066   6.724  68.919  1.00  0.00    -0.119 NA 
HETATM   10  H   UNL     1     -10.641   6.321  70.686  1.00  0.00     0.000 HD 
ENDROOT
BRANCH   5  11
HETATM   11  C   UNL     1     -11.065  10.537  69.046  1.00  0.00    -0.249 C  
BRANCH  11  12
HETATM   12  C   UNL     1     -11.223  10.974  67.587  1.00  0.00    -0.305 C  
BRANCH  12  13
HETATM   13  S   UNL     1     -10.987  12.784  67.559  1.00  0.00    -0.259 SA 
BRANCH  13  14
HETATM   14  C   UNL     1     -10.063  12.973  66.001  1.00  0.00    -0.284 C  
BRANCH  14  15
HETATM   15  C   UNL     1     -11.010  13.321  64.898  1.00  0.00    -0.330 A  
HETATM   16  C   UNL     1     -11.446  14.566  64.473  1.00  0.00    -0.343 A  
HETATM   17  C   UNL     1     -11.160  15.940  64.943  1.00  0.00    -0.400 C  
HETATM   18  N   UNL     1     -12.266  14.308  63.404  1.00  0.00    -1.068 NA 
HETATM   19  H   UNL     1     -12.758  15.003  62.843  1.00  0.00     0.000 HD 
HETATM   20  C   UNL     1     -12.307  12.956  63.226  1.00  0.00    -0.321 A  
HETATM   21  N   UNL     1     -11.574  12.332  64.118  1.00  0.00    -0.360 NA 
ENDBRANCH  14  15
ENDBRANCH  13  14
ENDBRANCH  12  13
ENDBRANCH  11  12
ENDBRANCH   5  11
TORSDOF 5
ENDMDL
MODEL      135
REMARK 921   NORMALIZED FREE ENERGY PREDICTED BY IDOCK:   -3.82 KCAL/MOL
REMARK 922        TOTAL FREE ENERGY PREDICTED BY IDOCK:   -5.90 KCAL/MOL
REMARK 923 INTER-LIGAND FREE ENERGY PREDICTED BY IDOCK:   -5.58 KCAL/MOL
REMARK 924 INTRA-LIGAND FREE ENERGY PREDICTED BY IDOCK:   -0.32 KCAL/MOL
REMARK 927      BINDING AFFINITY PREDICTED BY RF-SCORE:    0.00 PKD
ROOT
HETATM    1  C   UNL     1     -13.153  10.012  71.745  1.00  0.00    -0.457 C  
HETATM    2  N   UNL     1     -12.275  10.573  70.747  1.00  0.00    -0.336 NA 
HETATM    3  C   UNL     1     -12.135  11.908  70.500  1.00  0.00    -0.331 C  
HETATM    4  H   UNL     1     -11.720   9.927  70.187  1.00  0.00     0.000 HD 
HETATM    5  N   UNL     1     -11.266  12.195  69.473  1.00  0.00    -0.450 NA 
HETATM    6  N   UNL     1     -12.791  12.771  71.217  1.00  0.00    -0.327 NA 
HETATM    7  C   UNL     1     -12.631  14.070  70.963  1.00  0.00    -0.366 C  
HETATM    8  H   UNL     1     -11.121  13.182  69.255  1.00  0.00     0.000 HD 
HETATM    9  N   UNL     1     -12.464  15.190  70.711  1.00  0.00    -0.342 NA 
HETATM   10  H   UNL     1     -13.416  12.460  71.960  1.00  0.00     0.000 HD 
ENDROOT
BRANCH   5  11
HETATM   11  C   UNL     1     -10.534  11.233  68.668  1.00  0.00    -0.203 C  
BRANCH  11  12
HETATM   12  C   UNL     1     -11.285  10.778  67.413  1.00  0.00    -0.241 C  
BRANCH  12  13
HETATM   13  S   UNL     1     -10.093   9.820  66.415  1.00  0.00    -0.225 SA 
BRANCH  13  14
HETATM   14  C   UNL     1      -9.356  11.151  65.414  1.00  0.00    -0.219 C  
BRANCH  14  15
HETATM   15  C   UNL     1     -10.417  12.131  65.029  1.00  0.00    -0.290 A  
HETATM   16  C   UNL     1     -10.603  13.438  65.451  1.00  0.00    -0.303 A  
HETATM   17  C   UNL     1      -9.864  14.295  66.403  1.00  0.00    -0.309 C  
HETATM   18  N   UNL     1     -11.695  13.884  64.751  1.00  0.00    -0.367 NA 
HETATM   19  H   UNL     1     -12.110  14.813  64.812  1.00  0.00     0.000 HD 
HETATM   20  C   UNL     1     -12.129  12.862  63.957  1.00  0.00    -0.455 A  
HETATM   21  N   UNL     1     -11.390  11.788  64.112  1.00  0.00    -0.359 NA 
ENDBRANCH  14  15
ENDBRANCH  13  14
ENDBRANCH  12  13
ENDBRANCH  11  12
ENDBRANCH   5  11
TORSDOF 5
ENDMDL
MODEL      136
REMARK 921   NORMALIZED FREE ENERGY PREDICTED BY IDOCK:   -3.81 KCAL/MOL
REMARK 922        TOTAL FREE ENERGY PREDICTED BY IDOCK:   -5.89 KCAL/MOL
REMARK 923 INTER-LIGAND FREE ENERGY PREDICTED BY IDOCK:   -5.55 KCAL/MOL
REMARK 924 INTRA-LIGAND FREE ENERGY PREDICTED BY IDOCK:   -0.34 KCAL/MOL
REMARK 927      BINDING AFFINITY PREDICTED BY RF-SCORE:    0.00 PKD
ROOT
HETATM    1  C   UNL     1     -12.031  16.248  72.607  1.00  0.00    -0.546 C  
HETATM    2  N   UNL     1     -12.395  14.911  72.205  1.00  0.00    -0.342 NA 
HETATM    3  C   UNL     1     -12.335  14.442  70.925  1.00  0.00    -0.349 C  
HETATM    4  H   UNL     1     -12.722  14.271  72.929  1.00  0.00     0.000 HD 
HETATM    5  N   UNL     1     -12.772  13.145  70.787  1.00  0.00    -0.235 NA 
HETATM    6  N   UNL     1     -11.887  15.208  69.976  1.00  0.00    -0.302 NA 
HETATM    7  C   UNL     1     -11.828  14.725  68.735  1.00  0.00    -0.296 C  
HETATM    8  H   UNL     1     -12.739  12.746  69.848  1.00  0.00     0.000 HD 
HETATM    9  N   UNL     1     -11.793  14.267  67.669  1.00  0.00    -0.382 NA 
HETATM   10  H   UNL     1     -11.585  16.161  70.177  1.00  0.00     0.000 HD 
ENDROOT
BRANCH   5  11
HETATM   11  C   UNL     1     -13.277  12.287  71.845  1.00  0.00    -0.376 C  
BRANCH  11  12
HETATM   12  C   UNL     1     -13.109  10.792  71.563  1.00  0.00    -0.414 C  
BRANCH  12  13
HETATM   13  S   UNL     1     -11.866  10.652  70.232  1.00  0.00    -0.370 SA 
BRANCH  13  14
HETATM   14  C   UNL     1     -10.603   9.639  71.065  1.00  0.00    -0.292 C  
BRANCH  14  15
HETATM   15  C   UNL     1     -11.024   8.205  71.052  1.00  0.00    -0.244 A  
HETATM   16  C   UNL     1     -10.900   7.261  70.046  1.00  0.00    -0.253 A  
HETATM   17  C   UNL     1     -10.346   7.326  68.676  1.00  0.00    -0.208 C  
HETATM   18  N   UNL     1     -11.409   6.104  70.581  1.00  0.00    -0.324 NA 
HETATM   19  H   UNL     1     -11.469   5.201  70.112  1.00  0.00     0.000 HD 
HETATM   20  C   UNL     1     -11.820   6.378  71.852  1.00  0.00    -0.329 A  
HETATM   21  N   UNL     1     -11.616   7.637  72.162  1.00  0.00    -0.293 NA 
ENDBRANCH  14  15
ENDBRANCH  13  14
ENDBRANCH  12  13
ENDBRANCH  11  12
ENDBRANCH   5  11
TORSDOF 5
ENDMDL
MODEL      137
REMARK 921   NORMALIZED FREE ENERGY PREDICTED BY IDOCK:   -3.80 KCAL/MOL
REMARK 922        TOTAL FREE ENERGY PREDICTED BY IDOCK:   -5.87 KCAL/MOL
REMARK 923 INTER-LIGAND FREE ENERGY PREDICTED BY IDOCK:   -5.56 KCAL/MOL
REMARK 924 INTRA-LIGAND FREE ENERGY PREDICTED BY IDOCK:   -0.31 KCAL/MOL
REMARK 927      BINDING AFFINITY PREDICTED BY RF-SCORE:    0.00 PKD
ROOT
HETATM    1  C   UNL     1      -9.260   4.482  70.289  1.00  0.00    -0.118 C  
HETATM    2  N   UNL     1      -9.931   5.358  69.359  1.00  0.00    -0.190 NA 
HETATM    3  C   UNL     1     -10.952   6.202  69.687  1.00  0.00    -0.389 C  
HETATM    4  H   UNL     1      -9.620   5.345  68.387  1.00  0.00     0.000 HD 
HETATM    5  N   UNL     1     -11.455   6.908  68.619  1.00  0.00    -0.481 NA 
HETATM    6  N   UNL     1     -11.353   6.283  70.920  1.00  0.00    -0.326 NA 
HETATM    7  C   UNL     1     -12.345   7.121  71.219  1.00  0.00    -0.379 C  
HETATM    8  H   UNL     1     -12.215   7.560  68.815  1.00  0.00     0.000 HD 
HETATM    9  N   UNL     1     -13.211   7.862  71.437  1.00  0.00    -0.284 NA 
HETATM   10  H   UNL     1     -10.916   5.716  71.646  1.00  0.00     0.000 HD 
ENDROOT
BRANCH   5  11
HETATM   11  C   UNL     1     -11.011   6.818  67.239  1.00  0.00    -0.363 C  
BRANCH  11  12
HETATM   12  C   UNL     1      -9.987   7.886  66.847  1.00  0.00    -0.262 C  
BRANCH  12  13
HETATM   13  S   UNL     1     -10.689   9.491  67.361  1.00  0.00    -0.151 SA 
BRANCH  13  14
HETATM   14  C   UNL     1      -9.596  10.634  66.457  1.00  0.00    -0.180 C  
BRANCH  14  15
HETATM   15  C   UNL     1     -10.240  11.025  65.166  1.00  0.00    -0.291 A  
HETATM   16  C   UNL     1      -9.922  10.643  63.873  1.00  0.00    -0.326 A  
HETATM   17  C   UNL     1      -8.869   9.762  63.321  1.00  0.00    -0.260 C  
HETATM   18  N   UNL     1     -10.858  11.259  63.081  1.00  0.00    -0.817 NA 
HETATM   19  H   UNL     1     -10.925  11.191  62.066  1.00  0.00     0.000 HD 
HETATM   20  C   UNL     1     -11.683  11.980  63.894  1.00  0.00    -0.446 A  
HETATM   21  N   UNL     1     -11.330  11.872  65.153  1.00  0.00    -0.300 NA 
ENDBRANCH  14  15
ENDBRANCH  13  14
ENDBRANCH  12  13
ENDBRANCH  11  12
ENDBRANCH   5  11
TORSDOF 5
ENDMDL
MODEL      138
REMARK 921   NORMALIZED FREE ENERGY PREDICTED BY IDOCK:   -3.80 KCAL/MOL
REMARK 922        TOTAL FREE ENERGY PREDICTED BY IDOCK:   -5.87 KCAL/MOL
REMARK 923 INTER-LIGAND FREE ENERGY PREDICTED BY IDOCK:   -5.65 KCAL/MOL
REMARK 924 INTRA-LIGAND FREE ENERGY PREDICTED BY IDOCK:   -0.22 KCAL/MOL
REMARK 927      BINDING AFFINITY PREDICTED BY RF-SCORE:    0.00 PKD
ROOT
HETATM    1  C   UNL     1     -13.554   9.539  71.600  1.00  0.00    -0.350 C  
HETATM    2  N   UNL     1     -12.909  10.677  70.990  1.00  0.00    -0.386 NA 
HETATM    3  C   UNL     1     -11.620  10.690  70.541  1.00  0.00    -0.350 C  
HETATM    4  H   UNL     1     -13.455  11.532  70.886  1.00  0.00     0.000 HD 
HETATM    5  N   UNL     1     -11.220  11.904  70.033  1.00  0.00    -0.485 NA 
HETATM    6  N   UNL     1     -10.899   9.611  70.614  1.00  0.00    -0.295 NA 
HETATM    7  C   UNL     1      -9.646   9.645  70.161  1.00  0.00    -0.254 C  
HETATM    8  H   UNL     1     -10.266  11.962  69.677  1.00  0.00     0.000 HD 
HETATM    9  N   UNL     1      -8.561   9.716  69.757  1.00  0.00    -0.181 NA 
HETATM   10  H   UNL     1     -11.285   8.755  71.010  1.00  0.00     0.000 HD 
ENDROOT
BRANCH   5  11
HETATM   11  C   UNL     1     -12.022  13.112  69.953  1.00  0.00    -0.317 C  
BRANCH  11  12
HETATM   12  C   UNL     1     -11.687  14.000  68.752  1.00  0.00    -0.353 C  
BRANCH  12  13
HETATM   13  S   UNL     1     -11.396  15.678  69.412  1.00  0.00    -0.358 SA 
BRANCH  13  14
HETATM   14  C   UNL     1     -10.820  16.529  67.908  1.00  0.00    -0.326 C  
BRANCH  14  15
HETATM   15  C   UNL     1      -9.590  17.318  68.221  1.00  0.00    -0.288 A  
HETATM   16  C   UNL     1      -9.405  18.691  68.232  1.00  0.00    -0.328 A  
HETATM   17  C   UNL     1     -10.308  19.825  67.936  1.00  0.00    -0.569 C  
HETATM   18  N   UNL     1      -8.104  18.870  68.630  1.00  0.00    -0.347 NA 
HETATM   19  H   UNL     1      -7.630  19.765  68.751  1.00  0.00     0.000 HD 
HETATM   20  C   UNL     1      -7.557  17.637  68.833  1.00  0.00    -0.219 A  
HETATM   21  N   UNL     1      -8.420  16.681  68.582  1.00  0.00    -0.243 NA 
ENDBRANCH  14  15
ENDBRANCH  13  14
ENDBRANCH  12  13
ENDBRANCH  11  12
ENDBRANCH   5  11
TORSDOF 5
ENDMDL
MODEL      139
REMARK 921   NORMALIZED FREE ENERGY PREDICTED BY IDOCK:   -3.79 KCAL/MOL
REMARK 922        TOTAL FREE ENERGY PREDICTED BY IDOCK:   -5.87 KCAL/MOL
REMARK 923 INTER-LIGAND FREE ENERGY PREDICTED BY IDOCK:   -5.65 KCAL/MOL
REMARK 924 INTRA-LIGAND FREE ENERGY PREDICTED BY IDOCK:   -0.22 KCAL/MOL
REMARK 927      BINDING AFFINITY PREDICTED BY RF-SCORE:    0.00 PKD
ROOT
HETATM    1  C   UNL     1      -9.684   4.039  69.733  1.00  0.00    -0.184 C  
HETATM    2  N   UNL     1      -9.734   5.397  69.246  1.00  0.00    -0.151 NA 
HETATM    3  C   UNL     1     -10.565   6.365  69.731  1.00  0.00    -0.254 C  
HETATM    4  H   UNL     1      -9.103   5.651  68.485  1.00  0.00     0.000 HD 
HETATM    5  N   UNL     1     -10.454   7.571  69.078  1.00  0.00    -0.212 NA 
HETATM    6  N   UNL     1     -11.356   6.099  70.726  1.00  0.00    -0.319 NA 
HETATM    7  C   UNL     1     -12.152   7.063  71.189  1.00  0.00    -0.369 C  
HETATM    8  H   UNL     1     -11.050   8.330  69.409  1.00  0.00     0.000 HD 
HETATM    9  N   UNL     1     -12.828   7.929  71.562  1.00  0.00    -0.325 NA 
HETATM   10  H   UNL     1     -11.367   5.170  71.146  1.00  0.00     0.000 HD 
ENDROOT
BRANCH   5  11
HETATM   11  C   UNL     1      -9.573   7.870  67.962  1.00  0.00    -0.151 C  
BRANCH  11  12
HETATM   12  C   UNL     1     -10.264   8.598  66.806  1.00  0.00    -0.291 C  
BRANCH  12  13
HETATM   13  S   UNL     1     -10.627  10.287  67.399  1.00  0.00    -0.275 SA 
BRANCH  13  14
HETATM   14  C   UNL     1     -10.271  11.248  65.893  1.00  0.00    -0.249 C  
BRANCH  14  15
HETATM   15  C   UNL     1     -11.262  12.360  65.765  1.00  0.00    -0.333 A  
HETATM   16  C   UNL     1     -12.187  12.602  64.762  1.00  0.00    -0.465 A  
HETATM   17  C   UNL     1     -12.507  11.893  63.504  1.00  0.00    -0.609 C  
HETATM   18  N   UNL     1     -12.864  13.724  65.169  1.00  0.00    -0.748 NA 
HETATM   19  H   UNL     1     -13.625  14.182  64.667  1.00  0.00     0.000 HD 
HETATM   20  C   UNL     1     -12.338  14.118  66.364  1.00  0.00    -0.400 A  
HETATM   21  N   UNL     1     -11.363  13.327  66.744  1.00  0.00    -0.314 NA 
ENDBRANCH  14  15
ENDBRANCH  13  14
ENDBRANCH  12  13
ENDBRANCH  11  12
ENDBRANCH   5  11
TORSDOF 5
ENDMDL
MODEL      140
REMARK 921   NORMALIZED FREE ENERGY PREDICTED BY IDOCK:   -3.78 KCAL/MOL
REMARK 922        TOTAL FREE ENERGY PREDICTED BY IDOCK:   -5.85 KCAL/MOL
REMARK 923 INTER-LIGAND FREE ENERGY PREDICTED BY IDOCK:   -5.62 KCAL/MOL
REMARK 924 INTRA-LIGAND FREE ENERGY PREDICTED BY IDOCK:   -0.23 KCAL/MOL
REMARK 927      BINDING AFFINITY PREDICTED BY RF-SCORE:    0.00 PKD
ROOT
HETATM    1  C   UNL     1     -11.642   6.411  69.806  1.00  0.00    -0.327 C  
HETATM    2  N   UNL     1     -11.171   7.168  68.672  1.00  0.00    -0.474 NA 
HETATM    3  C   UNL     1     -10.861   6.632  67.455  1.00  0.00    -0.342 C  
HETATM    4  H   UNL     1     -11.061   8.176  68.788  1.00  0.00     0.000 HD 
HETATM    5  N   UNL     1     -10.396   7.552  66.545  1.00  0.00    -0.501 NA 
HETATM    6  N   UNL     1     -11.025   5.360  67.249  1.00  0.00    -0.238 NA 
HETATM    7  C   UNL     1     -10.725   4.861  66.050  1.00  0.00    -0.190 C  
HETATM    8  H   UNL     1     -10.158   7.201  65.616  1.00  0.00     0.000 HD 
HETATM    9  N   UNL     1     -10.452   4.466  64.993  1.00  0.00    -0.186 NA 
HETATM   10  H   UNL     1     -11.377   4.755  67.990  1.00  0.00     0.000 HD 
ENDROOT
BRANCH   5  11
HETATM   11  C   UNL     1     -10.209   8.974  66.773  1.00  0.00    -0.271 C  
BRANCH  11  12
HETATM   12  C   UNL     1      -9.431   9.683  65.661  1.00  0.00    -0.255 C  
BRANCH  12  13
HETATM   13  S   UNL     1      -9.703  11.473  65.898  1.00  0.00    -0.239 SA 
BRANCH  13  14
HETATM   14  C   UNL     1     -10.985  11.443  67.191  1.00  0.00    -0.285 C  
BRANCH  14  15
HETATM   15  C   UNL     1     -11.415  12.842  67.500  1.00  0.00    -0.336 A  
HETATM   16  C   UNL     1     -12.054  13.765  66.689  1.00  0.00    -0.429 A  
HETATM   17  C   UNL     1     -12.510  13.715  65.283  1.00  0.00    -0.517 C  
HETATM   18  N   UNL     1     -12.248  14.864  67.488  1.00  0.00    -0.442 NA 
HETATM   19  H   UNL     1     -12.700  15.735  67.213  1.00  0.00     0.000 HD 
HETATM   20  C   UNL     1     -11.729  14.582  68.718  1.00  0.00    -0.327 A  
HETATM   21  N   UNL     1     -11.206  13.379  68.754  1.00  0.00    -0.261 NA 
ENDBRANCH  14  15
ENDBRANCH  13  14
ENDBRANCH  12  13
ENDBRANCH  11  12
ENDBRANCH   5  11
TORSDOF 5
ENDMDL
MODEL      141
REMARK 921   NORMALIZED FREE ENERGY PREDICTED BY IDOCK:   -3.77 KCAL/MOL
REMARK 922        TOTAL FREE ENERGY PREDICTED BY IDOCK:   -5.84 KCAL/MOL
REMARK 923 INTER-LIGAND FREE ENERGY PREDICTED BY IDOCK:   -5.54 KCAL/MOL
REMARK 924 INTRA-LIGAND FREE ENERGY PREDICTED BY IDOCK:   -0.30 KCAL/MOL
REMARK 927      BINDING AFFINITY PREDICTED BY RF-SCORE:    0.00 PKD
ROOT
HETATM    1  C   UNL     1     -12.223  15.352  64.208  1.00  0.00    -0.126 C  
HETATM    2  N   UNL     1     -11.223  14.739  65.048  1.00  0.00    -0.375 NA 
HETATM    3  C   UNL     1     -10.614  13.546  64.785  1.00  0.00    -0.417 C  
HETATM    4  H   UNL     1     -10.951  15.232  65.899  1.00  0.00     0.000 HD 
HETATM    5  N   UNL     1      -9.722  13.151  65.755  1.00  0.00    -0.454 NA 
HETATM    6  N   UNL     1     -10.897  12.902  63.693  1.00  0.00    -0.531 NA 
HETATM    7  C   UNL     1     -10.284  11.743  63.453  1.00  0.00    -0.449 C  
HETATM    8  H   UNL     1      -9.234  12.268  65.600  1.00  0.00     0.000 HD 
HETATM    9  N   UNL     1      -9.728  10.739  63.281  1.00  0.00    -0.328 NA 
HETATM   10  H   UNL     1     -11.577  13.276  63.031  1.00  0.00     0.000 HD 
ENDROOT
BRANCH   5  11
HETATM   11  C   UNL     1      -9.405  13.866  66.979  1.00  0.00    -0.251 C  
BRANCH  11  12
HETATM   12  C   UNL     1     -10.053  13.269  68.231  1.00  0.00    -0.250 C  
BRANCH  12  13
HETATM   13  S   UNL     1      -9.378  11.581  68.408  1.00  0.00    -0.182 SA 
BRANCH  13  14
HETATM   14  C   UNL     1     -10.909  10.601  68.300  1.00  0.00    -0.241 C  
BRANCH  14  15
HETATM   15  C   UNL     1     -11.390  10.273  69.677  1.00  0.00    -0.257 A  
HETATM   16  C   UNL     1     -10.780   9.518  70.665  1.00  0.00    -0.309 A  
HETATM   17  C   UNL     1      -9.499   8.780  70.713  1.00  0.00    -0.253 C  
HETATM   18  N   UNL     1     -11.635   9.580  71.737  1.00  0.00    -0.375 NA 
HETATM   19  H   UNL     1     -11.495   9.136  72.644  1.00  0.00     0.000 HD 
HETATM   20  C   UNL     1     -12.707  10.341  71.372  1.00  0.00    -0.442 A  
HETATM   21  N   UNL     1     -12.598  10.762  70.134  1.00  0.00    -0.299 NA 
ENDBRANCH  14  15
ENDBRANCH  13  14
ENDBRANCH  12  13
ENDBRANCH  11  12
ENDBRANCH   5  11
TORSDOF 5
ENDMDL
MODEL      142
REMARK 921   NORMALIZED FREE ENERGY PREDICTED BY IDOCK:   -3.77 KCAL/MOL
REMARK 922        TOTAL FREE ENERGY PREDICTED BY IDOCK:   -5.83 KCAL/MOL
REMARK 923 INTER-LIGAND FREE ENERGY PREDICTED BY IDOCK:   -5.50 KCAL/MOL
REMARK 924 INTRA-LIGAND FREE ENERGY PREDICTED BY IDOCK:   -0.33 KCAL/MOL
REMARK 927      BINDING AFFINITY PREDICTED BY RF-SCORE:    0.00 PKD
ROOT
HETATM    1  C   UNL     1     -11.200   6.499  69.973  1.00  0.00    -0.393 C  
HETATM    2  N   UNL     1     -11.189   7.795  69.339  1.00  0.00    -0.442 NA 
HETATM    3  C   UNL     1     -11.746   8.923  69.869  1.00  0.00     0.339 C  
HETATM    4  H   UNL     1     -10.734   7.874  68.430  1.00  0.00     0.000 HD 
HETATM    5  N   UNL     1     -11.641  10.029  69.057  1.00  0.00    -0.489 NA 
HETATM    6  N   UNL     1     -12.301   8.880  71.043  1.00  0.00    -0.454 NA 
HETATM    7  C   UNL     1     -12.830   9.996  71.544  1.00  0.00    -0.432 C  
HETATM    8  H   UNL     1     -12.036  10.900  69.413  1.00  0.00     0.000 HD 
HETATM    9  N   UNL     1     -13.279  10.989  71.944  1.00  0.00    -0.463 NA 
HETATM   10  H   UNL     1     -12.331   8.009  71.571  1.00  0.00     0.000 HD 
ENDROOT
BRANCH   5  11
HETATM   11  C   UNL     1     -11.025  10.079  67.743  1.00  0.00    -0.249 C  
BRANCH  11  12
HETATM   12  C   UNL     1      -9.759  10.939  67.685  1.00  0.00    -0.171 C  
BRANCH  12  13
HETATM   13  S   UNL     1     -10.311  12.679  67.739  1.00  0.00    -0.224 SA 
BRANCH  13  14
HETATM   14  C   UNL     1      -9.714  13.264  66.120  1.00  0.00    -0.250 C  
BRANCH  14  15
HETATM   15  C   UNL     1     -10.239  12.371  65.042  1.00  0.00    -0.283 A  
HETATM   16  C   UNL     1     -11.507  12.315  64.487  1.00  0.00    -0.341 A  
HETATM   17  C   UNL     1     -12.750  13.070  64.754  1.00  0.00    -0.409 C  
HETATM   18  N   UNL     1     -11.424  11.351  63.513  1.00  0.00    -0.713 NA 
HETATM   19  H   UNL     1     -12.180  11.052  62.898  1.00  0.00     0.000 HD 
HETATM   20  C   UNL     1     -10.150  10.864  63.516  1.00  0.00    -0.347 A  
HETATM   21  N   UNL     1      -9.415  11.445  64.434  1.00  0.00    -0.181 NA 
ENDBRANCH  14  15
ENDBRANCH  13  14
ENDBRANCH  12  13
ENDBRANCH  11  12
ENDBRANCH   5  11
TORSDOF 5
ENDMDL
MODEL      143
REMARK 921   NORMALIZED FREE ENERGY PREDICTED BY IDOCK:   -3.77 KCAL/MOL
REMARK 922        TOTAL FREE ENERGY PREDICTED BY IDOCK:   -5.83 KCAL/MOL
REMARK 923 INTER-LIGAND FREE ENERGY PREDICTED BY IDOCK:   -5.50 KCAL/MOL
REMARK 924 INTRA-LIGAND FREE ENERGY PREDICTED BY IDOCK:   -0.33 KCAL/MOL
REMARK 927      BINDING AFFINITY PREDICTED BY RF-SCORE:    0.00 PKD
ROOT
HETATM    1  C   UNL     1     -10.819   6.885  67.052  1.00  0.00    -0.366 C  
HETATM    2  N   UNL     1     -10.973   7.949  68.013  1.00  0.00    -0.460 NA 
HETATM    3  C   UNL     1     -11.186   7.763  69.349  1.00  0.00     0.169 C  
HETATM    4  H   UNL     1     -10.919   8.908  67.671  1.00  0.00     0.000 HD 
HETATM    5  N   UNL     1     -11.339   8.933  70.056  1.00  0.00    -0.431 NA 
HETATM    6  N   UNL     1     -11.220   6.560  69.837  1.00  0.00    -0.364 NA 
HETATM    7  C   UNL     1     -11.420   6.403  71.146  1.00  0.00    -0.323 C  
HETATM    8  H   UNL     1     -11.492   8.847  71.061  1.00  0.00     0.000 HD 
HETATM    9  N   UNL     1     -11.596   6.310  72.289  1.00  0.00    -0.306 NA 
HETATM   10  H   UNL     1     -11.096   5.750  69.230  1.00  0.00     0.000 HD 
ENDROOT
BRANCH   5  11
HETATM   11  C   UNL     1     -11.305  10.280  69.513  1.00  0.00    -0.241 C  
BRANCH  11  12
HETATM   12  C   UNL     1     -12.098  11.300  70.335  1.00  0.00    -0.384 C  
BRANCH  12  13
HETATM   13  S   UNL     1     -11.837  12.923  69.540  1.00  0.00    -0.289 SA 
BRANCH  13  14
HETATM   14  C   UNL     1     -10.821  12.430  68.111  1.00  0.00    -0.221 C  
BRANCH  14  15
HETATM   15  C   UNL     1     -11.305  13.138  66.886  1.00  0.00    -0.318 A  
HETATM   16  C   UNL     1     -10.926  14.368  66.374  1.00  0.00    -0.319 A  
HETATM   17  C   UNL     1      -9.962  15.391  66.836  1.00  0.00    -0.247 C  
HETATM   18  N   UNL     1     -11.650  14.507  65.216  1.00  0.00    -0.349 NA 
HETATM   19  H   UNL     1     -11.615  15.301  64.577  1.00  0.00     0.000 HD 
HETATM   20  C   UNL     1     -12.427  13.395  65.073  1.00  0.00    -0.428 A  
HETATM   21  N   UNL     1     -12.254  12.557  66.069  1.00  0.00    -0.620 NA 
ENDBRANCH  14  15
ENDBRANCH  13  14
ENDBRANCH  12  13
ENDBRANCH  11  12
ENDBRANCH   5  11
TORSDOF 5
ENDMDL
MODEL      144
REMARK 921   NORMALIZED FREE ENERGY PREDICTED BY IDOCK:   -3.76 KCAL/MOL
REMARK 922        TOTAL FREE ENERGY PREDICTED BY IDOCK:   -5.83 KCAL/MOL
REMARK 923 INTER-LIGAND FREE ENERGY PREDICTED BY IDOCK:   -5.55 KCAL/MOL
REMARK 924 INTRA-LIGAND FREE ENERGY PREDICTED BY IDOCK:   -0.28 KCAL/MOL
REMARK 927      BINDING AFFINITY PREDICTED BY RF-SCORE:    0.00 PKD
ROOT
HETATM    1  C   UNL     1     -11.027  16.757  64.833  1.00  0.00    -0.087 C  
HETATM    2  N   UNL     1     -10.541  15.490  65.323  1.00  0.00    -0.399 NA 
HETATM    3  C   UNL     1     -11.018  14.272  64.932  1.00  0.00    -0.404 C  
HETATM    4  H   UNL     1      -9.787  15.505  66.010  1.00  0.00     0.000 HD 
HETATM    5  N   UNL     1     -10.421  13.210  65.570  1.00  0.00    -0.283 NA 
HETATM    6  N   UNL     1     -11.949  14.202  64.029  1.00  0.00    -0.667 NA 
HETATM    7  C   UNL     1     -12.394  13.002  63.656  1.00  0.00    -0.417 C  
HETATM    8  H   UNL     1     -10.738  12.277  65.306  1.00  0.00     0.000 HD 
HETATM    9  N   UNL     1     -12.753  11.939  63.360  1.00  0.00    -0.685 NA 
HETATM   10  H   UNL     1     -12.333  15.050  63.612  1.00  0.00     0.000 HD 
ENDROOT
BRANCH   5  11
HETATM   11  C   UNL     1      -9.382  13.284  66.583  1.00  0.00    -0.242 C  
BRANCH  11  12
HETATM   12  C   UNL     1      -9.700  12.495  67.855  1.00  0.00    -0.205 C  
BRANCH  12  13
HETATM   13  S   UNL     1     -11.329  11.714  67.587  1.00  0.00    -0.294 SA 
BRANCH  13  14
HETATM   14  C   UNL     1     -10.907   9.965  67.868  1.00  0.00    -0.258 C  
BRANCH  14  15
HETATM   15  C   UNL     1     -10.655   9.740  69.325  1.00  0.00    -0.221 A  
HETATM   16  C   UNL     1     -11.504   9.929  70.404  1.00  0.00    -0.301 A  
HETATM   17  C   UNL     1     -12.898  10.414  70.507  1.00  0.00    -0.326 C  
HETATM   18  N   UNL     1     -10.780   9.528  71.498  1.00  0.00    -0.298 NA 
HETATM   19  H   UNL     1     -11.103   9.528  72.465  1.00  0.00     0.000 HD 
HETATM   20  C   UNL     1      -9.550   9.129  71.062  1.00  0.00    -0.280 A  
HETATM   21  N   UNL     1      -9.437   9.258  69.761  1.00  0.00    -0.179 NA 
ENDBRANCH  14  15
ENDBRANCH  13  14
ENDBRANCH  12  13
ENDBRANCH  11  12
ENDBRANCH   5  11
TORSDOF 5
ENDMDL
MODEL      145
REMARK 921   NORMALIZED FREE ENERGY PREDICTED BY IDOCK:   -3.76 KCAL/MOL
REMARK 922        TOTAL FREE ENERGY PREDICTED BY IDOCK:   -5.82 KCAL/MOL
REMARK 923 INTER-LIGAND FREE ENERGY PREDICTED BY IDOCK:   -5.65 KCAL/MOL
REMARK 924 INTRA-LIGAND FREE ENERGY PREDICTED BY IDOCK:   -0.17 KCAL/MOL
REMARK 927      BINDING AFFINITY PREDICTED BY RF-SCORE:    0.00 PKD
ROOT
HETATM    1  C   UNL     1     -12.464  10.032  70.911  1.00  0.00    -0.337 C  
HETATM    2  N   UNL     1     -12.254  10.956  69.823  1.00  0.00    -0.383 NA 
HETATM    3  C   UNL     1     -11.600  10.652  68.663  1.00  0.00    -0.227 C  
HETATM    4  H   UNL     1     -12.618  11.902  69.927  1.00  0.00     0.000 HD 
HETATM    5  N   UNL     1     -11.493  11.711  67.792  1.00  0.00    -0.385 NA 
HETATM    6  N   UNL     1     -11.155   9.447  68.468  1.00  0.00    -0.470 NA 
HETATM    7  C   UNL     1     -10.528   9.171  67.325  1.00  0.00    -0.265 C  
HETATM    8  H   UNL     1     -11.019  11.531  66.906  1.00  0.00     0.000 HD 
HETATM    9  N   UNL     1      -9.989   8.972  66.317  1.00  0.00    -0.295 NA 
HETATM   10  H   UNL     1     -11.283   8.726  69.177  1.00  0.00     0.000 HD 
ENDROOT
BRANCH   5  11
HETATM   11  C   UNL     1     -11.986  13.060  68.007  1.00  0.00    -0.290 C  
BRANCH  11  12
HETATM   12  C   UNL     1     -11.677  14.023  66.859  1.00  0.00    -0.410 C  
BRANCH  12  13
HETATM   13  S   UNL     1     -10.952  15.518  67.617  1.00  0.00    -0.306 SA 
BRANCH  13  14
HETATM   14  C   UNL     1     -10.144  16.265  66.165  1.00  0.00    -0.344 C  
BRANCH  14  15
HETATM   15  C   UNL     1      -9.699  17.652  66.500  1.00  0.00    -0.304 A  
HETATM   16  C   UNL     1      -8.436  18.216  66.413  1.00  0.00    -0.238 A  
HETATM   17  C   UNL     1      -7.126  17.674  65.992  1.00  0.00    -0.318 C  
HETATM   18  N   UNL     1      -8.604  19.521  66.801  1.00  0.00    -0.302 NA 
HETATM   19  H   UNL     1      -7.874  20.232  66.851  1.00  0.00     0.000 HD 
HETATM   20  C   UNL     1      -9.921  19.699  67.110  1.00  0.00    -0.387 A  
HETATM   21  N   UNL     1     -10.604  18.590  66.953  1.00  0.00    -0.389 NA 
ENDBRANCH  14  15
ENDBRANCH  13  14
ENDBRANCH  12  13
ENDBRANCH  11  12
ENDBRANCH   5  11
TORSDOF 5
ENDMDL
MODEL      146
REMARK 921   NORMALIZED FREE ENERGY PREDICTED BY IDOCK:   -3.75 KCAL/MOL
REMARK 922        TOTAL FREE ENERGY PREDICTED BY IDOCK:   -5.82 KCAL/MOL
REMARK 923 INTER-LIGAND FREE ENERGY PREDICTED BY IDOCK:   -5.43 KCAL/MOL
REMARK 924 INTRA-LIGAND FREE ENERGY PREDICTED BY IDOCK:   -0.39 KCAL/MOL
REMARK 927      BINDING AFFINITY PREDICTED BY RF-SCORE:    0.00 PKD
ROOT
HETATM    1  C   UNL     1     -10.912   6.505  67.154  1.00  0.00    -0.408 C  
HETATM    2  N   UNL     1     -10.935   7.869  67.623  1.00  0.00    -0.512 NA 
HETATM    3  C   UNL     1     -10.309   8.913  67.005  1.00  0.00    -0.269 C  
HETATM    4  H   UNL     1     -11.457   8.068  68.477  1.00  0.00     0.000 HD 
HETATM    5  N   UNL     1     -10.445  10.112  67.665  1.00  0.00    -0.226 NA 
HETATM    6  N   UNL     1      -9.668   8.716  65.893  1.00  0.00    -0.457 NA 
HETATM    7  C   UNL     1      -9.071   9.751  65.303  1.00  0.00    -0.211 C  
HETATM    8  H   UNL     1     -10.001  10.926  67.238  1.00  0.00     0.000 HD 
HETATM    9  N   UNL     1      -8.567  10.679  64.821  1.00  0.00    -0.163 NA 
HETATM   10  H   UNL     1      -9.621   7.785  65.479  1.00  0.00     0.000 HD 
ENDROOT
BRANCH   5  11
HETATM   11  C   UNL     1     -11.159  10.336  68.910  1.00  0.00    -0.231 C  
BRANCH  11  12
HETATM   12  C   UNL     1     -11.233  11.808  69.326  1.00  0.00    -0.256 C  
BRANCH  12  13
HETATM   13  S   UNL     1     -10.483  12.769  67.966  1.00  0.00    -0.232 SA 
BRANCH  13  14
HETATM   14  C   UNL     1     -11.802  13.986  67.655  1.00  0.00    -0.395 C  
BRANCH  14  15
HETATM   15  C   UNL     1     -11.389  15.318  68.193  1.00  0.00    -0.338 A  
HETATM   16  C   UNL     1     -11.488  15.815  69.483  1.00  0.00    -0.353 A  
HETATM   17  C   UNL     1     -12.028  15.243  70.736  1.00  0.00    -0.384 C  
HETATM   18  N   UNL     1     -10.921  17.063  69.426  1.00  0.00    -0.321 NA 
HETATM   19  H   UNL     1     -10.820  17.713  70.205  1.00  0.00     0.000 HD 
HETATM   20  C   UNL     1     -10.516  17.279  68.142  1.00  0.00    -0.382 A  
HETATM   21  N   UNL     1     -10.796  16.254  67.371  1.00  0.00    -0.286 NA 
ENDBRANCH  14  15
ENDBRANCH  13  14
ENDBRANCH  12  13
ENDBRANCH  11  12
ENDBRANCH   5  11
TORSDOF 5
ENDMDL
MODEL      147
REMARK 921   NORMALIZED FREE ENERGY PREDICTED BY IDOCK:   -3.75 KCAL/MOL
REMARK 922        TOTAL FREE ENERGY PREDICTED BY IDOCK:   -5.81 KCAL/MOL
REMARK 923 INTER-LIGAND FREE ENERGY PREDICTED BY IDOCK:   -5.41 KCAL/MOL
REMARK 924 INTRA-LIGAND FREE ENERGY PREDICTED BY IDOCK:   -0.41 KCAL/MOL
REMARK 927      BINDING AFFINITY PREDICTED BY RF-SCORE:    0.00 PKD
ROOT
HETATM    1  C   UNL     1      -7.470  16.143  66.898  1.00  0.00    -0.231 C  
HETATM    2  N   UNL     1      -8.675  15.913  66.140  1.00  0.00    -0.332 NA 
HETATM    3  C   UNL     1      -9.593  16.876  65.832  1.00  0.00    -0.138 C  
HETATM    4  H   UNL     1      -8.854  14.965  65.810  1.00  0.00     0.000 HD 
HETATM    5  N   UNL     1     -10.679  16.404  65.131  1.00  0.00    -0.628 NA 
HETATM    6  N   UNL     1      -9.387  18.106  66.195  1.00  0.00    -0.505 NA 
HETATM    7  C   UNL     1     -10.292  19.030  65.875  1.00  0.00    -0.371 C  
HETATM    8  H   UNL     1     -11.390  17.088  64.870  1.00  0.00     0.000 HD 
HETATM    9  N   UNL     1     -11.104  19.804  65.577  1.00  0.00    -0.258 NA 
HETATM   10  H   UNL     1      -8.547  18.360  66.714  1.00  0.00     0.000 HD 
ENDROOT
BRANCH   5  11
HETATM   11  C   UNL     1     -10.914  15.029  64.727  1.00  0.00    -0.373 C  
BRANCH  11  12
HETATM   12  C   UNL     1     -12.324  14.523  65.044  1.00  0.00    -0.349 C  
BRANCH  12  13
HETATM   13  S   UNL     1     -12.289  12.712  64.815  1.00  0.00    -0.471 SA 
BRANCH  13  14
HETATM   14  C   UNL     1     -10.647  12.508  64.053  1.00  0.00    -0.421 C  
BRANCH  14  15
HETATM   15  C   UNL     1      -9.921  11.387  64.724  1.00  0.00    -0.267 A  
HETATM   16  C   UNL     1      -9.456  11.296  66.027  1.00  0.00    -0.216 A  
HETATM   17  C   UNL     1      -9.493  12.234  67.170  1.00  0.00    -0.196 C  
HETATM   18  N   UNL     1      -8.909  10.041  66.120  1.00  0.00    -0.145 NA 
HETATM   19  H   UNL     1      -8.475   9.634  66.948  1.00  0.00     0.000 HD 
HETATM   20  C   UNL     1      -9.048   9.434  64.906  1.00  0.00    -0.202 A  
HETATM   21  N   UNL     1      -9.639  10.223  64.040  1.00  0.00    -0.305 NA 
ENDBRANCH  14  15
ENDBRANCH  13  14
ENDBRANCH  12  13
ENDBRANCH  11  12
ENDBRANCH   5  11
TORSDOF 5
ENDMDL
MODEL      148
REMARK 921   NORMALIZED FREE ENERGY PREDICTED BY IDOCK:   -3.75 KCAL/MOL
REMARK 922        TOTAL FREE ENERGY PREDICTED BY IDOCK:   -5.81 KCAL/MOL
REMARK 923 INTER-LIGAND FREE ENERGY PREDICTED BY IDOCK:   -5.46 KCAL/MOL
REMARK 924 INTRA-LIGAND FREE ENERGY PREDICTED BY IDOCK:   -0.34 KCAL/MOL
REMARK 927      BINDING AFFINITY PREDICTED BY RF-SCORE:    0.00 PKD
ROOT
HETATM    1  C   UNL     1     -12.958  15.459  70.973  1.00  0.00    -0.492 C  
HETATM    2  N   UNL     1     -12.622  14.990  69.651  1.00  0.00    -0.605 NA 
HETATM    3  C   UNL     1     -11.716  15.588  68.823  1.00  0.00    -0.357 C  
HETATM    4  H   UNL     1     -13.093  14.152  69.311  1.00  0.00     0.000 HD 
HETATM    5  N   UNL     1     -11.596  14.976  67.597  1.00  0.00    -0.336 NA 
HETATM    6  N   UNL     1     -11.061  16.634  69.228  1.00  0.00    -0.279 NA 
HETATM    7  C   UNL     1     -10.176  17.196  68.405  1.00  0.00    -0.340 C  
HETATM    8  H   UNL     1     -10.924  15.382  66.944  1.00  0.00     0.000 HD 
HETATM    9  N   UNL     1      -9.415  17.655  67.659  1.00  0.00    -0.255 NA 
HETATM   10  H   UNL     1     -11.221  17.018  70.159  1.00  0.00     0.000 HD 
ENDROOT
BRANCH   5  11
HETATM   11  C   UNL     1     -12.329  13.809  67.139  1.00  0.00    -0.204 C  
BRANCH  11  12
HETATM   12  C   UNL     1     -12.686  13.846  65.650  1.00  0.00    -0.495 C  
BRANCH  12  13
HETATM   13  S   UNL     1     -11.222  14.509  64.783  1.00  0.00    -0.376 SA 
BRANCH  13  14
HETATM   14  C   UNL     1     -10.312  12.967  64.446  1.00  0.00    -0.374 C  
BRANCH  14  15
HETATM   15  C   UNL     1      -9.708  12.457  65.715  1.00  0.00    -0.200 A  
HETATM   16  C   UNL     1      -9.534  11.151  66.143  1.00  0.00    -0.204 A  
HETATM   17  C   UNL     1      -9.880   9.845  65.539  1.00  0.00    -0.381 C  
HETATM   18  N   UNL     1      -8.893  11.257  67.351  1.00  0.00    -0.143 NA 
HETATM   19  H   UNL     1      -8.603  10.482  67.948  1.00  0.00     0.000 HD 
HETATM   20  C   UNL     1      -8.712  12.583  67.613  1.00  0.00    -0.177 A  
HETATM   21  N   UNL     1      -9.204  13.333  66.655  1.00  0.00    -0.242 NA 
ENDBRANCH  14  15
ENDBRANCH  13  14
ENDBRANCH  12  13
ENDBRANCH  11  12
ENDBRANCH   5  11
TORSDOF 5
ENDMDL
MODEL      149
REMARK 921   NORMALIZED FREE ENERGY PREDICTED BY IDOCK:   -3.74 KCAL/MOL
REMARK 922        TOTAL FREE ENERGY PREDICTED BY IDOCK:   -5.80 KCAL/MOL
REMARK 923 INTER-LIGAND FREE ENERGY PREDICTED BY IDOCK:   -5.52 KCAL/MOL
REMARK 924 INTRA-LIGAND FREE ENERGY PREDICTED BY IDOCK:   -0.27 KCAL/MOL
REMARK 927      BINDING AFFINITY PREDICTED BY RF-SCORE:    0.00 PKD
ROOT
HETATM    1  C   UNL     1     -10.454   5.678  70.361  1.00  0.00    -0.285 C  
HETATM    2  N   UNL     1     -10.647   6.987  69.788  1.00  0.00    -0.226 NA 
HETATM    3  C   UNL     1     -11.426   7.966  70.334  1.00  0.00    -0.145 C  
HETATM    4  H   UNL     1     -10.169   7.196  68.911  1.00  0.00     0.000 HD 
HETATM    5  N   UNL     1     -11.483   9.116  69.581  1.00  0.00    -0.428 NA 
HETATM    6  N   UNL     1     -12.021   7.761  71.471  1.00  0.00    -0.290 NA 
HETATM    7  C   UNL     1     -12.768   8.735  71.990  1.00  0.00    -0.387 C  
HETATM    8  H   UNL     1     -12.047   9.882  69.953  1.00  0.00     0.000 HD 
HETATM    9  N   UNL     1     -13.409   9.607  72.407  1.00  0.00    -0.401 NA 
HETATM   10  H   UNL     1     -11.918   6.870  71.956  1.00  0.00     0.000 HD 
ENDROOT
BRANCH   5  11
HETATM   11  C   UNL     1     -10.822   9.349  68.309  1.00  0.00    -0.112 C  
BRANCH  11  12
HETATM   12  C   UNL     1     -10.132  10.712  68.210  1.00  0.00    -0.157 C  
BRANCH  12  13
HETATM   13  S   UNL     1      -9.143  10.682  66.675  1.00  0.00    -0.163 SA 
BRANCH  13  14
HETATM   14  C   UNL     1      -9.579  12.303  65.970  1.00  0.00    -0.222 C  
BRANCH  14  15
HETATM   15  C   UNL     1     -10.563  12.116  64.860  1.00  0.00    -0.293 A  
HETATM   16  C   UNL     1     -10.352  11.683  63.561  1.00  0.00    -0.441 A  
HETATM   17  C   UNL     1      -9.132  11.282  62.826  1.00  0.00    -0.327 C  
HETATM   18  N   UNL     1     -11.599  11.655  62.990  1.00  0.00    -0.829 NA 
HETATM   19  H   UNL     1     -11.816  11.377  62.033  1.00  0.00     0.000 HD 
HETATM   20  C   UNL     1     -12.497  12.068  63.930  1.00  0.00    -0.436 A  
HETATM   21  N   UNL     1     -11.905  12.367  65.062  1.00  0.00    -0.382 NA 
ENDBRANCH  14  15
ENDBRANCH  13  14
ENDBRANCH  12  13
ENDBRANCH  11  12
ENDBRANCH   5  11
TORSDOF 5
ENDMDL
MODEL      150
REMARK 921   NORMALIZED FREE ENERGY PREDICTED BY IDOCK:   -3.72 KCAL/MOL
REMARK 922        TOTAL FREE ENERGY PREDICTED BY IDOCK:   -5.78 KCAL/MOL
REMARK 923 INTER-LIGAND FREE ENERGY PREDICTED BY IDOCK:   -5.56 KCAL/MOL
REMARK 924 INTRA-LIGAND FREE ENERGY PREDICTED BY IDOCK:   -0.21 KCAL/MOL
REMARK 927      BINDING AFFINITY PREDICTED BY RF-SCORE:    0.00 PKD
ROOT
HETATM    1  C   UNL     1      -6.677  19.699  69.206  1.00  0.00    -0.356 C  
HETATM    2  N   UNL     1      -7.296  18.481  68.741  1.00  0.00    -0.291 NA 
HETATM    3  C   UNL     1      -8.347  18.429  67.872  1.00  0.00    -0.261 C  
HETATM    4  H   UNL     1      -6.921  17.597  69.085  1.00  0.00     0.000 HD 
HETATM    5  N   UNL     1      -8.787  17.153  67.607  1.00  0.00    -0.216 NA 
HETATM    6  N   UNL     1      -8.831  19.528  67.375  1.00  0.00    -0.299 NA 
HETATM    7  C   UNL     1      -9.852  19.452  66.521  1.00  0.00    -0.386 C  
HETATM    8  H   UNL     1      -9.567  17.061  66.956  1.00  0.00     0.000 HD 
HETATM    9  N   UNL     1     -10.740  19.342  65.783  1.00  0.00    -0.444 NA 
HETATM   10  H   UNL     1      -8.436  20.432  67.633  1.00  0.00     0.000 HD 
ENDROOT
BRANCH   5  11
HETATM   11  C   UNL     1      -8.251  15.923  68.163  1.00  0.00    -0.149 C  
BRANCH  11  12
HETATM   12  C   UNL     1      -9.301  15.044  68.849  1.00  0.00    -0.208 C  
BRANCH  12  13
HETATM   13  S   UNL     1     -10.861  15.992  68.832  1.00  0.00    -0.308 SA 
BRANCH  13  14
HETATM   14  C   UNL     1     -12.032  14.708  69.378  1.00  0.00    -0.313 C  
BRANCH  14  15
HETATM   15  C   UNL     1     -11.864  13.487  68.533  1.00  0.00    -0.362 A  
HETATM   16  C   UNL     1     -11.954  13.350  67.157  1.00  0.00    -0.366 A  
HETATM   17  C   UNL     1     -12.251  14.313  66.074  1.00  0.00    -0.422 C  
HETATM   18  N   UNL     1     -11.669  12.030  66.913  1.00  0.00    -0.576 NA 
HETATM   19  H   UNL     1     -11.641  11.581  65.998  1.00  0.00     0.000 HD 
HETATM   20  C   UNL     1     -11.431  11.426  68.113  1.00  0.00    -0.305 A  
HETATM   21  N   UNL     1     -11.555  12.271  69.109  1.00  0.00    -0.297 NA 
ENDBRANCH  14  15
ENDBRANCH  13  14
ENDBRANCH  12  13
ENDBRANCH  11  12
ENDBRANCH   5  11
TORSDOF 5
ENDMDL
MODEL      151
REMARK 921   NORMALIZED FREE ENERGY PREDICTED BY IDOCK:   -3.72 KCAL/MOL
REMARK 922        TOTAL FREE ENERGY PREDICTED BY IDOCK:   -5.77 KCAL/MOL
REMARK 923 INTER-LIGAND FREE ENERGY PREDICTED BY IDOCK:   -5.37 KCAL/MOL
REMARK 924 INTRA-LIGAND FREE ENERGY PREDICTED BY IDOCK:   -0.40 KCAL/MOL
REMARK 927      BINDING AFFINITY PREDICTED BY RF-SCORE:    0.00 PKD
ROOT
HETATM    1  C   UNL     1     -13.762  13.998  72.516  1.00  0.00    -0.547 C  
HETATM    2  N   UNL     1     -13.189  12.753  72.068  1.00  0.00    -0.457 NA 
HETATM    3  C   UNL     1     -12.364  12.622  70.988  1.00  0.00    -0.211 C  
HETATM    4  H   UNL     1     -13.416  11.909  72.595  1.00  0.00     0.000 HD 
HETATM    5  N   UNL     1     -11.977  11.326  70.737  1.00  0.00    -0.358 NA 
HETATM    6  N   UNL     1     -12.014  13.674  70.310  1.00  0.00    -0.416 NA 
HETATM    7  C   UNL     1     -11.201  13.524  69.265  1.00  0.00    -0.231 C  
HETATM    8  H   UNL     1     -11.353  11.178  69.943  1.00  0.00     0.000 HD 
HETATM    9  N   UNL     1     -10.493  13.351  68.363  1.00  0.00    -0.246 NA 
HETATM   10  H   UNL     1     -12.355  14.598  70.574  1.00  0.00     0.000 HD 
ENDROOT
BRANCH   5  11
HETATM   11  C   UNL     1     -12.369  10.147  71.489  1.00  0.00    -0.408 C  
BRANCH  11  12
HETATM   12  C   UNL     1     -11.247   9.120  71.660  1.00  0.00    -0.377 C  
BRANCH  12  13
HETATM   13  S   UNL     1     -11.894   7.535  71.026  1.00  0.00    -0.274 SA 
BRANCH  13  14
HETATM   14  C   UNL     1     -10.379   6.823  70.308  1.00  0.00    -0.198 C  
BRANCH  14  15
HETATM   15  C   UNL     1     -10.510   6.768  68.820  1.00  0.00    -0.208 A  
HETATM   16  C   UNL     1     -10.387   7.785  67.888  1.00  0.00    -0.217 A  
HETATM   17  C   UNL     1     -10.112   9.233  68.018  1.00  0.00    -0.234 C  
HETATM   18  N   UNL     1     -10.558   7.173  66.672  1.00  0.00    -0.520 NA 
HETATM   19  H   UNL     1     -10.525   7.629  65.760  1.00  0.00     0.000 HD 
HETATM   20  C   UNL     1     -10.780   5.847  66.899  1.00  0.00    -0.321 A  
HETATM   21  N   UNL     1     -10.772   5.572  68.182  1.00  0.00    -0.144 NA 
ENDBRANCH  14  15
ENDBRANCH  13  14
ENDBRANCH  12  13
ENDBRANCH  11  12
ENDBRANCH   5  11
TORSDOF 5
ENDMDL
MODEL      152
REMARK 921   NORMALIZED FREE ENERGY PREDICTED BY IDOCK:   -3.72 KCAL/MOL
REMARK 922        TOTAL FREE ENERGY PREDICTED BY IDOCK:   -5.77 KCAL/MOL
REMARK 923 INTER-LIGAND FREE ENERGY PREDICTED BY IDOCK:   -6.21 KCAL/MOL
REMARK 924 INTRA-LIGAND FREE ENERGY PREDICTED BY IDOCK:    0.45 KCAL/MOL
REMARK 927      BINDING AFFINITY PREDICTED BY RF-SCORE:    0.00 PKD
ROOT
HETATM    1  C   UNL     1     -10.998  15.530  64.793  1.00  0.00    -0.399 C  
HETATM    2  N   UNL     1     -11.110  14.267  65.481  1.00  0.00    -0.313 NA 
HETATM    3  C   UNL     1     -10.743  13.062  64.956  1.00  0.00    -0.315 C  
HETATM    4  H   UNL     1     -11.490  14.275  66.428  1.00  0.00     0.000 HD 
HETATM    5  N   UNL     1     -10.981  11.995  65.792  1.00  0.00    -0.297 NA 
HETATM    6  N   UNL     1     -10.215  13.007  63.770  1.00  0.00    -0.716 NA 
HETATM    7  C   UNL     1      -9.856  11.820  63.281  1.00  0.00    -0.377 C  
HETATM    8  H   UNL     1     -10.716  11.072  65.447  1.00  0.00     0.000 HD 
HETATM    9  N   UNL     1      -9.558  10.768  62.893  1.00  0.00    -0.327 NA 
HETATM   10  H   UNL     1     -10.078  13.856  63.223  1.00  0.00     0.000 HD 
ENDROOT
BRANCH   5  11
HETATM   11  C   UNL     1     -11.574  12.053  67.117  1.00  0.00    -0.316 C  
BRANCH  11  12
HETATM   12  C   UNL     1     -11.376  10.776  67.939  1.00  0.00    -0.299 C  
BRANCH  12  13
HETATM   13  S   UNL     1     -11.905  11.170  69.642  1.00  0.00    -0.376 SA 
BRANCH  13  14
HETATM   14  C   UNL     1     -11.569  12.959  69.686  1.00  0.00    -0.248 C  
BRANCH  14  15
HETATM   15  C   UNL     1     -12.528  13.624  70.620  1.00  0.00    -0.347 A  
HETATM   16  C   UNL     1     -13.303  13.070  71.626  1.00  0.00    -0.292 A  
HETATM   17  C   UNL     1     -13.471  11.683  72.111  1.00  0.00    -0.238 C  
HETATM   18  N   UNL     1     -13.959  14.134  72.194  1.00  0.00    -0.491 NA 
HETATM   19  H   UNL     1     -14.614  14.089  72.974  1.00  0.00     0.000 HD 
HETATM   20  C   UNL     1     -13.577  15.262  71.530  1.00  0.00    -0.504 A  
HETATM   21  N   UNL     1     -12.729  14.989  70.567  1.00  0.00    -0.362 NA 
ENDBRANCH  14  15
ENDBRANCH  13  14
ENDBRANCH  12  13
ENDBRANCH  11  12
ENDBRANCH   5  11
TORSDOF 5
ENDMDL
MODEL      153
REMARK 921   NORMALIZED FREE ENERGY PREDICTED BY IDOCK:   -3.72 KCAL/MOL
REMARK 922        TOTAL FREE ENERGY PREDICTED BY IDOCK:   -5.77 KCAL/MOL
REMARK 923 INTER-LIGAND FREE ENERGY PREDICTED BY IDOCK:   -5.53 KCAL/MOL
REMARK 924 INTRA-LIGAND FREE ENERGY PREDICTED BY IDOCK:   -0.23 KCAL/MOL
REMARK 927      BINDING AFFINITY PREDICTED BY RF-SCORE:    0.00 PKD
ROOT
HETATM    1  C   UNL     1     -12.534  15.516  70.178  1.00  0.00    -0.318 C  
HETATM    2  N   UNL     1     -12.050  14.696  69.094  1.00  0.00    -0.494 NA 
HETATM    3  C   UNL     1     -11.396  15.172  67.994  1.00  0.00    -0.337 C  
HETATM    4  H   UNL     1     -12.209  13.690  69.152  1.00  0.00     0.000 HD 
HETATM    5  N   UNL     1     -11.068  14.199  67.079  1.00  0.00    -0.300 NA 
HETATM    6  N   UNL     1     -11.135  16.440  67.895  1.00  0.00    -0.297 NA 
HETATM    7  C   UNL     1     -10.486  16.880  66.817  1.00  0.00    -0.260 C  
HETATM    8  H   UNL     1     -10.570  14.504  66.242  1.00  0.00     0.000 HD 
HETATM    9  N   UNL     1      -9.921  17.223  65.864  1.00  0.00    -0.539 NA 
HETATM   10  H   UNL     1     -11.420  17.088  68.630  1.00  0.00     0.000 HD 
ENDROOT
BRANCH   5  11
HETATM   11  C   UNL     1     -11.362  12.780  67.184  1.00  0.00    -0.314 C  
BRANCH  11  12
HETATM   12  C   UNL     1     -10.188  11.942  67.698  1.00  0.00    -0.201 C  
BRANCH  12  13
HETATM   13  S   UNL     1     -10.788  10.220  67.803  1.00  0.00    -0.292 SA 
BRANCH  13  14
HETATM   14  C   UNL     1     -10.414   9.846  69.546  1.00  0.00    -0.241 C  
BRANCH  14  15
HETATM   15  C   UNL     1     -11.031   8.537  69.919  1.00  0.00    -0.165 A  
HETATM   16  C   UNL     1     -11.982   8.257  70.887  1.00  0.00    -0.180 A  
HETATM   17  C   UNL     1     -12.690   9.107  71.869  1.00  0.00    -0.464 C  
HETATM   18  N   UNL     1     -12.219   6.910  70.772  1.00  0.00    -0.519 NA 
HETATM   19  H   UNL     1     -12.873   6.365  71.332  1.00  0.00     0.000 HD 
HETATM   20  C   UNL     1     -11.422   6.430  69.774  1.00  0.00    -0.399 A  
HETATM   21  N   UNL     1     -10.684   7.381  69.250  1.00  0.00    -0.213 NA 
ENDBRANCH  14  15
ENDBRANCH  13  14
ENDBRANCH  12  13
ENDBRANCH  11  12
ENDBRANCH   5  11
TORSDOF 5
ENDMDL
MODEL      154
REMARK 921   NORMALIZED FREE ENERGY PREDICTED BY IDOCK:   -3.71 KCAL/MOL
REMARK 922        TOTAL FREE ENERGY PREDICTED BY IDOCK:   -5.76 KCAL/MOL
REMARK 923 INTER-LIGAND FREE ENERGY PREDICTED BY IDOCK:   -5.53 KCAL/MOL
REMARK 924 INTRA-LIGAND FREE ENERGY PREDICTED BY IDOCK:   -0.22 KCAL/MOL
REMARK 927      BINDING AFFINITY PREDICTED BY RF-SCORE:    0.00 PKD
ROOT
HETATM    1  C   UNL     1      -9.813  15.580  66.051  1.00  0.00    -0.335 C  
HETATM    2  N   UNL     1     -10.276  14.267  66.428  1.00  0.00    -0.284 NA 
HETATM    3  C   UNL     1     -11.054  13.463  65.645  1.00  0.00    -0.285 C  
HETATM    4  H   UNL     1     -10.004  13.913  67.346  1.00  0.00     0.000 HD 
HETATM    5  N   UNL     1     -11.399  12.272  66.240  1.00  0.00    -0.327 NA 
HETATM    6  N   UNL     1     -11.391  13.854  64.452  1.00  0.00    -0.504 NA 
HETATM    7  C   UNL     1     -12.143  13.049  63.702  1.00  0.00    -0.531 C  
HETATM    8  H   UNL     1     -11.974  11.633  65.690  1.00  0.00     0.000 HD 
HETATM    9  N   UNL     1     -12.797  12.319  63.081  1.00  0.00    -0.579 NA 
HETATM   10  H   UNL     1     -11.085  14.759  64.097  1.00  0.00     0.000 HD 
ENDROOT
BRANCH   5  11
HETATM   11  C   UNL     1     -11.027  11.834  67.574  1.00  0.00    -0.256 C  
BRANCH  11  12
HETATM   12  C   UNL     1     -11.272  10.344  67.827  1.00  0.00    -0.237 C  
BRANCH  12  13
HETATM   13  S   UNL     1      -9.893   9.449  67.032  1.00  0.00    -0.217 SA 
BRANCH  13  14
HETATM   14  C   UNL     1      -9.151   8.632  68.482  1.00  0.00    -0.138 C  
BRANCH  14  15
HETATM   15  C   UNL     1     -10.196   7.836  69.195  1.00  0.00    -0.208 A  
HETATM   16  C   UNL     1     -10.931   6.749  68.749  1.00  0.00    -0.209 A  
HETATM   17  C   UNL     1     -10.961   6.023  67.460  1.00  0.00    -0.335 C  
HETATM   18  N   UNL     1     -11.708   6.384  69.819  1.00  0.00    -0.580 NA 
HETATM   19  H   UNL     1     -12.372   5.610  69.843  1.00  0.00     0.000 HD 
HETATM   20  C   UNL     1     -11.434   7.240  70.845  1.00  0.00    -0.292 A  
HETATM   21  N   UNL     1     -10.540   8.135  70.498  1.00  0.00    -0.216 NA 
ENDBRANCH  14  15
ENDBRANCH  13  14
ENDBRANCH  12  13
ENDBRANCH  11  12
ENDBRANCH   5  11
TORSDOF 5
ENDMDL
MODEL      155
REMARK 921   NORMALIZED FREE ENERGY PREDICTED BY IDOCK:   -3.71 KCAL/MOL
REMARK 922        TOTAL FREE ENERGY PREDICTED BY IDOCK:   -5.75 KCAL/MOL
REMARK 923 INTER-LIGAND FREE ENERGY PREDICTED BY IDOCK:   -5.49 KCAL/MOL
REMARK 924 INTRA-LIGAND FREE ENERGY PREDICTED BY IDOCK:   -0.27 KCAL/MOL
REMARK 927      BINDING AFFINITY PREDICTED BY RF-SCORE:    0.00 PKD
ROOT
HETATM    1  C   UNL     1      -8.684   9.753  69.897  1.00  0.00    -0.217 C  
HETATM    2  N   UNL     1      -9.847  10.537  69.560  1.00  0.00    -0.383 NA 
HETATM    3  C   UNL     1     -11.063  10.422  70.167  1.00  0.00    -0.314 C  
HETATM    4  H   UNL     1      -9.753  11.227  68.814  1.00  0.00     0.000 HD 
HETATM    5  N   UNL     1     -12.027  11.253  69.644  1.00  0.00    -0.334 NA 
HETATM    6  N   UNL     1     -11.219   9.586  71.150  1.00  0.00    -0.346 NA 
HETATM    7  C   UNL     1     -12.414   9.497  71.734  1.00  0.00    -0.401 C  
HETATM    8  H   UNL     1     -12.953  11.209  70.071  1.00  0.00     0.000 HD 
HETATM    9  N   UNL     1     -13.469   9.449  72.215  1.00  0.00    -0.461 NA 
HETATM   10  H   UNL     1     -10.441   9.009  71.468  1.00  0.00     0.000 HD 
ENDROOT
BRANCH   5  11
HETATM   11  C   UNL     1     -11.858  12.186  68.544  1.00  0.00    -0.310 C  
BRANCH  11  12
HETATM   12  C   UNL     1     -12.025  13.654  68.946  1.00  0.00    -0.356 C  
BRANCH  12  13
HETATM   13  S   UNL     1     -11.474  14.648  67.517  1.00  0.00    -0.371 SA 
BRANCH  13  14
HETATM   14  C   UNL     1      -9.768  15.036  68.024  1.00  0.00    -0.213 C  
BRANCH  14  15
HETATM   15  C   UNL     1      -9.608  16.517  68.145  1.00  0.00    -0.226 A  
HETATM   16  C   UNL     1      -8.473  17.259  68.431  1.00  0.00    -0.254 A  
HETATM   17  C   UNL     1      -7.074  16.875  68.724  1.00  0.00    -0.216 C  
HETATM   18  N   UNL     1      -8.881  18.568  68.374  1.00  0.00    -0.316 NA 
HETATM   19  H   UNL     1      -8.295  19.388  68.529  1.00  0.00     0.000 HD 
HETATM   20  C   UNL     1     -10.211  18.577  68.072  1.00  0.00    -0.383 A  
HETATM   21  N   UNL     1     -10.683  17.359  67.942  1.00  0.00    -0.384 NA 
ENDBRANCH  14  15
ENDBRANCH  13  14
ENDBRANCH  12  13
ENDBRANCH  11  12
ENDBRANCH   5  11
TORSDOF 5
ENDMDL
MODEL      156
REMARK 921   NORMALIZED FREE ENERGY PREDICTED BY IDOCK:   -3.70 KCAL/MOL
REMARK 922        TOTAL FREE ENERGY PREDICTED BY IDOCK:   -5.75 KCAL/MOL
REMARK 923 INTER-LIGAND FREE ENERGY PREDICTED BY IDOCK:   -5.49 KCAL/MOL
REMARK 924 INTRA-LIGAND FREE ENERGY PREDICTED BY IDOCK:   -0.26 KCAL/MOL
REMARK 927      BINDING AFFINITY PREDICTED BY RF-SCORE:    0.00 PKD
ROOT
HETATM    1  C   UNL     1      -9.509  10.860  62.786  1.00  0.00    -0.333 C  
HETATM    2  N   UNL     1      -9.844  11.945  63.676  1.00  0.00    -0.509 NA 
HETATM    3  C   UNL     1     -10.229  11.791  64.977  1.00  0.00    -0.272 C  
HETATM    4  H   UNL     1      -9.789  12.894  63.307  1.00  0.00     0.000 HD 
HETATM    5  N   UNL     1     -10.532  12.973  65.610  1.00  0.00    -0.275 NA 
HETATM    6  N   UNL     1     -10.273  10.603  65.502  1.00  0.00    -0.271 NA 
HETATM    7  C   UNL     1     -10.642  10.478  66.776  1.00  0.00    -0.222 C  
HETATM    8  H   UNL     1     -10.818  12.911  66.588  1.00  0.00     0.000 HD 
HETATM    9  N   UNL     1     -10.969  10.412  67.888  1.00  0.00    -0.280 NA 
HETATM   10  H   UNL     1     -10.028   9.782  64.949  1.00  0.00     0.000 HD 
ENDROOT
BRANCH   5  11
HETATM   11  C   UNL     1     -10.488  14.302  65.025  1.00  0.00    -0.435 C  
BRANCH  11  12
HETATM   12  C   UNL     1     -10.920  15.415  65.983  1.00  0.00    -0.286 C  
BRANCH  12  13
HETATM   13  S   UNL     1     -11.632  14.591  67.449  1.00  0.00    -0.395 SA 
BRANCH  13  14
HETATM   14  C   UNL     1     -11.501  15.930  68.677  1.00  0.00    -0.391 C  
BRANCH  14  15
HETATM   15  C   UNL     1     -10.207  16.654  68.488  1.00  0.00    -0.282 A  
HETATM   16  C   UNL     1      -9.978  17.940  68.026  1.00  0.00    -0.333 A  
HETATM   17  C   UNL     1     -10.885  19.010  67.555  1.00  0.00    -0.478 C  
HETATM   18  N   UNL     1      -8.618  18.105  68.098  1.00  0.00    -0.267 NA 
HETATM   19  H   UNL     1      -8.099  18.944  67.838  1.00  0.00     0.000 HD 
HETATM   20  C   UNL     1      -8.082  16.947  68.580  1.00  0.00    -0.244 A  
HETATM   21  N   UNL     1      -9.010  16.048  68.811  1.00  0.00    -0.213 NA 
ENDBRANCH  14  15
ENDBRANCH  13  14
ENDBRANCH  12  13
ENDBRANCH  11  12
ENDBRANCH   5  11
TORSDOF 5
ENDMDL
MODEL      157
REMARK 921   NORMALIZED FREE ENERGY PREDICTED BY IDOCK:   -3.70 KCAL/MOL
REMARK 922        TOTAL FREE ENERGY PREDICTED BY IDOCK:   -5.75 KCAL/MOL
REMARK 923 INTER-LIGAND FREE ENERGY PREDICTED BY IDOCK:   -5.41 KCAL/MOL
REMARK 924 INTRA-LIGAND FREE ENERGY PREDICTED BY IDOCK:   -0.33 KCAL/MOL
REMARK 927      BINDING AFFINITY PREDICTED BY RF-SCORE:    0.00 PKD
ROOT
HETATM    1  C   UNL     1     -13.681  13.889  72.590  1.00  0.00    -0.471 C  
HETATM    2  N   UNL     1     -13.414  12.495  72.335  1.00  0.00    -0.575 NA 
HETATM    3  C   UNL     1     -12.686  12.025  71.279  1.00  0.00    -0.279 C  
HETATM    4  H   UNL     1     -13.795  11.811  72.989  1.00  0.00     0.000 HD 
HETATM    5  N   UNL     1     -12.602  10.653  71.229  1.00  0.00    -0.394 NA 
HETATM    6  N   UNL     1     -12.146  12.860  70.443  1.00  0.00    -0.471 NA 
HETATM    7  C   UNL     1     -11.433  12.379  69.426  1.00  0.00    -0.271 C  
HETATM    8  H   UNL     1     -12.061  10.253  70.462  1.00  0.00     0.000 HD 
HETATM    9  N   UNL     1     -10.820  11.919  68.554  1.00  0.00    -0.211 NA 
HETATM   10  H   UNL     1     -12.266  13.865  70.564  1.00  0.00     0.000 HD 
ENDROOT
BRANCH   5  11
HETATM   11  C   UNL     1     -13.207   9.716  72.160  1.00  0.00    -0.444 C  
BRANCH  11  12
HETATM   12  C   UNL     1     -12.289   8.557  72.557  1.00  0.00    -0.306 C  
BRANCH  12  13
HETATM   13  S   UNL     1     -11.133   8.312  71.165  1.00  0.00    -0.258 SA 
BRANCH  13  14
HETATM   14  C   UNL     1     -11.758   6.741  70.489  1.00  0.00    -0.375 C  
BRANCH  14  15
HETATM   15  C   UNL     1     -10.775   5.650  70.769  1.00  0.00    -0.250 A  
HETATM   16  C   UNL     1     -10.444   5.052  71.975  1.00  0.00    -0.203 A  
HETATM   17  C   UNL     1     -10.909   5.273  73.362  1.00  0.00    -0.355 C  
HETATM   18  N   UNL     1      -9.524   4.087  71.650  1.00  0.00    -0.139 NA 
HETATM   19  H   UNL     1      -9.069   3.448  72.301  1.00  0.00     0.000 HD 
HETATM   20  C   UNL     1      -9.327   4.135  70.301  1.00  0.00    -0.161 A  
HETATM   21  N   UNL     1     -10.053   5.075  69.743  1.00  0.00    -0.252 NA 
ENDBRANCH  14  15
ENDBRANCH  13  14
ENDBRANCH  12  13
ENDBRANCH  11  12
ENDBRANCH   5  11
TORSDOF 5
ENDMDL
MODEL      158
REMARK 921   NORMALIZED FREE ENERGY PREDICTED BY IDOCK:   -3.70 KCAL/MOL
REMARK 922        TOTAL FREE ENERGY PREDICTED BY IDOCK:   -5.74 KCAL/MOL
REMARK 923 INTER-LIGAND FREE ENERGY PREDICTED BY IDOCK:   -5.43 KCAL/MOL
REMARK 924 INTRA-LIGAND FREE ENERGY PREDICTED BY IDOCK:   -0.31 KCAL/MOL
REMARK 927      BINDING AFFINITY PREDICTED BY RF-SCORE:    0.00 PKD
ROOT
HETATM    1  C   UNL     1     -10.622  19.281  65.826  1.00  0.00    -0.366 C  
HETATM    2  N   UNL     1     -10.704  18.168  66.740  1.00  0.00    -0.272 NA 
HETATM    3  C   UNL     1      -9.682  17.745  67.541  1.00  0.00    -0.284 C  
HETATM    4  H   UNL     1     -11.587  17.661  66.792  1.00  0.00     0.000 HD 
HETATM    5  N   UNL     1      -9.991  16.638  68.298  1.00  0.00    -0.252 NA 
HETATM    6  N   UNL     1      -8.552  18.385  67.540  1.00  0.00    -0.256 NA 
HETATM    7  C   UNL     1      -7.572  17.960  68.337  1.00  0.00    -0.282 C  
HETATM    8  H   UNL     1      -9.261  16.288  68.920  1.00  0.00     0.000 HD 
HETATM    9  N   UNL     1      -6.745  17.557  69.044  1.00  0.00    -0.238 NA 
HETATM   10  H   UNL     1      -8.417  19.199  66.940  1.00  0.00     0.000 HD 
ENDROOT
BRANCH   5  11
HETATM   11  C   UNL     1     -11.252  15.918  68.299  1.00  0.00    -0.354 C  
BRANCH  11  12
HETATM   12  C   UNL     1     -11.153  14.498  68.862  1.00  0.00    -0.256 C  
BRANCH  12  13
HETATM   13  S   UNL     1     -11.960  13.400  67.646  1.00  0.00    -0.278 SA 
BRANCH  13  14
HETATM   14  C   UNL     1     -10.521  12.904  66.646  1.00  0.00    -0.263 C  
BRANCH  14  15
HETATM   15  C   UNL     1     -10.928  12.779  65.213  1.00  0.00    -0.284 A  
HETATM   16  C   UNL     1     -10.772  11.712  64.343  1.00  0.00    -0.330 A  
HETATM   17  C   UNL     1     -10.160  10.374  64.502  1.00  0.00    -0.365 C  
HETATM   18  N   UNL     1     -11.362  12.119  63.174  1.00  0.00    -0.706 NA 
HETATM   19  H   UNL     1     -11.434  11.573  62.315  1.00  0.00     0.000 HD 
HETATM   20  C   UNL     1     -11.835  13.384  63.363  1.00  0.00    -0.268 A  
HETATM   21  N   UNL     1     -11.578  13.817  64.575  1.00  0.00    -0.377 NA 
ENDBRANCH  14  15
ENDBRANCH  13  14
ENDBRANCH  12  13
ENDBRANCH  11  12
ENDBRANCH   5  11
TORSDOF 5
ENDMDL
MODEL      159
REMARK 921   NORMALIZED FREE ENERGY PREDICTED BY IDOCK:   -3.70 KCAL/MOL
REMARK 922        TOTAL FREE ENERGY PREDICTED BY IDOCK:   -5.74 KCAL/MOL
REMARK 923 INTER-LIGAND FREE ENERGY PREDICTED BY IDOCK:   -4.94 KCAL/MOL
REMARK 924 INTRA-LIGAND FREE ENERGY PREDICTED BY IDOCK:   -0.81 KCAL/MOL
REMARK 927      BINDING AFFINITY PREDICTED BY RF-SCORE:    0.00 PKD
ROOT
HETATM    1  C   UNL     1      -7.791   9.897  70.058  1.00  0.00    -0.180 C  
HETATM    2  N   UNL     1      -8.870   9.272  69.331  1.00  0.00    -0.142 NA 
HETATM    3  C   UNL     1     -10.195   9.460  69.597  1.00  0.00    -0.212 C  
HETATM    4  H   UNL     1      -8.624   8.646  68.564  1.00  0.00     0.000 HD 
HETATM    5  N   UNL     1     -11.033   8.725  68.790  1.00  0.00    -0.436 NA 
HETATM    6  N   UNL     1     -10.557  10.280  70.537  1.00  0.00    -0.421 NA 
HETATM    7  C   UNL     1     -11.857  10.454  70.772  1.00  0.00    -0.368 C  
HETATM    8  H   UNL     1     -12.036   8.838  68.945  1.00  0.00     0.000 HD 
HETATM    9  N   UNL     1     -12.998  10.578  70.946  1.00  0.00    -0.382 NA 
HETATM   10  H   UNL     1      -9.858  10.782  71.085  1.00  0.00     0.000 HD 
ENDROOT
BRANCH   5  11
HETATM   11  C   UNL     1     -10.633   7.805  67.740  1.00  0.00    -0.185 C  
BRANCH  11  12
HETATM   12  C   UNL     1     -10.877   6.332  68.081  1.00  0.00    -0.320 C  
BRANCH  12  13
HETATM   13  S   UNL     1      -9.559   5.844  69.247  1.00  0.00    -0.146 SA 
BRANCH  13  14
HETATM   14  C   UNL     1     -10.560   5.189  70.620  1.00  0.00    -0.144 C  
BRANCH  14  15
HETATM   15  C   UNL     1     -10.789   6.268  71.629  1.00  0.00    -0.251 A  
HETATM   16  C   UNL     1     -11.928   7.019  71.870  1.00  0.00    -0.320 A  
HETATM   17  C   UNL     1     -13.265   7.040  71.238  1.00  0.00    -0.304 C  
HETATM   18  N   UNL     1     -11.601   7.827  72.930  1.00  0.00    -0.603 NA 
HETATM   19  H   UNL     1     -12.213   8.511  73.376  1.00  0.00     0.000 HD 
HETATM   20  C   UNL     1     -10.312   7.554  73.281  1.00  0.00    -0.357 A  
HETATM   21  N   UNL     1      -9.789   6.631  72.509  1.00  0.00    -0.165 NA 
ENDBRANCH  14  15
ENDBRANCH  13  14
ENDBRANCH  12  13
ENDBRANCH  11  12
ENDBRANCH   5  11
TORSDOF 5
ENDMDL
MODEL      160
REMARK 921   NORMALIZED FREE ENERGY PREDICTED BY IDOCK:   -3.68 KCAL/MOL
REMARK 922        TOTAL FREE ENERGY PREDICTED BY IDOCK:   -5.72 KCAL/MOL
REMARK 923 INTER-LIGAND FREE ENERGY PREDICTED BY IDOCK:   -5.52 KCAL/MOL
REMARK 924 INTRA-LIGAND FREE ENERGY PREDICTED BY IDOCK:   -0.20 KCAL/MOL
REMARK 927      BINDING AFFINITY PREDICTED BY RF-SCORE:    0.00 PKD
ROOT
HETATM    1  C   UNL     1     -10.591  19.650  66.810  1.00  0.00    -0.486 C  
HETATM    2  N   UNL     1     -10.640  18.497  67.675  1.00  0.00    -0.424 NA 
HETATM    3  C   UNL     1      -9.555  17.944  68.293  1.00  0.00    -0.312 C  
HETATM    4  H   UNL     1     -11.549  18.064  67.837  1.00  0.00     0.000 HD 
HETATM    5  N   UNL     1      -9.849  16.825  69.037  1.00  0.00    -0.267 NA 
HETATM    6  N   UNL     1      -8.383  18.486  68.150  1.00  0.00    -0.287 NA 
HETATM    7  C   UNL     1      -7.340  17.934  68.770  1.00  0.00    -0.270 C  
HETATM    8  H   UNL     1      -9.072  16.379  69.525  1.00  0.00     0.000 HD 
HETATM    9  N   UNL     1      -6.459  17.423  69.325  1.00  0.00    -0.239 NA 
HETATM   10  H   UNL     1      -8.264  19.319  67.574  1.00  0.00     0.000 HD 
ENDROOT
BRANCH   5  11
HETATM   11  C   UNL     1     -11.158  16.214  69.196  1.00  0.00    -0.329 C  
BRANCH  11  12
HETATM   12  C   UNL     1     -11.247  14.789  68.643  1.00  0.00    -0.273 C  
BRANCH  12  13
HETATM   13  S   UNL     1     -11.936  13.756  69.982  1.00  0.00    -0.335 SA 
BRANCH  13  14
HETATM   14  C   UNL     1     -11.887  12.116  69.190  1.00  0.00    -0.305 C  
BRANCH  14  15
HETATM   15  C   UNL     1     -12.073  11.056  70.228  1.00  0.00    -0.362 A  
HETATM   16  C   UNL     1     -11.411   9.847  70.379  1.00  0.00    -0.301 A  
HETATM   17  C   UNL     1     -10.342   9.188  69.597  1.00  0.00    -0.226 C  
HETATM   18  N   UNL     1     -11.944   9.292  71.514  1.00  0.00    -0.342 NA 
HETATM   19  H   UNL     1     -11.681   8.396  71.926  1.00  0.00     0.000 HD 
HETATM   20  C   UNL     1     -12.888  10.151  71.996  1.00  0.00    -0.376 A  
HETATM   21  N   UNL     1     -13.001  11.215  71.237  1.00  0.00    -0.390 NA 
ENDBRANCH  14  15
ENDBRANCH  13  14
ENDBRANCH  12  13
ENDBRANCH  11  12
ENDBRANCH   5  11
TORSDOF 5
ENDMDL
MODEL      161
REMARK 921   NORMALIZED FREE ENERGY PREDICTED BY IDOCK:   -3.68 KCAL/MOL
REMARK 922        TOTAL FREE ENERGY PREDICTED BY IDOCK:   -5.72 KCAL/MOL
REMARK 923 INTER-LIGAND FREE ENERGY PREDICTED BY IDOCK:   -5.35 KCAL/MOL
REMARK 924 INTRA-LIGAND FREE ENERGY PREDICTED BY IDOCK:   -0.37 KCAL/MOL
REMARK 927      BINDING AFFINITY PREDICTED BY RF-SCORE:    0.00 PKD
ROOT
HETATM    1  C   UNL     1      -5.195  20.959  70.927  1.00  0.00    -0.116 C  
HETATM    2  N   UNL     1      -6.127  20.251  70.084  1.00  0.00    -0.353 NA 
HETATM    3  C   UNL     1      -6.151  18.895  69.922  1.00  0.00    -0.220 C  
HETATM    4  H   UNL     1      -6.816  20.801  69.572  1.00  0.00     0.000 HD 
HETATM    5  N   UNL     1      -7.108  18.458  69.036  1.00  0.00    -0.271 NA 
HETATM    6  N   UNL     1      -5.319  18.150  70.586  1.00  0.00    -0.260 NA 
HETATM    7  C   UNL     1      -5.367  16.828  70.419  1.00  0.00    -0.215 C  
HETATM    8  H   UNL     1      -7.171  17.451  68.887  1.00  0.00     0.000 HD 
HETATM    9  N   UNL     1      -5.442  15.684  70.245  1.00  0.00    -0.145 NA 
HETATM   10  H   UNL     1      -4.642  18.568  71.223  1.00  0.00     0.000 HD 
ENDROOT
BRANCH   5  11
HETATM   11  C   UNL     1      -8.037  19.289  68.290  1.00  0.00    -0.332 C  
BRANCH  11  12
HETATM   12  C   UNL     1      -9.493  19.148  68.742  1.00  0.00    -0.399 C  
BRANCH  12  13
HETATM   13  S   UNL     1     -10.417  18.485  67.313  1.00  0.00    -0.416 SA 
BRANCH  13  14
HETATM   14  C   UNL     1      -9.671  16.830  67.177  1.00  0.00    -0.251 C  
BRANCH  14  15
HETATM   15  C   UNL     1     -10.694  15.792  67.508  1.00  0.00    -0.317 A  
HETATM   16  C   UNL     1     -11.287  15.498  68.725  1.00  0.00    -0.334 A  
HETATM   17  C   UNL     1     -11.121  16.065  70.082  1.00  0.00    -0.372 C  
HETATM   18  N   UNL     1     -12.180  14.493  68.451  1.00  0.00    -0.608 NA 
HETATM   19  H   UNL     1     -12.797  14.036  69.123  1.00  0.00     0.000 HD 
HETATM   20  C   UNL     1     -12.097  14.213  67.118  1.00  0.00    -0.397 A  
HETATM   21  N   UNL     1     -11.201  14.966  66.525  1.00  0.00    -0.343 NA 
ENDBRANCH  14  15
ENDBRANCH  13  14
ENDBRANCH  12  13
ENDBRANCH  11  12
ENDBRANCH   5  11
TORSDOF 5
ENDMDL
MODEL      162
REMARK 921   NORMALIZED FREE ENERGY PREDICTED BY IDOCK:   -3.67 KCAL/MOL
REMARK 922        TOTAL FREE ENERGY PREDICTED BY IDOCK:   -5.71 KCAL/MOL
REMARK 923 INTER-LIGAND FREE ENERGY PREDICTED BY IDOCK:   -4.97 KCAL/MOL
REMARK 924 INTRA-LIGAND FREE ENERGY PREDICTED BY IDOCK:   -0.74 KCAL/MOL
REMARK 927      BINDING AFFINITY PREDICTED BY RF-SCORE:    0.00 PKD
ROOT
HETATM    1  C   UNL     1     -13.509  12.703  72.228  1.00  0.00    -0.438 C  
HETATM    2  N   UNL     1     -13.172  11.322  71.979  1.00  0.00    -0.542 NA 
HETATM    3  C   UNL     1     -12.595  10.859  70.833  1.00  0.00    -0.397 C  
HETATM    4  H   UNL     1     -13.381  10.644  72.712  1.00  0.00     0.000 HD 
HETATM    5  N   UNL     1     -12.406   9.496  70.817  1.00  0.00    -0.465 NA 
HETATM    6  N   UNL     1     -12.273  11.691  69.888  1.00  0.00    -0.267 NA 
HETATM    7  C   UNL     1     -11.701  11.217  68.782  1.00  0.00    -0.326 C  
HETATM    8  H   UNL     1     -11.969   9.102  69.983  1.00  0.00     0.000 HD 
HETATM    9  N   UNL     1     -11.206  10.764  67.835  1.00  0.00    -0.309 NA 
HETATM   10  H   UNL     1     -12.453  12.689  69.993  1.00  0.00     0.000 HD 
ENDROOT
BRANCH   5  11
HETATM   11  C   UNL     1     -12.768   8.562  71.869  1.00  0.00    -0.360 C  
BRANCH  11  12
HETATM   12  C   UNL     1     -11.569   7.869  72.521  1.00  0.00    -0.386 C  
BRANCH  12  13
HETATM   13  S   UNL     1     -11.899   6.075  72.438  1.00  0.00    -0.136 SA 
BRANCH  13  14
HETATM   14  C   UNL     1     -10.465   5.521  71.461  1.00  0.00    -0.235 C  
BRANCH  14  15
HETATM   15  C   UNL     1     -10.354   6.351  70.223  1.00  0.00    -0.205 A  
HETATM   16  C   UNL     1      -9.359   7.239  69.845  1.00  0.00    -0.154 A  
HETATM   17  C   UNL     1      -8.112   7.683  70.504  1.00  0.00    -0.105 C  
HETATM   18  N   UNL     1      -9.737   7.686  68.604  1.00  0.00    -0.153 NA 
HETATM   19  H   UNL     1      -9.228   8.353  68.025  1.00  0.00     0.000 HD 
HETATM   20  C   UNL     1     -10.916   7.079  68.283  1.00  0.00    -0.083 A  
HETATM   21  N   UNL     1     -11.322   6.281  69.241  1.00  0.00    -0.407 NA 
ENDBRANCH  14  15
ENDBRANCH  13  14
ENDBRANCH  12  13
ENDBRANCH  11  12
ENDBRANCH   5  11
TORSDOF 5
ENDMDL
MODEL      163
REMARK 921   NORMALIZED FREE ENERGY PREDICTED BY IDOCK:   -3.66 KCAL/MOL
REMARK 922        TOTAL FREE ENERGY PREDICTED BY IDOCK:   -5.70 KCAL/MOL
REMARK 923 INTER-LIGAND FREE ENERGY PREDICTED BY IDOCK:   -5.41 KCAL/MOL
REMARK 924 INTRA-LIGAND FREE ENERGY PREDICTED BY IDOCK:   -0.29 KCAL/MOL
REMARK 927      BINDING AFFINITY PREDICTED BY RF-SCORE:    0.00 PKD
ROOT
HETATM    1  C   UNL     1     -14.044  15.598  72.608  1.00  0.00    -0.446 C  
HETATM    2  N   UNL     1     -13.551  14.314  72.170  1.00  0.00    -0.410 NA 
HETATM    3  C   UNL     1     -12.640  14.132  71.170  1.00  0.00    -0.367 C  
HETATM    4  H   UNL     1     -13.909  13.483  72.642  1.00  0.00     0.000 HD 
HETATM    5  N   UNL     1     -12.356  12.812  70.910  1.00  0.00    -0.399 NA 
HETATM    6  N   UNL     1     -12.125  15.163  70.569  1.00  0.00    -0.315 NA 
HETATM    7  C   UNL     1     -11.231  14.962  69.602  1.00  0.00    -0.275 C  
HETATM    8  H   UNL     1     -11.673  12.624  70.175  1.00  0.00     0.000 HD 
HETATM    9  N   UNL     1     -10.456  14.743  68.766  1.00  0.00    -0.243 NA 
HETATM   10  H   UNL     1     -12.401  16.108  70.833  1.00  0.00     0.000 HD 
ENDROOT
BRANCH   5  11
HETATM   11  C   UNL     1     -12.932  11.657  71.578  1.00  0.00    -0.358 C  
BRANCH  11  12
HETATM   12  C   UNL     1     -12.962  10.394  70.714  1.00  0.00    -0.341 C  
BRANCH  12  13
HETATM   13  S   UNL     1     -11.229  10.028  70.269  1.00  0.00    -0.332 SA 
BRANCH  13  14
HETATM   14  C   UNL     1     -11.226  10.526  68.517  1.00  0.00    -0.274 C  
BRANCH  14  15
HETATM   15  C   UNL     1     -10.640   9.429  67.688  1.00  0.00    -0.271 A  
HETATM   16  C   UNL     1     -10.080   9.486  66.422  1.00  0.00    -0.258 A  
HETATM   17  C   UNL     1      -9.880  10.597  65.466  1.00  0.00    -0.316 C  
HETATM   18  N   UNL     1      -9.665   8.205  66.160  1.00  0.00    -0.446 NA 
HETATM   19  H   UNL     1      -9.200   7.885  65.310  1.00  0.00     0.000 HD 
HETATM   20  C   UNL     1      -9.984   7.434  67.239  1.00  0.00    -0.198 A  
HETATM   21  N   UNL     1     -10.585   8.137  68.170  1.00  0.00    -0.158 NA 
ENDBRANCH  14  15
ENDBRANCH  13  14
ENDBRANCH  12  13
ENDBRANCH  11  12
ENDBRANCH   5  11
TORSDOF 5
ENDMDL
MODEL      164
REMARK 921   NORMALIZED FREE ENERGY PREDICTED BY IDOCK:   -3.66 KCAL/MOL
REMARK 922        TOTAL FREE ENERGY PREDICTED BY IDOCK:   -5.69 KCAL/MOL
REMARK 923 INTER-LIGAND FREE ENERGY PREDICTED BY IDOCK:   -5.31 KCAL/MOL
REMARK 924 INTRA-LIGAND FREE ENERGY PREDICTED BY IDOCK:   -0.38 KCAL/MOL
REMARK 927      BINDING AFFINITY PREDICTED BY RF-SCORE:    0.00 PKD
ROOT
HETATM    1  C   UNL     1     -11.730  15.502  69.145  1.00  0.00    -0.365 C  
HETATM    2  N   UNL     1     -11.716  14.067  69.000  1.00  0.00    -0.307 NA 
HETATM    3  C   UNL     1     -12.033  13.400  67.852  1.00  0.00    -0.323 C  
HETATM    4  H   UNL     1     -11.451  13.511  69.813  1.00  0.00     0.000 HD 
HETATM    5  N   UNL     1     -11.984  12.030  67.972  1.00  0.00    -0.521 NA 
HETATM    6  N   UNL     1     -12.337  14.067  66.779  1.00  0.00    -0.525 NA 
HETATM    7  C   UNL     1     -12.634  13.395  65.667  1.00  0.00    -0.438 C  
HETATM    8  H   UNL     1     -12.205  11.487  67.137  1.00  0.00     0.000 HD 
HETATM    9  N   UNL     1     -12.886  12.772  64.721  1.00  0.00    -0.796 NA 
HETATM   10  H   UNL     1     -12.348  15.086  66.788  1.00  0.00     0.000 HD 
ENDROOT
BRANCH   5  11
HETATM   11  C   UNL     1     -11.648  11.281  69.170  1.00  0.00    -0.319 C  
BRANCH  11  12
HETATM   12  C   UNL     1     -10.772  10.053  68.908  1.00  0.00    -0.219 C  
BRANCH  12  13
HETATM   13  S   UNL     1      -9.583  10.532  67.607  1.00  0.00    -0.158 SA 
BRANCH  13  14
HETATM   14  C   UNL     1     -10.183   9.515  66.221  1.00  0.00    -0.220 C  
BRANCH  14  15
HETATM   15  C   UNL     1      -9.435   8.221  66.192  1.00  0.00    -0.171 A  
HETATM   16  C   UNL     1      -9.819   6.972  66.655  1.00  0.00    -0.156 A  
HETATM   17  C   UNL     1     -11.043   6.489  67.330  1.00  0.00    -0.429 C  
HETATM   18  N   UNL     1      -8.776   6.140  66.335  1.00  0.00    -0.133 NA 
HETATM   19  H   UNL     1      -8.724   5.140  66.527  1.00  0.00     0.000 HD 
HETATM   20  C   UNL     1      -7.819   6.890  65.715  1.00  0.00    -0.106 A  
HETATM   21  N   UNL     1      -8.178   8.149  65.626  1.00  0.00    -0.125 NA 
ENDBRANCH  14  15
ENDBRANCH  13  14
ENDBRANCH  12  13
ENDBRANCH  11  12
ENDBRANCH   5  11
TORSDOF 5
ENDMDL
MODEL      165
REMARK 921   NORMALIZED FREE ENERGY PREDICTED BY IDOCK:   -3.65 KCAL/MOL
REMARK 922        TOTAL FREE ENERGY PREDICTED BY IDOCK:   -5.69 KCAL/MOL
REMARK 923 INTER-LIGAND FREE ENERGY PREDICTED BY IDOCK:   -5.34 KCAL/MOL
REMARK 924 INTRA-LIGAND FREE ENERGY PREDICTED BY IDOCK:   -0.35 KCAL/MOL
REMARK 927      BINDING AFFINITY PREDICTED BY RF-SCORE:    0.00 PKD
ROOT
HETATM    1  C   UNL     1     -10.394  16.891  67.499  1.00  0.00    -0.318 C  
HETATM    2  N   UNL     1     -11.055  15.782  68.143  1.00  0.00    -0.328 NA 
HETATM    3  C   UNL     1     -11.729  14.793  67.487  1.00  0.00    -0.348 C  
HETATM    4  H   UNL     1     -11.016  15.733  69.161  1.00  0.00     0.000 HD 
HETATM    5  N   UNL     1     -12.307  13.866  68.322  1.00  0.00    -0.455 NA 
HETATM    6  N   UNL     1     -11.770  14.790  66.188  1.00  0.00    -0.307 NA 
HETATM    7  C   UNL     1     -12.426  13.809  65.569  1.00  0.00    -0.512 C  
HETATM    8  H   UNL     1     -12.816  13.100  67.878  1.00  0.00     0.000 HD 
HETATM    9  N   UNL     1     -13.007  12.938  65.068  1.00  0.00    -0.815 NA 
HETATM   10  H   UNL     1     -11.308  15.525  65.653  1.00  0.00     0.000 HD 
ENDROOT
BRANCH   5  11
HETATM   11  C   UNL     1     -12.266  13.867  69.774  1.00  0.00    -0.332 C  
BRANCH  11  12
HETATM   12  C   UNL     1     -11.998  12.491  70.388  1.00  0.00    -0.251 C  
BRANCH  12  13
HETATM   13  S   UNL     1     -11.783  11.333  68.991  1.00  0.00    -0.362 SA 
BRANCH  13  14
HETATM   14  C   UNL     1      -9.977  11.412  68.774  1.00  0.00    -0.177 C  
BRANCH  14  15
HETATM   15  C   UNL     1      -9.400  10.037  68.886  1.00  0.00    -0.172 A  
HETATM   16  C   UNL     1      -9.421   8.997  67.970  1.00  0.00    -0.142 A  
HETATM   17  C   UNL     1     -10.006   8.867  66.618  1.00  0.00    -0.346 C  
HETATM   18  N   UNL     1      -8.710   7.986  68.567  1.00  0.00    -0.131 NA 
HETATM   19  H   UNL     1      -8.521   7.067  68.167  1.00  0.00     0.000 HD 
HETATM   20  C   UNL     1      -8.301   8.429  69.790  1.00  0.00    -0.125 A  
HETATM   21  N   UNL     1      -8.712   9.654  70.019  1.00  0.00    -0.218 NA 
ENDBRANCH  14  15
ENDBRANCH  13  14
ENDBRANCH  12  13
ENDBRANCH  11  12
ENDBRANCH   5  11
TORSDOF 5
ENDMDL
MODEL      166
REMARK 921   NORMALIZED FREE ENERGY PREDICTED BY IDOCK:   -3.65 KCAL/MOL
REMARK 922        TOTAL FREE ENERGY PREDICTED BY IDOCK:   -5.68 KCAL/MOL
REMARK 923 INTER-LIGAND FREE ENERGY PREDICTED BY IDOCK:   -5.67 KCAL/MOL
REMARK 924 INTRA-LIGAND FREE ENERGY PREDICTED BY IDOCK:   -0.01 KCAL/MOL
REMARK 927      BINDING AFFINITY PREDICTED BY RF-SCORE:    0.00 PKD
ROOT
HETATM    1  C   UNL     1     -10.712  19.919  65.723  1.00  0.00    -0.318 C  
HETATM    2  N   UNL     1     -10.289  18.754  66.462  1.00  0.00    -0.401 NA 
HETATM    3  C   UNL     1      -9.285  18.743  67.387  1.00  0.00    -0.282 C  
HETATM    4  H   UNL     1     -10.775  17.875  66.280  1.00  0.00     0.000 HD 
HETATM    5  N   UNL     1      -9.042  17.503  67.929  1.00  0.00    -0.256 NA 
HETATM    6  N   UNL     1      -8.666  19.847  67.681  1.00  0.00    -0.328 NA 
HETATM    7  C   UNL     1      -7.695  19.814  68.594  1.00  0.00    -0.270 C  
HETATM    8  H   UNL     1      -8.304  17.445  68.632  1.00  0.00     0.000 HD 
HETATM    9  N   UNL     1      -6.857  19.744  69.393  1.00  0.00    -0.346 NA 
HETATM   10  H   UNL     1      -8.918  20.722  67.223  1.00  0.00     0.000 HD 
ENDROOT
BRANCH   5  11
HETATM   11  C   UNL     1      -9.730  16.267  67.600  1.00  0.00    -0.234 C  
BRANCH  11  12
HETATM   12  C   UNL     1      -9.042  15.449  66.503  1.00  0.00    -0.300 C  
BRANCH  12  13
HETATM   13  S   UNL     1     -10.333  15.028  65.282  1.00  0.00    -0.392 SA 
BRANCH  13  14
HETATM   14  C   UNL     1     -11.743  14.709  66.390  1.00  0.00    -0.322 C  
BRANCH  14  15
HETATM   15  C   UNL     1     -11.688  13.295  66.872  1.00  0.00    -0.388 A  
HETATM   16  C   UNL     1     -11.373  12.139  66.175  1.00  0.00    -0.361 A  
HETATM   17  C   UNL     1     -11.009  11.892  64.763  1.00  0.00    -0.366 C  
HETATM   18  N   UNL     1     -11.434  11.135  67.108  1.00  0.00    -0.473 NA 
HETATM   19  H   UNL     1     -11.253  10.146  66.939  1.00  0.00     0.000 HD 
HETATM   20  C   UNL     1     -11.782  11.696  68.302  1.00  0.00    -0.304 A  
HETATM   21  N   UNL     1     -11.956  12.992  68.192  1.00  0.00    -0.329 NA 
ENDBRANCH  14  15
ENDBRANCH  13  14
ENDBRANCH  12  13
ENDBRANCH  11  12
ENDBRANCH   5  11
TORSDOF 5
ENDMDL
MODEL      167
REMARK 921   NORMALIZED FREE ENERGY PREDICTED BY IDOCK:   -3.64 KCAL/MOL
REMARK 922        TOTAL FREE ENERGY PREDICTED BY IDOCK:   -5.67 KCAL/MOL
REMARK 923 INTER-LIGAND FREE ENERGY PREDICTED BY IDOCK:   -5.07 KCAL/MOL
REMARK 924 INTRA-LIGAND FREE ENERGY PREDICTED BY IDOCK:   -0.60 KCAL/MOL
REMARK 927      BINDING AFFINITY PREDICTED BY RF-SCORE:    0.00 PKD
ROOT
HETATM    1  C   UNL     1      -9.042   9.294  67.837  1.00  0.00    -0.127 C  
HETATM    2  N   UNL     1     -10.063  10.263  67.517  1.00  0.00    -0.189 NA 
HETATM    3  C   UNL     1     -11.072  10.633  68.358  1.00  0.00    -0.272 C  
HETATM    4  H   UNL     1     -10.028  10.701  66.596  1.00  0.00     0.000 HD 
HETATM    5  N   UNL     1     -11.944  11.545  67.811  1.00  0.00    -0.637 NA 
HETATM    6  N   UNL     1     -11.132  10.132  69.555  1.00  0.00    -0.241 NA 
HETATM    7  C   UNL     1     -12.122  10.515  70.362  1.00  0.00    -0.329 C  
HETATM    8  H   UNL     1     -12.712  11.860  68.405  1.00  0.00     0.000 HD 
HETATM    9  N   UNL     1     -12.997  10.875  71.033  1.00  0.00    -0.343 NA 
HETATM   10  H   UNL     1     -10.436   9.458  69.871  1.00  0.00     0.000 HD 
ENDROOT
BRANCH   5  11
HETATM   11  C   UNL     1     -11.881  12.105  66.473  1.00  0.00    -0.246 C  
BRANCH  11  12
HETATM   12  C   UNL     1     -11.716  13.627  66.445  1.00  0.00    -0.373 C  
BRANCH  12  13
HETATM   13  S   UNL     1      -9.932  13.950  66.225  1.00  0.00    -0.312 SA 
BRANCH  13  14
HETATM   14  C   UNL     1      -9.392  14.019  67.963  1.00  0.00    -0.205 C  
BRANCH  14  15
HETATM   15  C   UNL     1     -10.035  15.187  68.639  1.00  0.00    -0.220 A  
HETATM   16  C   UNL     1     -11.064  15.209  69.567  1.00  0.00    -0.277 A  
HETATM   17  C   UNL     1     -11.876  14.139  70.186  1.00  0.00    -0.382 C  
HETATM   18  N   UNL     1     -11.225  16.534  69.884  1.00  0.00    -0.403 NA 
HETATM   19  H   UNL     1     -11.900  16.916  70.547  1.00  0.00     0.000 HD 
HETATM   20  C   UNL     1     -10.321  17.251  69.156  1.00  0.00    -0.290 A  
HETATM   21  N   UNL     1      -9.600  16.472  68.385  1.00  0.00    -0.226 NA 
ENDBRANCH  14  15
ENDBRANCH  13  14
ENDBRANCH  12  13
ENDBRANCH  11  12
ENDBRANCH   5  11
TORSDOF 5
ENDMDL
MODEL      168
REMARK 921   NORMALIZED FREE ENERGY PREDICTED BY IDOCK:   -3.64 KCAL/MOL
REMARK 922        TOTAL FREE ENERGY PREDICTED BY IDOCK:   -5.67 KCAL/MOL
REMARK 923 INTER-LIGAND FREE ENERGY PREDICTED BY IDOCK:   -5.49 KCAL/MOL
REMARK 924 INTRA-LIGAND FREE ENERGY PREDICTED BY IDOCK:   -0.18 KCAL/MOL
REMARK 927      BINDING AFFINITY PREDICTED BY RF-SCORE:    0.00 PKD
ROOT
HETATM    1  C   UNL     1     -13.634   8.046  71.706  1.00  0.00    -0.348 C  
HETATM    2  N   UNL     1     -12.477   8.607  71.051  1.00  0.00    -0.477 NA 
HETATM    3  C   UNL     1     -11.630   7.908  70.240  1.00  0.00    -0.011 C  
HETATM    4  H   UNL     1     -12.278   9.595  71.206  1.00  0.00     0.000 HD 
HETATM    5  N   UNL     1     -10.576   8.653  69.763  1.00  0.00    -0.224 NA 
HETATM    6  N   UNL     1     -11.867   6.657  69.981  1.00  0.00    -0.638 NA 
HETATM    7  C   UNL     1     -11.032   5.998  69.179  1.00  0.00    -0.359 C  
HETATM    8  H   UNL     1      -9.919   8.177  69.145  1.00  0.00     0.000 HD 
HETATM    9  N   UNL     1     -10.281   5.460  68.477  1.00  0.00    -0.178 NA 
HETATM   10  H   UNL     1     -12.678   6.189  70.384  1.00  0.00     0.000 HD 
ENDROOT
BRANCH   5  11
HETATM   11  C   UNL     1     -10.306  10.050  70.053  1.00  0.00    -0.272 C  
BRANCH  11  12
HETATM   12  C   UNL     1     -11.158  11.028  69.239  1.00  0.00    -0.254 C  
BRANCH  12  13
HETATM   13  S   UNL     1     -11.131  10.426  67.515  1.00  0.00    -0.172 SA 
BRANCH  13  14
HETATM   14  C   UNL     1      -9.973  11.618  66.768  1.00  0.00    -0.204 C  
BRANCH  14  15
HETATM   15  C   UNL     1     -10.219  11.698  65.296  1.00  0.00    -0.272 A  
HETATM   16  C   UNL     1     -11.192  12.400  64.603  1.00  0.00    -0.312 A  
HETATM   17  C   UNL     1     -12.300  13.274  65.046  1.00  0.00    -0.499 C  
HETATM   18  N   UNL     1     -10.931  12.155  63.279  1.00  0.00    -0.673 NA 
HETATM   19  H   UNL     1     -11.454  12.523  62.485  1.00  0.00     0.000 HD 
HETATM   20  C   UNL     1      -9.846  11.330  63.213  1.00  0.00    -0.389 A  
HETATM   21  N   UNL     1      -9.403  11.024  64.410  1.00  0.00    -0.209 NA 
ENDBRANCH  14  15
ENDBRANCH  13  14
ENDBRANCH  12  13
ENDBRANCH  11  12
ENDBRANCH   5  11
TORSDOF 5
ENDMDL
MODEL      169
REMARK 921   NORMALIZED FREE ENERGY PREDICTED BY IDOCK:   -3.63 KCAL/MOL
REMARK 922        TOTAL FREE ENERGY PREDICTED BY IDOCK:   -5.66 KCAL/MOL
REMARK 923 INTER-LIGAND FREE ENERGY PREDICTED BY IDOCK:   -5.33 KCAL/MOL
REMARK 924 INTRA-LIGAND FREE ENERGY PREDICTED BY IDOCK:   -0.33 KCAL/MOL
REMARK 927      BINDING AFFINITY PREDICTED BY RF-SCORE:    0.00 PKD
ROOT
HETATM    1  C   UNL     1     -10.590   6.964  69.579  1.00  0.00    -0.236 C  
HETATM    2  N   UNL     1     -10.964   8.330  69.304  1.00  0.00    -0.428 NA 
HETATM    3  C   UNL     1     -10.678   8.994  68.146  1.00  0.00    -0.109 C  
HETATM    4  H   UNL     1     -11.477   8.836  70.026  1.00  0.00     0.000 HD 
HETATM    5  N   UNL     1     -11.106  10.302  68.135  1.00  0.00    -0.383 NA 
HETATM    6  N   UNL     1     -10.063   8.378  67.182  1.00  0.00    -0.237 NA 
HETATM    7  C   UNL     1      -9.803   9.043  66.056  1.00  0.00    -0.242 C  
HETATM    8  H   UNL     1     -10.923  10.838  67.286  1.00  0.00     0.000 HD 
HETATM    9  N   UNL     1      -9.596   9.658  65.094  1.00  0.00    -0.286 NA 
HETATM   10  H   UNL     1      -9.784   7.403  67.284  1.00  0.00     0.000 HD 
ENDROOT
BRANCH   5  11
HETATM   11  C   UNL     1     -11.791  10.995  69.211  1.00  0.00    -0.340 C  
BRANCH  11  12
HETATM   12  C   UNL     1     -11.925  12.504  68.990  1.00  0.00    -0.233 C  
BRANCH  12  13
HETATM   13  S   UNL     1     -11.588  12.800  67.220  1.00  0.00    -0.373 SA 
BRANCH  13  14
HETATM   14  C   UNL     1     -10.338  14.120  67.339  1.00  0.00    -0.256 C  
BRANCH  14  15
HETATM   15  C   UNL     1     -10.627  15.174  66.320  1.00  0.00    -0.310 A  
HETATM   16  C   UNL     1     -10.304  16.522  66.332  1.00  0.00    -0.311 A  
HETATM   17  C   UNL     1      -9.603  17.373  67.318  1.00  0.00    -0.258 C  
HETATM   18  N   UNL     1     -10.767  17.007  65.135  1.00  0.00    -0.664 NA 
HETATM   19  H   UNL     1     -10.693  17.971  64.808  1.00  0.00     0.000 HD 
HETATM   20  C   UNL     1     -11.346  15.972  64.461  1.00  0.00    -0.295 A  
HETATM   21  N   UNL     1     -11.291  14.859  65.152  1.00  0.00    -0.367 NA 
ENDBRANCH  14  15
ENDBRANCH  13  14
ENDBRANCH  12  13
ENDBRANCH  11  12
ENDBRANCH   5  11
TORSDOF 5
ENDMDL
MODEL      170
REMARK 921   NORMALIZED FREE ENERGY PREDICTED BY IDOCK:   -3.62 KCAL/MOL
REMARK 922        TOTAL FREE ENERGY PREDICTED BY IDOCK:   -5.65 KCAL/MOL
REMARK 923 INTER-LIGAND FREE ENERGY PREDICTED BY IDOCK:   -5.31 KCAL/MOL
REMARK 924 INTRA-LIGAND FREE ENERGY PREDICTED BY IDOCK:   -0.34 KCAL/MOL
REMARK 927      BINDING AFFINITY PREDICTED BY RF-SCORE:    0.00 PKD
ROOT
HETATM    1  C   UNL     1     -10.880   7.033  70.631  1.00  0.00    -0.246 C  
HETATM    2  N   UNL     1     -10.758   7.831  69.435  1.00  0.00    -0.332 NA 
HETATM    3  C   UNL     1     -11.080   9.155  69.350  1.00  0.00    -0.008 C  
HETATM    4  H   UNL     1     -10.407   7.374  68.594  1.00  0.00     0.000 HD 
HETATM    5  N   UNL     1     -10.914   9.688  68.092  1.00  0.00    -0.469 NA 
HETATM    6  N   UNL     1     -11.493   9.790  70.406  1.00  0.00    -0.269 NA 
HETATM    7  C   UNL     1     -11.793  11.084  70.301  1.00  0.00    -0.367 C  
HETATM    8  H   UNL     1     -11.134  10.678  67.979  1.00  0.00     0.000 HD 
HETATM    9  N   UNL     1     -12.043  12.209  70.167  1.00  0.00    -0.319 NA 
HETATM   10  H   UNL     1     -11.585   9.306  71.299  1.00  0.00     0.000 HD 
ENDROOT
BRANCH   5  11
HETATM   11  C   UNL     1     -10.456   8.981  66.909  1.00  0.00    -0.223 C  
BRANCH  11  12
HETATM   12  C   UNL     1      -9.226   9.610  66.249  1.00  0.00    -0.168 C  
BRANCH  12  13
HETATM   13  S   UNL     1      -9.846  10.651  64.883  1.00  0.00    -0.328 SA 
BRANCH  13  14
HETATM   14  C   UNL     1      -9.580  12.310  65.586  1.00  0.00    -0.137 C  
BRANCH  14  15
HETATM   15  C   UNL     1     -10.614  13.249  65.054  1.00  0.00    -0.346 A  
HETATM   16  C   UNL     1     -10.678  14.630  65.144  1.00  0.00    -0.414 A  
HETATM   17  C   UNL     1      -9.797  15.632  65.783  1.00  0.00    -0.386 C  
HETATM   18  N   UNL     1     -11.808  14.979  64.448  1.00  0.00    -0.632 NA 
HETATM   19  H   UNL     1     -12.158  15.926  64.306  1.00  0.00     0.000 HD 
HETATM   20  C   UNL     1     -12.379  13.832  63.979  1.00  0.00    -0.317 A  
HETATM   21  N   UNL     1     -11.694  12.772  64.339  1.00  0.00    -0.345 NA 
ENDBRANCH  14  15
ENDBRANCH  13  14
ENDBRANCH  12  13
ENDBRANCH  11  12
ENDBRANCH   5  11
TORSDOF 5
ENDMDL
MODEL      171
REMARK 921   NORMALIZED FREE ENERGY PREDICTED BY IDOCK:   -3.61 KCAL/MOL
REMARK 922        TOTAL FREE ENERGY PREDICTED BY IDOCK:   -5.63 KCAL/MOL
REMARK 923 INTER-LIGAND FREE ENERGY PREDICTED BY IDOCK:   -5.33 KCAL/MOL
REMARK 924 INTRA-LIGAND FREE ENERGY PREDICTED BY IDOCK:   -0.30 KCAL/MOL
REMARK 927      BINDING AFFINITY PREDICTED BY RF-SCORE:    0.00 PKD
ROOT
HETATM    1  C   UNL     1     -11.696  15.617  68.983  1.00  0.00    -0.395 C  
HETATM    2  N   UNL     1     -11.677  14.176  68.933  1.00  0.00    -0.313 NA 
HETATM    3  C   UNL     1     -12.028  13.432  67.843  1.00  0.00    -0.323 C  
HETATM    4  H   UNL     1     -11.381  13.676  69.771  1.00  0.00     0.000 HD 
HETATM    5  N   UNL     1     -11.965  12.074  68.053  1.00  0.00    -0.521 NA 
HETATM    6  N   UNL     1     -12.372  14.025  66.740  1.00  0.00    -0.525 NA 
HETATM    7  C   UNL     1     -12.702  13.279  65.685  1.00  0.00    -0.308 C  
HETATM    8  H   UNL     1     -12.210  11.475  67.264  1.00  0.00     0.000 HD 
HETATM    9  N   UNL     1     -12.982  12.594  64.792  1.00  0.00    -0.867 NA 
HETATM   10  H   UNL     1     -12.389  15.043  66.681  1.00  0.00     0.000 HD 
ENDROOT
BRANCH   5  11
HETATM   11  C   UNL     1     -11.584  11.408  69.286  1.00  0.00    -0.317 C  
BRANCH  11  12
HETATM   12  C   UNL     1     -10.262  10.641  69.192  1.00  0.00    -0.220 C  
BRANCH  12  13
HETATM   13  S   UNL     1     -10.470   9.411  67.858  1.00  0.00    -0.237 SA 
BRANCH  13  14
HETATM   14  C   UNL     1      -9.197   8.196  68.329  1.00  0.00    -0.134 C  
BRANCH  14  15
HETATM   15  C   UNL     1      -9.740   7.286  69.383  1.00  0.00    -0.161 A  
HETATM   16  C   UNL     1      -9.069   6.587  70.373  1.00  0.00    -0.156 A  
HETATM   17  C   UNL     1      -7.635   6.476  70.722  1.00  0.00    -0.089 C  
HETATM   18  N   UNL     1     -10.053   5.949  71.085  1.00  0.00    -0.192 NA 
HETATM   19  H   UNL     1      -9.913   5.346  71.895  1.00  0.00     0.000 HD 
HETATM   20  C   UNL     1     -11.252   6.267  70.517  1.00  0.00    -0.354 A  
HETATM   21  N   UNL     1     -11.098   7.058  69.482  1.00  0.00    -0.218 NA 
ENDBRANCH  14  15
ENDBRANCH  13  14
ENDBRANCH  12  13
ENDBRANCH  11  12
ENDBRANCH   5  11
TORSDOF 5
ENDMDL
MODEL      172
REMARK 921   NORMALIZED FREE ENERGY PREDICTED BY IDOCK:   -3.61 KCAL/MOL
REMARK 922        TOTAL FREE ENERGY PREDICTED BY IDOCK:   -5.63 KCAL/MOL
REMARK 923 INTER-LIGAND FREE ENERGY PREDICTED BY IDOCK:   -5.31 KCAL/MOL
REMARK 924 INTRA-LIGAND FREE ENERGY PREDICTED BY IDOCK:   -0.32 KCAL/MOL
REMARK 927      BINDING AFFINITY PREDICTED BY RF-SCORE:    0.00 PKD
ROOT
HETATM    1  C   UNL     1     -10.561  16.437  65.253  1.00  0.00    -0.299 C  
HETATM    2  N   UNL     1     -11.009  15.314  66.040  1.00  0.00    -0.332 NA 
HETATM    3  C   UNL     1     -11.538  14.167  65.524  1.00  0.00    -0.337 C  
HETATM    4  H   UNL     1     -10.925  15.382  67.055  1.00  0.00     0.000 HD 
HETATM    5  N   UNL     1     -11.927  13.255  66.478  1.00  0.00    -0.391 NA 
HETATM    6  N   UNL     1     -11.627  14.018  64.236  1.00  0.00    -0.567 NA 
HETATM    7  C   UNL     1     -12.138  12.885  63.755  1.00  0.00    -0.508 C  
HETATM    8  H   UNL     1     -12.322  12.376  66.141  1.00  0.00     0.000 HD 
HETATM    9  N   UNL     1     -12.589  11.885  63.376  1.00  0.00    -0.623 NA 
HETATM   10  H   UNL     1     -11.311  14.754  63.606  1.00  0.00     0.000 HD 
ENDROOT
BRANCH   5  11
HETATM   11  C   UNL     1     -11.833  13.420  67.918  1.00  0.00    -0.357 C  
BRANCH  11  12
HETATM   12  C   UNL     1     -11.692  12.102  68.684  1.00  0.00    -0.330 C  
BRANCH  12  13
HETATM   13  S   UNL     1     -10.681  10.999  67.637  1.00  0.00    -0.257 SA 
BRANCH  13  14
HETATM   14  C   UNL     1     -10.748   9.464  68.615  1.00  0.00    -0.160 C  
BRANCH  14  15
HETATM   15  C   UNL     1      -9.687   8.523  68.140  1.00  0.00    -0.155 A  
HETATM   16  C   UNL     1      -9.816   7.330  67.447  1.00  0.00    -0.159 A  
HETATM   17  C   UNL     1     -10.993   6.578  66.961  1.00  0.00    -0.466 C  
HETATM   18  N   UNL     1      -8.529   6.906  67.231  1.00  0.00    -0.121 NA 
HETATM   19  H   UNL     1      -8.250   6.057  66.740  1.00  0.00     0.000 HD 
HETATM   20  C   UNL     1      -7.688   7.824  67.789  1.00  0.00    -0.122 A  
HETATM   21  N   UNL     1      -8.353   8.801  68.358  1.00  0.00    -0.125 NA 
ENDBRANCH  14  15
ENDBRANCH  13  14
ENDBRANCH  12  13
ENDBRANCH  11  12
ENDBRANCH   5  11
TORSDOF 5
ENDMDL
MODEL      173
REMARK 921   NORMALIZED FREE ENERGY PREDICTED BY IDOCK:   -3.61 KCAL/MOL
REMARK 922        TOTAL FREE ENERGY PREDICTED BY IDOCK:   -5.63 KCAL/MOL
REMARK 923 INTER-LIGAND FREE ENERGY PREDICTED BY IDOCK:   -5.40 KCAL/MOL
REMARK 924 INTRA-LIGAND FREE ENERGY PREDICTED BY IDOCK:   -0.23 KCAL/MOL
REMARK 927      BINDING AFFINITY PREDICTED BY RF-SCORE:    0.00 PKD
ROOT
HETATM    1  C   UNL     1     -10.289  19.054  67.054  1.00  0.00    -0.409 C  
HETATM    2  N   UNL     1     -10.383  17.776  67.717  1.00  0.00    -0.364 NA 
HETATM    3  C   UNL     1      -9.402  16.826  67.714  1.00  0.00    -0.233 C  
HETATM    4  H   UNL     1     -11.243  17.567  68.225  1.00  0.00     0.000 HD 
HETATM    5  N   UNL     1      -9.741  15.674  68.385  1.00  0.00    -0.200 NA 
HETATM    6  N   UNL     1      -8.274  17.065  67.116  1.00  0.00    -0.184 NA 
HETATM    7  C   UNL     1      -7.327  16.126  67.133  1.00  0.00    -0.215 C  
HETATM    8  H   UNL     1      -9.037  14.937  68.417  1.00  0.00     0.000 HD 
HETATM    9  N   UNL     1      -6.530  15.284  67.171  1.00  0.00    -0.263 NA 
HETATM   10  H   UNL     1      -8.115  17.953  66.642  1.00  0.00     0.000 HD 
ENDROOT
BRANCH   5  11
HETATM   11  C   UNL     1     -11.003  15.404  69.052  1.00  0.00    -0.252 C  
BRANCH  11  12
HETATM   12  C   UNL     1     -11.996  14.610  68.199  1.00  0.00    -0.246 C  
BRANCH  12  13
HETATM   13  S   UNL     1     -11.066  14.005  66.748  1.00  0.00    -0.314 SA 
BRANCH  13  14
HETATM   14  C   UNL     1     -11.648  12.280  66.680  1.00  0.00    -0.375 C  
BRANCH  14  15
HETATM   15  C   UNL     1     -11.090  11.613  65.464  1.00  0.00    -0.237 A  
HETATM   16  C   UNL     1     -11.463  11.751  64.137  1.00  0.00    -0.327 A  
HETATM   17  C   UNL     1     -12.508  12.557  63.470  1.00  0.00    -0.561 C  
HETATM   18  N   UNL     1     -10.596  10.946  63.441  1.00  0.00    -0.625 NA 
HETATM   19  H   UNL     1     -10.581  10.811  62.430  1.00  0.00     0.000 HD 
HETATM   20  C   UNL     1      -9.757  10.359  64.342  1.00  0.00    -0.333 A  
HETATM   21  N   UNL     1     -10.037  10.727  65.570  1.00  0.00    -0.261 NA 
ENDBRANCH  14  15
ENDBRANCH  13  14
ENDBRANCH  12  13
ENDBRANCH  11  12
ENDBRANCH   5  11
TORSDOF 5
ENDMDL
MODEL      174
REMARK 921   NORMALIZED FREE ENERGY PREDICTED BY IDOCK:   -3.60 KCAL/MOL
REMARK 922        TOTAL FREE ENERGY PREDICTED BY IDOCK:   -5.62 KCAL/MOL
REMARK 923 INTER-LIGAND FREE ENERGY PREDICTED BY IDOCK:   -5.43 KCAL/MOL
REMARK 924 INTRA-LIGAND FREE ENERGY PREDICTED BY IDOCK:   -0.19 KCAL/MOL
REMARK 927      BINDING AFFINITY PREDICTED BY RF-SCORE:    0.00 PKD
ROOT
HETATM    1  C   UNL     1     -11.786   6.810  70.658  1.00  0.00    -0.386 C  
HETATM    2  N   UNL     1     -11.369   8.028  70.006  1.00  0.00    -0.453 NA 
HETATM    3  C   UNL     1     -11.778   9.279  70.364  1.00  0.00    -0.114 C  
HETATM    4  H   UNL     1     -10.722   7.947  69.221  1.00  0.00     0.000 HD 
HETATM    5  N   UNL     1     -11.272  10.280  69.567  1.00  0.00    -0.253 NA 
HETATM    6  N   UNL     1     -12.569   9.434  71.384  1.00  0.00    -0.332 NA 
HETATM    7  C   UNL     1     -12.948  10.667  71.721  1.00  0.00    -0.472 C  
HETATM    8  H   UNL     1     -11.543  11.236  69.800  1.00  0.00     0.000 HD 
HETATM    9  N   UNL     1     -13.255  11.755  71.981  1.00  0.00    -0.464 NA 
HETATM   10  H   UNL     1     -12.893   8.627  71.916  1.00  0.00     0.000 HD 
ENDROOT
BRANCH   5  11
HETATM   11  C   UNL     1     -10.391  10.110  68.425  1.00  0.00    -0.183 C  
BRANCH  11  12
HETATM   12  C   UNL     1      -9.728  11.408  67.957  1.00  0.00    -0.186 C  
BRANCH  12  13
HETATM   13  S   UNL     1     -10.517  11.852  66.371  1.00  0.00    -0.231 SA 
BRANCH  13  14
HETATM   14  C   UNL     1     -11.920  12.848  66.968  1.00  0.00    -0.325 C  
BRANCH  14  15
HETATM   15  C   UNL     1     -11.463  14.248  67.225  1.00  0.00    -0.352 A  
HETATM   16  C   UNL     1     -10.842  15.142  66.368  1.00  0.00    -0.326 A  
HETATM   17  C   UNL     1     -10.407  15.038  64.957  1.00  0.00    -0.390 C  
HETATM   18  N   UNL     1     -10.689  16.290  67.103  1.00  0.00    -0.288 NA 
HETATM   19  H   UNL     1     -10.268  17.160  66.779  1.00  0.00     0.000 HD 
HETATM   20  C   UNL     1     -11.200  16.060  68.347  1.00  0.00    -0.364 A  
HETATM   21  N   UNL     1     -11.660  14.836  68.458  1.00  0.00    -0.307 NA 
ENDBRANCH  14  15
ENDBRANCH  13  14
ENDBRANCH  12  13
ENDBRANCH  11  12
ENDBRANCH   5  11
TORSDOF 5
ENDMDL
MODEL      175
REMARK 921   NORMALIZED FREE ENERGY PREDICTED BY IDOCK:   -3.59 KCAL/MOL
REMARK 922        TOTAL FREE ENERGY PREDICTED BY IDOCK:   -5.60 KCAL/MOL
REMARK 923 INTER-LIGAND FREE ENERGY PREDICTED BY IDOCK:   -5.27 KCAL/MOL
REMARK 924 INTRA-LIGAND FREE ENERGY PREDICTED BY IDOCK:   -0.33 KCAL/MOL
REMARK 927      BINDING AFFINITY PREDICTED BY RF-SCORE:    0.00 PKD
ROOT
HETATM    1  C   UNL     1     -10.306  19.761  67.505  1.00  0.00    -0.440 C  
HETATM    2  N   UNL     1     -10.328  18.541  66.736  1.00  0.00    -0.382 NA 
HETATM    3  C   UNL     1      -9.244  17.740  66.520  1.00  0.00    -0.265 C  
HETATM    4  H   UNL     1     -11.217  18.256  66.324  1.00  0.00     0.000 HD 
HETATM    5  N   UNL     1      -9.507  16.651  65.722  1.00  0.00    -0.519 NA 
HETATM    6  N   UNL     1      -8.100  18.041  67.059  1.00  0.00    -0.220 NA 
HETATM    7  C   UNL     1      -7.058  17.240  66.841  1.00  0.00    -0.199 C  
HETATM    8  H   UNL     1      -8.729  16.017  65.537  1.00  0.00     0.000 HD 
HETATM    9  N   UNL     1      -6.175  16.517  66.628  1.00  0.00    -0.295 NA 
HETATM   10  H   UNL     1      -8.003  18.874  67.637  1.00  0.00     0.000 HD 
ENDROOT
BRANCH   5  11
HETATM   11  C   UNL     1     -10.783  16.314  65.115  1.00  0.00    -0.331 C  
BRANCH  11  12
HETATM   12  C   UNL     1     -11.368  14.985  65.601  1.00  0.00    -0.297 C  
BRANCH  12  13
HETATM   13  S   UNL     1     -11.740  14.004  64.107  1.00  0.00    -0.256 SA 
BRANCH  13  14
HETATM   14  C   UNL     1     -12.525  12.543  64.859  1.00  0.00    -0.450 C  
BRANCH  14  15
HETATM   15  C   UNL     1     -11.474  11.657  65.444  1.00  0.00    -0.103 A  
HETATM   16  C   UNL     1     -10.470  10.944  64.808  1.00  0.00    -0.303 A  
HETATM   17  C   UNL     1     -10.099  10.793  63.384  1.00  0.00    -0.345 C  
HETATM   18  N   UNL     1      -9.768  10.341  65.821  1.00  0.00    -0.220 NA 
HETATM   19  H   UNL     1      -8.952   9.739  65.711  1.00  0.00     0.000 HD 
HETATM   20  C   UNL     1     -10.355  10.690  67.001  1.00  0.00    -0.231 A  
HETATM   21  N   UNL     1     -11.393  11.469  66.809  1.00  0.00    -0.416 NA 
ENDBRANCH  14  15
ENDBRANCH  13  14
ENDBRANCH  12  13
ENDBRANCH  11  12
ENDBRANCH   5  11
TORSDOF 5
ENDMDL
MODEL      176
REMARK 921   NORMALIZED FREE ENERGY PREDICTED BY IDOCK:   -3.59 KCAL/MOL
REMARK 922        TOTAL FREE ENERGY PREDICTED BY IDOCK:   -5.60 KCAL/MOL
REMARK 923 INTER-LIGAND FREE ENERGY PREDICTED BY IDOCK:   -5.27 KCAL/MOL
REMARK 924 INTRA-LIGAND FREE ENERGY PREDICTED BY IDOCK:   -0.32 KCAL/MOL
REMARK 927      BINDING AFFINITY PREDICTED BY RF-SCORE:    0.00 PKD
ROOT
HETATM    1  C   UNL     1      -8.835   8.176  65.606  1.00  0.00    -0.120 C  
HETATM    2  N   UNL     1      -9.666   9.001  66.448  1.00  0.00    -0.246 NA 
HETATM    3  C   UNL     1     -10.326   8.560  67.559  1.00  0.00    -0.267 C  
HETATM    4  H   UNL     1      -9.768   9.984  66.196  1.00  0.00     0.000 HD 
HETATM    5  N   UNL     1     -11.086   9.526  68.175  1.00  0.00    -0.503 NA 
HETATM    6  N   UNL     1     -10.193   7.325  67.942  1.00  0.00    -0.180 NA 
HETATM    7  C   UNL     1     -10.839   6.919  69.035  1.00  0.00    -0.212 C  
HETATM    8  H   UNL     1     -11.593   9.247  69.016  1.00  0.00     0.000 HD 
HETATM    9  N   UNL     1     -11.418   6.605  69.990  1.00  0.00    -0.377 NA 
HETATM   10  H   UNL     1      -9.604   6.680  67.417  1.00  0.00     0.000 HD 
ENDROOT
BRANCH   5  11
HETATM   11  C   UNL     1     -11.240  10.906  67.747  1.00  0.00    -0.317 C  
BRANCH  11  12
HETATM   12  C   UNL     1     -10.633  11.925  68.714  1.00  0.00    -0.206 C  
BRANCH  12  13
HETATM   13  S   UNL     1     -11.671  13.424  68.608  1.00  0.00    -0.367 SA 
BRANCH  13  14
HETATM   14  C   UNL     1     -10.409  14.671  68.198  1.00  0.00    -0.230 C  
BRANCH  14  15
HETATM   15  C   UNL     1     -10.575  15.100  66.776  1.00  0.00    -0.298 A  
HETATM   16  C   UNL     1     -10.118  16.245  66.143  1.00  0.00    -0.344 A  
HETATM   17  C   UNL     1      -9.349  17.414  66.623  1.00  0.00    -0.279 C  
HETATM   18  N   UNL     1     -10.513  16.109  64.836  1.00  0.00    -0.629 NA 
HETATM   19  H   UNL     1     -10.337  16.773  64.082  1.00  0.00     0.000 HD 
HETATM   20  C   UNL     1     -11.183  14.926  64.724  1.00  0.00    -0.386 A  
HETATM   21  N   UNL     1     -11.251  14.301  65.876  1.00  0.00    -0.313 NA 
ENDBRANCH  14  15
ENDBRANCH  13  14
ENDBRANCH  12  13
ENDBRANCH  11  12
ENDBRANCH   5  11
TORSDOF 5
ENDMDL
MODEL      177
REMARK 921   NORMALIZED FREE ENERGY PREDICTED BY IDOCK:   -3.57 KCAL/MOL
REMARK 922        TOTAL FREE ENERGY PREDICTED BY IDOCK:   -5.58 KCAL/MOL
REMARK 923 INTER-LIGAND FREE ENERGY PREDICTED BY IDOCK:   -5.30 KCAL/MOL
REMARK 924 INTRA-LIGAND FREE ENERGY PREDICTED BY IDOCK:   -0.29 KCAL/MOL
REMARK 927      BINDING AFFINITY PREDICTED BY RF-SCORE:    0.00 PKD
ROOT
HETATM    1  C   UNL     1     -10.728   7.049  67.084  1.00  0.00    -0.363 C  
HETATM    2  N   UNL     1     -10.732   8.249  67.886  1.00  0.00    -0.459 NA 
HETATM    3  C   UNL     1     -10.991   8.286  69.226  1.00  0.00     0.048 C  
HETATM    4  H   UNL     1     -10.528   9.132  67.418  1.00  0.00     0.000 HD 
HETATM    5  N   UNL     1     -10.974   9.553  69.760  1.00  0.00    -0.254 NA 
HETATM    6  N   UNL     1     -11.216   7.181  69.872  1.00  0.00    -0.414 NA 
HETATM    7  C   UNL     1     -11.457   7.241  71.181  1.00  0.00    -0.283 C  
HETATM    8  H   UNL     1     -11.154   9.633  70.762  1.00  0.00     0.000 HD 
HETATM    9  N   UNL     1     -11.663   7.336  72.319  1.00  0.00    -0.277 NA 
HETATM   10  H   UNL     1     -11.208   6.285  69.386  1.00  0.00     0.000 HD 
ENDROOT
BRANCH   5  11
HETATM   11  C   UNL     1     -10.726  10.790  69.040  1.00  0.00    -0.228 C  
BRANCH  11  12
HETATM   12  C   UNL     1     -11.886  11.226  68.141  1.00  0.00    -0.205 C  
BRANCH  12  13
HETATM   13  S   UNL     1     -11.845  13.051  68.091  1.00  0.00    -0.298 SA 
BRANCH  13  14
HETATM   14  C   UNL     1     -11.321  13.416  69.797  1.00  0.00    -0.080 C  
BRANCH  14  15
HETATM   15  C   UNL     1     -12.512  13.804  70.613  1.00  0.00    -0.359 A  
HETATM   16  C   UNL     1     -13.284  13.032  71.466  1.00  0.00    -0.272 A  
HETATM   17  C   UNL     1     -13.225  11.605  71.851  1.00  0.00    -0.475 C  
HETATM   18  N   UNL     1     -14.213  13.898  71.984  1.00  0.00    -0.485 NA 
HETATM   19  H   UNL     1     -14.943  13.664  72.657  1.00  0.00     0.000 HD 
HETATM   20  C   UNL     1     -13.987  15.128  71.439  1.00  0.00    -0.506 A  
HETATM   21  N   UNL     1     -12.980  15.103  70.598  1.00  0.00    -0.385 NA 
ENDBRANCH  14  15
ENDBRANCH  13  14
ENDBRANCH  12  13
ENDBRANCH  11  12
ENDBRANCH   5  11
TORSDOF 5
ENDMDL
MODEL      178
REMARK 921   NORMALIZED FREE ENERGY PREDICTED BY IDOCK:   -3.56 KCAL/MOL
REMARK 922        TOTAL FREE ENERGY PREDICTED BY IDOCK:   -5.57 KCAL/MOL
REMARK 923 INTER-LIGAND FREE ENERGY PREDICTED BY IDOCK:   -4.83 KCAL/MOL
REMARK 924 INTRA-LIGAND FREE ENERGY PREDICTED BY IDOCK:   -0.74 KCAL/MOL
REMARK 927      BINDING AFFINITY PREDICTED BY RF-SCORE:    0.00 PKD
ROOT
HETATM    1  C   UNL     1      -7.931  12.653  67.375  1.00  0.00    -0.177 C  
HETATM    2  N   UNL     1      -8.802  12.555  66.229  1.00  0.00    -0.426 NA 
HETATM    3  C   UNL     1      -8.791  11.525  65.333  1.00  0.00     0.091 C  
HETATM    4  H   UNL     1      -9.473  13.307  66.078  1.00  0.00     0.000 HD 
HETATM    5  N   UNL     1      -9.689  11.676  64.302  1.00  0.00    -0.377 NA 
HETATM    6  N   UNL     1      -7.982  10.524  65.508  1.00  0.00    -0.169 NA 
HETATM    7  C   UNL     1      -7.995   9.526  64.625  1.00  0.00    -0.128 C  
HETATM    8  H   UNL     1      -9.725  10.927  63.610  1.00  0.00     0.000 HD 
HETATM    9  N   UNL     1      -8.037   8.678  63.834  1.00  0.00    -0.160 NA 
HETATM   10  H   UNL     1      -7.348  10.502  66.307  1.00  0.00     0.000 HD 
ENDROOT
BRANCH   5  11
HETATM   11  C   UNL     1     -10.593  12.795  64.102  1.00  0.00    -0.415 C  
BRANCH  11  12
HETATM   12  C   UNL     1     -12.058  12.470  64.405  1.00  0.00    -0.424 C  
BRANCH  12  13
HETATM   13  S   UNL     1     -12.754  13.939  65.237  1.00  0.00    -0.376 SA 
BRANCH  13  14
HETATM   14  C   UNL     1     -12.119  13.692  66.926  1.00  0.00    -0.386 C  
BRANCH  14  15
HETATM   15  C   UNL     1     -11.311  14.883  67.334  1.00  0.00    -0.347 A  
HETATM   16  C   UNL     1     -11.298  15.565  68.540  1.00  0.00    -0.351 A  
HETATM   17  C   UNL     1     -12.054  15.385  69.800  1.00  0.00    -0.373 C  
HETATM   18  N   UNL     1     -10.347  16.541  68.384  1.00  0.00    -0.277 NA 
HETATM   19  H   UNL     1     -10.071  17.229  69.085  1.00  0.00     0.000 HD 
HETATM   20  C   UNL     1      -9.835  16.427  67.125  1.00  0.00    -0.249 A  
HETATM   21  N   UNL     1     -10.404  15.449  66.462  1.00  0.00    -0.280 NA 
ENDBRANCH  14  15
ENDBRANCH  13  14
ENDBRANCH  12  13
ENDBRANCH  11  12
ENDBRANCH   5  11
TORSDOF 5
ENDMDL
MODEL      179
REMARK 921   NORMALIZED FREE ENERGY PREDICTED BY IDOCK:   -3.55 KCAL/MOL
REMARK 922        TOTAL FREE ENERGY PREDICTED BY IDOCK:   -5.55 KCAL/MOL
REMARK 923 INTER-LIGAND FREE ENERGY PREDICTED BY IDOCK:   -5.18 KCAL/MOL
REMARK 924 INTRA-LIGAND FREE ENERGY PREDICTED BY IDOCK:   -0.37 KCAL/MOL
REMARK 927      BINDING AFFINITY PREDICTED BY RF-SCORE:    0.00 PKD
ROOT
HETATM    1  C   UNL     1     -10.154   7.372  66.897  1.00  0.00    -0.257 C  
HETATM    2  N   UNL     1     -10.384   8.795  66.851  1.00  0.00    -0.282 NA 
HETATM    3  C   UNL     1      -9.996   9.611  65.827  1.00  0.00    -0.272 C  
HETATM    4  H   UNL     1     -10.870   9.223  67.639  1.00  0.00     0.000 HD 
HETATM    5  N   UNL     1     -10.294  10.938  66.031  1.00  0.00    -0.249 NA 
HETATM    6  N   UNL     1      -9.411   9.105  64.784  1.00  0.00    -0.434 NA 
HETATM    7  C   UNL     1      -9.049   9.920  63.792  1.00  0.00    -0.256 C  
HETATM    8  H   UNL     1     -10.031  11.588  65.289  1.00  0.00     0.000 HD 
HETATM    9  N   UNL     1      -8.751  10.662  62.952  1.00  0.00    -0.202 NA 
HETATM   10  H   UNL     1      -9.231   8.103  64.724  1.00  0.00     0.000 HD 
ENDROOT
BRANCH   5  11
HETATM   11  C   UNL     1     -10.945  11.507  67.197  1.00  0.00    -0.286 C  
BRANCH  11  12
HETATM   12  C   UNL     1     -10.005  12.308  68.102  1.00  0.00    -0.210 C  
BRANCH  12  13
HETATM   13  S   UNL     1     -10.255  14.068  67.682  1.00  0.00    -0.244 SA 
BRANCH  13  14
HETATM   14  C   UNL     1     -11.983  14.292  68.213  1.00  0.00    -0.311 C  
BRANCH  14  15
HETATM   15  C   UNL     1     -12.017  14.644  69.665  1.00  0.00    -0.323 A  
HETATM   16  C   UNL     1     -12.197  13.821  70.766  1.00  0.00    -0.363 A  
HETATM   17  C   UNL     1     -12.428  12.366  70.900  1.00  0.00    -0.367 C  
HETATM   18  N   UNL     1     -12.096  14.655  71.851  1.00  0.00    -0.332 NA 
HETATM   19  H   UNL     1     -12.174  14.379  72.830  1.00  0.00     0.000 HD 
HETATM   20  C   UNL     1     -11.872  15.918  71.388  1.00  0.00    -0.463 A  
HETATM   21  N   UNL     1     -11.834  15.948  70.076  1.00  0.00    -0.336 NA 
ENDBRANCH  14  15
ENDBRANCH  13  14
ENDBRANCH  12  13
ENDBRANCH  11  12
ENDBRANCH   5  11
TORSDOF 5
ENDMDL
MODEL      180
REMARK 921   NORMALIZED FREE ENERGY PREDICTED BY IDOCK:   -3.54 KCAL/MOL
REMARK 922        TOTAL FREE ENERGY PREDICTED BY IDOCK:   -5.55 KCAL/MOL
REMARK 923 INTER-LIGAND FREE ENERGY PREDICTED BY IDOCK:   -5.29 KCAL/MOL
REMARK 924 INTRA-LIGAND FREE ENERGY PREDICTED BY IDOCK:   -0.25 KCAL/MOL
REMARK 927      BINDING AFFINITY PREDICTED BY RF-SCORE:    0.00 PKD
ROOT
HETATM    1  C   UNL     1     -12.642   6.993  71.822  1.00  0.00    -0.350 C  
HETATM    2  N   UNL     1     -11.935   7.950  71.006  1.00  0.00    -0.383 NA 
HETATM    3  C   UNL     1     -11.366   7.668  69.797  1.00  0.00     0.065 C  
HETATM    4  H   UNL     1     -11.854   8.904  71.356  1.00  0.00     0.000 HD 
HETATM    5  N   UNL     1     -10.714   8.737  69.227  1.00  0.00    -0.356 NA 
HETATM    6  N   UNL     1     -11.479   6.477  69.291  1.00  0.00    -0.636 NA 
HETATM    7  C   UNL     1     -10.923   6.228  68.105  1.00  0.00    -0.323 C  
HETATM    8  H   UNL     1     -10.278   8.579  68.318  1.00  0.00     0.000 HD 
HETATM    9  N   UNL     1     -10.425   6.052  67.072  1.00  0.00    -0.236 NA 
HETATM   10  H   UNL     1     -11.984   5.747  69.791  1.00  0.00     0.000 HD 
ENDROOT
BRANCH   5  11
HETATM   11  C   UNL     1     -10.583  10.069  69.792  1.00  0.00    -0.267 C  
BRANCH  11  12
HETATM   12  C   UNL     1     -11.594  11.078  69.240  1.00  0.00    -0.314 C  
BRANCH  12  13
HETATM   13  S   UNL     1     -10.735  12.006  67.923  1.00  0.00    -0.220 SA 
BRANCH  13  14
HETATM   14  C   UNL     1     -12.013  13.230  67.495  1.00  0.00    -0.324 C  
BRANCH  14  15
HETATM   15  C   UNL     1     -11.752  14.504  68.233  1.00  0.00    -0.335 A  
HETATM   16  C   UNL     1     -12.085  14.851  69.533  1.00  0.00    -0.279 A  
HETATM   17  C   UNL     1     -12.801  14.131  70.608  1.00  0.00    -0.356 C  
HETATM   18  N   UNL     1     -11.569  16.111  69.705  1.00  0.00    -0.308 NA 
HETATM   19  H   UNL     1     -11.627  16.673  70.555  1.00  0.00     0.000 HD 
HETATM   20  C   UNL     1     -10.966  16.478  68.539  1.00  0.00    -0.350 A  
HETATM   21  N   UNL     1     -11.070  15.540  67.628  1.00  0.00    -0.319 NA 
ENDBRANCH  14  15
ENDBRANCH  13  14
ENDBRANCH  12  13
ENDBRANCH  11  12
ENDBRANCH   5  11
TORSDOF 5
ENDMDL
MODEL      181
REMARK 921   NORMALIZED FREE ENERGY PREDICTED BY IDOCK:   -3.54 KCAL/MOL
REMARK 922        TOTAL FREE ENERGY PREDICTED BY IDOCK:   -5.54 KCAL/MOL
REMARK 923 INTER-LIGAND FREE ENERGY PREDICTED BY IDOCK:   -5.19 KCAL/MOL
REMARK 924 INTRA-LIGAND FREE ENERGY PREDICTED BY IDOCK:   -0.35 KCAL/MOL
REMARK 927      BINDING AFFINITY PREDICTED BY RF-SCORE:    0.00 PKD
ROOT
HETATM    1  C   UNL     1     -11.032   6.339  68.618  1.00  0.00    -0.346 C  
HETATM    2  N   UNL     1     -10.818   7.435  67.704  1.00  0.00    -0.484 NA 
HETATM    3  C   UNL     1      -9.966   7.402  66.639  1.00  0.00    -0.191 C  
HETATM    4  H   UNL     1     -11.341   8.296  67.866  1.00  0.00     0.000 HD 
HETATM    5  N   UNL     1      -9.906   8.585  65.938  1.00  0.00    -0.463 NA 
HETATM    6  N   UNL     1      -9.310   6.314  66.368  1.00  0.00    -0.159 NA 
HETATM    7  C   UNL     1      -8.490   6.302  65.317  1.00  0.00    -0.111 C  
HETATM    8  H   UNL     1      -9.287   8.608  65.126  1.00  0.00     0.000 HD 
HETATM    9  N   UNL     1      -7.787   6.334  64.395  1.00  0.00    -0.111 NA 
HETATM   10  H   UNL     1      -9.420   5.484  66.950  1.00  0.00     0.000 HD 
ENDROOT
BRANCH   5  11
HETATM   11  C   UNL     1     -10.635   9.804  66.239  1.00  0.00     0.000 C  
BRANCH  11  12
HETATM   12  C   UNL     1      -9.774  11.070  66.184  1.00  0.00    -0.217 C  
BRANCH  12  13
HETATM   13  S   UNL     1     -10.136  12.009  67.708  1.00  0.00    -0.198 SA 
BRANCH  13  14
HETATM   14  C   UNL     1     -11.765  12.707  67.286  1.00  0.00    -0.370 C  
BRANCH  14  15
HETATM   15  C   UNL     1     -11.610  13.702  66.181  1.00  0.00    -0.347 A  
HETATM   16  C   UNL     1     -11.948  13.590  64.842  1.00  0.00    -0.379 A  
HETATM   17  C   UNL     1     -12.544  12.491  64.050  1.00  0.00    -0.481 C  
HETATM   18  N   UNL     1     -11.633  14.807  64.294  1.00  0.00    -0.655 NA 
HETATM   19  H   UNL     1     -11.758  15.078  63.319  1.00  0.00     0.000 HD 
HETATM   20  C   UNL     1     -11.121  15.592  65.286  1.00  0.00    -0.338 A  
HETATM   21  N   UNL     1     -11.080  14.952  66.431  1.00  0.00    -0.341 NA 
ENDBRANCH  14  15
ENDBRANCH  13  14
ENDBRANCH  12  13
ENDBRANCH  11  12
ENDBRANCH   5  11
TORSDOF 5
ENDMDL
MODEL      182
REMARK 921   NORMALIZED FREE ENERGY PREDICTED BY IDOCK:   -3.54 KCAL/MOL
REMARK 922        TOTAL FREE ENERGY PREDICTED BY IDOCK:   -5.54 KCAL/MOL
REMARK 923 INTER-LIGAND FREE ENERGY PREDICTED BY IDOCK:   -5.40 KCAL/MOL
REMARK 924 INTRA-LIGAND FREE ENERGY PREDICTED BY IDOCK:   -0.14 KCAL/MOL
REMARK 927      BINDING AFFINITY PREDICTED BY RF-SCORE:    0.00 PKD
ROOT
HETATM    1  C   UNL     1     -10.761  19.421  65.696  1.00  0.00    -0.286 C  
HETATM    2  N   UNL     1     -10.644  18.427  66.735  1.00  0.00    -0.368 NA 
HETATM    3  C   UNL     1      -9.665  18.412  67.686  1.00  0.00    -0.293 C  
HETATM    4  H   UNL     1     -11.342  17.684  66.762  1.00  0.00     0.000 HD 
HETATM    5  N   UNL     1      -9.742  17.341  68.546  1.00  0.00    -0.284 NA 
HETATM    6  N   UNL     1      -8.778  19.361  67.718  1.00  0.00    -0.303 NA 
HETATM    7  C   UNL     1      -7.837  19.329  68.661  1.00  0.00    -0.361 C  
HETATM    8  H   UNL     1      -9.036  17.289  69.281  1.00  0.00     0.000 HD 
HETATM    9  N   UNL     1      -7.035  19.265  69.497  1.00  0.00    -0.260 NA 
HETATM   10  H   UNL     1      -8.802  20.116  67.033  1.00  0.00     0.000 HD 
ENDROOT
BRANCH   5  11
HETATM   11  C   UNL     1     -10.729  16.276  68.512  1.00  0.00    -0.307 C  
BRANCH  11  12
HETATM   12  C   UNL     1     -10.245  15.005  67.808  1.00  0.00    -0.236 C  
BRANCH  12  13
HETATM   13  S   UNL     1     -11.609  14.464  66.721  1.00  0.00    -0.392 SA 
BRANCH  13  14
HETATM   14  C   UNL     1     -11.778  12.727  67.244  1.00  0.00    -0.378 C  
BRANCH  14  15
HETATM   15  C   UNL     1     -11.025  11.846  66.300  1.00  0.00    -0.302 A  
HETATM   16  C   UNL     1     -11.121  11.748  64.921  1.00  0.00    -0.285 A  
HETATM   17  C   UNL     1     -11.975  12.434  63.927  1.00  0.00    -0.572 C  
HETATM   18  N   UNL     1     -10.174  10.821  64.565  1.00  0.00    -0.350 NA 
HETATM   19  H   UNL     1      -9.967  10.507  63.617  1.00  0.00     0.000 HD 
HETATM   20  C   UNL     1      -9.559  10.394  65.705  1.00  0.00    -0.216 A  
HETATM   21  N   UNL     1     -10.057  10.981  66.768  1.00  0.00    -0.213 NA 
ENDBRANCH  14  15
ENDBRANCH  13  14
ENDBRANCH  12  13
ENDBRANCH  11  12
ENDBRANCH   5  11
TORSDOF 5
ENDMDL
MODEL      183
REMARK 921   NORMALIZED FREE ENERGY PREDICTED BY IDOCK:   -3.54 KCAL/MOL
REMARK 922        TOTAL FREE ENERGY PREDICTED BY IDOCK:   -5.53 KCAL/MOL
REMARK 923 INTER-LIGAND FREE ENERGY PREDICTED BY IDOCK:   -5.23 KCAL/MOL
REMARK 924 INTRA-LIGAND FREE ENERGY PREDICTED BY IDOCK:   -0.30 KCAL/MOL
REMARK 927      BINDING AFFINITY PREDICTED BY RF-SCORE:    0.00 PKD
ROOT
HETATM    1  C   UNL     1      -8.872  10.863  62.445  1.00  0.00    -0.313 C  
HETATM    2  N   UNL     1      -9.844  11.263  63.434  1.00  0.00    -0.345 NA 
HETATM    3  C   UNL     1     -10.114  10.571  64.580  1.00  0.00    -0.332 C  
HETATM    4  H   UNL     1     -10.366  12.122  63.266  1.00  0.00     0.000 HD 
HETATM    5  N   UNL     1     -11.109  11.132  65.346  1.00  0.00    -0.081 NA 
HETATM    6  N   UNL     1      -9.445   9.493  64.857  1.00  0.00    -0.431 NA 
HETATM    7  C   UNL     1      -9.720   8.839  65.986  1.00  0.00    -0.206 C  
HETATM    8  H   UNL     1     -11.343  10.656  66.218  1.00  0.00     0.000 HD 
HETATM    9  N   UNL     1      -9.990   8.300  66.977  1.00  0.00    -0.227 NA 
HETATM   10  H   UNL     1      -8.723   9.153  64.223  1.00  0.00     0.000 HD 
ENDROOT
BRANCH   5  11
HETATM   11  C   UNL     1     -11.862  12.336  65.038  1.00  0.00    -0.357 C  
BRANCH  11  12
HETATM   12  C   UNL     1     -12.151  13.215  66.257  1.00  0.00    -0.397 C  
BRANCH  12  13
HETATM   13  S   UNL     1     -10.694  13.082  67.350  1.00  0.00    -0.248 SA 
BRANCH  13  14
HETATM   14  C   UNL     1     -10.244  14.839  67.514  1.00  0.00    -0.233 C  
BRANCH  14  15
HETATM   15  C   UNL     1     -10.759  15.367  68.814  1.00  0.00    -0.241 A  
HETATM   16  C   UNL     1     -10.683  16.649  69.335  1.00  0.00    -0.331 A  
HETATM   17  C   UNL     1     -10.079  17.901  68.828  1.00  0.00    -0.384 C  
HETATM   18  N   UNL     1     -11.354  16.586  70.530  1.00  0.00    -0.496 NA 
HETATM   19  H   UNL     1     -11.497  17.358  71.181  1.00  0.00     0.000 HD 
HETATM   20  C   UNL     1     -11.795  15.305  70.694  1.00  0.00    -0.335 A  
HETATM   21  N   UNL     1     -11.441  14.543  69.686  1.00  0.00    -0.275 NA 
ENDBRANCH  14  15
ENDBRANCH  13  14
ENDBRANCH  12  13
ENDBRANCH  11  12
ENDBRANCH   5  11
TORSDOF 5
ENDMDL
MODEL      184
REMARK 921   NORMALIZED FREE ENERGY PREDICTED BY IDOCK:   -3.53 KCAL/MOL
REMARK 922        TOTAL FREE ENERGY PREDICTED BY IDOCK:   -5.53 KCAL/MOL
REMARK 923 INTER-LIGAND FREE ENERGY PREDICTED BY IDOCK:   -5.17 KCAL/MOL
REMARK 924 INTRA-LIGAND FREE ENERGY PREDICTED BY IDOCK:   -0.37 KCAL/MOL
REMARK 927      BINDING AFFINITY PREDICTED BY RF-SCORE:    0.00 PKD
ROOT
HETATM    1  C   UNL     1      -6.575  14.471  67.705  1.00  0.00    -0.153 C  
HETATM    2  N   UNL     1      -7.737  14.676  66.874  1.00  0.00    -0.286 NA 
HETATM    3  C   UNL     1      -8.205  15.897  66.482  1.00  0.00    -0.272 C  
HETATM    4  H   UNL     1      -8.245  13.850  66.557  1.00  0.00     0.000 HD 
HETATM    5  N   UNL     1      -9.352  15.835  65.724  1.00  0.00    -0.311 NA 
HETATM    6  N   UNL     1      -7.568  16.975  66.827  1.00  0.00    -0.211 NA 
HETATM    7  C   UNL     1      -8.039  18.156  66.425  1.00  0.00    -0.261 C  
HETATM    8  H   UNL     1      -9.737  16.723  65.400  1.00  0.00     0.000 HD 
HETATM    9  N   UNL     1      -8.481  19.162  66.056  1.00  0.00    -0.459 NA 
HETATM   10  H   UNL     1      -6.723  16.919  67.394  1.00  0.00     0.000 HD 
ENDROOT
BRANCH   5  11
HETATM   11  C   UNL     1     -10.069  14.632  65.340  1.00  0.00    -0.372 C  
BRANCH  11  12
HETATM   12  C   UNL     1     -11.582  14.826  65.216  1.00  0.00    -0.338 C  
BRANCH  12  13
HETATM   13  S   UNL     1     -12.353  13.639  66.370  1.00  0.00    -0.341 SA 
BRANCH  13  14
HETATM   14  C   UNL     1     -10.915  13.192  67.393  1.00  0.00    -0.264 C  
BRANCH  14  15
HETATM   15  C   UNL     1     -10.997  11.747  67.766  1.00  0.00    -0.225 A  
HETATM   16  C   UNL     1     -11.522  11.161  68.907  1.00  0.00    -0.295 A  
HETATM   17  C   UNL     1     -12.148  11.725  70.123  1.00  0.00    -0.398 C  
HETATM   18  N   UNL     1     -11.379   9.811  68.710  1.00  0.00    -0.482 NA 
HETATM   19  H   UNL     1     -11.667   9.075  69.355  1.00  0.00     0.000 HD 
HETATM   20  C   UNL     1     -10.783   9.627  67.496  1.00  0.00    -0.256 A  
HETATM   21  N   UNL     1     -10.527  10.772  66.909  1.00  0.00    -0.241 NA 
ENDBRANCH  14  15
ENDBRANCH  13  14
ENDBRANCH  12  13
ENDBRANCH  11  12
ENDBRANCH   5  11
TORSDOF 5
ENDMDL
MODEL      185
REMARK 921   NORMALIZED FREE ENERGY PREDICTED BY IDOCK:   -3.53 KCAL/MOL
REMARK 922        TOTAL FREE ENERGY PREDICTED BY IDOCK:   -5.53 KCAL/MOL
REMARK 923 INTER-LIGAND FREE ENERGY PREDICTED BY IDOCK:   -5.39 KCAL/MOL
REMARK 924 INTRA-LIGAND FREE ENERGY PREDICTED BY IDOCK:   -0.13 KCAL/MOL
REMARK 927      BINDING AFFINITY PREDICTED BY RF-SCORE:    0.00 PKD
ROOT
HETATM    1  C   UNL     1      -9.362  18.423  68.105  1.00  0.00    -0.317 C  
HETATM    2  N   UNL     1      -9.124  17.104  67.572  1.00  0.00    -0.224 NA 
HETATM    3  C   UNL     1      -9.735  16.592  66.464  1.00  0.00    -0.272 C  
HETATM    4  H   UNL     1      -8.450  16.511  68.057  1.00  0.00     0.000 HD 
HETATM    5  N   UNL     1      -9.371  15.297  66.176  1.00  0.00    -0.311 NA 
HETATM    6  N   UNL     1     -10.569  17.325  65.790  1.00  0.00    -0.464 NA 
HETATM    7  C   UNL     1     -11.148  16.807  64.706  1.00  0.00    -0.016 C  
HETATM    8  H   UNL     1      -9.796  14.872  65.351  1.00  0.00     0.000 HD 
HETATM    9  N   UNL     1     -11.630  16.320  63.770  1.00  0.00    -0.894 NA 
HETATM   10  H   UNL     1     -10.777  18.278  66.083  1.00  0.00     0.000 HD 
ENDROOT
BRANCH   5  11
HETATM   11  C   UNL     1      -8.442  14.474  66.930  1.00  0.00    -0.150 C  
BRANCH  11  12
HETATM   12  C   UNL     1      -8.969  14.042  68.301  1.00  0.00    -0.190 C  
BRANCH  12  13
HETATM   13  S   UNL     1      -9.379  12.268  68.163  1.00  0.00    -0.200 SA 
BRANCH  13  14
HETATM   14  C   UNL     1     -11.194  12.358  68.042  1.00  0.00    -0.268 C  
BRANCH  14  15
HETATM   15  C   UNL     1     -11.798  12.071  69.379  1.00  0.00    -0.324 A  
HETATM   16  C   UNL     1     -12.239  12.954  70.353  1.00  0.00    -0.304 A  
HETATM   17  C   UNL     1     -12.258  14.431  70.429  1.00  0.00    -0.404 C  
HETATM   18  N   UNL     1     -12.739  12.157  71.352  1.00  0.00    -0.327 NA 
HETATM   19  H   UNL     1     -13.154  12.479  72.226  1.00  0.00     0.000 HD 
HETATM   20  C   UNL     1     -12.583  10.858  70.967  1.00  0.00    -0.417 A  
HETATM   21  N   UNL     1     -12.007  10.771  69.792  1.00  0.00    -0.315 NA 
ENDBRANCH  14  15
ENDBRANCH  13  14
ENDBRANCH  12  13
ENDBRANCH  11  12
ENDBRANCH   5  11
TORSDOF 5
ENDMDL
MODEL      186
REMARK 921   NORMALIZED FREE ENERGY PREDICTED BY IDOCK:   -3.53 KCAL/MOL
REMARK 922        TOTAL FREE ENERGY PREDICTED BY IDOCK:   -5.53 KCAL/MOL
REMARK 923 INTER-LIGAND FREE ENERGY PREDICTED BY IDOCK:   -5.16 KCAL/MOL
REMARK 924 INTRA-LIGAND FREE ENERGY PREDICTED BY IDOCK:   -0.36 KCAL/MOL
REMARK 927      BINDING AFFINITY PREDICTED BY RF-SCORE:    0.00 PKD
ROOT
HETATM    1  C   UNL     1     -12.102  14.402  68.524  1.00  0.00    -0.243 C  
HETATM    2  N   UNL     1     -12.228  13.077  69.081  1.00  0.00    -0.159 NA 
HETATM    3  C   UNL     1     -11.779  11.937  68.479  1.00  0.00    -0.330 C  
HETATM    4  H   UNL     1     -12.684  12.985  69.988  1.00  0.00     0.000 HD 
HETATM    5  N   UNL     1     -12.050  10.790  69.188  1.00  0.00    -0.642 NA 
HETATM    6  N   UNL     1     -11.154  12.009  67.342  1.00  0.00    -0.263 NA 
HETATM    7  C   UNL     1     -10.717  10.883  66.777  1.00  0.00    -0.252 C  
HETATM    8  H   UNL     1     -11.727   9.911  68.783  1.00  0.00     0.000 HD 
HETATM    9  N   UNL     1     -10.353   9.881  66.319  1.00  0.00    -0.202 NA 
HETATM   10  H   UNL     1     -11.001  12.910  66.890  1.00  0.00     0.000 HD 
ENDROOT
BRANCH   5  11
HETATM   11  C   UNL     1     -12.751  10.706  70.458  1.00  0.00    -0.313 C  
BRANCH  11  12
HETATM   12  C   UNL     1     -12.122   9.722  71.448  1.00  0.00    -0.400 C  
BRANCH  12  13
HETATM   13  S   UNL     1     -13.505   8.890  72.302  1.00  0.00    -0.460 SA 
BRANCH  13  14
HETATM   14  C   UNL     1     -13.427   7.243  71.528  1.00  0.00    -0.363 C  
BRANCH  14  15
HETATM   15  C   UNL     1     -12.034   6.712  71.625  1.00  0.00    -0.347 A  
HETATM   16  C   UNL     1     -11.122   6.443  70.616  1.00  0.00    -0.317 A  
HETATM   17  C   UNL     1     -11.197   6.562  69.144  1.00  0.00    -0.367 C  
HETATM   18  N   UNL     1      -9.991   6.018  71.266  1.00  0.00    -0.181 NA 
HETATM   19  H   UNL     1      -9.114   5.739  70.826  1.00  0.00     0.000 HD 
HETATM   20  C   UNL     1     -10.247   6.035  72.605  1.00  0.00    -0.183 A  
HETATM   21  N   UNL     1     -11.472   6.433  72.855  1.00  0.00    -0.140 NA 
ENDBRANCH  14  15
ENDBRANCH  13  14
ENDBRANCH  12  13
ENDBRANCH  11  12
ENDBRANCH   5  11
TORSDOF 5
ENDMDL
MODEL      187
REMARK 921   NORMALIZED FREE ENERGY PREDICTED BY IDOCK:   -3.53 KCAL/MOL
REMARK 922        TOTAL FREE ENERGY PREDICTED BY IDOCK:   -5.52 KCAL/MOL
REMARK 923 INTER-LIGAND FREE ENERGY PREDICTED BY IDOCK:   -5.23 KCAL/MOL
REMARK 924 INTRA-LIGAND FREE ENERGY PREDICTED BY IDOCK:   -0.30 KCAL/MOL
REMARK 927      BINDING AFFINITY PREDICTED BY RF-SCORE:    0.00 PKD
ROOT
HETATM    1  C   UNL     1      -9.645   8.035  66.778  1.00  0.00    -0.216 C  
HETATM    2  N   UNL     1      -9.917   9.385  66.349  1.00  0.00    -0.265 NA 
HETATM    3  C   UNL     1      -9.418   9.954  65.213  1.00  0.00    -0.268 C  
HETATM    4  H   UNL     1     -10.526   9.955  66.937  1.00  0.00     0.000 HD 
HETATM    5  N   UNL     1      -9.790  11.267  65.040  1.00  0.00    -0.249 NA 
HETATM    6  N   UNL     1      -8.672   9.254  64.413  1.00  0.00    -0.257 NA 
HETATM    7  C   UNL     1      -8.203   9.828  63.305  1.00  0.00    -0.155 C  
HETATM    8  H   UNL     1      -9.448  11.735  64.199  1.00  0.00     0.000 HD 
HETATM    9  N   UNL     1      -7.815  10.364  62.352  1.00  0.00    -0.147 NA 
HETATM   10  H   UNL     1      -8.449   8.282  64.629  1.00  0.00     0.000 HD 
ENDROOT
BRANCH   5  11
HETATM   11  C   UNL     1     -10.621  12.054  65.934  1.00  0.00    -0.265 C  
BRANCH  11  12
HETATM   12  C   UNL     1     -11.926  12.541  65.298  1.00  0.00    -0.438 C  
BRANCH  12  13
HETATM   13  S   UNL     1     -12.172  14.258  65.869  1.00  0.00    -0.377 SA 
BRANCH  13  14
HETATM   14  C   UNL     1     -10.499  14.931  65.619  1.00  0.00    -0.349 C  
BRANCH  14  15
HETATM   15  C   UNL     1     -10.389  16.259  66.297  1.00  0.00    -0.326 A  
HETATM   16  C   UNL     1     -10.312  16.552  67.649  1.00  0.00    -0.291 A  
HETATM   17  C   UNL     1     -10.328  15.702  68.860  1.00  0.00    -0.218 C  
HETATM   18  N   UNL     1     -10.181  17.917  67.708  1.00  0.00    -0.350 NA 
HETATM   19  H   UNL     1     -10.093  18.476  68.557  1.00  0.00     0.000 HD 
HETATM   20  C   UNL     1     -10.190  18.393  66.430  1.00  0.00    -0.410 A  
HETATM   21  N   UNL     1     -10.328  17.423  65.558  1.00  0.00    -0.644 NA 
ENDBRANCH  14  15
ENDBRANCH  13  14
ENDBRANCH  12  13
ENDBRANCH  11  12
ENDBRANCH   5  11
TORSDOF 5
ENDMDL
MODEL      188
REMARK 921   NORMALIZED FREE ENERGY PREDICTED BY IDOCK:   -3.53 KCAL/MOL
REMARK 922        TOTAL FREE ENERGY PREDICTED BY IDOCK:   -5.52 KCAL/MOL
REMARK 923 INTER-LIGAND FREE ENERGY PREDICTED BY IDOCK:   -5.06 KCAL/MOL
REMARK 924 INTRA-LIGAND FREE ENERGY PREDICTED BY IDOCK:   -0.47 KCAL/MOL
REMARK 927      BINDING AFFINITY PREDICTED BY RF-SCORE:    0.00 PKD
ROOT
HETATM    1  C   UNL     1     -11.628   6.444  69.543  1.00  0.00    -0.233 C  
HETATM    2  N   UNL     1     -11.121   7.127  68.377  1.00  0.00    -0.469 NA 
HETATM    3  C   UNL     1     -10.676   6.504  67.246  1.00  0.00    -0.356 C  
HETATM    4  H   UNL     1     -11.093   8.146  68.399  1.00  0.00     0.000 HD 
HETATM    5  N   UNL     1     -10.205   7.368  66.285  1.00  0.00    -0.441 NA 
HETATM    6  N   UNL     1     -10.732   5.209  67.156  1.00  0.00    -0.222 NA 
HETATM    7  C   UNL     1     -10.301   4.624  66.038  1.00  0.00    -0.284 C  
HETATM    8  H   UNL     1      -9.868   6.951  65.416  1.00  0.00     0.000 HD 
HETATM    9  N   UNL     1      -9.916   4.154  65.050  1.00  0.00    -0.201 NA 
HETATM   10  H   UNL     1     -11.099   4.651  67.926  1.00  0.00     0.000 HD 
ENDROOT
BRANCH   5  11
HETATM   11  C   UNL     1     -10.138   8.816  66.383  1.00  0.00    -0.243 C  
BRANCH  11  12
HETATM   12  C   UNL     1      -8.803   9.339  66.919  1.00  0.00    -0.127 C  
BRANCH  12  13
HETATM   13  S   UNL     1      -9.206  10.634  68.142  1.00  0.00    -0.153 SA 
BRANCH  13  14
HETATM   14  C   UNL     1     -11.007  10.762  67.904  1.00  0.00    -0.289 C  
BRANCH  14  15
HETATM   15  C   UNL     1     -11.600  11.574  69.011  1.00  0.00    -0.318 A  
HETATM   16  C   UNL     1     -11.920  11.196  70.305  1.00  0.00    -0.373 A  
HETATM   17  C   UNL     1     -11.812   9.910  71.027  1.00  0.00    -0.463 C  
HETATM   18  N   UNL     1     -12.389  12.340  70.902  1.00  0.00    -0.366 NA 
HETATM   19  H   UNL     1     -12.711  12.426  71.865  1.00  0.00     0.000 HD 
HETATM   20  C   UNL     1     -12.347  13.341  69.976  1.00  0.00    -0.200 A  
HETATM   21  N   UNL     1     -11.891  12.910  68.823  1.00  0.00    -0.319 NA 
ENDBRANCH  14  15
ENDBRANCH  13  14
ENDBRANCH  12  13
ENDBRANCH  11  12
ENDBRANCH   5  11
TORSDOF 5
ENDMDL
MODEL      189
REMARK 921   NORMALIZED FREE ENERGY PREDICTED BY IDOCK:   -3.53 KCAL/MOL
REMARK 922        TOTAL FREE ENERGY PREDICTED BY IDOCK:   -5.52 KCAL/MOL
REMARK 923 INTER-LIGAND FREE ENERGY PREDICTED BY IDOCK:   -5.26 KCAL/MOL
REMARK 924 INTRA-LIGAND FREE ENERGY PREDICTED BY IDOCK:   -0.26 KCAL/MOL
REMARK 927      BINDING AFFINITY PREDICTED BY RF-SCORE:    0.00 PKD
ROOT
HETATM    1  C   UNL     1     -11.758  12.478  66.299  1.00  0.00    -0.404 C  
HETATM    2  N   UNL     1     -10.729  13.038  67.141  1.00  0.00    -0.253 NA 
HETATM    3  C   UNL     1     -10.934  13.520  68.401  1.00  0.00    -0.266 C  
HETATM    4  H   UNL     1      -9.780  13.077  66.767  1.00  0.00     0.000 HD 
HETATM    5  N   UNL     1      -9.803  14.038  68.989  1.00  0.00    -0.424 NA 
HETATM    6  N   UNL     1     -12.117  13.454  68.934  1.00  0.00    -0.309 NA 
HETATM    7  C   UNL     1     -12.292  13.923  70.170  1.00  0.00    -0.334 C  
HETATM    8  H   UNL     1      -9.904  14.404  69.937  1.00  0.00     0.000 HD 
HETATM    9  N   UNL     1     -12.402  14.341  71.246  1.00  0.00    -0.348 NA 
HETATM   10  H   UNL     1     -12.897  13.051  68.417  1.00  0.00     0.000 HD 
ENDROOT
BRANCH   5  11
HETATM   11  C   UNL     1      -8.480  14.117  68.395  1.00  0.00    -0.170 C  
BRANCH  11  12
HETATM   12  C   UNL     1      -8.277  15.340  67.497  1.00  0.00    -0.173 C  
BRANCH  12  13
HETATM   13  S   UNL     1      -6.952  16.334  68.266  1.00  0.00    -0.133 SA 
BRANCH  13  14
HETATM   14  C   UNL     1      -7.871  17.853  68.670  1.00  0.00    -0.290 C  
BRANCH  14  15
HETATM   15  C   UNL     1      -7.880  18.761  67.482  1.00  0.00    -0.233 A  
HETATM   16  C   UNL     1      -8.805  19.727  67.120  1.00  0.00    -0.323 A  
HETATM   17  C   UNL     1     -10.071  20.180  67.737  1.00  0.00    -0.540 C  
HETATM   18  N   UNL     1      -8.301  20.288  65.973  1.00  0.00    -0.561 NA 
HETATM   19  H   UNL     1      -8.729  21.041  65.435  1.00  0.00     0.000 HD 
HETATM   20  C   UNL     1      -7.127  19.658  65.682  1.00  0.00    -0.300 A  
HETATM   21  N   UNL     1      -6.852  18.724  66.562  1.00  0.00    -0.198 NA 
ENDBRANCH  14  15
ENDBRANCH  13  14
ENDBRANCH  12  13
ENDBRANCH  11  12
ENDBRANCH   5  11
TORSDOF 5
ENDMDL
MODEL      190
REMARK 921   NORMALIZED FREE ENERGY PREDICTED BY IDOCK:   -3.51 KCAL/MOL
REMARK 922        TOTAL FREE ENERGY PREDICTED BY IDOCK:   -5.51 KCAL/MOL
REMARK 923 INTER-LIGAND FREE ENERGY PREDICTED BY IDOCK:   -4.87 KCAL/MOL
REMARK 924 INTRA-LIGAND FREE ENERGY PREDICTED BY IDOCK:   -0.63 KCAL/MOL
REMARK 927      BINDING AFFINITY PREDICTED BY RF-SCORE:    0.00 PKD
ROOT
HETATM    1  C   UNL     1     -10.838  14.436  66.978  1.00  0.00    -0.297 C  
HETATM    2  N   UNL     1     -11.346  13.438  67.887  1.00  0.00    -0.274 NA 
HETATM    3  C   UNL     1     -12.024  13.712  69.040  1.00  0.00    -0.353 C  
HETATM    4  H   UNL     1     -11.186  12.458  67.653  1.00  0.00     0.000 HD 
HETATM    5  N   UNL     1     -12.373  12.592  69.759  1.00  0.00    -0.102 NA 
HETATM    6  N   UNL     1     -12.287  14.943  69.358  1.00  0.00    -0.558 NA 
HETATM    7  C   UNL     1     -12.959  15.186  70.484  1.00  0.00    -0.321 C  
HETATM    8  H   UNL     1     -12.890  12.744  70.626  1.00  0.00     0.000 HD 
HETATM    9  N   UNL     1     -13.546  15.355  71.470  1.00  0.00    -0.496 NA 
HETATM   10  H   UNL     1     -11.985  15.710  68.758  1.00  0.00     0.000 HD 
ENDROOT
BRANCH   5  11
HETATM   11  C   UNL     1     -12.078  11.214  69.407  1.00  0.00    -0.326 C  
BRANCH  11  12
HETATM   12  C   UNL     1     -11.300  10.453  70.485  1.00  0.00    -0.341 C  
BRANCH  12  13
HETATM   13  S   UNL     1     -10.746   8.891  69.718  1.00  0.00    -0.200 SA 
BRANCH  13  14
HETATM   14  C   UNL     1      -9.218   9.449  68.899  1.00  0.00    -0.140 C  
BRANCH  14  15
HETATM   15  C   UNL     1      -9.463   9.592  67.431  1.00  0.00    -0.142 A  
HETATM   16  C   UNL     1      -9.456   8.624  66.440  1.00  0.00    -0.230 A  
HETATM   17  C   UNL     1      -9.200   7.167  66.466  1.00  0.00    -0.199 C  
HETATM   18  N   UNL     1      -9.784   9.295  65.288  1.00  0.00    -0.454 NA 
HETATM   19  H   UNL     1      -9.876   8.884  64.359  1.00  0.00     0.000 HD 
HETATM   20  C   UNL     1      -9.966  10.608  65.608  1.00  0.00    -0.268 A  
HETATM   21  N   UNL     1      -9.766  10.824  66.887  1.00  0.00    -0.175 NA 
ENDBRANCH  14  15
ENDBRANCH  13  14
ENDBRANCH  12  13
ENDBRANCH  11  12
ENDBRANCH   5  11
TORSDOF 5
ENDMDL
MODEL      191
REMARK 921   NORMALIZED FREE ENERGY PREDICTED BY IDOCK:   -3.51 KCAL/MOL
REMARK 922        TOTAL FREE ENERGY PREDICTED BY IDOCK:   -5.49 KCAL/MOL
REMARK 923 INTER-LIGAND FREE ENERGY PREDICTED BY IDOCK:   -4.91 KCAL/MOL
REMARK 924 INTRA-LIGAND FREE ENERGY PREDICTED BY IDOCK:   -0.58 KCAL/MOL
REMARK 927      BINDING AFFINITY PREDICTED BY RF-SCORE:    0.00 PKD
ROOT
HETATM    1  C   UNL     1     -10.418   7.904  67.304  1.00  0.00    -0.320 C  
HETATM    2  N   UNL     1      -9.702   8.933  68.018  1.00  0.00    -0.152 NA 
HETATM    3  C   UNL     1     -10.290   9.894  68.788  1.00  0.00    -0.203 C  
HETATM    4  H   UNL     1      -8.685   8.943  67.941  1.00  0.00     0.000 HD 
HETATM    5  N   UNL     1      -9.400  10.788  69.337  1.00  0.00    -0.415 NA 
HETATM    6  N   UNL     1     -11.579   9.896  68.948  1.00  0.00    -0.482 NA 
HETATM    7  C   UNL     1     -12.130  10.839  69.712  1.00  0.00    -0.318 C  
HETATM    8  H   UNL     1      -9.790  11.522  69.929  1.00  0.00     0.000 HD 
HETATM    9  N   UNL     1     -12.570  11.676  70.385  1.00  0.00    -0.182 NA 
HETATM   10  H   UNL     1     -12.159   9.189  68.498  1.00  0.00     0.000 HD 
ENDROOT
BRANCH   5  11
HETATM   11  C   UNL     1      -7.958  10.791  69.157  1.00  0.00    -0.134 C  
BRANCH  11  12
HETATM   12  C   UNL     1      -7.507  11.289  67.781  1.00  0.00    -0.095 C  
BRANCH  12  13
HETATM   13  S   UNL     1      -7.876  13.076  67.729  1.00  0.00    -0.173 SA 
BRANCH  13  14
HETATM   14  C   UNL     1      -9.343  13.078  66.650  1.00  0.00    -0.241 C  
BRANCH  14  15
HETATM   15  C   UNL     1     -10.513  13.630  67.398  1.00  0.00    -0.251 A  
HETATM   16  C   UNL     1     -11.835  13.753  66.999  1.00  0.00    -0.410 A  
HETATM   17  C   UNL     1     -12.535  13.416  65.740  1.00  0.00    -0.496 C  
HETATM   18  N   UNL     1     -12.485  14.279  68.087  1.00  0.00    -0.500 NA 
HETATM   19  H   UNL     1     -13.480  14.497  68.145  1.00  0.00     0.000 HD 
HETATM   20  C   UNL     1     -11.565  14.460  69.077  1.00  0.00    -0.296 A  
HETATM   21  N   UNL     1     -10.365  14.093  68.690  1.00  0.00    -0.241 NA 
ENDBRANCH  14  15
ENDBRANCH  13  14
ENDBRANCH  12  13
ENDBRANCH  11  12
ENDBRANCH   5  11
TORSDOF 5
ENDMDL
MODEL      192
REMARK 921   NORMALIZED FREE ENERGY PREDICTED BY IDOCK:   -3.50 KCAL/MOL
REMARK 922        TOTAL FREE ENERGY PREDICTED BY IDOCK:   -5.49 KCAL/MOL
REMARK 923 INTER-LIGAND FREE ENERGY PREDICTED BY IDOCK:   -5.07 KCAL/MOL
REMARK 924 INTRA-LIGAND FREE ENERGY PREDICTED BY IDOCK:   -0.42 KCAL/MOL
REMARK 927      BINDING AFFINITY PREDICTED BY RF-SCORE:    0.00 PKD
ROOT
HETATM    1  C   UNL     1     -10.405   5.540  66.289  1.00  0.00    -0.163 C  
HETATM    2  N   UNL     1      -9.954   6.877  65.986  1.00  0.00    -0.336 NA 
HETATM    3  C   UNL     1      -9.449   7.752  66.904  1.00  0.00    -0.187 C  
HETATM    4  H   UNL     1     -10.017   7.190  65.017  1.00  0.00     0.000 HD 
HETATM    5  N   UNL     1      -9.122   8.981  66.379  1.00  0.00    -0.159 NA 
HETATM    6  N   UNL     1      -9.310   7.383  68.142  1.00  0.00    -0.136 NA 
HETATM    7  C   UNL     1      -8.806   8.251  69.018  1.00  0.00    -0.143 C  
HETATM    8  H   UNL     1      -8.732   9.668  67.025  1.00  0.00     0.000 HD 
HETATM    9  N   UNL     1      -8.364   9.036  69.749  1.00  0.00    -0.121 NA 
HETATM   10  H   UNL     1      -9.583   6.446  68.437  1.00  0.00     0.000 HD 
ENDROOT
BRANCH   5  11
HETATM   11  C   UNL     1      -9.279   9.398  64.996  1.00  0.00    -0.218 C  
BRANCH  11  12
HETATM   12  C   UNL     1      -9.440  10.911  64.821  1.00  0.00    -0.238 C  
BRANCH  12  13
HETATM   13  S   UNL     1      -9.655  11.608  66.495  1.00  0.00    -0.215 SA 
BRANCH  13  14
HETATM   14  C   UNL     1     -11.428  12.021  66.455  1.00  0.00    -0.353 C  
BRANCH  14  15
HETATM   15  C   UNL     1     -11.673  13.070  65.418  1.00  0.00    -0.364 A  
HETATM   16  C   UNL     1     -12.342  12.972  64.209  1.00  0.00    -0.366 A  
HETATM   17  C   UNL     1     -13.013  11.845  63.525  1.00  0.00    -0.307 C  
HETATM   18  N   UNL     1     -12.307  14.239  63.682  1.00  0.00    -1.109 NA 
HETATM   19  H   UNL     1     -12.713  14.531  62.793  1.00  0.00     0.000 HD 
HETATM   20  C   UNL     1     -11.631  15.037  64.558  1.00  0.00    -0.343 A  
HETATM   21  N   UNL     1     -11.224  14.361  65.606  1.00  0.00    -0.316 NA 
ENDBRANCH  14  15
ENDBRANCH  13  14
ENDBRANCH  12  13
ENDBRANCH  11  12
ENDBRANCH   5  11
TORSDOF 5
ENDMDL
MODEL      193
REMARK 921   NORMALIZED FREE ENERGY PREDICTED BY IDOCK:   -3.49 KCAL/MOL
REMARK 922        TOTAL FREE ENERGY PREDICTED BY IDOCK:   -5.48 KCAL/MOL
REMARK 923 INTER-LIGAND FREE ENERGY PREDICTED BY IDOCK:   -4.79 KCAL/MOL
REMARK 924 INTRA-LIGAND FREE ENERGY PREDICTED BY IDOCK:   -0.69 KCAL/MOL
REMARK 927      BINDING AFFINITY PREDICTED BY RF-SCORE:    0.00 PKD
ROOT
HETATM    1  C   UNL     1     -12.301  10.029  71.667  1.00  0.00    -0.394 C  
HETATM    2  N   UNL     1     -11.966  10.352  70.301  1.00  0.00    -0.303 NA 
HETATM    3  C   UNL     1     -11.921  11.618  69.793  1.00  0.00    -0.332 C  
HETATM    4  H   UNL     1     -11.748   9.580  69.672  1.00  0.00     0.000 HD 
HETATM    5  N   UNL     1     -11.614  11.668  68.452  1.00  0.00    -0.293 NA 
HETATM    6  N   UNL     1     -12.150  12.635  70.567  1.00  0.00    -0.500 NA 
HETATM    7  C   UNL     1     -12.091  13.862  70.050  1.00  0.00    -0.345 C  
HETATM    8  H   UNL     1     -11.559  12.594  68.027  1.00  0.00     0.000 HD 
HETATM    9  N   UNL     1     -12.030  14.913  69.562  1.00  0.00    -0.309 NA 
HETATM   10  H   UNL     1     -12.372  12.497  71.553  1.00  0.00     0.000 HD 
ENDROOT
BRANCH   5  11
HETATM   11  C   UNL     1     -11.360  10.533  67.583  1.00  0.00    -0.154 C  
BRANCH  11  12
HETATM   12  C   UNL     1      -9.994  10.575  66.892  1.00  0.00    -0.200 C  
BRANCH  12  13
HETATM   13  S   UNL     1      -8.768  10.041  68.136  1.00  0.00    -0.123 SA 
BRANCH  13  14
HETATM   14  C   UNL     1      -8.670   8.261  67.759  1.00  0.00    -0.134 C  
BRANCH  14  15
HETATM   15  C   UNL     1      -9.766   7.539  68.475  1.00  0.00    -0.156 A  
HETATM   16  C   UNL     1     -10.663   6.600  67.992  1.00  0.00    -0.265 A  
HETATM   17  C   UNL     1     -10.866   6.008  66.651  1.00  0.00    -0.289 C  
HETATM   18  N   UNL     1     -11.416   6.237  69.080  1.00  0.00    -0.523 NA 
HETATM   19  H   UNL     1     -12.173   5.554  69.086  1.00  0.00     0.000 HD 
HETATM   20  C   UNL     1     -10.970   6.951  70.153  1.00  0.00    -0.281 A  
HETATM   21  N   UNL     1      -9.988   7.755  69.820  1.00  0.00    -0.186 NA 
ENDBRANCH  14  15
ENDBRANCH  13  14
ENDBRANCH  12  13
ENDBRANCH  11  12
ENDBRANCH   5  11
TORSDOF 5
ENDMDL
MODEL      194
REMARK 921   NORMALIZED FREE ENERGY PREDICTED BY IDOCK:   -3.49 KCAL/MOL
REMARK 922        TOTAL FREE ENERGY PREDICTED BY IDOCK:   -5.48 KCAL/MOL
REMARK 923 INTER-LIGAND FREE ENERGY PREDICTED BY IDOCK:   -5.07 KCAL/MOL
REMARK 924 INTRA-LIGAND FREE ENERGY PREDICTED BY IDOCK:   -0.40 KCAL/MOL
REMARK 927      BINDING AFFINITY PREDICTED BY RF-SCORE:    0.00 PKD
ROOT
HETATM    1  C   UNL     1     -10.891   6.190  66.731  1.00  0.00    -0.285 C  
HETATM    2  N   UNL     1     -10.869   7.545  67.225  1.00  0.00    -0.528 NA 
HETATM    3  C   UNL     1      -9.947   8.035  68.105  1.00  0.00    -0.185 C  
HETATM    4  H   UNL     1     -11.593   8.183  66.894  1.00  0.00     0.000 HD 
HETATM    5  N   UNL     1     -10.157   9.349  68.457  1.00  0.00    -0.180 NA 
HETATM    6  N   UNL     1      -8.982   7.272  68.523  1.00  0.00    -0.131 NA 
HETATM    7  C   UNL     1      -8.088   7.775  69.374  1.00  0.00    -0.126 C  
HETATM    8  H   UNL     1      -9.489   9.764  69.107  1.00  0.00     0.000 HD 
HETATM    9  N   UNL     1      -7.332   8.251  70.114  1.00  0.00    -0.055 NA 
HETATM   10  H   UNL     1      -8.909   6.307  68.204  1.00  0.00     0.000 HD 
ENDROOT
BRANCH   5  11
HETATM   11  C   UNL     1     -11.237  10.203  67.995  1.00  0.00    -0.179 C  
BRANCH  11  12
HETATM   12  C   UNL     1     -11.132  11.651  68.481  1.00  0.00    -0.235 C  
BRANCH  12  13
HETATM   13  S   UNL     1     -11.820  12.696  67.151  1.00  0.00    -0.257 SA 
BRANCH  13  14
HETATM   14  C   UNL     1     -10.327  12.977  66.146  1.00  0.00    -0.278 C  
BRANCH  14  15
HETATM   15  C   UNL     1     -10.327  12.043  64.980  1.00  0.00    -0.281 A  
HETATM   16  C   UNL     1     -11.094  12.077  63.826  1.00  0.00    -0.439 A  
HETATM   17  C   UNL     1     -12.153  12.996  63.355  1.00  0.00    -0.591 C  
HETATM   18  N   UNL     1     -10.656  11.012  63.079  1.00  0.00    -0.805 NA 
HETATM   19  H   UNL     1     -11.003  10.740  62.159  1.00  0.00     0.000 HD 
HETATM   20  C   UNL     1      -9.674  10.382  63.786  1.00  0.00    -0.290 A  
HETATM   21  N   UNL     1      -9.462  10.968  64.940  1.00  0.00    -0.226 NA 
ENDBRANCH  14  15
ENDBRANCH  13  14
ENDBRANCH  12  13
ENDBRANCH  11  12
ENDBRANCH   5  11
TORSDOF 5
ENDMDL
MODEL      195
REMARK 921   NORMALIZED FREE ENERGY PREDICTED BY IDOCK:   -3.49 KCAL/MOL
REMARK 922        TOTAL FREE ENERGY PREDICTED BY IDOCK:   -5.47 KCAL/MOL
REMARK 923 INTER-LIGAND FREE ENERGY PREDICTED BY IDOCK:   -5.11 KCAL/MOL
REMARK 924 INTRA-LIGAND FREE ENERGY PREDICTED BY IDOCK:   -0.36 KCAL/MOL
REMARK 927      BINDING AFFINITY PREDICTED BY RF-SCORE:    0.00 PKD
ROOT
HETATM    1  C   UNL     1     -12.261  15.612  72.037  1.00  0.00    -0.436 C  
HETATM    2  N   UNL     1     -12.007  14.445  71.228  1.00  0.00    -0.417 NA 
HETATM    3  C   UNL     1     -11.701  14.474  69.898  1.00  0.00    -0.299 C  
HETATM    4  H   UNL     1     -12.059  13.533  71.683  1.00  0.00     0.000 HD 
HETATM    5  N   UNL     1     -11.540  13.228  69.338  1.00  0.00    -0.297 NA 
HETATM    6  N   UNL     1     -11.583  15.613  69.286  1.00  0.00    -0.343 NA 
HETATM    7  C   UNL     1     -11.275  15.617  67.989  1.00  0.00    -0.339 C  
HETATM    8  H   UNL     1     -11.302  13.197  68.346  1.00  0.00     0.000 HD 
HETATM    9  N   UNL     1     -11.006  15.577  66.862  1.00  0.00    -0.302 NA 
HETATM   10  H   UNL     1     -11.723  16.489  69.789  1.00  0.00     0.000 HD 
ENDROOT
BRANCH   5  11
HETATM   11  C   UNL     1     -11.675  11.951  70.018  1.00  0.00    -0.286 C  
BRANCH  11  12
HETATM   12  C   UNL     1     -11.656  10.743  69.077  1.00  0.00    -0.299 C  
BRANCH  12  13
HETATM   13  S   UNL     1     -11.460  11.406  67.387  1.00  0.00    -0.183 SA 
BRANCH  13  14
HETATM   14  C   UNL     1     -10.238  10.235  66.714  1.00  0.00    -0.228 C  
BRANCH  14  15
HETATM   15  C   UNL     1      -9.829  10.673  65.344  1.00  0.00    -0.267 A  
HETATM   16  C   UNL     1      -8.590  10.595  64.729  1.00  0.00    -0.130 A  
HETATM   17  C   UNL     1      -7.277  10.088  65.185  1.00  0.00    -0.139 C  
HETATM   18  N   UNL     1      -8.789  11.097  63.468  1.00  0.00    -0.407 NA 
HETATM   19  H   UNL     1      -8.083  11.185  62.737  1.00  0.00     0.000 HD 
HETATM   20  C   UNL     1     -10.100  11.461  63.365  1.00  0.00    -0.405 A  
HETATM   21  N   UNL     1     -10.750  11.232  64.481  1.00  0.00    -0.336 NA 
ENDBRANCH  14  15
ENDBRANCH  13  14
ENDBRANCH  12  13
ENDBRANCH  11  12
ENDBRANCH   5  11
TORSDOF 5
ENDMDL
MODEL      196
REMARK 921   NORMALIZED FREE ENERGY PREDICTED BY IDOCK:   -3.49 KCAL/MOL
REMARK 922        TOTAL FREE ENERGY PREDICTED BY IDOCK:   -5.47 KCAL/MOL
REMARK 923 INTER-LIGAND FREE ENERGY PREDICTED BY IDOCK:   -4.92 KCAL/MOL
REMARK 924 INTRA-LIGAND FREE ENERGY PREDICTED BY IDOCK:   -0.55 KCAL/MOL
REMARK 927      BINDING AFFINITY PREDICTED BY RF-SCORE:    0.00 PKD
ROOT
HETATM    1  C   UNL     1     -11.903  12.569  68.976  1.00  0.00    -0.296 C  
HETATM    2  N   UNL     1     -11.291  11.476  68.261  1.00  0.00    -0.259 NA 
HETATM    3  C   UNL     1     -11.106  11.439  66.909  1.00  0.00    -0.295 C  
HETATM    4  H   UNL     1     -10.973  10.673  68.805  1.00  0.00     0.000 HD 
HETATM    5  N   UNL     1     -10.535  10.271  66.458  1.00  0.00    -0.203 NA 
HETATM    6  N   UNL     1     -11.457  12.455  66.181  1.00  0.00    -0.359 NA 
HETATM    7  C   UNL     1     -11.260  12.400  64.863  1.00  0.00    -0.311 C  
HETATM    8  H   UNL     1     -10.369  10.199  65.453  1.00  0.00     0.000 HD 
HETATM    9  N   UNL     1     -11.071  12.313  63.722  1.00  0.00    -0.402 NA 
HETATM   10  H   UNL     1     -11.876  13.280  66.608  1.00  0.00     0.000 HD 
ENDROOT
BRANCH   5  11
HETATM   11  C   UNL     1     -10.145   9.132  67.269  1.00  0.00    -0.233 C  
BRANCH  11  12
HETATM   12  C   UNL     1      -8.770   9.281  67.926  1.00  0.00    -0.124 C  
BRANCH  12  13
HETATM   13  S   UNL     1      -8.877   8.449  69.548  1.00  0.00    -0.146 SA 
BRANCH  13  14
HETATM   14  C   UNL     1     -10.528   7.689  69.420  1.00  0.00    -0.220 C  
BRANCH  14  15
HETATM   15  C   UNL     1     -11.329   8.030  70.635  1.00  0.00    -0.252 A  
HETATM   16  C   UNL     1     -11.591   7.264  71.759  1.00  0.00    -0.275 A  
HETATM   17  C   UNL     1     -11.206   5.889  72.145  1.00  0.00    -0.342 C  
HETATM   18  N   UNL     1     -12.335   8.078  72.577  1.00  0.00    -0.569 NA 
HETATM   19  H   UNL     1     -12.699   7.834  73.498  1.00  0.00     0.000 HD 
HETATM   20  C   UNL     1     -12.501   9.271  71.938  1.00  0.00    -0.382 A  
HETATM   21  N   UNL     1     -11.921   9.271  70.761  1.00  0.00    -0.251 NA 
ENDBRANCH  14  15
ENDBRANCH  13  14
ENDBRANCH  12  13
ENDBRANCH  11  12
ENDBRANCH   5  11
TORSDOF 5
ENDMDL
MODEL      197
REMARK 921   NORMALIZED FREE ENERGY PREDICTED BY IDOCK:   -3.48 KCAL/MOL
REMARK 922        TOTAL FREE ENERGY PREDICTED BY IDOCK:   -5.46 KCAL/MOL
REMARK 923 INTER-LIGAND FREE ENERGY PREDICTED BY IDOCK:   -5.14 KCAL/MOL
REMARK 924 INTRA-LIGAND FREE ENERGY PREDICTED BY IDOCK:   -0.32 KCAL/MOL
REMARK 927      BINDING AFFINITY PREDICTED BY RF-SCORE:    0.00 PKD
ROOT
HETATM    1  C   UNL     1      -9.358  10.176  62.453  1.00  0.00    -0.268 C  
HETATM    2  N   UNL     1     -10.160  11.036  63.288  1.00  0.00    -0.442 NA 
HETATM    3  C   UNL     1      -9.848  11.381  64.571  1.00  0.00    -0.260 C  
HETATM    4  H   UNL     1     -11.021  11.412  62.892  1.00  0.00     0.000 HD 
HETATM    5  N   UNL     1     -10.789  12.182  65.176  1.00  0.00    -0.291 NA 
HETATM    6  N   UNL     1      -8.740  10.959  65.104  1.00  0.00    -0.314 NA 
HETATM    7  C   UNL     1      -8.453  11.317  66.355  1.00  0.00    -0.169 C  
HETATM    8  H   UNL     1     -10.597  12.474  66.135  1.00  0.00     0.000 HD 
HETATM    9  N   UNL     1      -8.239  11.650  67.446  1.00  0.00    -0.145 NA 
HETATM   10  H   UNL     1      -8.103  10.366  64.574  1.00  0.00     0.000 HD 
ENDROOT
BRANCH   5  11
HETATM   11  C   UNL     1     -12.029  12.653  64.585  1.00  0.00    -0.402 C  
BRANCH  11  12
HETATM   12  C   UNL     1     -12.853  13.554  65.509  1.00  0.00    -0.350 C  
BRANCH  12  13
HETATM   13  S   UNL     1     -11.659  14.598  66.414  1.00  0.00    -0.302 SA 
BRANCH  13  14
HETATM   14  C   UNL     1     -11.799  13.887  68.085  1.00  0.00    -0.372 C  
BRANCH  14  15
HETATM   15  C   UNL     1     -11.654  14.972  69.103  1.00  0.00    -0.310 A  
HETATM   16  C   UNL     1     -12.043  14.988  70.433  1.00  0.00    -0.333 A  
HETATM   17  C   UNL     1     -12.726  13.992  71.287  1.00  0.00    -0.439 C  
HETATM   18  N   UNL     1     -11.630  16.207  70.907  1.00  0.00    -0.513 NA 
HETATM   19  H   UNL     1     -11.750  16.554  71.859  1.00  0.00     0.000 HD 
HETATM   20  C   UNL     1     -11.029  16.873  69.880  1.00  0.00     0.102 A  
HETATM   21  N   UNL     1     -11.040  16.164  68.776  1.00  0.00    -0.334 NA 
ENDBRANCH  14  15
ENDBRANCH  13  14
ENDBRANCH  12  13
ENDBRANCH  11  12
ENDBRANCH   5  11
TORSDOF 5
ENDMDL
MODEL      198
REMARK 921   NORMALIZED FREE ENERGY PREDICTED BY IDOCK:   -3.48 KCAL/MOL
REMARK 922        TOTAL FREE ENERGY PREDICTED BY IDOCK:   -5.46 KCAL/MOL
REMARK 923 INTER-LIGAND FREE ENERGY PREDICTED BY IDOCK:   -4.68 KCAL/MOL
REMARK 924 INTRA-LIGAND FREE ENERGY PREDICTED BY IDOCK:   -0.78 KCAL/MOL
REMARK 927      BINDING AFFINITY PREDICTED BY RF-SCORE:    0.00 PKD
ROOT
HETATM    1  C   UNL     1     -12.835   9.064  72.160  1.00  0.00    -0.410 C  
HETATM    2  N   UNL     1     -11.536   9.230  71.556  1.00  0.00    -0.358 NA 
HETATM    3  C   UNL     1     -11.304   9.896  70.387  1.00  0.00    -0.307 C  
HETATM    4  H   UNL     1     -10.734   8.820  72.035  1.00  0.00     0.000 HD 
HETATM    5  N   UNL     1      -9.985   9.886  69.994  1.00  0.00    -0.262 NA 
HETATM    6  N   UNL     1     -12.288  10.470  69.763  1.00  0.00    -0.536 NA 
HETATM    7  C   UNL     1     -12.036  11.123  68.629  1.00  0.00    -0.219 C  
HETATM    8  H   UNL     1      -9.759  10.379  69.130  1.00  0.00     0.000 HD 
HETATM    9  N   UNL     1     -11.775  11.680  67.645  1.00  0.00    -0.574 NA 
HETATM   10  H   UNL     1     -13.236  10.421  70.134  1.00  0.00     0.000 HD 
ENDROOT
BRANCH   5  11
HETATM   11  C   UNL     1      -8.883   9.244  70.688  1.00  0.00    -0.237 C  
BRANCH  11  12
HETATM   12  C   UNL     1      -8.667   7.782  70.287  1.00  0.00    -0.143 C  
BRANCH  12  13
HETATM   13  S   UNL     1      -7.110   7.729  69.335  1.00  0.00    -0.073 SA 
BRANCH  13  14
HETATM   14  C   UNL     1      -7.697   6.975  67.785  1.00  0.00    -0.112 C  
BRANCH  14  15
HETATM   15  C   UNL     1      -8.634   7.915  67.097  1.00  0.00    -0.128 A  
HETATM   16  C   UNL     1      -9.983   7.765  66.817  1.00  0.00    -0.261 A  
HETATM   17  C   UNL     1     -10.940   6.665  67.069  1.00  0.00    -0.463 C  
HETATM   18  N   UNL     1     -10.353   8.941  66.216  1.00  0.00    -0.305 NA 
HETATM   19  H   UNL     1     -11.287   9.177  65.881  1.00  0.00     0.000 HD 
HETATM   20  C   UNL     1      -9.249   9.740  66.146  1.00  0.00    -0.176 A  
HETATM   21  N   UNL     1      -8.195   9.146  66.654  1.00  0.00    -0.114 NA 
ENDBRANCH  14  15
ENDBRANCH  13  14
ENDBRANCH  12  13
ENDBRANCH  11  12
ENDBRANCH   5  11
TORSDOF 5
ENDMDL
MODEL      199
REMARK 921   NORMALIZED FREE ENERGY PREDICTED BY IDOCK:   -3.47 KCAL/MOL
REMARK 922        TOTAL FREE ENERGY PREDICTED BY IDOCK:   -5.45 KCAL/MOL
REMARK 923 INTER-LIGAND FREE ENERGY PREDICTED BY IDOCK:   -5.09 KCAL/MOL
REMARK 924 INTRA-LIGAND FREE ENERGY PREDICTED BY IDOCK:   -0.36 KCAL/MOL
REMARK 927      BINDING AFFINITY PREDICTED BY RF-SCORE:    0.00 PKD
ROOT
HETATM    1  C   UNL     1     -11.258   6.120  70.035  1.00  0.00    -0.401 C  
HETATM    2  N   UNL     1     -11.045   6.984  68.900  1.00  0.00    -0.466 NA 
HETATM    3  C   UNL     1     -10.688   6.555  67.654  1.00  0.00    -0.307 C  
HETATM    4  H   UNL     1     -11.169   7.987  69.038  1.00  0.00     0.000 HD 
HETATM    5  N   UNL     1     -10.506   7.572  66.746  1.00  0.00    -0.476 NA 
HETATM    6  N   UNL     1     -10.559   5.283  67.420  1.00  0.00    -0.150 NA 
HETATM    7  C   UNL     1     -10.219   4.887  66.194  1.00  0.00    -0.277 C  
HETATM    8  H   UNL     1     -10.246   7.302  65.797  1.00  0.00     0.000 HD 
HETATM    9  N   UNL     1      -9.922   4.584  65.114  1.00  0.00    -0.163 NA 
HETATM   10  H   UNL     1     -10.715   4.601  68.162  1.00  0.00     0.000 HD 
ENDROOT
BRANCH   5  11
HETATM   11  C   UNL     1     -10.647   8.995  67.005  1.00  0.00    -0.200 C  
BRANCH  11  12
HETATM   12  C   UNL     1      -9.315   9.747  67.069  1.00  0.00    -0.147 C  
BRANCH  12  13
HETATM   13  S   UNL     1      -9.391  10.811  68.551  1.00  0.00    -0.180 SA 
BRANCH  13  14
HETATM   14  C   UNL     1     -11.170  10.722  68.930  1.00  0.00    -0.268 C  
BRANCH  14  15
HETATM   15  C   UNL     1     -11.647  12.057  69.402  1.00  0.00    -0.330 A  
HETATM   16  C   UNL     1     -11.707  13.262  68.720  1.00  0.00    -0.329 A  
HETATM   17  C   UNL     1     -11.324  13.652  67.345  1.00  0.00    -0.340 C  
HETATM   18  N   UNL     1     -12.265  14.145  69.609  1.00  0.00    -0.372 NA 
HETATM   19  H   UNL     1     -12.461  15.130  69.435  1.00  0.00     0.000 HD 
HETATM   20  C   UNL     1     -12.510  13.471  70.769  1.00  0.00    -0.353 A  
HETATM   21  N   UNL     1     -12.137  12.216  70.683  1.00  0.00    -0.331 NA 
ENDBRANCH  14  15
ENDBRANCH  13  14
ENDBRANCH  12  13
ENDBRANCH  11  12
ENDBRANCH   5  11
TORSDOF 5
ENDMDL
MODEL      200
REMARK 921   NORMALIZED FREE ENERGY PREDICTED BY IDOCK:   -3.46 KCAL/MOL
REMARK 922        TOTAL FREE ENERGY PREDICTED BY IDOCK:   -5.44 KCAL/MOL
REMARK 923 INTER-LIGAND FREE ENERGY PREDICTED BY IDOCK:   -4.87 KCAL/MOL
REMARK 924 INTRA-LIGAND FREE ENERGY PREDICTED BY IDOCK:   -0.57 KCAL/MOL
REMARK 927      BINDING AFFINITY PREDICTED BY RF-SCORE:    0.00 PKD
ROOT
HETATM    1  C   UNL     1     -10.783   9.888  66.913  1.00  0.00    -0.125 C  
HETATM    2  N   UNL     1     -11.170  10.348  68.225  1.00  0.00    -0.408 NA 
HETATM    3  C   UNL     1     -11.445  11.647  68.541  1.00  0.00    -0.298 C  
HETATM    4  H   UNL     1     -11.243   9.654  68.968  1.00  0.00     0.000 HD 
HETATM    5  N   UNL     1     -11.754  11.843  69.867  1.00  0.00    -0.414 NA 
HETATM    6  N   UNL     1     -11.405  12.560  67.618  1.00  0.00    -0.285 NA 
HETATM    7  C   UNL     1     -11.687  13.821  67.948  1.00  0.00    -0.360 C  
HETATM    8  H   UNL     1     -11.976  12.798  70.152  1.00  0.00     0.000 HD 
HETATM    9  N   UNL     1     -11.938  14.904  68.277  1.00  0.00    -0.265 NA 
HETATM   10  H   UNL     1     -11.164  12.317  66.658  1.00  0.00     0.000 HD 
ENDROOT
BRANCH   5  11
HETATM   11  C   UNL     1     -11.796  10.826  70.903  1.00  0.00    -0.297 C  
BRANCH  11  12
HETATM   12  C   UNL     1     -13.213  10.425  71.321  1.00  0.00    -0.339 C  
BRANCH  12  13
HETATM   13  S   UNL     1     -13.040   8.984  72.428  1.00  0.00    -0.383 SA 
BRANCH  13  14
HETATM   14  C   UNL     1     -13.121   7.625  71.218  1.00  0.00    -0.233 C  
BRANCH  14  15
HETATM   15  C   UNL     1     -11.753   7.059  71.010  1.00  0.00    -0.333 A  
HETATM   16  C   UNL     1     -11.002   6.247  71.845  1.00  0.00    -0.256 A  
HETATM   17  C   UNL     1     -11.257   5.685  73.189  1.00  0.00    -0.285 C  
HETATM   18  N   UNL     1      -9.849   5.991  71.146  1.00  0.00    -0.176 NA 
HETATM   19  H   UNL     1      -9.069   5.416  71.463  1.00  0.00     0.000 HD 
HETATM   20  C   UNL     1      -9.934   6.641  69.949  1.00  0.00    -0.171 A  
HETATM   21  N   UNL     1     -11.060   7.305  69.842  1.00  0.00    -0.242 NA 
ENDBRANCH  14  15
ENDBRANCH  13  14
ENDBRANCH  12  13
ENDBRANCH  11  12
ENDBRANCH   5  11
TORSDOF 5
ENDMDL
MODEL      201
REMARK 921   NORMALIZED FREE ENERGY PREDICTED BY IDOCK:   -3.45 KCAL/MOL
REMARK 922        TOTAL FREE ENERGY PREDICTED BY IDOCK:   -5.43 KCAL/MOL
REMARK 923 INTER-LIGAND FREE ENERGY PREDICTED BY IDOCK:   -5.14 KCAL/MOL
REMARK 924 INTRA-LIGAND FREE ENERGY PREDICTED BY IDOCK:   -0.29 KCAL/MOL
REMARK 927      BINDING AFFINITY PREDICTED BY RF-SCORE:    0.00 PKD
ROOT
HETATM    1  C   UNL     1     -12.783  13.289  65.058  1.00  0.00    -0.375 C  
HETATM    2  N   UNL     1     -11.509  12.657  65.300  1.00  0.00    -0.318 NA 
HETATM    3  C   UNL     1     -10.376  13.316  65.684  1.00  0.00    -0.287 C  
HETATM    4  H   UNL     1     -11.449  11.647  65.176  1.00  0.00     0.000 HD 
HETATM    5  N   UNL     1      -9.276  12.501  65.814  1.00  0.00    -0.444 NA 
HETATM    6  N   UNL     1     -10.414  14.598  65.894  1.00  0.00    -0.299 NA 
HETATM    7  C   UNL     1      -9.298  15.219  66.277  1.00  0.00    -0.310 C  
HETATM    8  H   UNL     1      -8.405  12.947  66.107  1.00  0.00     0.000 HD 
HETATM    9  N   UNL     1      -8.306  15.721  66.608  1.00  0.00    -0.270 NA 
HETATM   10  H   UNL     1     -11.281  15.119  65.770  1.00  0.00     0.000 HD 
ENDROOT
BRANCH   5  11
HETATM   11  C   UNL     1      -9.229  11.069  65.576  1.00  0.00    -0.213 C  
BRANCH  11  12
HETATM   12  C   UNL     1      -9.165  10.231  66.856  1.00  0.00    -0.150 C  
BRANCH  12  13
HETATM   13  S   UNL     1      -9.174  11.410  68.250  1.00  0.00    -0.187 SA 
BRANCH  13  14
HETATM   14  C   UNL     1     -10.818  11.073  68.957  1.00  0.00    -0.229 C  
BRANCH  14  15
HETATM   15  C   UNL     1     -10.679  10.153  70.127  1.00  0.00    -0.300 A  
HETATM   16  C   UNL     1     -11.639   9.732  71.034  1.00  0.00    -0.376 A  
HETATM   17  C   UNL     1     -13.079  10.036  71.179  1.00  0.00    -0.472 C  
HETATM   18  N   UNL     1     -10.980   8.864  71.868  1.00  0.00    -0.359 NA 
HETATM   19  H   UNL     1     -11.389   8.360  72.655  1.00  0.00     0.000 HD 
HETATM   20  C   UNL     1      -9.681   8.795  71.458  1.00  0.00    -0.291 A  
HETATM   21  N   UNL     1      -9.463   9.570  70.422  1.00  0.00    -0.258 NA 
ENDBRANCH  14  15
ENDBRANCH  13  14
ENDBRANCH  12  13
ENDBRANCH  11  12
ENDBRANCH   5  11
TORSDOF 5
ENDMDL
MODEL      202
REMARK 921   NORMALIZED FREE ENERGY PREDICTED BY IDOCK:   -3.45 KCAL/MOL
REMARK 922        TOTAL FREE ENERGY PREDICTED BY IDOCK:   -5.42 KCAL/MOL
REMARK 923 INTER-LIGAND FREE ENERGY PREDICTED BY IDOCK:   -5.36 KCAL/MOL
REMARK 924 INTRA-LIGAND FREE ENERGY PREDICTED BY IDOCK:   -0.06 KCAL/MOL
REMARK 927      BINDING AFFINITY PREDICTED BY RF-SCORE:    0.00 PKD
ROOT
HETATM    1  C   UNL     1     -10.642   5.337  67.276  1.00  0.00    -0.127 C  
HETATM    2  N   UNL     1     -10.675   6.584  68.001  1.00  0.00    -0.253 NA 
HETATM    3  C   UNL     1     -10.411   7.807  67.454  1.00  0.00    -0.292 C  
HETATM    4  H   UNL     1     -10.912   6.549  68.992  1.00  0.00     0.000 HD 
HETATM    5  N   UNL     1     -10.468   8.843  68.357  1.00  0.00    -0.285 NA 
HETATM    6  N   UNL     1     -10.145   7.904  66.187  1.00  0.00    -0.432 NA 
HETATM    7  C   UNL     1      -9.900   9.110  65.673  1.00  0.00    -0.094 C  
HETATM    8  H   UNL     1     -10.286   9.780  67.995  1.00  0.00     0.000 HD 
HETATM    9  N   UNL     1      -9.692  10.176  65.266  1.00  0.00    -0.279 NA 
HETATM   10  H   UNL     1     -10.125   7.074  65.595  1.00  0.00     0.000 HD 
ENDROOT
BRANCH   5  11
HETATM   11  C   UNL     1     -10.762   8.737  69.776  1.00  0.00    -0.218 C  
BRANCH  11  12
HETATM   12  C   UNL     1     -11.051  10.080  70.450  1.00  0.00    -0.327 C  
BRANCH  12  13
HETATM   13  S   UNL     1     -12.157  10.999  69.324  1.00  0.00    -0.193 SA 
BRANCH  13  14
HETATM   14  C   UNL     1     -10.932  11.832  68.265  1.00  0.00    -0.229 C  
BRANCH  14  15
HETATM   15  C   UNL     1     -11.634  12.744  67.312  1.00  0.00    -0.360 A  
HETATM   16  C   UNL     1     -11.891  14.101  67.421  1.00  0.00    -0.413 A  
HETATM   17  C   UNL     1     -11.594  15.094  68.477  1.00  0.00    -0.354 C  
HETATM   18  N   UNL     1     -12.521  14.438  66.250  1.00  0.00    -0.433 NA 
HETATM   19  H   UNL     1     -12.850  15.367  65.989  1.00  0.00     0.000 HD 
HETATM   20  C   UNL     1     -12.630  13.307  65.495  1.00  0.00    -0.446 A  
HETATM   21  N   UNL     1     -12.119  12.267  66.111  1.00  0.00    -0.627 NA 
ENDBRANCH  14  15
ENDBRANCH  13  14
ENDBRANCH  12  13
ENDBRANCH  11  12
ENDBRANCH   5  11
TORSDOF 5
ENDMDL
MODEL      203
REMARK 921   NORMALIZED FREE ENERGY PREDICTED BY IDOCK:   -3.45 KCAL/MOL
REMARK 922        TOTAL FREE ENERGY PREDICTED BY IDOCK:   -5.42 KCAL/MOL
REMARK 923 INTER-LIGAND FREE ENERGY PREDICTED BY IDOCK:   -4.99 KCAL/MOL
REMARK 924 INTRA-LIGAND FREE ENERGY PREDICTED BY IDOCK:   -0.43 KCAL/MOL
REMARK 927      BINDING AFFINITY PREDICTED BY RF-SCORE:    0.00 PKD
ROOT
HETATM    1  C   UNL     1     -11.682  11.919  68.197  1.00  0.00    -0.320 C  
HETATM    2  N   UNL     1     -10.953  10.974  69.008  1.00  0.00    -0.216 NA 
HETATM    3  C   UNL     1     -11.459  10.341  70.106  1.00  0.00    -0.309 C  
HETATM    4  H   UNL     1      -9.991  10.764  68.742  1.00  0.00     0.000 HD 
HETATM    5  N   UNL     1     -10.558   9.514  70.736  1.00  0.00    -0.295 NA 
HETATM    6  N   UNL     1     -12.692  10.545  70.459  1.00  0.00    -0.420 NA 
HETATM    7  C   UNL     1     -13.168   9.909  71.529  1.00  0.00    -0.408 C  
HETATM    8  H   UNL     1     -10.892   9.011  71.559  1.00  0.00     0.000 HD 
HETATM    9  N   UNL     1     -13.543   9.337  72.466  1.00  0.00    -0.460 NA 
HETATM   10  H   UNL     1     -13.286  11.181  69.927  1.00  0.00     0.000 HD 
ENDROOT
BRANCH   5  11
HETATM   11  C   UNL     1      -9.177   9.286  70.346  1.00  0.00    -0.247 C  
BRANCH  11  12
HETATM   12  C   UNL     1      -8.894   7.856  69.878  1.00  0.00    -0.141 C  
BRANCH  12  13
HETATM   13  S   UNL     1      -9.584   7.717  68.192  1.00  0.00    -0.152 SA 
BRANCH  13  14
HETATM   14  C   UNL     1     -10.699   6.293  68.409  1.00  0.00    -0.290 C  
BRANCH  14  15
HETATM   15  C   UNL     1     -10.890   6.027  69.868  1.00  0.00    -0.363 A  
HETATM   16  C   UNL     1     -10.235   5.124  70.691  1.00  0.00    -0.256 A  
HETATM   17  C   UNL     1      -9.170   4.130  70.437  1.00  0.00    -0.196 C  
HETATM   18  N   UNL     1     -10.771   5.329  71.937  1.00  0.00    -0.214 NA 
HETATM   19  H   UNL     1     -10.514   4.834  72.791  1.00  0.00     0.000 HD 
HETATM   20  C   UNL     1     -11.710   6.313  71.831  1.00  0.00    -0.316 A  
HETATM   21  N   UNL     1     -11.817   6.744  70.597  1.00  0.00    -0.389 NA 
ENDBRANCH  14  15
ENDBRANCH  13  14
ENDBRANCH  12  13
ENDBRANCH  11  12
ENDBRANCH   5  11
TORSDOF 5
ENDMDL
MODEL      204
REMARK 921   NORMALIZED FREE ENERGY PREDICTED BY IDOCK:   -3.44 KCAL/MOL
REMARK 922        TOTAL FREE ENERGY PREDICTED BY IDOCK:   -5.42 KCAL/MOL
REMARK 923 INTER-LIGAND FREE ENERGY PREDICTED BY IDOCK:   -5.06 KCAL/MOL
REMARK 924 INTRA-LIGAND FREE ENERGY PREDICTED BY IDOCK:   -0.36 KCAL/MOL
REMARK 927      BINDING AFFINITY PREDICTED BY RF-SCORE:    0.00 PKD
ROOT
HETATM    1  C   UNL     1     -11.862  15.494  63.854  1.00  0.00     0.230 C  
HETATM    2  N   UNL     1     -10.909  15.162  64.885  1.00  0.00    -0.510 NA 
HETATM    3  C   UNL     1     -10.280  16.074  65.682  1.00  0.00    -0.386 C  
HETATM    4  H   UNL     1     -10.690  14.176  65.029  1.00  0.00     0.000 HD 
HETATM    5  N   UNL     1      -9.386  15.517  66.567  1.00  0.00    -0.259 NA 
HETATM    6  N   UNL     1     -10.559  17.338  65.564  1.00  0.00    -0.589 NA 
HETATM    7  C   UNL     1      -9.939  18.209  66.359  1.00  0.00    -0.376 C  
HETATM    8  H   UNL     1      -8.896  16.158  67.191  1.00  0.00     0.000 HD 
HETATM    9  N   UNL     1      -9.378  18.935  67.070  1.00  0.00    -0.295 NA 
HETATM   10  H   UNL     1     -11.239  17.657  64.875  1.00  0.00     0.000 HD 
ENDROOT
BRANCH   5  11
HETATM   11  C   UNL     1      -9.070  14.105  66.700  1.00  0.00    -0.216 C  
BRANCH  11  12
HETATM   12  C   UNL     1      -9.437  13.514  68.063  1.00  0.00    -0.220 C  
BRANCH  12  13
HETATM   13  S   UNL     1     -11.098  12.779  67.880  1.00  0.00    -0.262 SA 
BRANCH  13  14
HETATM   14  C   UNL     1     -10.988  12.135  66.180  1.00  0.00    -0.298 C  
BRANCH  14  15
HETATM   15  C   UNL     1     -10.500  10.722  66.212  1.00  0.00    -0.226 A  
HETATM   16  C   UNL     1      -9.872   9.985  65.220  1.00  0.00    -0.318 A  
HETATM   17  C   UNL     1      -9.486  10.306  63.829  1.00  0.00    -0.352 C  
HETATM   18  N   UNL     1      -9.606   8.770  65.798  1.00  0.00    -0.445 NA 
HETATM   19  H   UNL     1      -9.141   7.980  65.350  1.00  0.00     0.000 HD 
HETATM   20  C   UNL     1     -10.074   8.805  67.079  1.00  0.00    -0.265 A  
HETATM   21  N   UNL     1     -10.631   9.960  67.355  1.00  0.00    -0.271 NA 
ENDBRANCH  14  15
ENDBRANCH  13  14
ENDBRANCH  12  13
ENDBRANCH  11  12
ENDBRANCH   5  11
TORSDOF 5
ENDMDL
MODEL      205
REMARK 921   NORMALIZED FREE ENERGY PREDICTED BY IDOCK:   -3.44 KCAL/MOL
REMARK 922        TOTAL FREE ENERGY PREDICTED BY IDOCK:   -5.41 KCAL/MOL
REMARK 923 INTER-LIGAND FREE ENERGY PREDICTED BY IDOCK:   -5.10 KCAL/MOL
REMARK 924 INTRA-LIGAND FREE ENERGY PREDICTED BY IDOCK:   -0.32 KCAL/MOL
REMARK 927      BINDING AFFINITY PREDICTED BY RF-SCORE:    0.00 PKD
ROOT
HETATM    1  C   UNL     1     -12.247  12.725  70.347  1.00  0.00    -0.293 C  
HETATM    2  N   UNL     1     -11.695  13.288  69.139  1.00  0.00    -0.310 NA 
HETATM    3  C   UNL     1     -10.563  12.841  68.521  1.00  0.00    -0.252 C  
HETATM    4  H   UNL     1     -12.186  14.076  68.717  1.00  0.00     0.000 HD 
HETATM    5  N   UNL     1     -10.217  13.565  67.404  1.00  0.00    -0.236 NA 
HETATM    6  N   UNL     1      -9.928  11.813  68.999  1.00  0.00    -0.419 NA 
HETATM    7  C   UNL     1      -8.830  11.388  68.374  1.00  0.00    -0.167 C  
HETATM    8  H   UNL     1      -9.381  13.264  66.902  1.00  0.00     0.000 HD 
HETATM    9  N   UNL     1      -7.880  11.051  67.801  1.00  0.00    -0.108 NA 
HETATM   10  H   UNL     1     -10.264  11.340  69.838  1.00  0.00     0.000 HD 
ENDROOT
BRANCH   5  11
HETATM   11  C   UNL     1     -10.922  14.716  66.869  1.00  0.00    -0.324 C  
BRANCH  11  12
HETATM   12  C   UNL     1     -10.042  15.957  66.696  1.00  0.00    -0.279 C  
BRANCH  12  13
HETATM   13  S   UNL     1     -10.370  17.029  68.137  1.00  0.00    -0.365 SA 
BRANCH  13  14
HETATM   14  C   UNL     1      -8.697  17.677  68.454  1.00  0.00    -0.284 C  
BRANCH  14  15
HETATM   15  C   UNL     1      -8.262  18.519  67.299  1.00  0.00    -0.249 A  
HETATM   16  C   UNL     1      -8.788  19.713  66.832  1.00  0.00    -0.331 A  
HETATM   17  C   UNL     1      -9.928  20.544  67.276  1.00  0.00    -0.528 C  
HETATM   18  N   UNL     1      -7.981  20.069  65.782  1.00  0.00    -0.475 NA 
HETATM   19  H   UNL     1      -8.077  20.906  65.206  1.00  0.00     0.000 HD 
HETATM   20  C   UNL     1      -7.025  19.105  65.643  1.00  0.00    -0.260 A  
HETATM   21  N   UNL     1      -7.175  18.151  66.531  1.00  0.00    -0.217 NA 
ENDBRANCH  14  15
ENDBRANCH  13  14
ENDBRANCH  12  13
ENDBRANCH  11  12
ENDBRANCH   5  11
TORSDOF 5
ENDMDL
MODEL      206
REMARK 921   NORMALIZED FREE ENERGY PREDICTED BY IDOCK:   -3.44 KCAL/MOL
REMARK 922        TOTAL FREE ENERGY PREDICTED BY IDOCK:   -5.41 KCAL/MOL
REMARK 923 INTER-LIGAND FREE ENERGY PREDICTED BY IDOCK:   -5.09 KCAL/MOL
REMARK 924 INTRA-LIGAND FREE ENERGY PREDICTED BY IDOCK:   -0.32 KCAL/MOL
REMARK 927      BINDING AFFINITY PREDICTED BY RF-SCORE:    0.00 PKD
ROOT
HETATM    1  C   UNL     1     -12.855   7.327  71.614  1.00  0.00    -0.375 C  
HETATM    2  N   UNL     1     -11.928   7.819  70.624  1.00  0.00    -0.485 NA 
HETATM    3  C   UNL     1     -10.987   7.055  69.995  1.00  0.00    -0.270 C  
HETATM    4  H   UNL     1     -11.979   8.807  70.375  1.00  0.00     0.000 HD 
HETATM    5  N   UNL     1     -10.195   7.759  69.118  1.00  0.00    -0.204 NA 
HETATM    6  N   UNL     1     -10.913   5.783  70.248  1.00  0.00    -0.304 NA 
HETATM    7  C   UNL     1      -9.992   5.055  69.615  1.00  0.00    -0.241 C  
HETATM    8  H   UNL     1      -9.481   7.229  68.616  1.00  0.00     0.000 HD 
HETATM    9  N   UNL     1      -9.178   4.458  69.044  1.00  0.00    -0.127 NA 
HETATM   10  H   UNL     1     -11.547   5.349  70.918  1.00  0.00     0.000 HD 
ENDROOT
BRANCH   5  11
HETATM   11  C   UNL     1     -10.274   9.181  68.835  1.00  0.00    -0.207 C  
BRANCH  11  12
HETATM   12  C   UNL     1      -8.952   9.927  69.038  1.00  0.00    -0.160 C  
BRANCH  12  13
HETATM   13  S   UNL     1      -9.071  11.467  68.065  1.00  0.00    -0.180 SA 
BRANCH  13  14
HETATM   14  C   UNL     1     -10.675  11.214  67.241  1.00  0.00    -0.258 C  
BRANCH  14  15
HETATM   15  C   UNL     1     -11.400  12.518  67.150  1.00  0.00    -0.324 A  
HETATM   16  C   UNL     1     -11.939  13.298  68.160  1.00  0.00    -0.304 A  
HETATM   17  C   UNL     1     -12.005  13.128  69.628  1.00  0.00    -0.370 C  
HETATM   18  N   UNL     1     -12.446  14.403  67.523  1.00  0.00    -0.529 NA 
HETATM   19  H   UNL     1     -12.914  15.192  67.968  1.00  0.00     0.000 HD 
HETATM   20  C   UNL     1     -12.213  14.257  66.187  1.00  0.00    -0.410 A  
HETATM   21  N   UNL     1     -11.599  13.127  65.927  1.00  0.00    -0.338 NA 
ENDBRANCH  14  15
ENDBRANCH  13  14
ENDBRANCH  12  13
ENDBRANCH  11  12
ENDBRANCH   5  11
TORSDOF 5
ENDMDL
MODEL      207
REMARK 921   NORMALIZED FREE ENERGY PREDICTED BY IDOCK:   -3.43 KCAL/MOL
REMARK 922        TOTAL FREE ENERGY PREDICTED BY IDOCK:   -5.39 KCAL/MOL
REMARK 923 INTER-LIGAND FREE ENERGY PREDICTED BY IDOCK:   -5.17 KCAL/MOL
REMARK 924 INTRA-LIGAND FREE ENERGY PREDICTED BY IDOCK:   -0.23 KCAL/MOL
REMARK 927      BINDING AFFINITY PREDICTED BY RF-SCORE:    0.00 PKD
ROOT
HETATM    1  C   UNL     1     -12.102  14.026  70.036  1.00  0.00    -0.348 C  
HETATM    2  N   UNL     1     -11.123  13.521  69.105  1.00  0.00    -0.345 NA 
HETATM    3  C   UNL     1     -11.261  13.542  67.746  1.00  0.00    -0.282 C  
HETATM    4  H   UNL     1     -10.268  13.118  69.487  1.00  0.00     0.000 HD 
HETATM    5  N   UNL     1     -10.209  12.966  67.072  1.00  0.00    -0.241 NA 
HETATM    6  N   UNL     1     -12.314  14.083  67.212  1.00  0.00    -0.540 NA 
HETATM    7  C   UNL     1     -12.423  14.101  65.883  1.00  0.00    -0.453 C  
HETATM    8  H   UNL     1     -10.262  12.965  66.053  1.00  0.00     0.000 HD 
HETATM    9  N   UNL     1     -12.479  14.096  64.725  1.00  0.00    -0.612 NA 
HETATM   10  H   UNL     1     -13.045  14.486  67.798  1.00  0.00     0.000 HD 
ENDROOT
BRANCH   5  11
HETATM   11  C   UNL     1      -9.032  12.358  67.666  1.00  0.00    -0.183 C  
BRANCH  11  12
HETATM   12  C   UNL     1      -8.195  11.537  66.682  1.00  0.00    -0.156 C  
BRANCH  12  13
HETATM   13  S   UNL     1      -8.516   9.781  67.067  1.00  0.00    -0.117 SA 
BRANCH  13  14
HETATM   14  C   UNL     1      -9.480   9.293  65.601  1.00  0.00    -0.256 C  
BRANCH  14  15
HETATM   15  C   UNL     1      -8.904   9.945  64.385  1.00  0.00    -0.217 A  
HETATM   16  C   UNL     1      -9.488  10.850  63.512  1.00  0.00    -0.294 A  
HETATM   17  C   UNL     1     -10.834  11.460  63.457  1.00  0.00    -0.430 C  
HETATM   18  N   UNL     1      -8.503  11.153  62.606  1.00  0.00    -0.463 NA 
HETATM   19  H   UNL     1      -8.587  11.797  61.820  1.00  0.00     0.000 HD 
HETATM   20  C   UNL     1      -7.391  10.438  62.944  1.00  0.00    -0.107 A  
HETATM   21  N   UNL     1      -7.604   9.690  64.001  1.00  0.00    -0.122 NA 
ENDBRANCH  14  15
ENDBRANCH  13  14
ENDBRANCH  12  13
ENDBRANCH  11  12
ENDBRANCH   5  11
TORSDOF 5
ENDMDL
MODEL      208
REMARK 921   NORMALIZED FREE ENERGY PREDICTED BY IDOCK:   -3.41 KCAL/MOL
REMARK 922        TOTAL FREE ENERGY PREDICTED BY IDOCK:   -5.37 KCAL/MOL
REMARK 923 INTER-LIGAND FREE ENERGY PREDICTED BY IDOCK:   -4.58 KCAL/MOL
REMARK 924 INTRA-LIGAND FREE ENERGY PREDICTED BY IDOCK:   -0.80 KCAL/MOL
REMARK 927      BINDING AFFINITY PREDICTED BY RF-SCORE:    0.00 PKD
ROOT
HETATM    1  C   UNL     1      -7.201  10.609  68.543  1.00  0.00    -0.086 C  
HETATM    2  N   UNL     1      -7.643  11.867  67.991  1.00  0.00    -0.113 NA 
HETATM    3  C   UNL     1      -8.555  11.993  66.983  1.00  0.00    -0.185 C  
HETATM    4  H   UNL     1      -7.245  12.721  68.380  1.00  0.00     0.000 HD 
HETATM    5  N   UNL     1      -8.785  13.295  66.602  1.00  0.00    -0.435 NA 
HETATM    6  N   UNL     1      -9.120  10.935  66.485  1.00  0.00    -0.165 NA 
HETATM    7  C   UNL     1     -10.015  11.084  65.509  1.00  0.00    -0.256 C  
HETATM    8  H   UNL     1      -9.467  13.443  65.857  1.00  0.00     0.000 HD 
HETATM    9  N   UNL     1     -10.788  11.256  64.661  1.00  0.00    -0.299 NA 
HETATM   10  H   UNL     1      -8.883  10.007  66.835  1.00  0.00     0.000 HD 
ENDROOT
BRANCH   5  11
HETATM   11  C   UNL     1      -8.154  14.481  67.155  1.00  0.00    -0.168 C  
BRANCH  11  12
HETATM   12  C   UNL     1      -8.797  15.794  66.701  1.00  0.00    -0.288 C  
BRANCH  12  13
HETATM   13  S   UNL     1      -9.283  16.685  68.219  1.00  0.00    -0.224 SA 
BRANCH  13  14
HETATM   14  C   UNL     1     -11.083  16.407  68.202  1.00  0.00    -0.320 C  
BRANCH  14  15
HETATM   15  C   UNL     1     -11.362  14.941  68.284  1.00  0.00    -0.310 A  
HETATM   16  C   UNL     1     -11.901  14.094  67.329  1.00  0.00    -0.419 A  
HETATM   17  C   UNL     1     -12.388  14.321  65.951  1.00  0.00    -0.420 C  
HETATM   18  N   UNL     1     -11.894  12.853  67.913  1.00  0.00    -0.353 NA 
HETATM   19  H   UNL     1     -12.220  11.985  67.486  1.00  0.00     0.000 HD 
HETATM   20  C   UNL     1     -11.376  12.984  69.168  1.00  0.00    -0.273 A  
HETATM   21  N   UNL     1     -11.059  14.231  69.428  1.00  0.00    -0.260 NA 
ENDBRANCH  14  15
ENDBRANCH  13  14
ENDBRANCH  12  13
ENDBRANCH  11  12
ENDBRANCH   5  11
TORSDOF 5
ENDMDL
MODEL      209
REMARK 921   NORMALIZED FREE ENERGY PREDICTED BY IDOCK:   -3.41 KCAL/MOL
REMARK 922        TOTAL FREE ENERGY PREDICTED BY IDOCK:   -5.37 KCAL/MOL
REMARK 923 INTER-LIGAND FREE ENERGY PREDICTED BY IDOCK:   -4.61 KCAL/MOL
REMARK 924 INTRA-LIGAND FREE ENERGY PREDICTED BY IDOCK:   -0.75 KCAL/MOL
REMARK 927      BINDING AFFINITY PREDICTED BY RF-SCORE:    0.00 PKD
ROOT
HETATM    1  C   UNL     1      -9.822  11.126  63.109  1.00  0.00    -0.372 C  
HETATM    2  N   UNL     1      -9.420  10.638  64.406  1.00  0.00    -0.244 NA 
HETATM    3  C   UNL     1      -8.838   9.423  64.631  1.00  0.00    -0.200 C  
HETATM    4  H   UNL     1      -9.581  11.242  65.211  1.00  0.00     0.000 HD 
HETATM    5  N   UNL     1      -8.581   9.167  65.958  1.00  0.00    -0.140 NA 
HETATM    6  N   UNL     1      -8.575   8.637  63.631  1.00  0.00    -0.417 NA 
HETATM    7  C   UNL     1      -7.999   7.459  63.874  1.00  0.00    -0.082 C  
HETATM    8  H   UNL     1      -8.138   8.274  66.177  1.00  0.00     0.000 HD 
HETATM    9  N   UNL     1      -7.498   6.444  64.128  1.00  0.00    -0.077 NA 
HETATM   10  H   UNL     1      -8.805   8.915  62.677  1.00  0.00     0.000 HD 
ENDROOT
BRANCH   5  11
HETATM   11  C   UNL     1      -8.876  10.043  67.078  1.00  0.00    -0.138 C  
BRANCH  11  12
HETATM   12  C   UNL     1      -9.876   9.454  68.077  1.00  0.00    -0.164 C  
BRANCH  12  13
HETATM   13  S   UNL     1     -11.218  10.679  68.252  1.00  0.00    -0.290 SA 
BRANCH  13  14
HETATM   14  C   UNL     1     -10.361  12.188  67.697  1.00  0.00    -0.203 C  
BRANCH  14  15
HETATM   15  C   UNL     1     -11.222  12.920  66.719  1.00  0.00    -0.298 A  
HETATM   16  C   UNL     1     -11.501  14.275  66.634  1.00  0.00    -0.364 A  
HETATM   17  C   UNL     1     -11.081  15.435  67.450  1.00  0.00    -0.311 C  
HETATM   18  N   UNL     1     -12.305  14.402  65.529  1.00  0.00    -0.376 NA 
HETATM   19  H   UNL     1     -12.696  15.272  65.167  1.00  0.00     0.000 HD 
HETATM   20  C   UNL     1     -12.489  13.158  65.002  1.00  0.00    -0.460 A  
HETATM   21  N   UNL     1     -11.863  12.241  65.702  1.00  0.00    -0.478 NA 
ENDBRANCH  14  15
ENDBRANCH  13  14
ENDBRANCH  12  13
ENDBRANCH  11  12
ENDBRANCH   5  11
TORSDOF 5
ENDMDL
MODEL      210
REMARK 921   NORMALIZED FREE ENERGY PREDICTED BY IDOCK:   -3.41 KCAL/MOL
REMARK 922        TOTAL FREE ENERGY PREDICTED BY IDOCK:   -5.36 KCAL/MOL
REMARK 923 INTER-LIGAND FREE ENERGY PREDICTED BY IDOCK:   -5.04 KCAL/MOL
REMARK 924 INTRA-LIGAND FREE ENERGY PREDICTED BY IDOCK:   -0.33 KCAL/MOL
REMARK 927      BINDING AFFINITY PREDICTED BY RF-SCORE:    0.00 PKD
ROOT
HETATM    1  C   UNL     1     -11.581  10.641  70.215  1.00  0.00    -0.336 C  
HETATM    2  N   UNL     1     -10.963  11.729  69.497  1.00  0.00    -0.454 NA 
HETATM    3  C   UNL     1     -10.502  11.649  68.214  1.00  0.00    -0.204 C  
HETATM    4  H   UNL     1     -10.863  12.620  69.981  1.00  0.00     0.000 HD 
HETATM    5  N   UNL     1      -9.918  12.809  67.761  1.00  0.00    -0.213 NA 
HETATM    6  N   UNL     1     -10.644  10.546  67.543  1.00  0.00    -0.239 NA 
HETATM    7  C   UNL     1     -10.195  10.495  66.289  1.00  0.00    -0.235 C  
HETATM    8  H   UNL     1      -9.564  12.802  66.803  1.00  0.00     0.000 HD 
HETATM    9  N   UNL     1      -9.790  10.491  65.202  1.00  0.00    -0.273 NA 
HETATM   10  H   UNL     1     -11.092   9.735  67.967  1.00  0.00     0.000 HD 
ENDROOT
BRANCH   5  11
HETATM   11  C   UNL     1      -9.753  14.043  68.509  1.00  0.00    -0.215 C  
BRANCH  11  12
HETATM   12  C   UNL     1      -8.296  14.489  68.656  1.00  0.00    -0.164 C  
BRANCH  12  13
HETATM   13  S   UNL     1      -8.285  16.302  68.442  1.00  0.00    -0.194 SA 
BRANCH  13  14
HETATM   14  C   UNL     1     -10.073  16.632  68.332  1.00  0.00    -0.268 C  
BRANCH  14  15
HETATM   15  C   UNL     1     -10.303  17.872  67.529  1.00  0.00    -0.377 A  
HETATM   16  C   UNL     1     -10.311  19.196  67.938  1.00  0.00    -0.414 A  
HETATM   17  C   UNL     1     -10.119  19.836  69.258  1.00  0.00    -0.302 C  
HETATM   18  N   UNL     1     -10.526  19.919  66.793  1.00  0.00    -0.463 NA 
HETATM   19  H   UNL     1     -10.586  20.935  66.725  1.00  0.00     0.000 HD 
HETATM   20  C   UNL     1     -10.646  19.037  65.759  1.00  0.00    -0.318 A  
HETATM   21  N   UNL     1     -10.532  17.797  66.170  1.00  0.00    -0.364 NA 
ENDBRANCH  14  15
ENDBRANCH  13  14
ENDBRANCH  12  13
ENDBRANCH  11  12
ENDBRANCH   5  11
TORSDOF 5
ENDMDL
MODEL      211
REMARK 921   NORMALIZED FREE ENERGY PREDICTED BY IDOCK:   -3.40 KCAL/MOL
REMARK 922        TOTAL FREE ENERGY PREDICTED BY IDOCK:   -5.36 KCAL/MOL
REMARK 923 INTER-LIGAND FREE ENERGY PREDICTED BY IDOCK:   -4.97 KCAL/MOL
REMARK 924 INTRA-LIGAND FREE ENERGY PREDICTED BY IDOCK:   -0.40 KCAL/MOL
REMARK 927      BINDING AFFINITY PREDICTED BY RF-SCORE:    0.00 PKD
ROOT
HETATM    1  C   UNL     1      -7.862   8.131  67.286  1.00  0.00    -0.105 C  
HETATM    2  N   UNL     1      -8.216   9.443  67.770  1.00  0.00    -0.114 NA 
HETATM    3  C   UNL     1      -9.112   9.684  68.771  1.00  0.00    -0.134 C  
HETATM    4  H   UNL     1      -7.766  10.247  67.332  1.00  0.00     0.000 HD 
HETATM    5  N   UNL     1      -9.312  11.021  69.027  1.00  0.00    -0.360 NA 
HETATM    6  N   UNL     1      -9.679   8.690  69.386  1.00  0.00    -0.174 NA 
HETATM    7  C   UNL     1     -10.544   8.950  70.367  1.00  0.00    -0.217 C  
HETATM    8  H   UNL     1      -9.968  11.254  69.774  1.00  0.00     0.000 HD 
HETATM    9  N   UNL     1     -11.289   9.219  71.214  1.00  0.00    -0.322 NA 
HETATM   10  H   UNL     1      -9.467   7.729  69.123  1.00  0.00     0.000 HD 
ENDROOT
BRANCH   5  11
HETATM   11  C   UNL     1      -8.682  12.135  68.340  1.00  0.00    -0.141 C  
BRANCH  11  12
HETATM   12  C   UNL     1      -9.526  13.413  68.330  1.00  0.00    -0.209 C  
BRANCH  12  13
HETATM   13  S   UNL     1     -10.004  13.705  66.592  1.00  0.00    -0.289 SA 
BRANCH  13  14
HETATM   14  C   UNL     1     -11.584  12.801  66.528  1.00  0.00    -0.376 C  
BRANCH  14  15
HETATM   15  C   UNL     1     -11.786  12.245  65.155  1.00  0.00    -0.361 A  
HETATM   16  C   UNL     1     -11.056  11.279  64.481  1.00  0.00    -0.175 A  
HETATM   17  C   UNL     1      -9.857  10.493  64.849  1.00  0.00    -0.379 C  
HETATM   18  N   UNL     1     -11.701  11.121  63.281  1.00  0.00    -0.556 NA 
HETATM   19  H   UNL     1     -11.434  10.479  62.535  1.00  0.00     0.000 HD 
HETATM   20  C   UNL     1     -12.764  11.975  63.263  1.00  0.00    -0.303 A  
HETATM   21  N   UNL     1     -12.835  12.677  64.370  1.00  0.00    -0.752 NA 
ENDBRANCH  14  15
ENDBRANCH  13  14
ENDBRANCH  12  13
ENDBRANCH  11  12
ENDBRANCH   5  11
TORSDOF 5
ENDMDL
MODEL      212
REMARK 921   NORMALIZED FREE ENERGY PREDICTED BY IDOCK:   -3.39 KCAL/MOL
REMARK 922        TOTAL FREE ENERGY PREDICTED BY IDOCK:   -5.35 KCAL/MOL
REMARK 923 INTER-LIGAND FREE ENERGY PREDICTED BY IDOCK:   -4.75 KCAL/MOL
REMARK 924 INTRA-LIGAND FREE ENERGY PREDICTED BY IDOCK:   -0.59 KCAL/MOL
REMARK 927      BINDING AFFINITY PREDICTED BY RF-SCORE:    0.00 PKD
ROOT
HETATM    1  C   UNL     1      -6.615  11.108  68.920  1.00  0.00    -0.065 C  
HETATM    2  N   UNL     1      -7.914  10.899  68.330  1.00  0.00    -0.120 NA 
HETATM    3  C   UNL     1      -8.979  10.341  68.977  1.00  0.00    -0.172 C  
HETATM    4  H   UNL     1      -8.047  11.188  67.361  1.00  0.00     0.000 HD 
HETATM    5  N   UNL     1     -10.101  10.212  68.192  1.00  0.00    -0.148 NA 
HETATM    6  N   UNL     1      -8.870   9.996  70.225  1.00  0.00    -0.329 NA 
HETATM    7  C   UNL     1      -9.925   9.462  70.838  1.00  0.00    -0.283 C  
HETATM    8  H   UNL     1     -10.928   9.807  68.633  1.00  0.00     0.000 HD 
HETATM    9  N   UNL     1     -10.867   9.001  71.335  1.00  0.00    -0.301 NA 
HETATM   10  H   UNL     1      -7.992  10.131  70.725  1.00  0.00     0.000 HD 
ENDROOT
BRANCH   5  11
HETATM   11  C   UNL     1     -10.226  10.594  66.796  1.00  0.00    -0.233 C  
BRANCH  11  12
HETATM   12  C   UNL     1     -11.294  11.660  66.539  1.00  0.00    -0.263 C  
BRANCH  12  13
HETATM   13  S   UNL     1     -10.510  13.273  66.884  1.00  0.00    -0.262 SA 
BRANCH  13  14
HETATM   14  C   UNL     1     -11.964  14.243  67.397  1.00  0.00    -0.391 C  
BRANCH  14  15
HETATM   15  C   UNL     1     -11.771  14.730  68.797  1.00  0.00    -0.323 A  
HETATM   16  C   UNL     1     -11.801  14.021  69.987  1.00  0.00    -0.320 A  
HETATM   17  C   UNL     1     -12.039  12.594  70.295  1.00  0.00    -0.372 C  
HETATM   18  N   UNL     1     -11.519  14.948  70.958  1.00  0.00    -0.447 NA 
HETATM   19  H   UNL     1     -11.454  14.768  71.960  1.00  0.00     0.000 HD 
HETATM   20  C   UNL     1     -11.340  16.154  70.346  1.00  0.00    -0.363 A  
HETATM   21  N   UNL     1     -11.500  16.060  69.047  1.00  0.00    -0.364 NA 
ENDBRANCH  14  15
ENDBRANCH  13  14
ENDBRANCH  12  13
ENDBRANCH  11  12
ENDBRANCH   5  11
TORSDOF 5
ENDMDL
MODEL      213
REMARK 921   NORMALIZED FREE ENERGY PREDICTED BY IDOCK:   -3.39 KCAL/MOL
REMARK 922        TOTAL FREE ENERGY PREDICTED BY IDOCK:   -5.34 KCAL/MOL
REMARK 923 INTER-LIGAND FREE ENERGY PREDICTED BY IDOCK:   -5.05 KCAL/MOL
REMARK 924 INTRA-LIGAND FREE ENERGY PREDICTED BY IDOCK:   -0.29 KCAL/MOL
REMARK 927      BINDING AFFINITY PREDICTED BY RF-SCORE:    0.00 PKD
ROOT
HETATM    1  C   UNL     1     -12.308  11.557  70.802  1.00  0.00    -0.375 C  
HETATM    2  N   UNL     1     -11.486  12.198  69.805  1.00  0.00    -0.483 NA 
HETATM    3  C   UNL     1     -11.000  11.583  68.687  1.00  0.00    -0.223 C  
HETATM    4  H   UNL     1     -11.250  13.180  69.945  1.00  0.00     0.000 HD 
HETATM    5  N   UNL     1     -10.208  12.393  67.906  1.00  0.00    -0.207 NA 
HETATM    6  N   UNL     1     -11.308  10.344  68.445  1.00  0.00    -0.462 NA 
HETATM    7  C   UNL     1     -10.830   9.767  67.343  1.00  0.00    -0.197 C  
HETATM    8  H   UNL     1      -9.828  11.980  67.053  1.00  0.00     0.000 HD 
HETATM    9  N   UNL     1     -10.394   9.302  66.373  1.00  0.00    -0.219 NA 
HETATM   10  H   UNL     1     -11.904   9.823  69.087  1.00  0.00     0.000 HD 
ENDROOT
BRANCH   5  11
HETATM   11  C   UNL     1      -9.860  13.777  68.175  1.00  0.00    -0.239 C  
BRANCH  11  12
HETATM   12  C   UNL     1      -9.537  14.589  66.918  1.00  0.00    -0.250 C  
BRANCH  12  13
HETATM   13  S   UNL     1      -7.948  15.431  67.237  1.00  0.00    -0.218 SA 
BRANCH  13  14
HETATM   14  C   UNL     1      -8.370  16.373  68.738  1.00  0.00    -0.242 C  
BRANCH  14  15
HETATM   15  C   UNL     1      -8.293  17.837  68.447  1.00  0.00    -0.295 A  
HETATM   16  C   UNL     1      -9.232  18.668  67.858  1.00  0.00    -0.294 A  
HETATM   17  C   UNL     1     -10.586  18.420  67.314  1.00  0.00    -0.435 C  
HETATM   18  N   UNL     1      -8.663  19.916  67.877  1.00  0.00    -0.308 NA 
HETATM   19  H   UNL     1      -9.085  20.774  67.524  1.00  0.00     0.000 HD 
HETATM   20  C   UNL     1      -7.430  19.803  68.451  1.00  0.00    -0.314 A  
HETATM   21  N   UNL     1      -7.171  18.563  68.792  1.00  0.00    -0.291 NA 
ENDBRANCH  14  15
ENDBRANCH  13  14
ENDBRANCH  12  13
ENDBRANCH  11  12
ENDBRANCH   5  11
TORSDOF 5
ENDMDL
MODEL      214
REMARK 921   NORMALIZED FREE ENERGY PREDICTED BY IDOCK:   -3.38 KCAL/MOL
REMARK 922        TOTAL FREE ENERGY PREDICTED BY IDOCK:   -5.33 KCAL/MOL
REMARK 923 INTER-LIGAND FREE ENERGY PREDICTED BY IDOCK:   -5.03 KCAL/MOL
REMARK 924 INTRA-LIGAND FREE ENERGY PREDICTED BY IDOCK:   -0.30 KCAL/MOL
REMARK 927      BINDING AFFINITY PREDICTED BY RF-SCORE:    0.00 PKD
ROOT
HETATM    1  C   UNL     1      -9.414   4.742  68.270  1.00  0.00    -0.142 C  
HETATM    2  N   UNL     1      -9.608   6.171  68.247  1.00  0.00    -0.120 NA 
HETATM    3  C   UNL     1     -10.522   6.842  69.007  1.00  0.00    -0.208 C  
HETATM    4  H   UNL     1      -9.020   6.720  67.620  1.00  0.00     0.000 HD 
HETATM    5  N   UNL     1     -10.544   8.199  68.781  1.00  0.00    -0.361 NA 
HETATM    6  N   UNL     1     -11.264   6.191  69.851  1.00  0.00    -0.406 NA 
HETATM    7  C   UNL     1     -12.144   6.868  70.589  1.00  0.00    -0.311 C  
HETATM    8  H   UNL     1     -11.207   8.747  69.332  1.00  0.00     0.000 HD 
HETATM    9  N   UNL     1     -12.896   7.495  71.212  1.00  0.00    -0.319 NA 
HETATM   10  H   UNL     1     -11.175   5.180  69.948  1.00  0.00     0.000 HD 
ENDROOT
BRANCH   5  11
HETATM   11  C   UNL     1      -9.718   8.930  67.836  1.00  0.00    -0.160 C  
BRANCH  11  12
HETATM   12  C   UNL     1     -10.516   9.663  66.754  1.00  0.00    -0.186 C  
BRANCH  12  13
HETATM   13  S   UNL     1     -10.243  11.448  67.028  1.00  0.00    -0.220 SA 
BRANCH  13  14
HETATM   14  C   UNL     1     -11.556  11.801  68.239  1.00  0.00    -0.308 C  
BRANCH  14  15
HETATM   15  C   UNL     1     -11.714  13.280  68.388  1.00  0.00    -0.354 A  
HETATM   16  C   UNL     1     -12.108  14.016  69.494  1.00  0.00    -0.347 A  
HETATM   17  C   UNL     1     -12.512  13.626  70.862  1.00  0.00    -0.448 C  
HETATM   18  N   UNL     1     -12.037  15.326  69.090  1.00  0.00    -0.550 NA 
HETATM   19  H   UNL     1     -12.255  16.143  69.661  1.00  0.00     0.000 HD 
HETATM   20  C   UNL     1     -11.623  15.341  67.791  1.00  0.00    -0.265 A  
HETATM   21  N   UNL     1     -11.434  14.125  67.333  1.00  0.00    -0.326 NA 
ENDBRANCH  14  15
ENDBRANCH  13  14
ENDBRANCH  12  13
ENDBRANCH  11  12
ENDBRANCH   5  11
TORSDOF 5
ENDMDL
MODEL      215
REMARK 921   NORMALIZED FREE ENERGY PREDICTED BY IDOCK:   -3.37 KCAL/MOL
REMARK 922        TOTAL FREE ENERGY PREDICTED BY IDOCK:   -5.32 KCAL/MOL
REMARK 923 INTER-LIGAND FREE ENERGY PREDICTED BY IDOCK:   -5.01 KCAL/MOL
REMARK 924 INTRA-LIGAND FREE ENERGY PREDICTED BY IDOCK:   -0.31 KCAL/MOL
REMARK 927      BINDING AFFINITY PREDICTED BY RF-SCORE:    0.00 PKD
ROOT
HETATM    1  C   UNL     1     -12.293  14.091  65.935  1.00  0.00    -0.486 C  
HETATM    2  N   UNL     1     -12.140  14.064  67.370  1.00  0.00    -0.500 NA 
HETATM    3  C   UNL     1     -10.944  13.974  68.021  1.00  0.00    -0.251 C  
HETATM    4  H   UNL     1     -12.986  14.115  67.937  1.00  0.00     0.000 HD 
HETATM    5  N   UNL     1     -11.060  13.927  69.391  1.00  0.00    -0.382 NA 
HETATM    6  N   UNL     1      -9.838  13.949  67.341  1.00  0.00    -0.233 NA 
HETATM    7  C   UNL     1      -8.681  13.870  67.999  1.00  0.00    -0.183 C  
HETATM    8  H   UNL     1     -10.191  13.868  69.925  1.00  0.00     0.000 HD 
HETATM    9  N   UNL     1      -7.697  13.802  68.610  1.00  0.00    -0.135 NA 
HETATM   10  H   UNL     1      -9.854  13.988  66.323  1.00  0.00     0.000 HD 
ENDROOT
BRANCH   5  11
HETATM   11  C   UNL     1     -12.295  13.952  70.155  1.00  0.00    -0.334 C  
BRANCH  11  12
HETATM   12  C   UNL     1     -12.477  12.744  71.078  1.00  0.00    -0.277 C  
BRANCH  12  13
HETATM   13  S   UNL     1     -12.320  11.260  70.026  1.00  0.00    -0.221 SA 
BRANCH  13  14
HETATM   14  C   UNL     1     -11.868  10.016  71.277  1.00  0.00    -0.385 C  
BRANCH  14  15
HETATM   15  C   UNL     1     -11.449   8.753  70.597  1.00  0.00    -0.231 A  
HETATM   16  C   UNL     1     -11.907   7.458  70.785  1.00  0.00    -0.258 A  
HETATM   17  C   UNL     1     -12.917   6.877  71.696  1.00  0.00    -0.359 C  
HETATM   18  N   UNL     1     -11.215   6.702  69.872  1.00  0.00    -0.345 NA 
HETATM   19  H   UNL     1     -11.308   5.696  69.732  1.00  0.00     0.000 HD 
HETATM   20  C   UNL     1     -10.381   7.536  69.187  1.00  0.00    -0.212 A  
HETATM   21  N   UNL     1     -10.486   8.774  69.608  1.00  0.00    -0.217 NA 
ENDBRANCH  14  15
ENDBRANCH  13  14
ENDBRANCH  12  13
ENDBRANCH  11  12
ENDBRANCH   5  11
TORSDOF 5
ENDMDL
MODEL      216
REMARK 921   NORMALIZED FREE ENERGY PREDICTED BY IDOCK:   -3.36 KCAL/MOL
REMARK 922        TOTAL FREE ENERGY PREDICTED BY IDOCK:   -5.31 KCAL/MOL
REMARK 923 INTER-LIGAND FREE ENERGY PREDICTED BY IDOCK:   -5.03 KCAL/MOL
REMARK 924 INTRA-LIGAND FREE ENERGY PREDICTED BY IDOCK:   -0.28 KCAL/MOL
REMARK 927      BINDING AFFINITY PREDICTED BY RF-SCORE:    0.00 PKD
ROOT
HETATM    1  C   UNL     1      -7.593  13.822  67.441  1.00  0.00    -0.137 C  
HETATM    2  N   UNL     1      -8.969  13.463  67.683  1.00  0.00    -0.190 NA 
HETATM    3  C   UNL     1     -10.002  13.730  66.832  1.00  0.00    -0.264 C  
HETATM    4  H   UNL     1      -9.185  12.975  68.552  1.00  0.00     0.000 HD 
HETATM    5  N   UNL     1     -11.229  13.322  67.302  1.00  0.00    -0.282 NA 
HETATM    6  N   UNL     1      -9.769  14.312  65.694  1.00  0.00    -0.524 NA 
HETATM    7  C   UNL     1     -10.792  14.554  64.875  1.00  0.00    -0.421 C  
HETATM    8  H   UNL     1     -12.034  13.492  66.697  1.00  0.00     0.000 HD 
HETATM    9  N   UNL     1     -11.710  14.747  64.192  1.00  0.00    -0.224 NA 
HETATM   10  H   UNL     1      -8.821  14.579  65.433  1.00  0.00     0.000 HD 
ENDROOT
BRANCH   5  11
HETATM   11  C   UNL     1     -11.494  12.674  68.574  1.00  0.00    -0.311 C  
BRANCH  11  12
HETATM   12  C   UNL     1     -11.554  11.146  68.491  1.00  0.00    -0.314 C  
BRANCH  12  13
HETATM   13  S   UNL     1     -10.238  10.515  69.588  1.00  0.00    -0.109 SA 
BRANCH  13  14
HETATM   14  C   UNL     1     -10.576   8.727  69.513  1.00  0.00    -0.219 C  
BRANCH  14  15
HETATM   15  C   UNL     1     -11.371   8.319  70.711  1.00  0.00    -0.266 A  
HETATM   16  C   UNL     1     -11.552   7.059  71.260  1.00  0.00    -0.303 A  
HETATM   17  C   UNL     1     -11.060   5.719  70.872  1.00  0.00    -0.267 C  
HETATM   18  N   UNL     1     -12.332   7.265  72.370  1.00  0.00    -0.505 NA 
HETATM   19  H   UNL     1     -12.656   6.548  73.018  1.00  0.00     0.000 HD 
HETATM   20  C   UNL     1     -12.599   8.601  72.450  1.00  0.00    -0.362 A  
HETATM   21  N   UNL     1     -12.048   9.261  71.459  1.00  0.00    -0.337 NA 
ENDBRANCH  14  15
ENDBRANCH  13  14
ENDBRANCH  12  13
ENDBRANCH  11  12
ENDBRANCH   5  11
TORSDOF 5
ENDMDL
MODEL      217
REMARK 921   NORMALIZED FREE ENERGY PREDICTED BY IDOCK:   -3.36 KCAL/MOL
REMARK 922        TOTAL FREE ENERGY PREDICTED BY IDOCK:   -5.31 KCAL/MOL
REMARK 923 INTER-LIGAND FREE ENERGY PREDICTED BY IDOCK:   -4.98 KCAL/MOL
REMARK 924 INTRA-LIGAND FREE ENERGY PREDICTED BY IDOCK:   -0.33 KCAL/MOL
REMARK 927      BINDING AFFINITY PREDICTED BY RF-SCORE:    0.00 PKD
ROOT
HETATM    1  C   UNL     1      -9.342  18.726  68.134  1.00  0.00    -0.316 C  
HETATM    2  N   UNL     1      -9.104  17.375  67.686  1.00  0.00    -0.232 NA 
HETATM    3  C   UNL     1      -9.707  16.798  66.606  1.00  0.00    -0.269 C  
HETATM    4  H   UNL     1      -8.438  16.811  68.214  1.00  0.00     0.000 HD 
HETATM    5  N   UNL     1      -9.346  15.487  66.402  1.00  0.00    -0.272 NA 
HETATM    6  N   UNL     1     -10.531  17.491  65.879  1.00  0.00    -0.504 NA 
HETATM    7  C   UNL     1     -11.101  16.910  64.823  1.00  0.00     0.102 C  
HETATM    8  H   UNL     1      -9.765  15.014  65.600  1.00  0.00     0.000 HD 
HETATM    9  N   UNL     1     -11.576  16.368  63.914  1.00  0.00    -1.054 NA 
HETATM   10  H   UNL     1     -10.738  18.462  66.111  1.00  0.00     0.000 HD 
ENDROOT
BRANCH   5  11
HETATM   11  C   UNL     1      -8.428  14.708  67.214  1.00  0.00    -0.215 C  
BRANCH  11  12
HETATM   12  C   UNL     1      -9.101  13.577  67.997  1.00  0.00    -0.201 C  
BRANCH  12  13
HETATM   13  S   UNL     1      -8.186  12.050  67.590  1.00  0.00    -0.167 SA 
BRANCH  13  14
HETATM   14  C   UNL     1      -9.406  11.206  66.534  1.00  0.00    -0.180 C  
BRANCH  14  15
HETATM   15  C   UNL     1      -9.912   9.985  67.233  1.00  0.00    -0.197 A  
HETATM   16  C   UNL     1     -10.757   9.884  68.326  1.00  0.00    -0.234 A  
HETATM   17  C   UNL     1     -11.424  10.899  69.171  1.00  0.00    -0.373 C  
HETATM   18  N   UNL     1     -10.925   8.536  68.520  1.00  0.00    -0.436 NA 
HETATM   19  H   UNL     1     -11.496   8.100  69.244  1.00  0.00     0.000 HD 
HETATM   20  C   UNL     1     -10.192   7.884  67.573  1.00  0.00    -0.242 A  
HETATM   21  N   UNL     1      -9.558   8.726  66.791  1.00  0.00    -0.187 NA 
ENDBRANCH  14  15
ENDBRANCH  13  14
ENDBRANCH  12  13
ENDBRANCH  11  12
ENDBRANCH   5  11
TORSDOF 5
ENDMDL
MODEL      218
REMARK 921   NORMALIZED FREE ENERGY PREDICTED BY IDOCK:   -3.35 KCAL/MOL
REMARK 922        TOTAL FREE ENERGY PREDICTED BY IDOCK:   -5.30 KCAL/MOL
REMARK 923 INTER-LIGAND FREE ENERGY PREDICTED BY IDOCK:   -5.03 KCAL/MOL
REMARK 924 INTRA-LIGAND FREE ENERGY PREDICTED BY IDOCK:   -0.27 KCAL/MOL
REMARK 927      BINDING AFFINITY PREDICTED BY RF-SCORE:    0.00 PKD
ROOT
HETATM    1  C   UNL     1     -12.195  13.257  63.994  1.00  0.00    -0.410 C  
HETATM    2  N   UNL     1     -11.907  12.737  65.309  1.00  0.00    -0.378 NA 
HETATM    3  C   UNL     1     -10.989  11.761  65.573  1.00  0.00    -0.290 C  
HETATM    4  H   UNL     1     -12.425  13.125  66.096  1.00  0.00     0.000 HD 
HETATM    5  N   UNL     1     -10.922  11.406  66.900  1.00  0.00    -0.288 NA 
HETATM    6  N   UNL     1     -10.276  11.265  64.606  1.00  0.00    -0.279 NA 
HETATM    7  C   UNL     1      -9.380  10.319  64.889  1.00  0.00    -0.252 C  
HETATM    8  H   UNL     1     -10.244  10.684  67.149  1.00  0.00     0.000 HD 
HETATM    9  N   UNL     1      -8.612   9.499  65.177  1.00  0.00    -0.151 NA 
HETATM   10  H   UNL     1     -10.399  11.594  63.649  1.00  0.00     0.000 HD 
ENDROOT
BRANCH   5  11
HETATM   11  C   UNL     1     -11.720  11.955  67.982  1.00  0.00    -0.312 C  
BRANCH  11  12
HETATM   12  C   UNL     1     -10.917  12.262  69.249  1.00  0.00    -0.097 C  
BRANCH  12  13
HETATM   13  S   UNL     1     -12.043  11.977  70.658  1.00  0.00    -0.139 SA 
BRANCH  13  14
HETATM   14  C   UNL     1     -13.121  13.439  70.520  1.00  0.00     0.214 C  
BRANCH  14  15
HETATM   15  C   UNL     1     -12.835  14.377  71.648  1.00  0.00    -0.343 A  
HETATM   16  C   UNL     1     -12.023  15.499  71.675  1.00  0.00    -0.408 A  
HETATM   17  C   UNL     1     -11.168  16.140  70.651  1.00  0.00    -0.371 C  
HETATM   18  N   UNL     1     -12.161  16.007  72.942  1.00  0.00    -0.475 NA 
HETATM   19  H   UNL     1     -11.703  16.841  73.309  1.00  0.00     0.000 HD 
HETATM   20  C   UNL     1     -13.020  15.196  73.625  1.00  0.00    -0.382 A  
HETATM   21  N   UNL     1     -13.433  14.198  72.880  1.00  0.00    -0.667 NA 
ENDBRANCH  14  15
ENDBRANCH  13  14
ENDBRANCH  12  13
ENDBRANCH  11  12
ENDBRANCH   5  11
TORSDOF 5
ENDMDL
MODEL      219
REMARK 921   NORMALIZED FREE ENERGY PREDICTED BY IDOCK:   -3.32 KCAL/MOL
REMARK 922        TOTAL FREE ENERGY PREDICTED BY IDOCK:   -5.25 KCAL/MOL
REMARK 923 INTER-LIGAND FREE ENERGY PREDICTED BY IDOCK:   -4.92 KCAL/MOL
REMARK 924 INTRA-LIGAND FREE ENERGY PREDICTED BY IDOCK:   -0.33 KCAL/MOL
REMARK 927      BINDING AFFINITY PREDICTED BY RF-SCORE:    0.00 PKD
ROOT
HETATM    1  C   UNL     1     -13.340   9.176  72.288  1.00  0.00    -0.477 C  
HETATM    2  N   UNL     1     -12.776  10.042  71.282  1.00  0.00    -0.367 NA 
HETATM    3  C   UNL     1     -11.453  10.081  70.945  1.00  0.00    -0.371 C  
HETATM    4  H   UNL     1     -13.409  10.670  70.788  1.00  0.00     0.000 HD 
HETATM    5  N   UNL     1     -11.153  11.018  69.983  1.00  0.00    -0.453 NA 
HETATM    6  N   UNL     1     -10.615   9.271  71.519  1.00  0.00    -0.352 NA 
HETATM    7  C   UNL     1      -9.330   9.322  71.167  1.00  0.00    -0.189 C  
HETATM    8  H   UNL     1     -10.177  11.080  69.691  1.00  0.00     0.000 HD 
HETATM    9  N   UNL     1      -8.222   9.397  70.833  1.00  0.00    -0.298 NA 
HETATM   10  H   UNL     1     -10.934   8.609  72.225  1.00  0.00     0.000 HD 
ENDROOT
BRANCH   5  11
HETATM   11  C   UNL     1     -12.086  11.928  69.342  1.00  0.00    -0.216 C  
BRANCH  11  12
HETATM   12  C   UNL     1     -11.497  13.308  69.040  1.00  0.00    -0.302 C  
BRANCH  12  13
HETATM   13  S   UNL     1     -11.827  13.638  67.275  1.00  0.00    -0.389 SA 
BRANCH  13  14
HETATM   14  C   UNL     1     -10.221  14.326  66.762  1.00  0.00    -0.272 C  
BRANCH  14  15
HETATM   15  C   UNL     1      -9.122  13.634  67.503  1.00  0.00    -0.213 A  
HETATM   16  C   UNL     1      -8.327  14.103  68.536  1.00  0.00    -0.155 A  
HETATM   17  C   UNL     1      -8.265  15.402  69.241  1.00  0.00    -0.252 C  
HETATM   18  N   UNL     1      -7.518  13.045  68.868  1.00  0.00    -0.285 NA 
HETATM   19  H   UNL     1      -6.807  13.038  69.600  1.00  0.00     0.000 HD 
HETATM   20  C   UNL     1      -7.834  12.004  68.046  1.00  0.00    -0.145 A  
HETATM   21  N   UNL     1      -8.785  12.330  67.202  1.00  0.00    -0.186 NA 
ENDBRANCH  14  15
ENDBRANCH  13  14
ENDBRANCH  12  13
ENDBRANCH  11  12
ENDBRANCH   5  11
TORSDOF 5
ENDMDL
MODEL      220
REMARK 921   NORMALIZED FREE ENERGY PREDICTED BY IDOCK:   -3.31 KCAL/MOL
REMARK 922        TOTAL FREE ENERGY PREDICTED BY IDOCK:   -5.24 KCAL/MOL
REMARK 923 INTER-LIGAND FREE ENERGY PREDICTED BY IDOCK:   -4.73 KCAL/MOL
REMARK 924 INTRA-LIGAND FREE ENERGY PREDICTED BY IDOCK:   -0.51 KCAL/MOL
REMARK 927      BINDING AFFINITY PREDICTED BY RF-SCORE:    0.00 PKD
ROOT
HETATM    1  C   UNL     1     -12.022  14.331  64.393  1.00  0.00    -0.456 C  
HETATM    2  N   UNL     1     -11.984  13.425  65.515  1.00  0.00    -0.374 NA 
HETATM    3  C   UNL     1     -11.798  13.805  66.813  1.00  0.00    -0.420 C  
HETATM    4  H   UNL     1     -12.104  12.430  65.325  1.00  0.00     0.000 HD 
HETATM    5  N   UNL     1     -11.761  12.754  67.700  1.00  0.00    -0.360 NA 
HETATM    6  N   UNL     1     -11.682  15.065  67.108  1.00  0.00    -0.281 NA 
HETATM    7  C   UNL     1     -11.510  15.412  68.383  1.00  0.00    -0.355 C  
HETATM    8  H   UNL     1     -11.632  12.987  68.685  1.00  0.00     0.000 HD 
HETATM    9  N   UNL     1     -11.361  15.673  69.504  1.00  0.00    -0.301 NA 
HETATM   10  H   UNL     1     -11.721  15.774  66.377  1.00  0.00     0.000 HD 
ENDROOT
BRANCH   5  11
HETATM   11  C   UNL     1     -11.888  11.344  67.374  1.00  0.00     0.047 C  
BRANCH  11  12
HETATM   12  C   UNL     1     -10.555  10.591  67.353  1.00  0.00    -0.263 C  
BRANCH  12  13
HETATM   13  S   UNL     1      -9.490  11.388  68.604  1.00  0.00    -0.122 SA 
BRANCH  13  14
HETATM   14  C   UNL     1      -9.195   9.985  69.728  1.00  0.00    -0.199 C  
BRANCH  14  15
HETATM   15  C   UNL     1     -10.488   9.565  70.351  1.00  0.00    -0.278 A  
HETATM   16  C   UNL     1     -11.129   8.338  70.303  1.00  0.00    -0.219 A  
HETATM   17  C   UNL     1     -10.795   7.060  69.637  1.00  0.00    -0.275 C  
HETATM   18  N   UNL     1     -12.249   8.494  71.080  1.00  0.00    -0.398 NA 
HETATM   19  H   UNL     1     -12.953   7.780  71.271  1.00  0.00     0.000 HD 
HETATM   20  C   UNL     1     -12.254   9.773  71.553  1.00  0.00    -0.406 A  
HETATM   21  N   UNL     1     -11.216  10.449  71.121  1.00  0.00    -0.070 NA 
ENDBRANCH  14  15
ENDBRANCH  13  14
ENDBRANCH  12  13
ENDBRANCH  11  12
ENDBRANCH   5  11
TORSDOF 5
ENDMDL
MODEL      221
REMARK 921   NORMALIZED FREE ENERGY PREDICTED BY IDOCK:   -3.31 KCAL/MOL
REMARK 922        TOTAL FREE ENERGY PREDICTED BY IDOCK:   -5.24 KCAL/MOL
REMARK 923 INTER-LIGAND FREE ENERGY PREDICTED BY IDOCK:   -4.33 KCAL/MOL
REMARK 924 INTRA-LIGAND FREE ENERGY PREDICTED BY IDOCK:   -0.90 KCAL/MOL
REMARK 927      BINDING AFFINITY PREDICTED BY RF-SCORE:    0.00 PKD
ROOT
HETATM    1  C   UNL     1     -13.460   9.208  72.162  1.00  0.00    -0.469 C  
HETATM    2  N   UNL     1     -12.108   9.266  71.663  1.00  0.00    -0.355 NA 
HETATM    3  C   UNL     1     -11.619  10.256  70.860  1.00  0.00    -0.365 C  
HETATM    4  H   UNL     1     -11.472   8.514  71.929  1.00  0.00     0.000 HD 
HETATM    5  N   UNL     1     -10.309  10.070  70.484  1.00  0.00    -0.394 NA 
HETATM    6  N   UNL     1     -12.380  11.255  70.529  1.00  0.00    -0.352 NA 
HETATM    7  C   UNL     1     -11.878  12.215  69.752  1.00  0.00    -0.327 C  
HETATM    8  H   UNL     1      -9.895  10.789  69.889  1.00  0.00     0.000 HD 
HETATM    9  N   UNL     1     -11.403  13.028  69.075  1.00  0.00    -0.275 NA 
HETATM   10  H   UNL     1     -13.343  11.305  70.859  1.00  0.00     0.000 HD 
ENDROOT
BRANCH   5  11
HETATM   11  C   UNL     1      -9.456   8.952  70.848  1.00  0.00    -0.236 C  
BRANCH  11  12
HETATM   12  C   UNL     1      -8.338   8.671  69.841  1.00  0.00    -0.123 C  
BRANCH  12  13
HETATM   13  S   UNL     1      -7.648  10.294  69.365  1.00  0.00    -0.151 SA 
BRANCH  13  14
HETATM   14  C   UNL     1      -7.606  10.116  67.553  1.00  0.00    -0.091 C  
BRANCH  14  15
HETATM   15  C   UNL     1      -8.748  10.870  66.951  1.00  0.00    -0.144 A  
HETATM   16  C   UNL     1     -10.063  10.475  66.764  1.00  0.00    -0.219 A  
HETATM   17  C   UNL     1     -10.780   9.216  67.062  1.00  0.00    -0.189 C  
HETATM   18  N   UNL     1     -10.686  11.566  66.214  1.00  0.00    -0.264 NA 
HETATM   19  H   UNL     1     -11.669  11.628  65.950  1.00  0.00     0.000 HD 
HETATM   20  C   UNL     1      -9.755  12.555  66.082  1.00  0.00    -0.254 A  
HETATM   21  N   UNL     1      -8.576  12.164  66.502  1.00  0.00    -0.126 NA 
ENDBRANCH  14  15
ENDBRANCH  13  14
ENDBRANCH  12  13
ENDBRANCH  11  12
ENDBRANCH   5  11
TORSDOF 5
ENDMDL
MODEL      222
REMARK 921   NORMALIZED FREE ENERGY PREDICTED BY IDOCK:   -3.30 KCAL/MOL
REMARK 922        TOTAL FREE ENERGY PREDICTED BY IDOCK:   -5.23 KCAL/MOL
REMARK 923 INTER-LIGAND FREE ENERGY PREDICTED BY IDOCK:   -4.75 KCAL/MOL
REMARK 924 INTRA-LIGAND FREE ENERGY PREDICTED BY IDOCK:   -0.47 KCAL/MOL
REMARK 927      BINDING AFFINITY PREDICTED BY RF-SCORE:    0.00 PKD
ROOT
HETATM    1  C   UNL     1      -8.883   8.094  72.762  1.00  0.00    -0.231 C  
HETATM    2  N   UNL     1      -9.129   8.979  71.649  1.00  0.00    -0.343 NA 
HETATM    3  C   UNL     1     -10.362   9.427  71.273  1.00  0.00    -0.292 C  
HETATM    4  H   UNL     1      -8.325   9.292  71.106  1.00  0.00     0.000 HD 
HETATM    5  N   UNL     1     -10.345  10.231  70.157  1.00  0.00    -0.426 NA 
HETATM    6  N   UNL     1     -11.411   9.087  71.960  1.00  0.00    -0.367 NA 
HETATM    7  C   UNL     1     -12.604   9.544  71.579  1.00  0.00    -0.373 C  
HETATM    8  H   UNL     1     -11.243  10.598  69.840  1.00  0.00     0.000 HD 
HETATM    9  N   UNL     1     -13.623   9.963  71.214  1.00  0.00    -0.274 NA 
HETATM   10  H   UNL     1     -11.324   8.483  72.776  1.00  0.00     0.000 HD 
ENDROOT
BRANCH   5  11
HETATM   11  C   UNL     1      -9.175  10.609  69.384  1.00  0.00    -0.051 C  
BRANCH  11  12
HETATM   12  C   UNL     1      -9.370  10.498  67.869  1.00  0.00    -0.143 C  
BRANCH  12  13
HETATM   13  S   UNL     1      -8.183  11.657  67.107  1.00  0.00    -0.171 SA 
BRANCH  13  14
HETATM   14  C   UNL     1      -8.614  13.194  67.984  1.00  0.00    -0.182 C  
BRANCH  14  15
HETATM   15  C   UNL     1      -9.713  13.895  67.252  1.00  0.00    -0.245 A  
HETATM   16  C   UNL     1     -11.074  13.908  67.512  1.00  0.00    -0.286 A  
HETATM   17  C   UNL     1     -11.901  13.251  68.548  1.00  0.00    -0.384 C  
HETATM   18  N   UNL     1     -11.608  14.741  66.562  1.00  0.00    -0.337 NA 
HETATM   19  H   UNL     1     -12.593  14.985  66.461  1.00  0.00     0.000 HD 
HETATM   20  C   UNL     1     -10.586  15.187  65.776  1.00  0.00    -0.351 A  
HETATM   21  N   UNL     1      -9.435  14.685  66.155  1.00  0.00    -0.296 NA 
ENDBRANCH  14  15
ENDBRANCH  13  14
ENDBRANCH  12  13
ENDBRANCH  11  12
ENDBRANCH   5  11
TORSDOF 5
ENDMDL
MODEL      223
REMARK 921   NORMALIZED FREE ENERGY PREDICTED BY IDOCK:   -3.29 KCAL/MOL
REMARK 922        TOTAL FREE ENERGY PREDICTED BY IDOCK:   -5.22 KCAL/MOL
REMARK 923 INTER-LIGAND FREE ENERGY PREDICTED BY IDOCK:   -4.71 KCAL/MOL
REMARK 924 INTRA-LIGAND FREE ENERGY PREDICTED BY IDOCK:   -0.51 KCAL/MOL
REMARK 927      BINDING AFFINITY PREDICTED BY RF-SCORE:    0.00 PKD
ROOT
HETATM    1  C   UNL     1      -7.389  12.729  67.800  1.00  0.00    -0.130 C  
HETATM    2  N   UNL     1      -8.432  12.479  66.836  1.00  0.00    -0.321 NA 
HETATM    3  C   UNL     1      -8.750  11.248  66.338  1.00  0.00    -0.180 C  
HETATM    4  H   UNL     1      -8.970  13.279  66.501  1.00  0.00     0.000 HD 
HETATM    5  N   UNL     1      -9.757  11.271  65.401  1.00  0.00    -0.222 NA 
HETATM    6  N   UNL     1      -8.120  10.195  66.765  1.00  0.00    -0.118 NA 
HETATM    7  C   UNL     1      -8.454   9.003  66.272  1.00  0.00    -0.125 C  
HETATM    8  H   UNL     1     -10.037  10.373  65.004  1.00  0.00     0.000 HD 
HETATM    9  N   UNL     1      -8.775   7.985  65.817  1.00  0.00    -0.156 NA 
HETATM   10  H   UNL     1      -7.384  10.280  67.465  1.00  0.00     0.000 HD 
ENDROOT
BRANCH   5  11
HETATM   11  C   UNL     1     -10.461  12.446  64.919  1.00  0.00    -0.298 C  
BRANCH  11  12
HETATM   12  C   UNL     1     -11.926  12.514  65.358  1.00  0.00    -0.437 C  
BRANCH  12  13
HETATM   13  S   UNL     1     -12.262  14.260  65.774  1.00  0.00    -0.376 SA 
BRANCH  13  14
HETATM   14  C   UNL     1     -10.921  14.580  66.965  1.00  0.00    -0.312 C  
BRANCH  14  15
HETATM   15  C   UNL     1     -11.469  14.538  68.355  1.00  0.00    -0.302 A  
HETATM   16  C   UNL     1     -11.631  13.455  69.205  1.00  0.00    -0.315 A  
HETATM   17  C   UNL     1     -11.352  12.011  69.049  1.00  0.00    -0.331 C  
HETATM   18  N   UNL     1     -12.131  13.988  70.366  1.00  0.00    -0.335 NA 
HETATM   19  H   UNL     1     -12.366  13.471  71.213  1.00  0.00     0.000 HD 
HETATM   20  C   UNL     1     -12.259  15.335  70.186  1.00  0.00    -0.364 A  
HETATM   21  N   UNL     1     -11.883  15.696  68.982  1.00  0.00    -0.383 NA 
ENDBRANCH  14  15
ENDBRANCH  13  14
ENDBRANCH  12  13
ENDBRANCH  11  12
ENDBRANCH   5  11
TORSDOF 5
ENDMDL
MODEL      224
REMARK 921   NORMALIZED FREE ENERGY PREDICTED BY IDOCK:   -3.29 KCAL/MOL
REMARK 922        TOTAL FREE ENERGY PREDICTED BY IDOCK:   -5.21 KCAL/MOL
REMARK 923 INTER-LIGAND FREE ENERGY PREDICTED BY IDOCK:   -4.99 KCAL/MOL
REMARK 924 INTRA-LIGAND FREE ENERGY PREDICTED BY IDOCK:   -0.22 KCAL/MOL
REMARK 927      BINDING AFFINITY PREDICTED BY RF-SCORE:    0.00 PKD
ROOT
HETATM    1  C   UNL     1     -13.905  13.851  72.268  1.00  0.00    -0.571 C  
HETATM    2  N   UNL     1     -13.210  12.662  71.839  1.00  0.00    -0.448 NA 
HETATM    3  C   UNL     1     -12.374  12.598  70.761  1.00  0.00    -0.283 C  
HETATM    4  H   UNL     1     -13.354  11.809  72.378  1.00  0.00     0.000 HD 
HETATM    5  N   UNL     1     -11.860  11.343  70.531  1.00  0.00    -0.439 NA 
HETATM    6  N   UNL     1     -12.128  13.669  70.069  1.00  0.00    -0.338 NA 
HETATM    7  C   UNL     1     -11.302  13.584  69.026  1.00  0.00    -0.288 C  
HETATM    8  H   UNL     1     -11.222  11.245  69.740  1.00  0.00     0.000 HD 
HETATM    9  N   UNL     1     -10.577  13.468  68.128  1.00  0.00    -0.238 NA 
HETATM   10  H   UNL     1     -12.560  14.559  70.318  1.00  0.00     0.000 HD 
ENDROOT
BRANCH   5  11
HETATM   11  C   UNL     1     -12.135  10.143  71.301  1.00  0.00    -0.394 C  
BRANCH  11  12
HETATM   12  C   UNL     1     -10.888   9.317  71.627  1.00  0.00    -0.348 C  
BRANCH  12  13
HETATM   13  S   UNL     1     -11.152   7.666  70.892  1.00  0.00    -0.266 SA 
BRANCH  13  14
HETATM   14  C   UNL     1      -9.659   6.802  71.477  1.00  0.00    -0.163 C  
BRANCH  14  15
HETATM   15  C   UNL     1     -10.051   5.719  72.431  1.00  0.00    -0.178 A  
HETATM   16  C   UNL     1     -10.040   4.345  72.254  1.00  0.00    -0.189 A  
HETATM   17  C   UNL     1      -9.670   3.487  71.108  1.00  0.00    -0.237 C  
HETATM   18  N   UNL     1     -10.453   3.830  73.457  1.00  0.00    -0.162 NA 
HETATM   19  H   UNL     1     -10.556   2.842  73.685  1.00  0.00     0.000 HD 
HETATM   20  C   UNL     1     -10.701   4.877  74.296  1.00  0.00    -0.197 A  
HETATM   21  N   UNL     1     -10.483   6.028  73.705  1.00  0.00    -0.251 NA 
ENDBRANCH  14  15
ENDBRANCH  13  14
ENDBRANCH  12  13
ENDBRANCH  11  12
ENDBRANCH   5  11
TORSDOF 5
ENDMDL
MODEL      225
REMARK 921   NORMALIZED FREE ENERGY PREDICTED BY IDOCK:   -3.28 KCAL/MOL
REMARK 922        TOTAL FREE ENERGY PREDICTED BY IDOCK:   -5.20 KCAL/MOL
REMARK 923 INTER-LIGAND FREE ENERGY PREDICTED BY IDOCK:   -4.79 KCAL/MOL
REMARK 924 INTRA-LIGAND FREE ENERGY PREDICTED BY IDOCK:   -0.40 KCAL/MOL
REMARK 927      BINDING AFFINITY PREDICTED BY RF-SCORE:    0.00 PKD
ROOT
HETATM    1  C   UNL     1     -11.368  15.233  70.139  1.00  0.00    -0.289 C  
HETATM    2  N   UNL     1     -11.566  14.608  68.854  1.00  0.00    -0.294 NA 
HETATM    3  C   UNL     1     -11.301  15.200  67.653  1.00  0.00    -0.321 C  
HETATM    4  H   UNL     1     -11.931  13.655  68.842  1.00  0.00     0.000 HD 
HETATM    5  N   UNL     1     -11.609  14.415  66.566  1.00  0.00    -0.367 NA 
HETATM    6  N   UNL     1     -10.796  16.397  67.620  1.00  0.00    -0.312 NA 
HETATM    7  C   UNL     1     -10.537  16.952  66.436  1.00  0.00    -0.183 C  
HETATM    8  H   UNL     1     -11.420  14.812  65.644  1.00  0.00     0.000 HD 
HETATM    9  N   UNL     1     -10.325  17.399  65.386  1.00  0.00    -0.632 NA 
HETATM   10  H   UNL     1     -10.602  16.902  68.484  1.00  0.00     0.000 HD 
ENDROOT
BRANCH   5  11
HETATM   11  C   UNL     1     -12.176  13.079  66.599  1.00  0.00    -0.217 C  
BRANCH  11  12
HETATM   12  C   UNL     1     -11.610  12.139  65.531  1.00  0.00    -0.343 C  
BRANCH  12  13
HETATM   13  S   UNL     1      -9.793  12.304  65.605  1.00  0.00    -0.195 SA 
BRANCH  13  14
HETATM   14  C   UNL     1      -9.431  11.295  67.078  1.00  0.00    -0.171 C  
BRANCH  14  15
HETATM   15  C   UNL     1      -9.626   9.849  66.753  1.00  0.00    -0.183 A  
HETATM   16  C   UNL     1      -8.887   9.028  65.916  1.00  0.00    -0.175 A  
HETATM   17  C   UNL     1      -7.702   9.274  65.065  1.00  0.00    -0.109 C  
HETATM   18  N   UNL     1      -9.476   7.794  66.021  1.00  0.00    -0.411 NA 
HETATM   19  H   UNL     1      -9.182   6.944  65.539  1.00  0.00     0.000 HD 
HETATM   20  C   UNL     1     -10.525   7.904  66.887  1.00  0.00    -0.318 A  
HETATM   21  N   UNL     1     -10.651   9.131  67.333  1.00  0.00    -0.274 NA 
ENDBRANCH  14  15
ENDBRANCH  13  14
ENDBRANCH  12  13
ENDBRANCH  11  12
ENDBRANCH   5  11
TORSDOF 5
ENDMDL
MODEL      226
REMARK 921   NORMALIZED FREE ENERGY PREDICTED BY IDOCK:   -3.27 KCAL/MOL
REMARK 922        TOTAL FREE ENERGY PREDICTED BY IDOCK:   -5.19 KCAL/MOL
REMARK 923 INTER-LIGAND FREE ENERGY PREDICTED BY IDOCK:   -4.56 KCAL/MOL
REMARK 924 INTRA-LIGAND FREE ENERGY PREDICTED BY IDOCK:   -0.63 KCAL/MOL
REMARK 927      BINDING AFFINITY PREDICTED BY RF-SCORE:    0.00 PKD
ROOT
HETATM    1  C   UNL     1      -9.654   9.526  69.319  1.00  0.00    -0.175 C  
HETATM    2  N   UNL     1     -10.298  10.343  68.319  1.00  0.00    -0.162 NA 
HETATM    3  C   UNL     1     -11.044  11.454  68.589  1.00  0.00    -0.236 C  
HETATM    4  H   UNL     1     -10.188  10.072  67.342  1.00  0.00     0.000 HD 
HETATM    5  N   UNL     1     -11.587  12.043  67.470  1.00  0.00    -0.450 NA 
HETATM    6  N   UNL     1     -11.178  11.861  69.815  1.00  0.00    -0.483 NA 
HETATM    7  C   UNL     1     -11.903  12.954  70.053  1.00  0.00    -0.286 C  
HETATM    8  H   UNL     1     -12.147  12.883  67.619  1.00  0.00     0.000 HD 
HETATM    9  N   UNL     1     -12.543  13.908  70.217  1.00  0.00    -0.304 NA 
HETATM   10  H   UNL     1     -10.735  11.355  70.581  1.00  0.00     0.000 HD 
ENDROOT
BRANCH   5  11
HETATM   11  C   UNL     1     -11.442  11.588  66.099  1.00  0.00    -0.031 C  
BRANCH  11  12
HETATM   12  C   UNL     1     -12.218  12.430  65.082  1.00  0.00    -0.384 C  
BRANCH  12  13
HETATM   13  S   UNL     1     -11.006  13.557  64.310  1.00  0.00    -0.261 SA 
BRANCH  13  14
HETATM   14  C   UNL     1     -11.235  15.042  65.338  1.00  0.00    -0.356 C  
BRANCH  14  15
HETATM   15  C   UNL     1     -10.159  15.103  66.374  1.00  0.00    -0.273 A  
HETATM   16  C   UNL     1      -9.948  16.043  67.370  1.00  0.00    -0.241 A  
HETATM   17  C   UNL     1     -10.667  17.280  67.746  1.00  0.00    -0.333 C  
HETATM   18  N   UNL     1      -8.851  15.590  68.058  1.00  0.00    -0.164 NA 
HETATM   19  H   UNL     1      -8.419  16.040  68.865  1.00  0.00     0.000 HD 
HETATM   20  C   UNL     1      -8.439  14.430  67.470  1.00  0.00    -0.192 A  
HETATM   21  N   UNL     1      -9.196  14.117  66.444  1.00  0.00    -0.229 NA 
ENDBRANCH  14  15
ENDBRANCH  13  14
ENDBRANCH  12  13
ENDBRANCH  11  12
ENDBRANCH   5  11
TORSDOF 5
ENDMDL
MODEL      227
REMARK 921   NORMALIZED FREE ENERGY PREDICTED BY IDOCK:   -3.27 KCAL/MOL
REMARK 922        TOTAL FREE ENERGY PREDICTED BY IDOCK:   -5.19 KCAL/MOL
REMARK 923 INTER-LIGAND FREE ENERGY PREDICTED BY IDOCK:   -4.31 KCAL/MOL
REMARK 924 INTRA-LIGAND FREE ENERGY PREDICTED BY IDOCK:   -0.87 KCAL/MOL
REMARK 927      BINDING AFFINITY PREDICTED BY RF-SCORE:    0.00 PKD
ROOT
HETATM    1  C   UNL     1     -12.392  14.200  70.511  1.00  0.00    -0.364 C  
HETATM    2  N   UNL     1     -11.214  14.163  69.680  1.00  0.00    -0.383 NA 
HETATM    3  C   UNL     1     -11.226  14.179  68.315  1.00  0.00    -0.272 C  
HETATM    4  H   UNL     1     -10.307  14.122  70.145  1.00  0.00     0.000 HD 
HETATM    5  N   UNL     1      -9.976  14.097  67.747  1.00  0.00    -0.231 NA 
HETATM    6  N   UNL     1     -12.355  14.272  67.680  1.00  0.00    -0.582 NA 
HETATM    7  C   UNL     1     -12.342  14.295  66.347  1.00  0.00    -0.350 C  
HETATM    8  H   UNL     1      -9.932  14.114  66.727  1.00  0.00     0.000 HD 
HETATM    9  N   UNL     1     -12.288  14.312  65.188  1.00  0.00    -0.428 NA 
HETATM   10  H   UNL     1     -13.235  14.327  68.191  1.00  0.00     0.000 HD 
ENDROOT
BRANCH   5  11
HETATM   11  C   UNL     1      -8.712  13.990  68.454  1.00  0.00    -0.179 C  
BRANCH  11  12
HETATM   12  C   UNL     1      -7.560  13.471  67.588  1.00  0.00    -0.177 C  
BRANCH  12  13
HETATM   13  S   UNL     1      -7.029  11.888  68.327  1.00  0.00    -0.084 SA 
BRANCH  13  14
HETATM   14  C   UNL     1      -7.756  10.711  67.142  1.00  0.00    -0.110 C  
BRANCH  14  15
HETATM   15  C   UNL     1      -9.156  10.387  67.556  1.00  0.00    -0.134 A  
HETATM   16  C   UNL     1      -9.605   9.508  68.529  1.00  0.00    -0.142 A  
HETATM   17  C   UNL     1      -8.898   8.599  69.458  1.00  0.00    -0.144 C  
HETATM   18  N   UNL     1     -10.971   9.636  68.518  1.00  0.00    -0.432 NA 
HETATM   19  H   UNL     1     -11.626   9.134  69.117  1.00  0.00     0.000 HD 
HETATM   20  C   UNL     1     -11.297  10.555  67.564  1.00  0.00    -0.101 A  
HETATM   21  N   UNL     1     -10.229  11.015  66.956  1.00  0.00    -0.203 NA 
ENDBRANCH  14  15
ENDBRANCH  13  14
ENDBRANCH  12  13
ENDBRANCH  11  12
ENDBRANCH   5  11
TORSDOF 5
ENDMDL
MODEL      228
REMARK 921   NORMALIZED FREE ENERGY PREDICTED BY IDOCK:   -3.27 KCAL/MOL
REMARK 922        TOTAL FREE ENERGY PREDICTED BY IDOCK:   -5.19 KCAL/MOL
REMARK 923 INTER-LIGAND FREE ENERGY PREDICTED BY IDOCK:   -4.35 KCAL/MOL
REMARK 924 INTRA-LIGAND FREE ENERGY PREDICTED BY IDOCK:   -0.84 KCAL/MOL
REMARK 927      BINDING AFFINITY PREDICTED BY RF-SCORE:    0.00 PKD
ROOT
HETATM    1  C   UNL     1     -13.550   8.852  72.395  1.00  0.00    -0.447 C  
HETATM    2  N   UNL     1     -12.152   8.968  72.056  1.00  0.00    -0.370 NA 
HETATM    3  C   UNL     1     -11.666   9.699  71.010  1.00  0.00    -0.353 C  
HETATM    4  H   UNL     1     -11.480   8.468  72.638  1.00  0.00     0.000 HD 
HETATM    5  N   UNL     1     -10.300   9.622  70.867  1.00  0.00    -0.296 NA 
HETATM    6  N   UNL     1     -12.480  10.385  70.267  1.00  0.00    -0.471 NA 
HETATM    7  C   UNL     1     -11.982  11.099  69.257  1.00  0.00    -0.351 C  
HETATM    8  H   UNL     1      -9.887  10.159  70.103  1.00  0.00     0.000 HD 
HETATM    9  N   UNL     1     -11.508  11.706  68.390  1.00  0.00    -0.270 NA 
HETATM   10  H   UNL     1     -13.483  10.378  70.452  1.00  0.00     0.000 HD 
ENDROOT
BRANCH   5  11
HETATM   11  C   UNL     1      -9.387   8.853  71.694  1.00  0.00    -0.258 C  
BRANCH  11  12
HETATM   12  C   UNL     1      -8.042   8.559  71.024  1.00  0.00    -0.130 C  
BRANCH  12  13
HETATM   13  S   UNL     1      -8.185   9.140  69.299  1.00  0.00    -0.122 SA 
BRANCH  13  14
HETATM   14  C   UNL     1      -8.111   7.553  68.408  1.00  0.00    -0.125 C  
BRANCH  14  15
HETATM   15  C   UNL     1      -9.201   6.655  68.899  1.00  0.00    -0.130 A  
HETATM   16  C   UNL     1      -9.118   5.374  69.419  1.00  0.00    -0.108 A  
HETATM   17  C   UNL     1      -7.977   4.462  69.654  1.00  0.00    -0.057 C  
HETATM   18  N   UNL     1     -10.407   5.040  69.748  1.00  0.00    -0.267 NA 
HETATM   19  H   UNL     1     -10.714   4.161  70.164  1.00  0.00     0.000 HD 
HETATM   20  C   UNL     1     -11.208   6.095  69.419  1.00  0.00    -0.396 A  
HETATM   21  N   UNL     1     -10.515   7.077  68.892  1.00  0.00    -0.197 NA 
ENDBRANCH  14  15
ENDBRANCH  13  14
ENDBRANCH  12  13
ENDBRANCH  11  12
ENDBRANCH   5  11
TORSDOF 5
ENDMDL
MODEL      229
REMARK 921   NORMALIZED FREE ENERGY PREDICTED BY IDOCK:   -3.26 KCAL/MOL
REMARK 922        TOTAL FREE ENERGY PREDICTED BY IDOCK:   -5.18 KCAL/MOL
REMARK 923 INTER-LIGAND FREE ENERGY PREDICTED BY IDOCK:   -4.88 KCAL/MOL
REMARK 924 INTRA-LIGAND FREE ENERGY PREDICTED BY IDOCK:   -0.30 KCAL/MOL
REMARK 927      BINDING AFFINITY PREDICTED BY RF-SCORE:    0.00 PKD
ROOT
HETATM    1  C   UNL     1      -9.552  15.343  67.095  1.00  0.00    -0.212 C  
HETATM    2  N   UNL     1     -10.006  14.076  67.615  1.00  0.00    -0.234 NA 
HETATM    3  C   UNL     1     -10.703  13.920  68.779  1.00  0.00    -0.262 C  
HETATM    4  H   UNL     1      -9.792  13.238  67.075  1.00  0.00     0.000 HD 
HETATM    5  N   UNL     1     -10.991  12.609  69.082  1.00  0.00    -0.414 NA 
HETATM    6  N   UNL     1     -11.036  14.963  69.478  1.00  0.00    -0.265 NA 
HETATM    7  C   UNL     1     -11.724  14.787  70.606  1.00  0.00    -0.297 C  
HETATM    8  H   UNL     1     -11.519  12.441  69.940  1.00  0.00     0.000 HD 
HETATM    9  N   UNL     1     -12.322  14.590  71.581  1.00  0.00    -0.345 NA 
HETATM   10  H   UNL     1     -10.775  15.899  69.170  1.00  0.00     0.000 HD 
ENDROOT
BRANCH   5  11
HETATM   11  C   UNL     1     -10.618  11.441  68.304  1.00  0.00    -0.195 C  
BRANCH  11  12
HETATM   12  C   UNL     1     -10.882  10.112  69.017  1.00  0.00    -0.224 C  
BRANCH  12  13
HETATM   13  S   UNL     1      -9.284   9.572  69.717  1.00  0.00    -0.224 SA 
BRANCH  13  14
HETATM   14  C   UNL     1      -9.554   7.773  69.804  1.00  0.00    -0.167 C  
BRANCH  14  15
HETATM   15  C   UNL     1     -10.566   7.471  70.862  1.00  0.00    -0.220 A  
HETATM   16  C   UNL     1     -10.469   7.609  72.237  1.00  0.00    -0.237 A  
HETATM   17  C   UNL     1      -9.376   8.068  73.122  1.00  0.00    -0.346 C  
HETATM   18  N   UNL     1     -11.698   7.232  72.718  1.00  0.00    -0.547 NA 
HETATM   19  H   UNL     1     -11.981   7.216  73.698  1.00  0.00     0.000 HD 
HETATM   20  C   UNL     1     -12.473   6.880  71.652  1.00  0.00    -0.375 A  
HETATM   21  N   UNL     1     -11.818   6.999  70.522  1.00  0.00    -0.316 NA 
ENDBRANCH  14  15
ENDBRANCH  13  14
ENDBRANCH  12  13
ENDBRANCH  11  12
ENDBRANCH   5  11
TORSDOF 5
ENDMDL
MODEL      230
REMARK 921   NORMALIZED FREE ENERGY PREDICTED BY IDOCK:   -3.26 KCAL/MOL
REMARK 922        TOTAL FREE ENERGY PREDICTED BY IDOCK:   -5.18 KCAL/MOL
REMARK 923 INTER-LIGAND FREE ENERGY PREDICTED BY IDOCK:   -4.56 KCAL/MOL
REMARK 924 INTRA-LIGAND FREE ENERGY PREDICTED BY IDOCK:   -0.61 KCAL/MOL
REMARK 927      BINDING AFFINITY PREDICTED BY RF-SCORE:    0.00 PKD
ROOT
HETATM    1  C   UNL     1     -11.607  11.702  63.816  1.00  0.00    -0.332 C  
HETATM    2  N   UNL     1     -10.640  12.283  64.716  1.00  0.00    -0.284 NA 
HETATM    3  C   UNL     1     -10.490  13.622  64.933  1.00  0.00    -0.409 C  
HETATM    4  H   UNL     1     -10.026  11.648  65.226  1.00  0.00     0.000 HD 
HETATM    5  N   UNL     1      -9.474  13.933  65.807  1.00  0.00    -0.512 NA 
HETATM    6  N   UNL     1     -11.277  14.466  64.337  1.00  0.00    -0.606 NA 
HETATM    7  C   UNL     1     -11.117  15.769  64.571  1.00  0.00    -0.277 C  
HETATM    8  H   UNL     1      -9.327  14.923  66.009  1.00  0.00     0.000 HD 
HETATM    9  N   UNL     1     -10.945  16.893  64.802  1.00  0.00    -0.849 NA 
HETATM   10  H   UNL     1     -12.004  14.139  63.702  1.00  0.00     0.000 HD 
ENDROOT
BRANCH   5  11
HETATM   11  C   UNL     1      -8.590  12.992  66.473  1.00  0.00     0.148 C  
BRANCH  11  12
HETATM   12  C   UNL     1      -8.583  13.121  67.998  1.00  0.00    -0.182 C  
BRANCH  12  13
HETATM   13  S   UNL     1      -7.519  11.777  68.628  1.00  0.00    -0.111 SA 
BRANCH  13  14
HETATM   14  C   UNL     1      -8.776  10.667  69.338  1.00  0.00    -0.023 C  
BRANCH  14  15
HETATM   15  C   UNL     1      -9.502   9.965  68.236  1.00  0.00    -0.139 A  
HETATM   16  C   UNL     1     -10.736  10.252  67.674  1.00  0.00    -0.288 A  
HETATM   17  C   UNL     1     -11.745  11.297  67.955  1.00  0.00    -0.305 C  
HETATM   18  N   UNL     1     -10.895   9.323  66.677  1.00  0.00     0.014 NA 
HETATM   19  H   UNL     1     -11.697   9.244  66.051  1.00  0.00     0.000 HD 
HETATM   20  C   UNL     1      -9.791   8.522  66.673  1.00  0.00    -0.272 A  
HETATM   21  N   UNL     1      -8.940   8.873  67.608  1.00  0.00    -0.134 NA 
ENDBRANCH  14  15
ENDBRANCH  13  14
ENDBRANCH  12  13
ENDBRANCH  11  12
ENDBRANCH   5  11
TORSDOF 5
ENDMDL
MODEL      231
REMARK 921   NORMALIZED FREE ENERGY PREDICTED BY IDOCK:   -3.25 KCAL/MOL
REMARK 922        TOTAL FREE ENERGY PREDICTED BY IDOCK:   -5.17 KCAL/MOL
REMARK 923 INTER-LIGAND FREE ENERGY PREDICTED BY IDOCK:   -4.82 KCAL/MOL
REMARK 924 INTRA-LIGAND FREE ENERGY PREDICTED BY IDOCK:   -0.35 KCAL/MOL
REMARK 927      BINDING AFFINITY PREDICTED BY RF-SCORE:    0.00 PKD
ROOT
HETATM    1  C   UNL     1     -10.217   8.577  67.662  1.00  0.00    -0.236 C  
HETATM    2  N   UNL     1      -9.950   9.636  66.719  1.00  0.00    -0.212 NA 
HETATM    3  C   UNL     1      -9.289   9.472  65.535  1.00  0.00    -0.255 C  
HETATM    4  H   UNL     1     -10.278  10.573  66.952  1.00  0.00     0.000 HD 
HETATM    5  N   UNL     1      -9.124  10.638  64.825  1.00  0.00    -0.201 NA 
HETATM    6  N   UNL     1      -8.890   8.289  65.176  1.00  0.00    -0.391 NA 
HETATM    7  C   UNL     1      -8.255   8.152  64.012  1.00  0.00    -0.074 C  
HETATM    8  H   UNL     1      -8.642  10.566  63.928  1.00  0.00     0.000 HD 
HETATM    9  N   UNL     1      -7.707   8.075  62.992  1.00  0.00    -0.129 NA 
HETATM   10  H   UNL     1      -9.059   7.481  65.773  1.00  0.00     0.000 HD 
ENDROOT
BRANCH   5  11
HETATM   11  C   UNL     1      -9.566  11.963  65.225  1.00  0.00    -0.138 C  
BRANCH  11  12
HETATM   12  C   UNL     1     -10.619  12.571  64.295  1.00  0.00    -0.369 C  
BRANCH  12  13
HETATM   13  S   UNL     1     -10.938  14.262  64.908  1.00  0.00    -0.412 SA 
BRANCH  13  14
HETATM   14  C   UNL     1     -12.125  13.909  66.244  1.00  0.00    -0.451 C  
BRANCH  14  15
HETATM   15  C   UNL     1     -11.573  14.400  67.544  1.00  0.00    -0.373 A  
HETATM   16  C   UNL     1     -11.445  13.735  68.753  1.00  0.00    -0.303 A  
HETATM   17  C   UNL     1     -11.805  12.366  69.184  1.00  0.00    -0.352 C  
HETATM   18  N   UNL     1     -10.840  14.637  69.590  1.00  0.00    -0.368 NA 
HETATM   19  H   UNL     1     -10.588  14.477  70.566  1.00  0.00     0.000 HD 
HETATM   20  C   UNL     1     -10.633  15.787  68.886  1.00  0.00    -0.233 A  
HETATM   21  N   UNL     1     -11.077  15.683  67.656  1.00  0.00    -0.323 NA 
ENDBRANCH  14  15
ENDBRANCH  13  14
ENDBRANCH  12  13
ENDBRANCH  11  12
ENDBRANCH   5  11
TORSDOF 5
ENDMDL
MODEL      232
REMARK 921   NORMALIZED FREE ENERGY PREDICTED BY IDOCK:   -3.25 KCAL/MOL
REMARK 922        TOTAL FREE ENERGY PREDICTED BY IDOCK:   -5.16 KCAL/MOL
REMARK 923 INTER-LIGAND FREE ENERGY PREDICTED BY IDOCK:   -4.97 KCAL/MOL
REMARK 924 INTRA-LIGAND FREE ENERGY PREDICTED BY IDOCK:   -0.20 KCAL/MOL
REMARK 927      BINDING AFFINITY PREDICTED BY RF-SCORE:    0.00 PKD
ROOT
HETATM    1  C   UNL     1      -9.529   3.817  68.017  1.00  0.00    -0.164 C  
HETATM    2  N   UNL     1      -9.845   5.154  67.577  1.00  0.00    -0.152 NA 
HETATM    3  C   UNL     1      -9.427   5.702  66.399  1.00  0.00    -0.155 C  
HETATM    4  H   UNL     1     -10.421   5.731  68.190  1.00  0.00     0.000 HD 
HETATM    5  N   UNL     1      -9.825   7.007  66.221  1.00  0.00    -0.419 NA 
HETATM    6  N   UNL     1      -8.726   4.992  65.568  1.00  0.00    -0.138 NA 
HETATM    7  C   UNL     1      -8.337   5.545  64.419  1.00  0.00    -0.115 C  
HETATM    8  H   UNL     1      -9.544   7.459  65.350  1.00  0.00     0.000 HD 
HETATM    9  N   UNL     1      -8.018   6.063  63.431  1.00  0.00    -0.117 NA 
HETATM   10  H   UNL     1      -8.478   4.028  65.790  1.00  0.00     0.000 HD 
ENDROOT
BRANCH   5  11
HETATM   11  C   UNL     1     -10.605   7.806  67.149  1.00  0.00    -0.331 C  
BRANCH  11  12
HETATM   12  C   UNL     1      -9.817   8.944  67.802  1.00  0.00    -0.166 C  
BRANCH  12  13
HETATM   13  S   UNL     1     -10.868  10.433  67.693  1.00  0.00    -0.309 SA 
BRANCH  13  14
HETATM   14  C   UNL     1     -10.086  11.287  66.288  1.00  0.00    -0.230 C  
BRANCH  14  15
HETATM   15  C   UNL     1     -11.138  11.956  65.462  1.00  0.00    -0.304 A  
HETATM   16  C   UNL     1     -12.029  12.956  65.816  1.00  0.00    -0.443 A  
HETATM   17  C   UNL     1     -12.267  13.682  67.083  1.00  0.00    -0.340 C  
HETATM   18  N   UNL     1     -12.733  13.225  64.669  1.00  0.00    -0.683 NA 
HETATM   19  H   UNL     1     -13.474  13.919  64.566  1.00  0.00     0.000 HD 
HETATM   20  C   UNL     1     -12.265  12.399  63.689  1.00  0.00    -0.557 A  
HETATM   21  N   UNL     1     -11.315  11.613  64.137  1.00  0.00    -0.343 NA 
ENDBRANCH  14  15
ENDBRANCH  13  14
ENDBRANCH  12  13
ENDBRANCH  11  12
ENDBRANCH   5  11
TORSDOF 5
ENDMDL
MODEL      233
REMARK 921   NORMALIZED FREE ENERGY PREDICTED BY IDOCK:   -3.24 KCAL/MOL
REMARK 922        TOTAL FREE ENERGY PREDICTED BY IDOCK:   -5.15 KCAL/MOL
REMARK 923 INTER-LIGAND FREE ENERGY PREDICTED BY IDOCK:   -4.34 KCAL/MOL
REMARK 924 INTRA-LIGAND FREE ENERGY PREDICTED BY IDOCK:   -0.81 KCAL/MOL
REMARK 927      BINDING AFFINITY PREDICTED BY RF-SCORE:    0.00 PKD
ROOT
HETATM    1  C   UNL     1     -10.593   6.966  69.584  1.00  0.00    -0.231 C  
HETATM    2  N   UNL     1     -11.004   8.332  69.372  1.00  0.00    -0.431 NA 
HETATM    3  C   UNL     1     -10.730   9.059  68.248  1.00  0.00    -0.103 C  
HETATM    4  H   UNL     1     -11.536   8.788  70.113  1.00  0.00     0.000 HD 
HETATM    5  N   UNL     1     -11.195  10.353  68.297  1.00  0.00    -0.408 NA 
HETATM    6  N   UNL     1     -10.092   8.507  67.261  1.00  0.00    -0.226 NA 
HETATM    7  C   UNL     1      -9.844   9.233  66.171  1.00  0.00    -0.293 C  
HETATM    8  H   UNL     1     -11.022  10.934  67.476  1.00  0.00     0.000 HD 
HETATM    9  N   UNL     1      -9.648   9.898  65.241  1.00  0.00    -0.277 NA 
HETATM   10  H   UNL     1      -9.786   7.536  67.319  1.00  0.00     0.000 HD 
ENDROOT
BRANCH   5  11
HETATM   11  C   UNL     1     -11.906  10.974  69.400  1.00  0.00    -0.335 C  
BRANCH  11  12
HETATM   12  C   UNL     1     -12.074  12.489  69.254  1.00  0.00    -0.161 C  
BRANCH  12  13
HETATM   13  S   UNL     1     -11.697  12.887  67.512  1.00  0.00    -0.356 SA 
BRANCH  13  14
HETATM   14  C   UNL     1     -10.503  14.244  67.736  1.00  0.00    -0.245 C  
BRANCH  14  15
HETATM   15  C   UNL     1      -9.112  13.713  67.602  1.00  0.00    -0.207 A  
HETATM   16  C   UNL     1      -7.952  14.369  67.224  1.00  0.00    -0.180 A  
HETATM   17  C   UNL     1      -7.680  15.765  66.817  1.00  0.00    -0.216 C  
HETATM   18  N   UNL     1      -6.964  13.422  67.315  1.00  0.00    -0.370 NA 
HETATM   19  H   UNL     1      -5.974  13.564  67.112  1.00  0.00     0.000 HD 
HETATM   20  C   UNL     1      -7.540  12.256  67.726  1.00  0.00    -0.131 A  
HETATM   21  N   UNL     1      -8.834  12.392  67.893  1.00  0.00    -0.172 NA 
ENDBRANCH  14  15
ENDBRANCH  13  14
ENDBRANCH  12  13
ENDBRANCH  11  12
ENDBRANCH   5  11
TORSDOF 5
ENDMDL
MODEL      234
REMARK 921   NORMALIZED FREE ENERGY PREDICTED BY IDOCK:   -3.24 KCAL/MOL
REMARK 922        TOTAL FREE ENERGY PREDICTED BY IDOCK:   -5.15 KCAL/MOL
REMARK 923 INTER-LIGAND FREE ENERGY PREDICTED BY IDOCK:   -4.86 KCAL/MOL
REMARK 924 INTRA-LIGAND FREE ENERGY PREDICTED BY IDOCK:   -0.29 KCAL/MOL
REMARK 927      BINDING AFFINITY PREDICTED BY RF-SCORE:    0.00 PKD
ROOT
HETATM    1  C   UNL     1     -10.904   6.102  66.842  1.00  0.00    -0.335 C  
HETATM    2  N   UNL     1     -10.447   7.379  67.334  1.00  0.00    -0.267 NA 
HETATM    3  C   UNL     1     -10.560   7.796  68.629  1.00  0.00    -0.120 C  
HETATM    4  H   UNL     1     -10.009   8.014  66.668  1.00  0.00     0.000 HD 
HETATM    5  N   UNL     1     -10.085   9.069  68.846  1.00  0.00    -0.190 NA 
HETATM    6  N   UNL     1     -11.073   7.005  69.522  1.00  0.00    -0.413 NA 
HETATM    7  C   UNL     1     -11.165   7.431  70.781  1.00  0.00    -0.271 C  
HETATM    8  H   UNL     1     -10.139   9.424  69.801  1.00  0.00     0.000 HD 
HETATM    9  N   UNL     1     -11.226   7.839  71.866  1.00  0.00    -0.254 NA 
HETATM   10  H   UNL     1     -11.400   6.074  69.263  1.00  0.00     0.000 HD 
ENDROOT
BRANCH   5  11
HETATM   11  C   UNL     1      -9.513   9.958  67.850  1.00  0.00    -0.133 C  
BRANCH  11  12
HETATM   12  C   UNL     1      -9.785  11.442  68.115  1.00  0.00    -0.192 C  
BRANCH  12  13
HETATM   13  S   UNL     1     -11.597  11.621  68.254  1.00  0.00    -0.304 SA 
BRANCH  13  14
HETATM   14  C   UNL     1     -11.812  13.307  67.601  1.00  0.00    -0.357 C  
BRANCH  14  15
HETATM   15  C   UNL     1     -11.898  14.275  68.738  1.00  0.00    -0.341 A  
HETATM   16  C   UNL     1     -11.428  15.576  68.823  1.00  0.00    -0.355 A  
HETATM   17  C   UNL     1     -10.692  16.437  67.872  1.00  0.00    -0.332 C  
HETATM   18  N   UNL     1     -11.815  16.011  70.065  1.00  0.00    -0.337 NA 
HETATM   19  H   UNL     1     -11.638  16.934  70.461  1.00  0.00     0.000 HD 
HETATM   20  C   UNL     1     -12.479  14.989  70.678  1.00  0.00    -0.365 A  
HETATM   21  N   UNL     1     -12.534  13.925  69.912  1.00  0.00    -0.290 NA 
ENDBRANCH  14  15
ENDBRANCH  13  14
ENDBRANCH  12  13
ENDBRANCH  11  12
ENDBRANCH   5  11
TORSDOF 5
ENDMDL
MODEL      235
REMARK 921   NORMALIZED FREE ENERGY PREDICTED BY IDOCK:   -3.24 KCAL/MOL
REMARK 922        TOTAL FREE ENERGY PREDICTED BY IDOCK:   -5.15 KCAL/MOL
REMARK 923 INTER-LIGAND FREE ENERGY PREDICTED BY IDOCK:   -5.52 KCAL/MOL
REMARK 924 INTRA-LIGAND FREE ENERGY PREDICTED BY IDOCK:    0.38 KCAL/MOL
REMARK 927      BINDING AFFINITY PREDICTED BY RF-SCORE:    0.00 PKD
ROOT
HETATM    1  C   UNL     1      -9.421   8.860  66.120  1.00  0.00    -0.251 C  
HETATM    2  N   UNL     1      -9.727   9.210  67.486  1.00  0.00    -0.153 NA 
HETATM    3  C   UNL     1      -9.493  10.433  68.044  1.00  0.00    -0.143 C  
HETATM    4  H   UNL     1     -10.147   8.492  68.076  1.00  0.00     0.000 HD 
HETATM    5  N   UNL     1      -9.835  10.512  69.374  1.00  0.00    -0.336 NA 
HETATM    6  N   UNL     1      -8.997  11.391  67.320  1.00  0.00    -0.156 NA 
HETATM    7  C   UNL     1      -8.785  12.580  67.884  1.00  0.00    -0.180 C  
HETATM    8  H   UNL     1      -9.686  11.410  69.836  1.00  0.00     0.000 HD 
HETATM    9  N   UNL     1      -8.616  13.599  68.413  1.00  0.00    -0.169 NA 
HETATM   10  H   UNL     1      -8.773  11.236  66.337  1.00  0.00     0.000 HD 
ENDROOT
BRANCH   5  11
HETATM   11  C   UNL     1     -10.386   9.443  70.188  1.00  0.00    -0.233 C  
BRANCH  11  12
HETATM   12  C   UNL     1     -11.388   9.921  71.243  1.00  0.00    -0.333 C  
BRANCH  12  13
HETATM   13  S   UNL     1     -12.447  11.164  70.427  1.00  0.00    -0.274 SA 
BRANCH  13  14
HETATM   14  C   UNL     1     -13.271  11.898  71.876  1.00  0.00    -0.362 C  
BRANCH  14  15
HETATM   15  C   UNL     1     -13.461  13.364  71.652  1.00  0.00    -0.299 A  
HETATM   16  C   UNL     1     -12.852  14.200  70.730  1.00  0.00    -0.310 A  
HETATM   17  C   UNL     1     -11.828  13.962  69.689  1.00  0.00    -0.385 C  
HETATM   18  N   UNL     1     -13.426  15.429  70.933  1.00  0.00    -0.711 NA 
HETATM   19  H   UNL     1     -13.214  16.284  70.418  1.00  0.00     0.000 HD 
HETATM   20  C   UNL     1     -14.330  15.305  71.946  1.00  0.00    -0.589 A  
HETATM   21  N   UNL     1     -14.366  14.079  72.411  1.00  0.00    -0.636 NA 
ENDBRANCH  14  15
ENDBRANCH  13  14
ENDBRANCH  12  13
ENDBRANCH  11  12
ENDBRANCH   5  11
TORSDOF 5
ENDMDL
MODEL      236
REMARK 921   NORMALIZED FREE ENERGY PREDICTED BY IDOCK:   -3.23 KCAL/MOL
REMARK 922        TOTAL FREE ENERGY PREDICTED BY IDOCK:   -5.14 KCAL/MOL
REMARK 923 INTER-LIGAND FREE ENERGY PREDICTED BY IDOCK:   -4.88 KCAL/MOL
REMARK 924 INTRA-LIGAND FREE ENERGY PREDICTED BY IDOCK:   -0.26 KCAL/MOL
REMARK 927      BINDING AFFINITY PREDICTED BY RF-SCORE:    0.00 PKD
ROOT
HETATM    1  C   UNL     1      -9.748  10.437  62.575  1.00  0.00    -0.093 C  
HETATM    2  N   UNL     1     -10.202  10.979  63.832  1.00  0.00    -0.338 NA 
HETATM    3  C   UNL     1      -9.428  11.097  64.951  1.00  0.00    -0.219 C  
HETATM    4  H   UNL     1     -11.169  11.297  63.889  1.00  0.00     0.000 HD 
HETATM    5  N   UNL     1     -10.098  11.609  66.038  1.00  0.00    -0.216 NA 
HETATM    6  N   UNL     1      -8.179  10.744  64.913  1.00  0.00    -0.357 NA 
HETATM    7  C   UNL     1      -7.441  10.877  66.015  1.00  0.00    -0.086 C  
HETATM    8  H   UNL     1      -9.560  11.725  66.897  1.00  0.00     0.000 HD 
HETATM    9  N   UNL     1      -6.833  11.008  66.995  1.00  0.00    -0.101 NA 
HETATM   10  H   UNL     1      -7.770  10.372  64.056  1.00  0.00     0.000 HD 
ENDROOT
BRANCH   5  11
HETATM   11  C   UNL     1     -11.495  12.002  66.084  1.00  0.00    -0.339 C  
BRANCH  11  12
HETATM   12  C   UNL     1     -11.711  13.516  66.166  1.00  0.00    -0.365 C  
BRANCH  12  13
HETATM   13  S   UNL     1     -10.055  14.267  66.331  1.00  0.00    -0.298 SA 
BRANCH  13  14
HETATM   14  C   UNL     1     -10.507  15.943  66.884  1.00  0.00    -0.309 C  
BRANCH  14  15
HETATM   15  C   UNL     1      -9.413  16.898  66.528  1.00  0.00    -0.276 A  
HETATM   16  C   UNL     1      -9.478  18.262  66.295  1.00  0.00    -0.230 A  
HETATM   17  C   UNL     1     -10.601  19.225  66.298  1.00  0.00    -0.545 C  
HETATM   18  N   UNL     1      -8.181  18.642  66.054  1.00  0.00    -0.486 NA 
HETATM   19  H   UNL     1      -7.860  19.588  65.849  1.00  0.00     0.000 HD 
HETATM   20  C   UNL     1      -7.398  17.528  66.137  1.00  0.00    -0.311 A  
HETATM   21  N   UNL     1      -8.110  16.459  66.406  1.00  0.00    -0.315 NA 
ENDBRANCH  14  15
ENDBRANCH  13  14
ENDBRANCH  12  13
ENDBRANCH  11  12
ENDBRANCH   5  11
TORSDOF 5
ENDMDL
MODEL      237
REMARK 921   NORMALIZED FREE ENERGY PREDICTED BY IDOCK:   -3.22 KCAL/MOL
REMARK 922        TOTAL FREE ENERGY PREDICTED BY IDOCK:   -5.13 KCAL/MOL
REMARK 923 INTER-LIGAND FREE ENERGY PREDICTED BY IDOCK:   -4.89 KCAL/MOL
REMARK 924 INTRA-LIGAND FREE ENERGY PREDICTED BY IDOCK:   -0.24 KCAL/MOL
REMARK 927      BINDING AFFINITY PREDICTED BY RF-SCORE:    0.00 PKD
ROOT
HETATM    1  C   UNL     1     -11.519  14.041  64.416  1.00  0.00    -0.344 C  
HETATM    2  N   UNL     1     -11.599  13.637  65.799  1.00  0.00    -0.324 NA 
HETATM    3  C   UNL     1     -11.335  14.452  66.861  1.00  0.00    -0.348 C  
HETATM    4  H   UNL     1     -11.870  12.674  65.996  1.00  0.00     0.000 HD 
HETATM    5  N   UNL     1     -11.442  13.826  68.082  1.00  0.00    -0.293 NA 
HETATM    6  N   UNL     1     -11.026  15.698  66.660  1.00  0.00    -0.264 NA 
HETATM    7  C   UNL     1     -10.782  16.477  67.714  1.00  0.00    -0.329 C  
HETATM    8  H   UNL     1     -11.263  14.397  68.909  1.00  0.00     0.000 HD 
HETATM    9  N   UNL     1     -10.577  17.122  68.657  1.00  0.00    -0.359 NA 
HETATM   10  H   UNL     1     -10.971  16.072  65.714  1.00  0.00     0.000 HD 
ENDROOT
BRANCH   5  11
HETATM   11  C   UNL     1     -11.784  12.433  68.310  1.00  0.00    -0.345 C  
BRANCH  11  12
HETATM   12  C   UNL     1     -10.606  11.575  68.777  1.00  0.00    -0.211 C  
BRANCH  12  13
HETATM   13  S   UNL     1     -10.770   9.965  67.930  1.00  0.00    -0.255 SA 
BRANCH  13  14
HETATM   14  C   UNL     1      -9.495   9.002  68.803  1.00  0.00    -0.148 C  
BRANCH  14  15
HETATM   15  C   UNL     1     -10.143   7.894  69.569  1.00  0.00    -0.195 A  
HETATM   16  C   UNL     1     -10.236   7.708  70.939  1.00  0.00    -0.199 A  
HETATM   17  C   UNL     1      -9.738   8.492  72.091  1.00  0.00    -0.387 C  
HETATM   18  N   UNL     1     -10.970   6.559  71.091  1.00  0.00    -0.254 NA 
HETATM   19  H   UNL     1     -11.235   6.128  71.977  1.00  0.00     0.000 HD 
HETATM   20  C   UNL     1     -11.282   6.094  69.847  1.00  0.00    -0.414 A  
HETATM   21  N   UNL     1     -10.787   6.866  68.909  1.00  0.00    -0.224 NA 
ENDBRANCH  14  15
ENDBRANCH  13  14
ENDBRANCH  12  13
ENDBRANCH  11  12
ENDBRANCH   5  11
TORSDOF 5
ENDMDL
MODEL      238
REMARK 921   NORMALIZED FREE ENERGY PREDICTED BY IDOCK:   -3.22 KCAL/MOL
REMARK 922        TOTAL FREE ENERGY PREDICTED BY IDOCK:   -5.12 KCAL/MOL
REMARK 923 INTER-LIGAND FREE ENERGY PREDICTED BY IDOCK:   -4.85 KCAL/MOL
REMARK 924 INTRA-LIGAND FREE ENERGY PREDICTED BY IDOCK:   -0.27 KCAL/MOL
REMARK 927      BINDING AFFINITY PREDICTED BY RF-SCORE:    0.00 PKD
ROOT
HETATM    1  C   UNL     1      -7.624   5.075  67.700  1.00  0.00    -0.087 C  
HETATM    2  N   UNL     1      -8.095   6.314  67.130  1.00  0.00    -0.109 NA 
HETATM    3  C   UNL     1      -8.238   6.547  65.792  1.00  0.00    -0.135 C  
HETATM    4  H   UNL     1      -8.338   7.069  67.771  1.00  0.00     0.000 HD 
HETATM    5  N   UNL     1      -8.667   7.819  65.492  1.00  0.00    -0.319 NA 
HETATM    6  N   UNL     1      -7.980   5.601  64.940  1.00  0.00    -0.111 NA 
HETATM    7  C   UNL     1      -8.136   5.849  63.639  1.00  0.00    -0.094 C  
HETATM    8  H   UNL     1      -8.797   8.040  64.504  1.00  0.00     0.000 HD 
HETATM    9  N   UNL     1      -8.284   6.104  62.517  1.00  0.00    -0.097 NA 
HETATM   10  H   UNL     1      -7.665   4.686  65.260  1.00  0.00     0.000 HD 
ENDROOT
BRANCH   5  11
HETATM   11  C   UNL     1      -8.953   8.880  66.442  1.00  0.00    -0.158 C  
BRANCH  11  12
HETATM   12  C   UNL     1     -10.187   9.713  66.087  1.00  0.00    -0.205 C  
BRANCH  12  13
HETATM   13  S   UNL     1      -9.700  11.464  66.267  1.00  0.00    -0.220 SA 
BRANCH  13  14
HETATM   14  C   UNL     1     -11.332  12.237  66.504  1.00  0.00    -0.351 C  
BRANCH  14  15
HETATM   15  C   UNL     1     -11.595  13.199  65.391  1.00  0.00    -0.333 A  
HETATM   16  C   UNL     1     -12.097  12.959  64.121  1.00  0.00    -0.432 A  
HETATM   17  C   UNL     1     -12.519  11.721  63.430  1.00  0.00    -0.490 C  
HETATM   18  N   UNL     1     -12.175  14.196  63.532  1.00  0.00    -1.090 NA 
HETATM   19  H   UNL     1     -12.510  14.392  62.589  1.00  0.00     0.000 HD 
HETATM   20  C   UNL     1     -11.725  15.116  64.433  1.00  0.00    -0.295 A  
HETATM   21  N   UNL     1     -11.355  14.548  65.556  1.00  0.00    -0.328 NA 
ENDBRANCH  14  15
ENDBRANCH  13  14
ENDBRANCH  12  13
ENDBRANCH  11  12
ENDBRANCH   5  11
TORSDOF 5
ENDMDL
MODEL      239
REMARK 921   NORMALIZED FREE ENERGY PREDICTED BY IDOCK:   -3.21 KCAL/MOL
REMARK 922        TOTAL FREE ENERGY PREDICTED BY IDOCK:   -5.11 KCAL/MOL
REMARK 923 INTER-LIGAND FREE ENERGY PREDICTED BY IDOCK:   -4.82 KCAL/MOL
REMARK 924 INTRA-LIGAND FREE ENERGY PREDICTED BY IDOCK:   -0.29 KCAL/MOL
REMARK 927      BINDING AFFINITY PREDICTED BY RF-SCORE:    0.00 PKD
ROOT
HETATM    1  C   UNL     1     -12.028  14.829  67.949  1.00  0.00    -0.227 C  
HETATM    2  N   UNL     1     -11.677  13.443  67.757  1.00  0.00    -0.339 NA 
HETATM    3  C   UNL     1     -11.894  12.740  66.607  1.00  0.00    -0.393 C  
HETATM    4  H   UNL     1     -11.234  12.954  68.535  1.00  0.00     0.000 HD 
HETATM    5  N   UNL     1     -11.508  11.422  66.680  1.00  0.00    -0.408 NA 
HETATM    6  N   UNL     1     -12.417  13.332  65.576  1.00  0.00    -0.476 NA 
HETATM    7  C   UNL     1     -12.612  12.627  64.461  1.00  0.00    -0.412 C  
HETATM    8  H   UNL     1     -11.643  10.855  65.842  1.00  0.00     0.000 HD 
HETATM    9  N   UNL     1     -12.766  11.979  63.511  1.00  0.00    -0.742 NA 
HETATM   10  H   UNL     1     -12.673  14.318  65.618  1.00  0.00     0.000 HD 
ENDROOT
BRANCH   5  11
HETATM   11  C   UNL     1     -10.926  10.756  67.833  1.00  0.00    -0.289 C  
BRANCH  11  12
HETATM   12  C   UNL     1      -9.557  10.127  67.559  1.00  0.00    -0.156 C  
BRANCH  12  13
HETATM   13  S   UNL     1      -9.826   8.820  66.313  1.00  0.00    -0.227 SA 
BRANCH  13  14
HETATM   14  C   UNL     1     -10.701   7.580  67.320  1.00  0.00    -0.295 C  
BRANCH  14  15
HETATM   15  C   UNL     1      -9.723   6.570  67.829  1.00  0.00    -0.122 A  
HETATM   16  C   UNL     1      -9.438   5.302  67.348  1.00  0.00    -0.127 A  
HETATM   17  C   UNL     1      -9.981   4.515  66.220  1.00  0.00    -0.268 C  
HETATM   18  N   UNL     1      -8.435   4.834  68.160  1.00  0.00    -0.101 NA 
HETATM   19  H   UNL     1      -7.978   3.925  68.087  1.00  0.00     0.000 HD 
HETATM   20  C   UNL     1      -8.160   5.799  69.083  1.00  0.00    -0.101 A  
HETATM   21  N   UNL     1      -8.927   6.851  68.921  1.00  0.00    -0.132 NA 
ENDBRANCH  14  15
ENDBRANCH  13  14
ENDBRANCH  12  13
ENDBRANCH  11  12
ENDBRANCH   5  11
TORSDOF 5
ENDMDL
MODEL      240
REMARK 921   NORMALIZED FREE ENERGY PREDICTED BY IDOCK:   -3.20 KCAL/MOL
REMARK 922        TOTAL FREE ENERGY PREDICTED BY IDOCK:   -5.10 KCAL/MOL
REMARK 923 INTER-LIGAND FREE ENERGY PREDICTED BY IDOCK:   -4.94 KCAL/MOL
REMARK 924 INTRA-LIGAND FREE ENERGY PREDICTED BY IDOCK:   -0.16 KCAL/MOL
REMARK 927      BINDING AFFINITY PREDICTED BY RF-SCORE:    0.00 PKD
ROOT
HETATM    1  C   UNL     1     -12.600  13.259  64.433  1.00  0.00    -0.214 C  
HETATM    2  N   UNL     1     -12.258  12.551  65.643  1.00  0.00    -0.612 NA 
HETATM    3  C   UNL     1     -11.142  11.781  65.801  1.00  0.00    -0.297 C  
HETATM    4  H   UNL     1     -12.895  12.631  66.435  1.00  0.00     0.000 HD 
HETATM    5  N   UNL     1     -11.054  11.176  67.034  1.00  0.00    -0.294 NA 
HETATM    6  N   UNL     1     -10.281  11.683  64.833  1.00  0.00    -0.257 NA 
HETATM    7  C   UNL     1      -9.194  10.933  65.014  1.00  0.00    -0.207 C  
HETATM    8  H   UNL     1     -10.232  10.596  67.204  1.00  0.00     0.000 HD 
HETATM    9  N   UNL     1      -8.262  10.271  65.212  1.00  0.00    -0.157 NA 
HETATM   10  H   UNL     1     -10.434  12.171  63.951  1.00  0.00     0.000 HD 
ENDROOT
BRANCH   5  11
HETATM   11  C   UNL     1     -12.016  11.281  68.117  1.00  0.00    -0.110 C  
BRANCH  11  12
HETATM   12  C   UNL     1     -11.447  11.910  69.392  1.00  0.00    -0.302 C  
BRANCH  12  13
HETATM   13  S   UNL     1     -12.314  11.119  70.791  1.00  0.00    -0.399 SA 
BRANCH  13  14
HETATM   14  C   UNL     1     -11.086   9.864  71.273  1.00  0.00    -0.232 C  
BRANCH  14  15
HETATM   15  C   UNL     1     -11.597   8.504  70.922  1.00  0.00    -0.263 A  
HETATM   16  C   UNL     1     -12.808   7.910  71.240  1.00  0.00    -0.217 A  
HETATM   17  C   UNL     1     -13.976   8.376  72.020  1.00  0.00    -0.468 C  
HETATM   18  N   UNL     1     -12.771   6.682  70.630  1.00  0.00    -0.276 NA 
HETATM   19  H   UNL     1     -13.508   5.977  70.653  1.00  0.00     0.000 HD 
HETATM   20  C   UNL     1     -11.573   6.570  69.989  1.00  0.00    -0.390 A  
HETATM   21  N   UNL     1     -10.837   7.643  70.156  1.00  0.00    -0.248 NA 
ENDBRANCH  14  15
ENDBRANCH  13  14
ENDBRANCH  12  13
ENDBRANCH  11  12
ENDBRANCH   5  11
TORSDOF 5
ENDMDL
MODEL      241
REMARK 921   NORMALIZED FREE ENERGY PREDICTED BY IDOCK:   -3.20 KCAL/MOL
REMARK 922        TOTAL FREE ENERGY PREDICTED BY IDOCK:   -5.10 KCAL/MOL
REMARK 923 INTER-LIGAND FREE ENERGY PREDICTED BY IDOCK:   -4.76 KCAL/MOL
REMARK 924 INTRA-LIGAND FREE ENERGY PREDICTED BY IDOCK:   -0.34 KCAL/MOL
REMARK 927      BINDING AFFINITY PREDICTED BY RF-SCORE:    0.00 PKD
ROOT
HETATM    1  C   UNL     1     -11.508  14.429  67.064  1.00  0.00    -0.361 C  
HETATM    2  N   UNL     1     -11.733  13.554  68.190  1.00  0.00    -0.341 NA 
HETATM    3  C   UNL     1     -12.135  13.969  69.426  1.00  0.00    -0.340 C  
HETATM    4  H   UNL     1     -11.581  12.555  68.051  1.00  0.00     0.000 HD 
HETATM    5  N   UNL     1     -12.244  12.952  70.346  1.00  0.00    -0.367 NA 
HETATM    6  N   UNL     1     -12.381  15.227  69.638  1.00  0.00    -0.555 NA 
HETATM    7  C   UNL     1     -12.781  15.608  70.852  1.00  0.00    -0.445 C  
HETATM    8  H   UNL     1     -12.549  13.211  71.285  1.00  0.00     0.000 HD 
HETATM    9  N   UNL     1     -13.126  15.898  71.920  1.00  0.00    -0.418 NA 
HETATM   10  H   UNL     1     -12.270  15.910  68.890  1.00  0.00     0.000 HD 
ENDROOT
BRANCH   5  11
HETATM   11  C   UNL     1     -11.966  11.545  70.114  1.00  0.00    -0.369 C  
BRANCH  11  12
HETATM   12  C   UNL     1     -12.162  10.663  71.349  1.00  0.00    -0.302 C  
BRANCH  12  13
HETATM   13  S   UNL     1     -11.536   9.005  70.908  1.00  0.00    -0.299 SA 
BRANCH  13  14
HETATM   14  C   UNL     1      -9.795   9.164  71.419  1.00  0.00    -0.284 C  
BRANCH  14  15
HETATM   15  C   UNL     1      -8.905   8.875  70.253  1.00  0.00    -0.175 A  
HETATM   16  C   UNL     1      -7.767   8.087  70.189  1.00  0.00    -0.087 A  
HETATM   17  C   UNL     1      -7.041   7.295  71.206  1.00  0.00    -0.064 C  
HETATM   18  N   UNL     1      -7.374   8.137  68.876  1.00  0.00    -0.088 NA 
HETATM   19  H   UNL     1      -6.568   7.662  68.471  1.00  0.00     0.000 HD 
HETATM   20  C   UNL     1      -8.256   8.936  68.207  1.00  0.00    -0.121 A  
HETATM   21  N   UNL     1      -9.180   9.408  69.010  1.00  0.00    -0.142 NA 
ENDBRANCH  14  15
ENDBRANCH  13  14
ENDBRANCH  12  13
ENDBRANCH  11  12
ENDBRANCH   5  11
TORSDOF 5
ENDMDL
MODEL      242
REMARK 921   NORMALIZED FREE ENERGY PREDICTED BY IDOCK:   -3.20 KCAL/MOL
REMARK 922        TOTAL FREE ENERGY PREDICTED BY IDOCK:   -5.09 KCAL/MOL
REMARK 923 INTER-LIGAND FREE ENERGY PREDICTED BY IDOCK:   -4.72 KCAL/MOL
REMARK 924 INTRA-LIGAND FREE ENERGY PREDICTED BY IDOCK:   -0.38 KCAL/MOL
REMARK 927      BINDING AFFINITY PREDICTED BY RF-SCORE:    0.00 PKD
ROOT
HETATM    1  C   UNL     1     -11.910  11.245  68.891  1.00  0.00    -0.345 C  
HETATM    2  N   UNL     1     -11.134  10.130  68.405  1.00  0.00    -0.404 NA 
HETATM    3  C   UNL     1     -10.651  10.016  67.134  1.00  0.00    -0.232 C  
HETATM    4  H   UNL     1     -10.932   9.373  69.058  1.00  0.00     0.000 HD 
HETATM    5  N   UNL     1      -9.972   8.843  66.899  1.00  0.00    -0.222 NA 
HETATM    6  N   UNL     1     -10.848  10.975  66.279  1.00  0.00    -0.216 NA 
HETATM    7  C   UNL     1     -10.359  10.846  65.046  1.00  0.00    -0.288 C  
HETATM    8  H   UNL     1      -9.583   8.715  65.964  1.00  0.00     0.000 HD 
HETATM    9  N   UNL     1      -9.917  10.695  63.983  1.00  0.00    -0.332 NA 
HETATM   10  H   UNL     1     -11.367  11.810  66.547  1.00  0.00     0.000 HD 
ENDROOT
BRANCH   5  11
HETATM   11  C   UNL     1      -9.752   7.768  67.851  1.00  0.00    -0.153 C  
BRANCH  11  12
HETATM   12  C   UNL     1     -10.707   6.584  67.678  1.00  0.00    -0.307 C  
BRANCH  12  13
HETATM   13  S   UNL     1     -10.589   5.595  69.209  1.00  0.00    -0.268 SA 
BRANCH  13  14
HETATM   14  C   UNL     1     -11.856   6.415  70.229  1.00  0.00    -0.213 C  
BRANCH  14  15
HETATM   15  C   UNL     1     -11.346   6.576  71.625  1.00  0.00    -0.285 A  
HETATM   16  C   UNL     1     -10.906   7.718  72.274  1.00  0.00    -0.283 A  
HETATM   17  C   UNL     1     -10.771   9.126  71.840  1.00  0.00    -0.334 C  
HETATM   18  N   UNL     1     -10.596   7.306  73.545  1.00  0.00    -0.390 NA 
HETATM   19  H   UNL     1     -10.244   7.895  74.299  1.00  0.00     0.000 HD 
HETATM   20  C   UNL     1     -10.843   5.966  73.621  1.00  0.00    -0.167 A  
HETATM   21  N   UNL     1     -11.281   5.493  72.478  1.00  0.00    -0.277 NA 
ENDBRANCH  14  15
ENDBRANCH  13  14
ENDBRANCH  12  13
ENDBRANCH  11  12
ENDBRANCH   5  11
TORSDOF 5
ENDMDL
MODEL      243
REMARK 921   NORMALIZED FREE ENERGY PREDICTED BY IDOCK:   -3.19 KCAL/MOL
REMARK 922        TOTAL FREE ENERGY PREDICTED BY IDOCK:   -5.09 KCAL/MOL
REMARK 923 INTER-LIGAND FREE ENERGY PREDICTED BY IDOCK:   -4.59 KCAL/MOL
REMARK 924 INTRA-LIGAND FREE ENERGY PREDICTED BY IDOCK:   -0.50 KCAL/MOL
REMARK 927      BINDING AFFINITY PREDICTED BY RF-SCORE:    0.00 PKD
ROOT
HETATM    1  C   UNL     1     -12.454  13.575  70.956  1.00  0.00    -0.369 C  
HETATM    2  N   UNL     1     -11.678  12.714  70.097  1.00  0.00    -0.538 NA 
HETATM    3  C   UNL     1     -11.577  12.857  68.743  1.00  0.00    -0.311 C  
HETATM    4  H   UNL     1     -11.168  11.945  70.531  1.00  0.00     0.000 HD 
HETATM    5  N   UNL     1     -10.809  11.889  68.137  1.00  0.00    -0.209 NA 
HETATM    6  N   UNL     1     -12.175  13.846  68.151  1.00  0.00    -0.494 NA 
HETATM    7  C   UNL     1     -12.055  13.971  66.829  1.00  0.00    -0.447 C  
HETATM    8  H   UNL     1     -10.697  11.957  67.125  1.00  0.00     0.000 HD 
HETATM    9  N   UNL     1     -11.926  14.043  65.678  1.00  0.00    -0.378 NA 
HETATM   10  H   UNL     1     -12.725  14.516  68.687  1.00  0.00     0.000 HD 
ENDROOT
BRANCH   5  11
HETATM   11  C   UNL     1     -10.142  10.779  68.796  1.00  0.00    -0.191 C  
BRANCH  11  12
HETATM   12  C   UNL     1      -8.617  10.907  68.832  1.00  0.00    -0.140 C  
BRANCH  12  13
HETATM   13  S   UNL     1      -7.949   9.299  68.280  1.00  0.00    -0.103 SA 
BRANCH  13  14
HETATM   14  C   UNL     1      -9.341   8.691  67.276  1.00  0.00    -0.152 C  
BRANCH  14  15
HETATM   15  C   UNL     1      -9.108   9.034  65.840  1.00  0.00    -0.212 A  
HETATM   16  C   UNL     1      -8.533   8.271  64.836  1.00  0.00    -0.096 A  
HETATM   17  C   UNL     1      -7.952   6.911  64.821  1.00  0.00    -0.119 C  
HETATM   18  N   UNL     1      -8.611   9.052  63.710  1.00  0.00    -0.347 NA 
HETATM   19  H   UNL     1      -8.283   8.798  62.778  1.00  0.00     0.000 HD 
HETATM   20  C   UNL     1      -9.205  10.230  64.059  1.00  0.00    -0.271 A  
HETATM   21  N   UNL     1      -9.503  10.257  65.336  1.00  0.00    -0.211 NA 
ENDBRANCH  14  15
ENDBRANCH  13  14
ENDBRANCH  12  13
ENDBRANCH  11  12
ENDBRANCH   5  11
TORSDOF 5
ENDMDL
MODEL      244
REMARK 921   NORMALIZED FREE ENERGY PREDICTED BY IDOCK:   -3.19 KCAL/MOL
REMARK 922        TOTAL FREE ENERGY PREDICTED BY IDOCK:   -5.08 KCAL/MOL
REMARK 923 INTER-LIGAND FREE ENERGY PREDICTED BY IDOCK:   -4.58 KCAL/MOL
REMARK 924 INTRA-LIGAND FREE ENERGY PREDICTED BY IDOCK:   -0.50 KCAL/MOL
REMARK 927      BINDING AFFINITY PREDICTED BY RF-SCORE:    0.00 PKD
ROOT
HETATM    1  C   UNL     1     -12.398  13.242  65.154  1.00  0.00    -0.466 C  
HETATM    2  N   UNL     1     -12.064  12.366  66.251  1.00  0.00    -0.630 NA 
HETATM    3  C   UNL     1     -10.977  11.541  66.281  1.00  0.00    -0.275 C  
HETATM    4  H   UNL     1     -12.684  12.363  67.060  1.00  0.00     0.000 HD 
HETATM    5  N   UNL     1     -10.893  10.773  67.419  1.00  0.00    -0.272 NA 
HETATM    6  N   UNL     1     -10.137  11.542  65.290  1.00  0.00    -0.257 NA 
HETATM    7  C   UNL     1      -9.078  10.734  65.346  1.00  0.00    -0.194 C  
HETATM    8  H   UNL     1     -10.092  10.145  67.493  1.00  0.00     0.000 HD 
HETATM    9  N   UNL     1      -8.170  10.017  65.433  1.00  0.00    -0.142 NA 
HETATM   10  H   UNL     1     -10.285  12.149  64.485  1.00  0.00     0.000 HD 
ENDROOT
BRANCH   5  11
HETATM   11  C   UNL     1     -11.833  10.768  68.527  1.00  0.00    -0.096 C  
BRANCH  11  12
HETATM   12  C   UNL     1     -11.182  11.009  69.892  1.00  0.00    -0.252 C  
BRANCH  12  13
HETATM   13  S   UNL     1     -12.089   9.971  71.090  1.00  0.00    -0.407 SA 
BRANCH  13  14
HETATM   14  C   UNL     1     -10.720   8.982  71.772  1.00  0.00    -0.367 C  
BRANCH  14  15
HETATM   15  C   UNL     1     -10.494   7.782  70.911  1.00  0.00    -0.206 A  
HETATM   16  C   UNL     1      -9.571   7.589  69.895  1.00  0.00    -0.160 A  
HETATM   17  C   UNL     1      -8.532   8.463  69.309  1.00  0.00    -0.125 C  
HETATM   18  N   UNL     1      -9.771   6.298  69.476  1.00  0.00    -0.145 NA 
HETATM   19  H   UNL     1      -9.256   5.819  68.738  1.00  0.00     0.000 HD 
HETATM   20  C   UNL     1     -10.783   5.769  70.222  1.00  0.00    -0.309 A  
HETATM   21  N   UNL     1     -11.250   6.640  71.085  1.00  0.00    -0.277 NA 
ENDBRANCH  14  15
ENDBRANCH  13  14
ENDBRANCH  12  13
ENDBRANCH  11  12
ENDBRANCH   5  11
TORSDOF 5
ENDMDL
MODEL      245
REMARK 921   NORMALIZED FREE ENERGY PREDICTED BY IDOCK:   -3.18 KCAL/MOL
REMARK 922        TOTAL FREE ENERGY PREDICTED BY IDOCK:   -5.08 KCAL/MOL
REMARK 923 INTER-LIGAND FREE ENERGY PREDICTED BY IDOCK:   -4.73 KCAL/MOL
REMARK 924 INTRA-LIGAND FREE ENERGY PREDICTED BY IDOCK:   -0.34 KCAL/MOL
REMARK 927      BINDING AFFINITY PREDICTED BY RF-SCORE:    0.00 PKD
ROOT
HETATM    1  C   UNL     1     -10.481   7.377  67.967  1.00  0.00    -0.199 C  
HETATM    2  N   UNL     1     -10.426   8.455  67.010  1.00  0.00    -0.318 NA 
HETATM    3  C   UNL     1      -9.597   8.489  65.926  1.00  0.00    -0.094 C  
HETATM    4  H   UNL     1     -11.052   9.248  67.153  1.00  0.00     0.000 HD 
HETATM    5  N   UNL     1      -9.702   9.641  65.181  1.00  0.00    -0.422 NA 
HETATM    6  N   UNL     1      -8.813   7.483  65.680  1.00  0.00    -0.346 NA 
HETATM    7  C   UNL     1      -8.019   7.534  64.610  1.00  0.00    -0.133 C  
HETATM    8  H   UNL     1      -9.108   9.711  64.355  1.00  0.00     0.000 HD 
HETATM    9  N   UNL     1      -7.344   7.619  63.670  1.00  0.00    -0.086 NA 
HETATM   10  H   UNL     1      -8.805   6.669  66.293  1.00  0.00     0.000 HD 
ENDROOT
BRANCH   5  11
HETATM   11  C   UNL     1     -10.576  10.769  65.456  1.00  0.00    -0.135 C  
BRANCH  11  12
HETATM   12  C   UNL     1     -10.271  12.008  64.609  1.00  0.00    -0.282 C  
BRANCH  12  13
HETATM   13  S   UNL     1     -11.834  12.470  63.786  1.00  0.00    -0.542 SA 
BRANCH  13  14
HETATM   14  C   UNL     1     -11.864  14.261  64.116  1.00  0.00    -0.312 C  
BRANCH  14  15
HETATM   15  C   UNL     1     -11.597  14.505  65.566  1.00  0.00    -0.350 A  
HETATM   16  C   UNL     1     -10.563  15.207  66.165  1.00  0.00    -0.313 A  
HETATM   17  C   UNL     1      -9.390  15.922  65.615  1.00  0.00    -0.165 C  
HETATM   18  N   UNL     1     -10.830  15.153  67.509  1.00  0.00    -0.293 NA 
HETATM   19  H   UNL     1     -10.270  15.574  68.251  1.00  0.00     0.000 HD 
HETATM   20  C   UNL     1     -11.978  14.436  67.678  1.00  0.00    -0.343 A  
HETATM   21  N   UNL     1     -12.457  14.019  66.530  1.00  0.00    -0.402 NA 
ENDBRANCH  14  15
ENDBRANCH  13  14
ENDBRANCH  12  13
ENDBRANCH  11  12
ENDBRANCH   5  11
TORSDOF 5
ENDMDL
MODEL      246
REMARK 921   NORMALIZED FREE ENERGY PREDICTED BY IDOCK:   -3.18 KCAL/MOL
REMARK 922        TOTAL FREE ENERGY PREDICTED BY IDOCK:   -5.07 KCAL/MOL
REMARK 923 INTER-LIGAND FREE ENERGY PREDICTED BY IDOCK:   -4.93 KCAL/MOL
REMARK 924 INTRA-LIGAND FREE ENERGY PREDICTED BY IDOCK:   -0.14 KCAL/MOL
REMARK 927      BINDING AFFINITY PREDICTED BY RF-SCORE:    0.00 PKD
ROOT
HETATM    1  C   UNL     1      -9.562  19.571  66.667  1.00  0.00    -0.363 C  
HETATM    2  N   UNL     1      -9.240  18.169  66.564  1.00  0.00    -0.294 NA 
HETATM    3  C   UNL     1      -9.929  17.268  65.804  1.00  0.00    -0.084 C  
HETATM    4  H   UNL     1      -8.441  17.825  67.097  1.00  0.00     0.000 HD 
HETATM    5  N   UNL     1      -9.454  15.981  65.900  1.00  0.00    -0.344 NA 
HETATM    6  N   UNL     1     -10.929  17.667  65.077  1.00  0.00    -0.733 NA 
HETATM    7  C   UNL     1     -11.581  16.771  64.336  1.00  0.00     0.604 C  
HETATM    8  H   UNL     1      -9.931  15.271  65.343  1.00  0.00     0.000 HD 
HETATM    9  N   UNL     1     -12.122  15.961  63.706  1.00  0.00    -0.687 NA 
HETATM   10  H   UNL     1     -11.209  18.647  65.072  1.00  0.00     0.000 HD 
ENDROOT
BRANCH   5  11
HETATM   11  C   UNL     1      -8.339  15.531  66.715  1.00  0.00    -0.265 C  
BRANCH  11  12
HETATM   12  C   UNL     1      -8.639  15.507  68.216  1.00  0.00    -0.161 C  
BRANCH  12  13
HETATM   13  S   UNL     1      -9.595  13.983  68.529  1.00  0.00    -0.167 SA 
BRANCH  13  14
HETATM   14  C   UNL     1     -11.293  14.634  68.440  1.00  0.00    -0.292 C  
BRANCH  14  15
HETATM   15  C   UNL     1     -11.833  14.812  69.823  1.00  0.00    -0.316 A  
HETATM   16  C   UNL     1     -12.278  13.858  70.723  1.00  0.00    -0.369 A  
HETATM   17  C   UNL     1     -12.393  12.385  70.644  1.00  0.00    -0.367 C  
HETATM   18  N   UNL     1     -12.619  14.564  71.849  1.00  0.00    -0.334 NA 
HETATM   19  H   UNL     1     -12.983  14.172  72.717  1.00  0.00     0.000 HD 
HETATM   20  C   UNL     1     -12.384  15.885  71.600  1.00  0.00    -0.459 A  
HETATM   21  N   UNL     1     -11.924  16.070  70.385  1.00  0.00    -0.299 NA 
ENDBRANCH  14  15
ENDBRANCH  13  14
ENDBRANCH  12  13
ENDBRANCH  11  12
ENDBRANCH   5  11
TORSDOF 5
ENDMDL
MODEL      247
REMARK 921   NORMALIZED FREE ENERGY PREDICTED BY IDOCK:   -3.17 KCAL/MOL
REMARK 922        TOTAL FREE ENERGY PREDICTED BY IDOCK:   -5.06 KCAL/MOL
REMARK 923 INTER-LIGAND FREE ENERGY PREDICTED BY IDOCK:   -4.57 KCAL/MOL
REMARK 924 INTRA-LIGAND FREE ENERGY PREDICTED BY IDOCK:   -0.49 KCAL/MOL
REMARK 927      BINDING AFFINITY PREDICTED BY RF-SCORE:    0.00 PKD
ROOT
HETATM    1  C   UNL     1     -12.997  10.521  71.777  1.00  0.00    -0.476 C  
HETATM    2  N   UNL     1     -12.406  11.386  70.786  1.00  0.00    -0.388 NA 
HETATM    3  C   UNL     1     -11.234  11.130  70.133  1.00  0.00    -0.128 C  
HETATM    4  H   UNL     1     -12.897  12.250  70.556  1.00  0.00     0.000 HD 
HETATM    5  N   UNL     1     -10.856  12.124  69.260  1.00  0.00    -0.434 NA 
HETATM    6  N   UNL     1     -10.595  10.023  70.361  1.00  0.00    -0.333 NA 
HETATM    7  C   UNL     1      -9.458   9.791  69.705  1.00  0.00    -0.228 C  
HETATM    8  H   UNL     1      -9.990  11.975  68.740  1.00  0.00     0.000 HD 
HETATM    9  N   UNL     1      -8.473   9.627  69.114  1.00  0.00    -0.134 NA 
HETATM   10  H   UNL     1     -10.956   9.344  71.031  1.00  0.00     0.000 HD 
ENDROOT
BRANCH   5  11
HETATM   11  C   UNL     1     -11.567  13.364  69.004  1.00  0.00    -0.312 C  
BRANCH  11  12
HETATM   12  C   UNL     1     -10.934  14.590  69.668  1.00  0.00    -0.193 C  
BRANCH  12  13
HETATM   13  S   UNL     1     -11.427  16.036  68.668  1.00  0.00    -0.328 SA 
BRANCH  13  14
HETATM   14  C   UNL     1     -10.912  15.482  67.011  1.00  0.00    -0.283 C  
BRANCH  14  15
HETATM   15  C   UNL     1      -9.498  15.896  66.764  1.00  0.00    -0.235 A  
HETATM   16  C   UNL     1      -8.331  15.157  66.879  1.00  0.00    -0.232 A  
HETATM   17  C   UNL     1      -8.069  13.759  67.285  1.00  0.00    -0.154 C  
HETATM   18  N   UNL     1      -7.331  16.012  66.490  1.00  0.00    -0.150 NA 
HETATM   19  H   UNL     1      -6.336  15.794  66.449  1.00  0.00     0.000 HD 
HETATM   20  C   UNL     1      -7.904  17.208  66.170  1.00  0.00    -0.268 A  
HETATM   21  N   UNL     1      -9.205  17.176  66.337  1.00  0.00    -0.295 NA 
ENDBRANCH  14  15
ENDBRANCH  13  14
ENDBRANCH  12  13
ENDBRANCH  11  12
ENDBRANCH   5  11
TORSDOF 5
ENDMDL
MODEL      248
REMARK 921   NORMALIZED FREE ENERGY PREDICTED BY IDOCK:   -3.17 KCAL/MOL
REMARK 922        TOTAL FREE ENERGY PREDICTED BY IDOCK:   -5.06 KCAL/MOL
REMARK 923 INTER-LIGAND FREE ENERGY PREDICTED BY IDOCK:   -4.73 KCAL/MOL
REMARK 924 INTRA-LIGAND FREE ENERGY PREDICTED BY IDOCK:   -0.32 KCAL/MOL
REMARK 927      BINDING AFFINITY PREDICTED BY RF-SCORE:    0.00 PKD
ROOT
HETATM    1  C   UNL     1     -10.378  19.492  66.485  1.00  0.00    -0.482 C  
HETATM    2  N   UNL     1     -10.263  18.082  66.204  1.00  0.00    -0.490 NA 
HETATM    3  C   UNL     1      -9.119  17.353  66.351  1.00  0.00    -0.248 C  
HETATM    4  H   UNL     1     -11.096  17.595  65.872  1.00  0.00     0.000 HD 
HETATM    5  N   UNL     1      -9.249  16.033  65.983  1.00  0.00    -0.344 NA 
HETATM    6  N   UNL     1      -8.045  17.920  66.811  1.00  0.00    -0.228 NA 
HETATM    7  C   UNL     1      -6.942  17.186  66.955  1.00  0.00    -0.212 C  
HETATM    8  H   UNL     1      -8.422  15.444  66.083  1.00  0.00     0.000 HD 
HETATM    9  N   UNL     1      -6.003  16.512  67.065  1.00  0.00    -0.267 NA 
HETATM   10  H   UNL     1      -8.046  18.910  67.057  1.00  0.00     0.000 HD 
ENDROOT
BRANCH   5  11
HETATM   11  C   UNL     1     -10.448  15.396  65.465  1.00  0.00    -0.380 C  
BRANCH  11  12
HETATM   12  C   UNL     1     -10.490  13.882  65.690  1.00  0.00    -0.312 C  
BRANCH  12  13
HETATM   13  S   UNL     1     -11.116  13.146  64.140  1.00  0.00    -0.368 SA 
BRANCH  13  14
HETATM   14  C   UNL     1     -11.142  11.384  64.600  1.00  0.00    -0.207 C  
BRANCH  14  15
HETATM   15  C   UNL     1      -9.868  10.735  64.163  1.00  0.00    -0.326 A  
HETATM   16  C   UNL     1      -8.687  10.552  64.866  1.00  0.00    -0.181 A  
HETATM   17  C   UNL     1      -8.270  10.927  66.234  1.00  0.00    -0.165 C  
HETATM   18  N   UNL     1      -7.867   9.866  64.007  1.00  0.00    -0.140 NA 
HETATM   19  H   UNL     1      -6.914   9.558  64.202  1.00  0.00     0.000 HD 
HETATM   20  C   UNL     1      -8.552   9.668  62.844  1.00  0.00    -0.202 A  
HETATM   21  N   UNL     1      -9.754  10.192  62.899  1.00  0.00    -0.180 NA 
ENDBRANCH  14  15
ENDBRANCH  13  14
ENDBRANCH  12  13
ENDBRANCH  11  12
ENDBRANCH   5  11
TORSDOF 5
ENDMDL
MODEL      249
REMARK 921   NORMALIZED FREE ENERGY PREDICTED BY IDOCK:   -3.16 KCAL/MOL
REMARK 922        TOTAL FREE ENERGY PREDICTED BY IDOCK:   -5.05 KCAL/MOL
REMARK 923 INTER-LIGAND FREE ENERGY PREDICTED BY IDOCK:   -4.84 KCAL/MOL
REMARK 924 INTRA-LIGAND FREE ENERGY PREDICTED BY IDOCK:   -0.21 KCAL/MOL
REMARK 927      BINDING AFFINITY PREDICTED BY RF-SCORE:    0.00 PKD
ROOT
HETATM    1  C   UNL     1      -9.163  19.660  67.534  1.00  0.00    -0.324 C  
HETATM    2  N   UNL     1      -8.777  18.307  67.215  1.00  0.00    -0.252 NA 
HETATM    3  C   UNL     1      -9.412  17.514  66.304  1.00  0.00    -0.219 C  
HETATM    4  H   UNL     1      -7.973  17.916  67.705  1.00  0.00     0.000 HD 
HETATM    5  N   UNL     1      -8.882  16.248  66.203  1.00  0.00    -0.332 NA 
HETATM    6  N   UNL     1     -10.416  17.983  65.626  1.00  0.00    -0.621 NA 
HETATM    7  C   UNL     1     -11.015  17.193  64.735  1.00  0.00     0.374 C  
HETATM    8  H   UNL     1      -9.318  15.619  65.528  1.00  0.00     0.000 HD 
HETATM    9  N   UNL     1     -11.509  16.474  63.970  1.00  0.00    -1.122 NA 
HETATM   10  H   UNL     1     -10.739  18.939  65.772  1.00  0.00     0.000 HD 
ENDROOT
BRANCH   5  11
HETATM   11  C   UNL     1      -7.762  15.719  66.962  1.00  0.00    -0.232 C  
BRANCH  11  12
HETATM   12  C   UNL     1      -8.102  15.388  68.418  1.00  0.00    -0.140 C  
BRANCH  12  13
HETATM   13  S   UNL     1      -7.746  13.611  68.642  1.00  0.00    -0.068 SA 
BRANCH  13  14
HETATM   14  C   UNL     1      -8.373  12.948  67.066  1.00  0.00    -0.107 C  
BRANCH  14  15
HETATM   15  C   UNL     1      -9.648  12.206  67.309  1.00  0.00    -0.185 A  
HETATM   16  C   UNL     1     -10.857  12.293  66.639  1.00  0.00    -0.258 A  
HETATM   17  C   UNL     1     -11.314  13.123  65.502  1.00  0.00    -0.325 C  
HETATM   18  N   UNL     1     -11.665  11.364  67.244  1.00  0.00    -0.583 NA 
HETATM   19  H   UNL     1     -12.632  11.156  66.997  1.00  0.00     0.000 HD 
HETATM   20  C   UNL     1     -10.944  10.767  68.237  1.00  0.00    -0.255 A  
HETATM   21  N   UNL     1      -9.731  11.262  68.312  1.00  0.00    -0.191 NA 
ENDBRANCH  14  15
ENDBRANCH  13  14
ENDBRANCH  12  13
ENDBRANCH  11  12
ENDBRANCH   5  11
TORSDOF 5
ENDMDL
MODEL      250
REMARK 921   NORMALIZED FREE ENERGY PREDICTED BY IDOCK:   -3.16 KCAL/MOL
REMARK 922        TOTAL FREE ENERGY PREDICTED BY IDOCK:   -5.05 KCAL/MOL
REMARK 923 INTER-LIGAND FREE ENERGY PREDICTED BY IDOCK:   -4.76 KCAL/MOL
REMARK 924 INTRA-LIGAND FREE ENERGY PREDICTED BY IDOCK:   -0.28 KCAL/MOL
REMARK 927      BINDING AFFINITY PREDICTED BY RF-SCORE:    0.00 PKD
ROOT
HETATM    1  C   UNL     1     -12.074  12.851  64.767  1.00  0.00    -0.422 C  
HETATM    2  N   UNL     1     -11.327  11.916  65.572  1.00  0.00    -0.308 NA 
HETATM    3  C   UNL     1     -10.203  12.227  66.281  1.00  0.00    -0.229 C  
HETATM    4  H   UNL     1     -11.662  10.953  65.614  1.00  0.00     0.000 HD 
HETATM    5  N   UNL     1      -9.647  11.155  66.941  1.00  0.00    -0.184 NA 
HETATM    6  N   UNL     1      -9.762  13.449  66.291  1.00  0.00    -0.318 NA 
HETATM    7  C   UNL     1      -8.668  13.731  66.998  1.00  0.00    -0.198 C  
HETATM    8  H   UNL     1      -8.808  11.339  67.493  1.00  0.00     0.000 HD 
HETATM    9  N   UNL     1      -7.713  13.935  67.625  1.00  0.00    -0.169 NA 
HETATM   10  H   UNL     1     -10.244  14.179  65.767  1.00  0.00     0.000 HD 
ENDROOT
BRANCH   5  11
HETATM   11  C   UNL     1     -10.135   9.787  66.930  1.00  0.00    -0.226 C  
BRANCH  11  12
HETATM   12  C   UNL     1     -10.910   9.396  68.191  1.00  0.00    -0.119 C  
BRANCH  12  13
HETATM   13  S   UNL     1      -9.670   8.840  69.410  1.00  0.00    -0.176 SA 
BRANCH  13  14
HETATM   14  C   UNL     1     -10.473   9.362  70.959  1.00  0.00    -0.322 C  
BRANCH  14  15
HETATM   15  C   UNL     1     -11.294   8.237  71.500  1.00  0.00    -0.268 A  
HETATM   16  C   UNL     1     -12.657   8.181  71.745  1.00  0.00    -0.330 A  
HETATM   17  C   UNL     1     -13.743   9.172  71.585  1.00  0.00    -0.433 C  
HETATM   18  N   UNL     1     -12.884   6.904  72.194  1.00  0.00    -0.549 NA 
HETATM   19  H   UNL     1     -13.786   6.514  72.465  1.00  0.00     0.000 HD 
HETATM   20  C   UNL     1     -11.687   6.250  72.213  1.00  0.00    -0.298 A  
HETATM   21  N   UNL     1     -10.708   7.028  71.815  1.00  0.00    -0.216 NA 
ENDBRANCH  14  15
ENDBRANCH  13  14
ENDBRANCH  12  13
ENDBRANCH  11  12
ENDBRANCH   5  11
TORSDOF 5
ENDMDL
MODEL      251
REMARK 921   NORMALIZED FREE ENERGY PREDICTED BY IDOCK:   -3.16 KCAL/MOL
REMARK 922        TOTAL FREE ENERGY PREDICTED BY IDOCK:   -5.04 KCAL/MOL
REMARK 923 INTER-LIGAND FREE ENERGY PREDICTED BY IDOCK:   -4.61 KCAL/MOL
REMARK 924 INTRA-LIGAND FREE ENERGY PREDICTED BY IDOCK:   -0.43 KCAL/MOL
REMARK 927      BINDING AFFINITY PREDICTED BY RF-SCORE:    0.00 PKD
ROOT
HETATM    1  C   UNL     1      -6.762  12.310  67.289  1.00  0.00    -0.143 C  
HETATM    2  N   UNL     1      -7.997  12.151  66.561  1.00  0.00    -0.393 NA 
HETATM    3  C   UNL     1      -8.977  11.256  66.882  1.00  0.00    -0.162 C  
HETATM    4  H   UNL     1      -8.150  12.750  65.750  1.00  0.00     0.000 HD 
HETATM    5  N   UNL     1     -10.045  11.266  66.015  1.00  0.00    -0.230 NA 
HETATM    6  N   UNL     1      -8.845  10.501  67.931  1.00  0.00    -0.132 NA 
HETATM    7  C   UNL     1      -9.819   9.641  68.230  1.00  0.00    -0.150 C  
HETATM    8  H   UNL     1     -10.808  10.619  66.217  1.00  0.00     0.000 HD 
HETATM    9  N   UNL     1     -10.688   8.906  68.455  1.00  0.00    -0.135 NA 
HETATM   10  H   UNL     1      -8.013  10.566  68.516  1.00  0.00     0.000 HD 
ENDROOT
BRANCH   5  11
HETATM   11  C   UNL     1     -10.194  12.105  64.839  1.00  0.00    -0.280 C  
BRANCH  11  12
HETATM   12  C   UNL     1     -11.512  12.882  64.796  1.00  0.00    -0.321 C  
BRANCH  12  13
HETATM   13  S   UNL     1     -11.086  14.640  65.045  1.00  0.00    -0.412 SA 
BRANCH  13  14
HETATM   14  C   UNL     1     -10.965  14.696  66.861  1.00  0.00    -0.324 C  
BRANCH  14  15
HETATM   15  C   UNL     1     -10.584  16.076  67.294  1.00  0.00    -0.313 A  
HETATM   16  C   UNL     1     -10.423  16.583  68.573  1.00  0.00    -0.302 A  
HETATM   17  C   UNL     1     -10.576  15.980  69.915  1.00  0.00    -0.314 C  
HETATM   18  N   UNL     1     -10.028  17.885  68.390  1.00  0.00    -0.346 NA 
HETATM   19  H   UNL     1      -9.814  18.557  69.126  1.00  0.00     0.000 HD 
HETATM   20  C   UNL     1      -9.972  18.119  67.047  1.00  0.00    -0.338 A  
HETATM   21  N   UNL     1     -10.315  17.056  66.360  1.00  0.00    -0.318 NA 
ENDBRANCH  14  15
ENDBRANCH  13  14
ENDBRANCH  12  13
ENDBRANCH  11  12
ENDBRANCH   5  11
TORSDOF 5
ENDMDL
MODEL      252
REMARK 921   NORMALIZED FREE ENERGY PREDICTED BY IDOCK:   -3.16 KCAL/MOL
REMARK 922        TOTAL FREE ENERGY PREDICTED BY IDOCK:   -5.04 KCAL/MOL
REMARK 923 INTER-LIGAND FREE ENERGY PREDICTED BY IDOCK:   -4.64 KCAL/MOL
REMARK 924 INTRA-LIGAND FREE ENERGY PREDICTED BY IDOCK:   -0.41 KCAL/MOL
REMARK 927      BINDING AFFINITY PREDICTED BY RF-SCORE:    0.00 PKD
ROOT
HETATM    1  C   UNL     1     -12.127  14.118  68.629  1.00  0.00    -0.285 C  
HETATM    2  N   UNL     1     -10.974  13.623  67.917  1.00  0.00    -0.254 NA 
HETATM    3  C   UNL     1     -10.115  14.401  67.195  1.00  0.00    -0.253 C  
HETATM    4  H   UNL     1     -10.787  12.621  67.955  1.00  0.00     0.000 HD 
HETATM    5  N   UNL     1      -9.113  13.693  66.574  1.00  0.00    -0.441 NA 
HETATM    6  N   UNL     1     -10.289  15.687  67.151  1.00  0.00    -0.279 NA 
HETATM    7  C   UNL     1      -9.433  16.428  66.447  1.00  0.00    -0.293 C  
HETATM    8  H   UNL     1      -8.439  14.231  66.027  1.00  0.00     0.000 HD 
HETATM    9  N   UNL     1      -8.666  17.036  65.824  1.00  0.00    -0.487 NA 
HETATM   10  H   UNL     1     -11.067  16.123  67.646  1.00  0.00     0.000 HD 
ENDROOT
BRANCH   5  11
HETATM   11  C   UNL     1      -8.917  12.254  66.618  1.00  0.00    -0.189 C  
BRANCH  11  12
HETATM   12  C   UNL     1      -7.701  11.819  67.440  1.00  0.00    -0.151 C  
BRANCH  12  13
HETATM   13  S   UNL     1      -8.228  10.370  68.418  1.00  0.00    -0.120 SA 
BRANCH  13  14
HETATM   14  C   UNL     1      -9.924  10.149  67.793  1.00  0.00    -0.168 C  
BRANCH  14  15
HETATM   15  C   UNL     1     -10.402   8.771  68.120  1.00  0.00    -0.216 A  
HETATM   16  C   UNL     1     -10.784   8.240  69.342  1.00  0.00    -0.151 A  
HETATM   17  C   UNL     1     -10.841   8.809  70.706  1.00  0.00    -0.282 C  
HETATM   18  N   UNL     1     -11.171   6.954  69.062  1.00  0.00    -0.505 NA 
HETATM   19  H   UNL     1     -11.519   6.271  69.735  1.00  0.00     0.000 HD 
HETATM   20  C   UNL     1     -11.010   6.750  67.723  1.00  0.00    -0.241 A  
HETATM   21  N   UNL     1     -10.534   7.820  67.129  1.00  0.00    -0.321 NA 
ENDBRANCH  14  15
ENDBRANCH  13  14
ENDBRANCH  12  13
ENDBRANCH  11  12
ENDBRANCH   5  11
TORSDOF 5
ENDMDL
MODEL      253
REMARK 921   NORMALIZED FREE ENERGY PREDICTED BY IDOCK:   -3.15 KCAL/MOL
REMARK 922        TOTAL FREE ENERGY PREDICTED BY IDOCK:   -5.04 KCAL/MOL
REMARK 923 INTER-LIGAND FREE ENERGY PREDICTED BY IDOCK:   -4.28 KCAL/MOL
REMARK 924 INTRA-LIGAND FREE ENERGY PREDICTED BY IDOCK:   -0.76 KCAL/MOL
REMARK 927      BINDING AFFINITY PREDICTED BY RF-SCORE:    0.00 PKD
ROOT
HETATM    1  C   UNL     1     -12.704  10.904  70.124  1.00  0.00    -0.161 C  
HETATM    2  N   UNL     1     -12.135  11.150  68.821  1.00  0.00    -0.642 NA 
HETATM    3  C   UNL     1     -10.916  10.695  68.408  1.00  0.00    -0.251 C  
HETATM    4  H   UNL     1     -12.681  11.704  68.162  1.00  0.00     0.000 HD 
HETATM    5  N   UNL     1     -10.575  11.093  67.136  1.00  0.00    -0.231 NA 
HETATM    6  N   UNL     1     -10.202   9.951  69.198  1.00  0.00    -0.193 NA 
HETATM    7  C   UNL     1      -9.019   9.510  68.770  1.00  0.00    -0.133 C  
HETATM    8  H   UNL     1      -9.675  10.771  66.779  1.00  0.00     0.000 HD 
HETATM    9  N   UNL     1      -7.996   9.147  68.360  1.00  0.00    -0.102 NA 
HETATM   10  H   UNL     1     -10.540   9.708  70.129  1.00  0.00     0.000 HD 
ENDROOT
BRANCH   5  11
HETATM   11  C   UNL     1     -11.369  11.927  66.252  1.00  0.00    -0.334 C  
BRANCH  11  12
HETATM   12  C   UNL     1     -10.703  13.258  65.891  1.00  0.00    -0.275 C  
BRANCH  12  13
HETATM   13  S   UNL     1     -11.570  14.549  66.848  1.00  0.00    -0.377 SA 
BRANCH  13  14
HETATM   14  C   UNL     1     -10.519  14.621  68.333  1.00  0.00    -0.243 C  
BRANCH  14  15
HETATM   15  C   UNL     1      -9.091  14.408  67.945  1.00  0.00    -0.187 A  
HETATM   16  C   UNL     1      -8.231  15.251  67.261  1.00  0.00    -0.204 A  
HETATM   17  C   UNL     1      -8.405  16.599  66.677  1.00  0.00    -0.296 C  
HETATM   18  N   UNL     1      -7.036  14.578  67.218  1.00  0.00    -0.356 NA 
HETATM   19  H   UNL     1      -6.173  14.912  66.789  1.00  0.00     0.000 HD 
HETATM   20  C   UNL     1      -7.207  13.382  67.851  1.00  0.00    -0.133 A  
HETATM   21  N   UNL     1      -8.436  13.242  68.287  1.00  0.00    -0.165 NA 
ENDBRANCH  14  15
ENDBRANCH  13  14
ENDBRANCH  12  13
ENDBRANCH  11  12
ENDBRANCH   5  11
TORSDOF 5
ENDMDL
MODEL      254
REMARK 921   NORMALIZED FREE ENERGY PREDICTED BY IDOCK:   -3.15 KCAL/MOL
REMARK 922        TOTAL FREE ENERGY PREDICTED BY IDOCK:   -5.04 KCAL/MOL
REMARK 923 INTER-LIGAND FREE ENERGY PREDICTED BY IDOCK:   -4.59 KCAL/MOL
REMARK 924 INTRA-LIGAND FREE ENERGY PREDICTED BY IDOCK:   -0.45 KCAL/MOL
REMARK 927      BINDING AFFINITY PREDICTED BY RF-SCORE:    0.00 PKD
ROOT
HETATM    1  C   UNL     1     -10.092   7.467  69.980  1.00  0.00    -0.199 C  
HETATM    2  N   UNL     1     -10.456   8.530  69.075  1.00  0.00    -0.260 NA 
HETATM    3  C   UNL     1     -11.154   9.648  69.431  1.00  0.00    -0.139 C  
HETATM    4  H   UNL     1     -10.170   8.441  68.099  1.00  0.00     0.000 HD 
HETATM    5  N   UNL     1     -11.413  10.500  68.382  1.00  0.00    -0.517 NA 
HETATM    6  N   UNL     1     -11.503   9.825  70.670  1.00  0.00    -0.300 NA 
HETATM    7  C   UNL     1     -12.177  10.927  70.996  1.00  0.00    -0.358 C  
HETATM    8  H   UNL     1     -11.927  11.354  68.600  1.00  0.00     0.000 HD 
HETATM    9  N   UNL     1     -12.762  11.900  71.238  1.00  0.00    -0.356 NA 
HETATM   10  H   UNL     1     -11.265   9.133  71.380  1.00  0.00     0.000 HD 
ENDROOT
BRANCH   5  11
HETATM   11  C   UNL     1     -11.028  10.303  66.996  1.00  0.00    -0.119 C  
BRANCH  11  12
HETATM   12  C   UNL     1      -9.984  11.305  66.495  1.00  0.00    -0.212 C  
BRANCH  12  13
HETATM   13  S   UNL     1     -10.769  12.952  66.569  1.00  0.00    -0.272 SA 
BRANCH  13  14
HETATM   14  C   UNL     1      -9.684  13.781  67.775  1.00  0.00    -0.230 C  
BRANCH  14  15
HETATM   15  C   UNL     1     -10.490  14.730  68.602  1.00  0.00    -0.250 A  
HETATM   16  C   UNL     1     -10.140  15.970  69.111  1.00  0.00    -0.242 A  
HETATM   17  C   UNL     1      -8.894  16.764  69.040  1.00  0.00    -0.181 C  
HETATM   18  N   UNL     1     -11.266  16.421  69.752  1.00  0.00    -0.352 NA 
HETATM   19  H   UNL     1     -11.365  17.311  70.239  1.00  0.00     0.000 HD 
HETATM   20  C   UNL     1     -12.231  15.465  69.622  1.00  0.00    -0.282 A  
HETATM   21  N   UNL     1     -11.792  14.428  68.948  1.00  0.00    -0.315 NA 
ENDBRANCH  14  15
ENDBRANCH  13  14
ENDBRANCH  12  13
ENDBRANCH  11  12
ENDBRANCH   5  11
TORSDOF 5
ENDMDL
MODEL      255
REMARK 921   NORMALIZED FREE ENERGY PREDICTED BY IDOCK:   -3.14 KCAL/MOL
REMARK 922        TOTAL FREE ENERGY PREDICTED BY IDOCK:   -5.02 KCAL/MOL
REMARK 923 INTER-LIGAND FREE ENERGY PREDICTED BY IDOCK:   -5.01 KCAL/MOL
REMARK 924 INTRA-LIGAND FREE ENERGY PREDICTED BY IDOCK:   -0.01 KCAL/MOL
REMARK 927      BINDING AFFINITY PREDICTED BY RF-SCORE:    0.00 PKD
ROOT
HETATM    1  C   UNL     1     -12.379  13.284  63.395  1.00  0.00    -0.324 C  
HETATM    2  N   UNL     1     -11.425  13.170  64.471  1.00  0.00    -0.337 NA 
HETATM    3  C   UNL     1     -10.458  12.209  64.552  1.00  0.00    -0.303 C  
HETATM    4  H   UNL     1     -11.475  13.855  65.225  1.00  0.00     0.000 HD 
HETATM    5  N   UNL     1      -9.693  12.285  65.693  1.00  0.00    -0.348 NA 
HETATM    6  N   UNL     1     -10.328  11.340  63.595  1.00  0.00    -0.374 NA 
HETATM    7  C   UNL     1      -9.372  10.417  63.692  1.00  0.00    -0.291 C  
HETATM    8  H   UNL     1      -8.951  11.592  65.796  1.00  0.00     0.000 HD 
HETATM    9  N   UNL     1      -8.528   9.630  63.814  1.00  0.00    -0.172 NA 
HETATM   10  H   UNL     1     -10.947  11.364  62.785  1.00  0.00     0.000 HD 
ENDROOT
BRANCH   5  11
HETATM   11  C   UNL     1      -9.838  13.253  66.766  1.00  0.00    -0.264 C  
BRANCH  11  12
HETATM   12  C   UNL     1      -8.534  13.964  67.138  1.00  0.00    -0.180 C  
BRANCH  12  13
HETATM   13  S   UNL     1      -8.942  15.123  68.489  1.00  0.00    -0.195 SA 
BRANCH  13  14
HETATM   14  C   UNL     1      -9.993  16.312  67.596  1.00  0.00    -0.247 C  
BRANCH  14  15
HETATM   15  C   UNL     1      -9.131  17.255  66.820  1.00  0.00    -0.252 A  
HETATM   16  C   UNL     1      -9.350  18.585  66.496  1.00  0.00    -0.313 A  
HETATM   17  C   UNL     1     -10.472  19.509  66.772  1.00  0.00    -0.590 C  
HETATM   18  N   UNL     1      -8.224  18.974  65.816  1.00  0.00    -0.404 NA 
HETATM   19  H   UNL     1      -8.044  19.902  65.432  1.00  0.00     0.000 HD 
HETATM   20  C   UNL     1      -7.387  17.899  65.745  1.00  0.00    -0.110 A  
HETATM   21  N   UNL     1      -7.909  16.845  66.326  1.00  0.00    -0.310 NA 
ENDBRANCH  14  15
ENDBRANCH  13  14
ENDBRANCH  12  13
ENDBRANCH  11  12
ENDBRANCH   5  11
TORSDOF 5
ENDMDL
MODEL      256
REMARK 921   NORMALIZED FREE ENERGY PREDICTED BY IDOCK:   -3.14 KCAL/MOL
REMARK 922        TOTAL FREE ENERGY PREDICTED BY IDOCK:   -5.02 KCAL/MOL
REMARK 923 INTER-LIGAND FREE ENERGY PREDICTED BY IDOCK:   -4.76 KCAL/MOL
REMARK 924 INTRA-LIGAND FREE ENERGY PREDICTED BY IDOCK:   -0.26 KCAL/MOL
REMARK 927      BINDING AFFINITY PREDICTED BY RF-SCORE:    0.00 PKD
ROOT
HETATM    1  C   UNL     1     -10.678  19.918  65.950  1.00  0.00    -0.339 C  
HETATM    2  N   UNL     1      -9.746  18.970  66.510  1.00  0.00    -0.341 NA 
HETATM    3  C   UNL     1      -8.442  19.245  66.804  1.00  0.00    -0.305 C  
HETATM    4  H   UNL     1     -10.086  18.027  66.700  1.00  0.00     0.000 HD 
HETATM    5  N   UNL     1      -7.743  18.166  67.294  1.00  0.00    -0.215 NA 
HETATM    6  N   UNL     1      -7.976  20.443  66.618  1.00  0.00    -0.489 NA 
HETATM    7  C   UNL     1      -6.701  20.691  66.920  1.00  0.00    -0.279 C  
HETATM    8  H   UNL     1      -6.764  18.324  67.537  1.00  0.00     0.000 HD 
HETATM    9  N   UNL     1      -5.588  20.865  67.196  1.00  0.00    -0.196 NA 
HETATM   10  H   UNL     1      -8.574  21.181  66.247  1.00  0.00     0.000 HD 
ENDROOT
BRANCH   5  11
HETATM   11  C   UNL     1      -8.259  16.825  67.500  1.00  0.00    -0.173 C  
BRANCH  11  12
HETATM   12  C   UNL     1      -9.176  16.694  68.720  1.00  0.00    -0.253 C  
BRANCH  12  13
HETATM   13  S   UNL     1     -10.355  15.353  68.341  1.00  0.00    -0.234 SA 
BRANCH  13  14
HETATM   14  C   UNL     1      -9.320  14.293  67.282  1.00  0.00    -0.213 C  
BRANCH  14  15
HETATM   15  C   UNL     1     -10.123  13.820  66.113  1.00  0.00    -0.307 A  
HETATM   16  C   UNL     1     -10.626  14.542  65.042  1.00  0.00    -0.437 A  
HETATM   17  C   UNL     1     -10.572  15.977  64.690  1.00  0.00     0.101 C  
HETATM   18  N   UNL     1     -11.241  13.610  64.245  1.00  0.00    -0.523 NA 
HETATM   19  H   UNL     1     -11.718  13.794  63.363  1.00  0.00     0.000 HD 
HETATM   20  C   UNL     1     -11.102  12.392  64.844  1.00  0.00    -0.303 A  
HETATM   21  N   UNL     1     -10.446  12.486  65.977  1.00  0.00    -0.253 NA 
ENDBRANCH  14  15
ENDBRANCH  13  14
ENDBRANCH  12  13
ENDBRANCH  11  12
ENDBRANCH   5  11
TORSDOF 5
ENDMDL
MODEL      257
REMARK 921   NORMALIZED FREE ENERGY PREDICTED BY IDOCK:   -3.13 KCAL/MOL
REMARK 922        TOTAL FREE ENERGY PREDICTED BY IDOCK:   -5.01 KCAL/MOL
REMARK 923 INTER-LIGAND FREE ENERGY PREDICTED BY IDOCK:   -5.22 KCAL/MOL
REMARK 924 INTRA-LIGAND FREE ENERGY PREDICTED BY IDOCK:    0.20 KCAL/MOL
REMARK 927      BINDING AFFINITY PREDICTED BY RF-SCORE:    0.00 PKD
ROOT
HETATM    1  C   UNL     1     -11.465  15.377  64.109  1.00  0.00    -0.028 C  
HETATM    2  N   UNL     1     -11.071  15.484  65.493  1.00  0.00    -0.298 NA 
HETATM    3  C   UNL     1     -10.633  16.632  66.088  1.00  0.00    -0.215 C  
HETATM    4  H   UNL     1     -11.123  14.643  66.067  1.00  0.00     0.000 HD 
HETATM    5  N   UNL     1     -10.279  16.474  67.408  1.00  0.00    -0.281 NA 
HETATM    6  N   UNL     1     -10.590  17.738  65.407  1.00  0.00    -0.614 NA 
HETATM    7  C   UNL     1     -10.168  18.848  66.012  1.00  0.00    -0.387 C  
HETATM    8  H   UNL     1      -9.953  17.307  67.900  1.00  0.00     0.000 HD 
HETATM    9  N   UNL     1      -9.795  19.792  66.575  1.00  0.00    -0.401 NA 
HETATM   10  H   UNL     1     -10.874  17.756  64.428  1.00  0.00     0.000 HD 
ENDROOT
BRANCH   5  11
HETATM   11  C   UNL     1     -10.323  15.239  68.171  1.00  0.00    -0.242 C  
BRANCH  11  12
HETATM   12  C   UNL     1     -11.731  14.658  68.329  1.00  0.00    -0.328 C  
BRANCH  12  13
HETATM   13  S   UNL     1     -11.644  12.926  67.756  1.00  0.00    -0.357 SA 
BRANCH  13  14
HETATM   14  C   UNL     1     -11.941  12.046  69.322  1.00  0.00    -0.270 C  
BRANCH  14  15
HETATM   15  C   UNL     1     -11.455  10.637  69.203  1.00  0.00    -0.280 A  
HETATM   16  C   UNL     1     -11.440   9.628  70.152  1.00  0.00    -0.189 A  
HETATM   17  C   UNL     1     -11.865   9.581  71.569  1.00  0.00    -0.478 C  
HETATM   18  N   UNL     1     -10.931   8.534  69.499  1.00  0.00    -0.419 NA 
HETATM   19  H   UNL     1     -10.785   7.608  69.900  1.00  0.00     0.000 HD 
HETATM   20  C   UNL     1     -10.655   8.906  68.216  1.00  0.00    -0.152 A  
HETATM   21  N   UNL     1     -10.945  10.169  68.009  1.00  0.00    -0.277 NA 
ENDBRANCH  14  15
ENDBRANCH  13  14
ENDBRANCH  12  13
ENDBRANCH  11  12
ENDBRANCH   5  11
TORSDOF 5
ENDMDL
MODEL      258
REMARK 921   NORMALIZED FREE ENERGY PREDICTED BY IDOCK:   -3.12 KCAL/MOL
REMARK 922        TOTAL FREE ENERGY PREDICTED BY IDOCK:   -5.00 KCAL/MOL
REMARK 923 INTER-LIGAND FREE ENERGY PREDICTED BY IDOCK:   -4.67 KCAL/MOL
REMARK 924 INTRA-LIGAND FREE ENERGY PREDICTED BY IDOCK:   -0.32 KCAL/MOL
REMARK 927      BINDING AFFINITY PREDICTED BY RF-SCORE:    0.00 PKD
ROOT
HETATM    1  C   UNL     1     -12.057  12.973  63.796  1.00  0.00    -0.502 C  
HETATM    2  N   UNL     1     -10.964  13.108  64.728  1.00  0.00    -0.319 NA 
HETATM    3  C   UNL     1     -10.516  14.296  65.231  1.00  0.00    -0.389 C  
HETATM    4  H   UNL     1     -10.493  12.257  65.033  1.00  0.00     0.000 HD 
HETATM    5  N   UNL     1      -9.436  14.171  66.074  1.00  0.00    -0.502 NA 
HETATM    6  N   UNL     1     -11.112  15.403  64.904  1.00  0.00    -0.483 NA 
HETATM    7  C   UNL     1     -10.663  16.549  65.414  1.00  0.00    -0.259 C  
HETATM    8  H   UNL     1      -9.069  15.031  66.482  1.00  0.00     0.000 HD 
HETATM    9  N   UNL     1     -10.242  17.525  65.880  1.00  0.00    -0.564 NA 
HETATM   10  H   UNL     1     -11.909  15.394  64.268  1.00  0.00     0.000 HD 
ENDROOT
BRANCH   5  11
HETATM   11  C   UNL     1      -8.765  12.935  66.439  1.00  0.00     0.156 C  
BRANCH  11  12
HETATM   12  C   UNL     1      -8.924  12.558  67.915  1.00  0.00    -0.188 C  
BRANCH  12  13
HETATM   13  S   UNL     1      -8.549  10.775  68.037  1.00  0.00    -0.132 SA 
BRANCH  13  14
HETATM   14  C   UNL     1     -10.169  10.066  67.601  1.00  0.00    -0.204 C  
BRANCH  14  15
HETATM   15  C   UNL     1     -10.782   9.440  68.812  1.00  0.00    -0.171 A  
HETATM   16  C   UNL     1     -10.790   8.111  69.206  1.00  0.00    -0.050 A  
HETATM   17  C   UNL     1     -10.236   6.883  68.595  1.00  0.00    -0.181 C  
HETATM   18  N   UNL     1     -11.450   8.103  70.409  1.00  0.00    -0.434 NA 
HETATM   19  H   UNL     1     -11.634   7.284  70.988  1.00  0.00     0.000 HD 
HETATM   20  C   UNL     1     -11.816   9.386  70.693  1.00  0.00    -0.207 A  
HETATM   21  N   UNL     1     -11.443  10.213  69.745  1.00  0.00    -0.246 NA 
ENDBRANCH  14  15
ENDBRANCH  13  14
ENDBRANCH  12  13
ENDBRANCH  11  12
ENDBRANCH   5  11
TORSDOF 5
ENDMDL
MODEL      259
REMARK 921   NORMALIZED FREE ENERGY PREDICTED BY IDOCK:   -3.12 KCAL/MOL
REMARK 922        TOTAL FREE ENERGY PREDICTED BY IDOCK:   -5.00 KCAL/MOL
REMARK 923 INTER-LIGAND FREE ENERGY PREDICTED BY IDOCK:   -4.57 KCAL/MOL
REMARK 924 INTRA-LIGAND FREE ENERGY PREDICTED BY IDOCK:   -0.43 KCAL/MOL
REMARK 927      BINDING AFFINITY PREDICTED BY RF-SCORE:    0.00 PKD
ROOT
HETATM    1  C   UNL     1     -11.681   9.226  70.864  1.00  0.00    -0.296 C  
HETATM    2  N   UNL     1     -10.913  10.189  70.114  1.00  0.00    -0.295 NA 
HETATM    3  C   UNL     1     -11.203  11.521  70.035  1.00  0.00    -0.026 C  
HETATM    4  H   UNL     1     -10.095   9.852  69.607  1.00  0.00     0.000 HD 
HETATM    5  N   UNL     1     -10.345  12.230  69.228  1.00  0.00    -0.402 NA 
HETATM    6  N   UNL     1     -12.212  12.003  70.697  1.00  0.00    -0.393 NA 
HETATM    7  C   UNL     1     -12.471  13.308  70.612  1.00  0.00    -0.298 C  
HETATM    8  H   UNL     1     -10.516  13.233  69.143  1.00  0.00     0.000 HD 
HETATM    9  N   UNL     1     -12.662  14.448  70.512  1.00  0.00    -0.352 NA 
HETATM   10  H   UNL     1     -12.794  11.395  71.272  1.00  0.00     0.000 HD 
ENDROOT
BRANCH   5  11
HETATM   11  C   UNL     1      -9.219  11.694  68.483  1.00  0.00    -0.163 C  
BRANCH  11  12
HETATM   12  C   UNL     1      -9.081  12.268  67.071  1.00  0.00    -0.201 C  
BRANCH  12  13
HETATM   13  S   UNL     1      -9.359  14.068  67.213  1.00  0.00    -0.240 SA 
BRANCH  13  14
HETATM   14  C   UNL     1      -9.915  14.450  65.521  1.00  0.00    -0.329 C  
BRANCH  14  15
HETATM   15  C   UNL     1     -11.264  13.848  65.292  1.00  0.00    -0.313 A  
HETATM   16  C   UNL     1     -11.664  12.920  64.344  1.00  0.00    -0.372 A  
HETATM   17  C   UNL     1     -10.941  12.229  63.254  1.00  0.00    -0.373 C  
HETATM   18  N   UNL     1     -12.989  12.688  64.612  1.00  0.00    -0.844 NA 
HETATM   19  H   UNL     1     -13.602  12.049  64.106  1.00  0.00     0.000 HD 
HETATM   20  C   UNL     1     -13.342  13.465  65.676  1.00  0.00     0.788 A  
HETATM   21  N   UNL     1     -12.331  14.187  66.100  1.00  0.00    -0.459 NA 
ENDBRANCH  14  15
ENDBRANCH  13  14
ENDBRANCH  12  13
ENDBRANCH  11  12
ENDBRANCH   5  11
TORSDOF 5
ENDMDL
MODEL      260
REMARK 921   NORMALIZED FREE ENERGY PREDICTED BY IDOCK:   -3.12 KCAL/MOL
REMARK 922        TOTAL FREE ENERGY PREDICTED BY IDOCK:   -4.99 KCAL/MOL
REMARK 923 INTER-LIGAND FREE ENERGY PREDICTED BY IDOCK:   -4.67 KCAL/MOL
REMARK 924 INTRA-LIGAND FREE ENERGY PREDICTED BY IDOCK:   -0.33 KCAL/MOL
REMARK 927      BINDING AFFINITY PREDICTED BY RF-SCORE:    0.00 PKD
ROOT
HETATM    1  C   UNL     1     -11.662  14.719  69.630  1.00  0.00    -0.314 C  
HETATM    2  N   UNL     1     -11.570  13.435  68.979  1.00  0.00    -0.290 NA 
HETATM    3  C   UNL     1     -11.845  13.213  67.660  1.00  0.00    -0.359 C  
HETATM    4  H   UNL     1     -11.279  12.637  69.543  1.00  0.00     0.000 HD 
HETATM    5  N   UNL     1     -11.722  11.896  67.281  1.00  0.00    -0.577 NA 
HETATM    6  N   UNL     1     -12.179  14.206  66.893  1.00  0.00    -0.536 NA 
HETATM    7  C   UNL     1     -12.435  13.967  65.607  1.00  0.00    -0.505 C  
HETATM    8  H   UNL     1     -11.910  11.680  66.302  1.00  0.00     0.000 HD 
HETATM    9  N   UNL     1     -12.648  13.716  64.494  1.00  0.00    -0.643 NA 
HETATM   10  H   UNL     1     -12.245  15.152  67.267  1.00  0.00     0.000 HD 
ENDROOT
BRANCH   5  11
HETATM   11  C   UNL     1     -11.353  10.783  68.137  1.00  0.00    -0.308 C  
BRANCH  11  12
HETATM   12  C   UNL     1     -10.299   9.855  67.526  1.00  0.00    -0.236 C  
BRANCH  12  13
HETATM   13  S   UNL     1     -10.068   8.483  68.709  1.00  0.00    -0.199 SA 
BRANCH  13  14
HETATM   14  C   UNL     1      -9.740   9.417  70.237  1.00  0.00    -0.246 C  
BRANCH  14  15
HETATM   15  C   UNL     1      -8.305   9.835  70.268  1.00  0.00    -0.138 A  
HETATM   16  C   UNL     1      -7.209   9.178  70.804  1.00  0.00    -0.108 A  
HETATM   17  C   UNL     1      -7.066   7.892  71.520  1.00  0.00    -0.065 C  
HETATM   18  N   UNL     1      -6.137   9.985  70.516  1.00  0.00    -0.089 NA 
HETATM   19  H   UNL     1      -5.164   9.803  70.762  1.00  0.00     0.000 HD 
HETATM   20  C   UNL     1      -6.605  11.076  69.844  1.00  0.00    -0.142 A  
HETATM   21  N   UNL     1      -7.907  11.024  69.691  1.00  0.00     0.091 NA 
ENDBRANCH  14  15
ENDBRANCH  13  14
ENDBRANCH  12  13
ENDBRANCH  11  12
ENDBRANCH   5  11
TORSDOF 5
ENDMDL
MODEL      261
REMARK 921   NORMALIZED FREE ENERGY PREDICTED BY IDOCK:   -3.12 KCAL/MOL
REMARK 922        TOTAL FREE ENERGY PREDICTED BY IDOCK:   -4.99 KCAL/MOL
REMARK 923 INTER-LIGAND FREE ENERGY PREDICTED BY IDOCK:   -4.77 KCAL/MOL
REMARK 924 INTRA-LIGAND FREE ENERGY PREDICTED BY IDOCK:   -0.22 KCAL/MOL
REMARK 927      BINDING AFFINITY PREDICTED BY RF-SCORE:    0.00 PKD
ROOT
HETATM    1  C   UNL     1     -11.159   7.432  72.903  1.00  0.00    -0.349 C  
HETATM    2  N   UNL     1     -10.629   8.019  71.696  1.00  0.00    -0.220 NA 
HETATM    3  C   UNL     1      -9.888   7.348  70.768  1.00  0.00    -0.178 C  
HETATM    4  H   UNL     1     -10.822   9.006  71.525  1.00  0.00     0.000 HD 
HETATM    5  N   UNL     1      -9.463   8.134  69.721  1.00  0.00    -0.159 NA 
HETATM    6  N   UNL     1      -9.651   6.080  70.922  1.00  0.00    -0.168 NA 
HETATM    7  C   UNL     1      -8.932   5.444  69.998  1.00  0.00    -0.129 C  
HETATM    8  H   UNL     1      -8.911   7.676  68.996  1.00  0.00     0.000 HD 
HETATM    9  N   UNL     1      -8.303   4.927  69.171  1.00  0.00    -0.081 NA 
HETATM   10  H   UNL     1     -10.009   5.581  71.735  1.00  0.00     0.000 HD 
ENDROOT
BRANCH   5  11
HETATM   11  C   UNL     1      -9.723   9.553  69.547  1.00  0.00    -0.190 C  
BRANCH  11  12
HETATM   12  C   UNL     1     -11.000   9.857  68.759  1.00  0.00    -0.179 C  
BRANCH  12  13
HETATM   13  S   UNL     1     -11.110  11.675  68.632  1.00  0.00    -0.257 SA 
BRANCH  13  14
HETATM   14  C   UNL     1     -12.021  12.057  70.162  1.00  0.00    -0.321 C  
BRANCH  14  15
HETATM   15  C   UNL     1     -12.323  13.520  70.211  1.00  0.00    -0.300 A  
HETATM   16  C   UNL     1     -13.146  14.221  71.079  1.00  0.00    -0.328 A  
HETATM   17  C   UNL     1     -13.999  13.795  72.210  1.00  0.00    -0.672 C  
HETATM   18  N   UNL     1     -13.021  15.534  70.703  1.00  0.00    -0.617 NA 
HETATM   19  H   UNL     1     -13.489  16.330  71.135  1.00  0.00     0.000 HD 
HETATM   20  C   UNL     1     -12.159  15.586  69.647  1.00  0.00    -0.328 A  
HETATM   21  N   UNL     1     -11.732  14.390  69.316  1.00  0.00    -0.297 NA 
ENDBRANCH  14  15
ENDBRANCH  13  14
ENDBRANCH  12  13
ENDBRANCH  11  12
ENDBRANCH   5  11
TORSDOF 5
ENDMDL
MODEL      262
REMARK 921   NORMALIZED FREE ENERGY PREDICTED BY IDOCK:   -3.10 KCAL/MOL
REMARK 922        TOTAL FREE ENERGY PREDICTED BY IDOCK:   -4.97 KCAL/MOL
REMARK 923 INTER-LIGAND FREE ENERGY PREDICTED BY IDOCK:   -4.82 KCAL/MOL
REMARK 924 INTRA-LIGAND FREE ENERGY PREDICTED BY IDOCK:   -0.15 KCAL/MOL
REMARK 927      BINDING AFFINITY PREDICTED BY RF-SCORE:    0.00 PKD
ROOT
HETATM    1  C   UNL     1      -5.321  20.801  69.616  1.00  0.00    -0.374 C  
HETATM    2  N   UNL     1      -6.456  19.992  69.244  1.00  0.00    -0.325 NA 
HETATM    3  C   UNL     1      -6.475  18.627  69.261  1.00  0.00    -0.270 C  
HETATM    4  H   UNL     1      -7.305  20.474  68.947  1.00  0.00     0.000 HD 
HETATM    5  N   UNL     1      -7.661  18.082  68.825  1.00  0.00    -0.289 NA 
HETATM    6  N   UNL     1      -5.432  17.971  69.671  1.00  0.00    -0.200 NA 
HETATM    7  C   UNL     1      -5.476  16.639  69.687  1.00  0.00    -0.160 C  
HETATM    8  H   UNL     1      -7.728  17.064  68.827  1.00  0.00     0.000 HD 
HETATM    9  N   UNL     1      -5.556  15.481  69.685  1.00  0.00    -0.110 NA 
HETATM   10  H   UNL     1      -4.594  18.466  69.975  1.00  0.00     0.000 HD 
ENDROOT
BRANCH   5  11
HETATM   11  C   UNL     1      -8.828  18.813  68.363  1.00  0.00    -0.342 C  
BRANCH  11  12
HETATM   12  C   UNL     1     -10.025  17.919  68.028  1.00  0.00    -0.333 C  
BRANCH  12  13
HETATM   13  S   UNL     1      -9.954  17.610  66.230  1.00  0.00    -0.292 SA 
BRANCH  13  14
HETATM   14  C   UNL     1      -9.091  16.006  66.205  1.00  0.00    -0.351 C  
BRANCH  14  15
HETATM   15  C   UNL     1     -10.089  14.901  66.338  1.00  0.00    -0.284 A  
HETATM   16  C   UNL     1     -11.221  14.641  65.582  1.00  0.00    -0.342 A  
HETATM   17  C   UNL     1     -11.837  15.338  64.432  1.00  0.00    -0.288 C  
HETATM   18  N   UNL     1     -11.740  13.485  66.108  1.00  0.00    -0.348 NA 
HETATM   19  H   UNL     1     -12.578  13.001  65.786  1.00  0.00     0.000 HD 
HETATM   20  C   UNL     1     -10.935  13.097  67.139  1.00  0.00    -0.268 A  
HETATM   21  N   UNL     1      -9.940  13.935  67.313  1.00  0.00    -0.240 NA 
ENDBRANCH  14  15
ENDBRANCH  13  14
ENDBRANCH  12  13
ENDBRANCH  11  12
ENDBRANCH   5  11
TORSDOF 5
ENDMDL
MODEL      263
REMARK 921   NORMALIZED FREE ENERGY PREDICTED BY IDOCK:   -3.08 KCAL/MOL
REMARK 922        TOTAL FREE ENERGY PREDICTED BY IDOCK:   -4.94 KCAL/MOL
REMARK 923 INTER-LIGAND FREE ENERGY PREDICTED BY IDOCK:   -4.99 KCAL/MOL
REMARK 924 INTRA-LIGAND FREE ENERGY PREDICTED BY IDOCK:    0.05 KCAL/MOL
REMARK 927      BINDING AFFINITY PREDICTED BY RF-SCORE:    0.00 PKD
ROOT
HETATM    1  C   UNL     1      -8.309  11.445  65.996  1.00  0.00    -0.019 C  
HETATM    2  N   UNL     1      -9.002  12.682  66.258  1.00  0.00    -0.430 NA 
HETATM    3  C   UNL     1     -10.043  13.161  65.514  1.00  0.00    -0.261 C  
HETATM    4  H   UNL     1      -8.694  13.240  67.054  1.00  0.00     0.000 HD 
HETATM    5  N   UNL     1     -10.514  14.381  65.939  1.00  0.00    -0.296 NA 
HETATM    6  N   UNL     1     -10.498  12.466  64.516  1.00  0.00    -0.308 NA 
HETATM    7  C   UNL     1     -11.520  12.948  63.810  1.00  0.00    -0.459 C  
HETATM    8  H   UNL     1     -11.299  14.778  65.420  1.00  0.00     0.000 HD 
HETATM    9  N   UNL     1     -12.411  13.404  63.222  1.00  0.00    -0.703 NA 
HETATM   10  H   UNL     1     -10.080  11.567  64.276  1.00  0.00     0.000 HD 
ENDROOT
BRANCH   5  11
HETATM   11  C   UNL     1     -10.006  15.163  67.053  1.00  0.00    -0.241 C  
BRANCH  11  12
HETATM   12  C   UNL     1     -11.054  15.462  68.129  1.00  0.00    -0.309 C  
BRANCH  12  13
HETATM   13  S   UNL     1     -10.985  14.078  69.319  1.00  0.00    -0.159 SA 
BRANCH  13  14
HETATM   14  C   UNL     1     -12.074  12.876  68.491  1.00  0.00    -0.119 C  
BRANCH  14  15
HETATM   15  C   UNL     1     -11.790  11.504  69.011  1.00  0.00    -0.343 A  
HETATM   16  C   UNL     1     -11.366  10.375  68.328  1.00  0.00    -0.224 A  
HETATM   17  C   UNL     1     -11.069  10.122  66.901  1.00  0.00     0.004 C  
HETATM   18  N   UNL     1     -11.221   9.411  69.294  1.00  0.00    -0.442 NA 
HETATM   19  H   UNL     1     -10.915   8.450  69.143  1.00  0.00     0.000 HD 
HETATM   20  C   UNL     1     -11.559   9.968  70.493  1.00  0.00    -0.323 A  
HETATM   21  N   UNL     1     -11.920  11.222  70.355  1.00  0.00    -0.360 NA 
ENDBRANCH  14  15
ENDBRANCH  13  14
ENDBRANCH  12  13
ENDBRANCH  11  12
ENDBRANCH   5  11
TORSDOF 5
ENDMDL
MODEL      264
REMARK 921   NORMALIZED FREE ENERGY PREDICTED BY IDOCK:   -3.08 KCAL/MOL
REMARK 922        TOTAL FREE ENERGY PREDICTED BY IDOCK:   -4.94 KCAL/MOL
REMARK 923 INTER-LIGAND FREE ENERGY PREDICTED BY IDOCK:   -4.68 KCAL/MOL
REMARK 924 INTRA-LIGAND FREE ENERGY PREDICTED BY IDOCK:   -0.26 KCAL/MOL
REMARK 927      BINDING AFFINITY PREDICTED BY RF-SCORE:    0.00 PKD
ROOT
HETATM    1  C   UNL     1      -7.246  14.623  69.091  1.00  0.00    -0.142 C  
HETATM    2  N   UNL     1      -8.485  14.454  68.371  1.00  0.00    -0.160 NA 
HETATM    3  C   UNL     1      -9.716  14.784  68.858  1.00  0.00    -0.215 C  
HETATM    4  H   UNL     1      -8.437  14.060  67.431  1.00  0.00     0.000 HD 
HETATM    5  N   UNL     1     -10.750  14.494  67.999  1.00  0.00    -0.239 NA 
HETATM    6  N   UNL     1      -9.823  15.328  70.033  1.00  0.00    -0.480 NA 
HETATM    7  C   UNL     1     -11.035  15.650  70.485  1.00  0.00    -0.350 C  
HETATM    8  H   UNL     1     -11.692  14.730  68.315  1.00  0.00     0.000 HD 
HETATM    9  N   UNL     1     -12.107  15.915  70.840  1.00  0.00    -0.399 NA 
HETATM   10  H   UNL     1      -8.994  15.505  70.600  1.00  0.00     0.000 HD 
ENDROOT
BRANCH   5  11
HETATM   11  C   UNL     1     -10.636  13.883  66.686  1.00  0.00    -0.274 C  
BRANCH  11  12
HETATM   12  C   UNL     1     -11.234  12.476  66.602  1.00  0.00    -0.307 C  
BRANCH  12  13
HETATM   13  S   UNL     1     -11.658  11.991  68.311  1.00  0.00    -0.342 SA 
BRANCH  13  14
HETATM   14  C   UNL     1     -11.241  10.219  68.263  1.00  0.00    -0.232 C  
BRANCH  14  15
HETATM   15  C   UNL     1     -10.865   9.757  69.635  1.00  0.00    -0.250 A  
HETATM   16  C   UNL     1      -9.608   9.576  70.188  1.00  0.00    -0.248 A  
HETATM   17  C   UNL     1      -8.243   9.748  69.646  1.00  0.00    -0.163 C  
HETATM   18  N   UNL     1      -9.844   9.186  71.482  1.00  0.00    -0.298 NA 
HETATM   19  H   UNL     1      -9.136   8.971  72.184  1.00  0.00     0.000 HD 
HETATM   20  C   UNL     1     -11.195   9.137  71.664  1.00  0.00    -0.377 A  
HETATM   21  N   UNL     1     -11.839   9.461  70.567  1.00  0.00    -0.205 NA 
ENDBRANCH  14  15
ENDBRANCH  13  14
ENDBRANCH  12  13
ENDBRANCH  11  12
ENDBRANCH   5  11
TORSDOF 5
ENDMDL
MODEL      265
REMARK 921   NORMALIZED FREE ENERGY PREDICTED BY IDOCK:   -3.06 KCAL/MOL
REMARK 922        TOTAL FREE ENERGY PREDICTED BY IDOCK:   -4.92 KCAL/MOL
REMARK 923 INTER-LIGAND FREE ENERGY PREDICTED BY IDOCK:   -4.21 KCAL/MOL
REMARK 924 INTRA-LIGAND FREE ENERGY PREDICTED BY IDOCK:   -0.72 KCAL/MOL
REMARK 927      BINDING AFFINITY PREDICTED BY RF-SCORE:    0.00 PKD
ROOT
HETATM    1  C   UNL     1     -12.089  12.048  70.353  1.00  0.00    -0.321 C  
HETATM    2  N   UNL     1     -11.013  11.974  69.394  1.00  0.00    -0.438 NA 
HETATM    3  C   UNL     1     -11.014  12.593  68.178  1.00  0.00    -0.236 C  
HETATM    4  H   UNL     1     -10.194  11.419  69.643  1.00  0.00     0.000 HD 
HETATM    5  N   UNL     1      -9.891  12.340  67.425  1.00  0.00    -0.196 NA 
HETATM    6  N   UNL     1     -12.017  13.344  67.835  1.00  0.00    -0.347 NA 
HETATM    7  C   UNL     1     -11.992  13.946  66.646  1.00  0.00    -0.442 C  
HETATM    8  H   UNL     1      -9.841  12.788  66.509  1.00  0.00     0.000 HD 
HETATM    9  N   UNL     1     -11.932  14.452  65.604  1.00  0.00    -0.367 NA 
HETATM   10  H   UNL     1     -12.809  13.471  68.464  1.00  0.00     0.000 HD 
ENDROOT
BRANCH   5  11
HETATM   11  C   UNL     1      -8.769  11.499  67.803  1.00  0.00    -0.142 C  
BRANCH  11  12
HETATM   12  C   UNL     1      -8.677  10.195  67.006  1.00  0.00    -0.132 C  
BRANCH  12  13
HETATM   13  S   UNL     1      -7.997   8.939  68.143  1.00  0.00    -0.102 SA 
BRANCH  13  14
HETATM   14  C   UNL     1      -7.914   9.902  69.687  1.00  0.00    -0.162 C  
BRANCH  14  15
HETATM   15  C   UNL     1      -8.754   9.242  70.732  1.00  0.00    -0.217 A  
HETATM   16  C   UNL     1      -8.364   8.584  71.888  1.00  0.00    -0.156 A  
HETATM   17  C   UNL     1      -7.037   8.293  72.473  1.00  0.00    -0.122 C  
HETATM   18  N   UNL     1      -9.536   8.215  72.498  1.00  0.00    -0.247 NA 
HETATM   19  H   UNL     1      -9.622   7.711  73.380  1.00  0.00     0.000 HD 
HETATM   20  C   UNL     1     -10.567   8.641  71.713  1.00  0.00    -0.325 A  
HETATM   21  N   UNL     1     -10.131   9.250  70.636  1.00  0.00    -0.254 NA 
ENDBRANCH  14  15
ENDBRANCH  13  14
ENDBRANCH  12  13
ENDBRANCH  11  12
ENDBRANCH   5  11
TORSDOF 5
ENDMDL
MODEL      266
REMARK 921   NORMALIZED FREE ENERGY PREDICTED BY IDOCK:   -3.06 KCAL/MOL
REMARK 922        TOTAL FREE ENERGY PREDICTED BY IDOCK:   -4.92 KCAL/MOL
REMARK 923 INTER-LIGAND FREE ENERGY PREDICTED BY IDOCK:   -4.54 KCAL/MOL
REMARK 924 INTRA-LIGAND FREE ENERGY PREDICTED BY IDOCK:   -0.38 KCAL/MOL
REMARK 927      BINDING AFFINITY PREDICTED BY RF-SCORE:    0.00 PKD
ROOT
HETATM    1  C   UNL     1     -12.510  10.636  71.204  1.00  0.00    -0.418 C  
HETATM    2  N   UNL     1     -11.751  10.422  69.996  1.00  0.00    -0.287 NA 
HETATM    3  C   UNL     1     -11.131   9.251  69.667  1.00  0.00    -0.116 C  
HETATM    4  H   UNL     1     -11.671  11.201  69.342  1.00  0.00     0.000 HD 
HETATM    5  N   UNL     1     -10.435   9.305  68.481  1.00  0.00    -0.210 NA 
HETATM    6  N   UNL     1     -11.239   8.220  70.449  1.00  0.00    -0.342 NA 
HETATM    7  C   UNL     1     -10.633   7.085  70.103  1.00  0.00    -0.228 C  
HETATM    8  H   UNL     1      -9.961   8.450  68.187  1.00  0.00     0.000 HD 
HETATM    9  N   UNL     1     -10.091   6.116  69.766  1.00  0.00    -0.172 NA 
HETATM   10  H   UNL     1     -11.779   8.278  71.313  1.00  0.00     0.000 HD 
ENDROOT
BRANCH   5  11
HETATM   11  C   UNL     1     -10.309  10.457  67.606  1.00  0.00    -0.219 C  
BRANCH  11  12
HETATM   12  C   UNL     1      -8.932  10.588  66.950  1.00  0.00    -0.140 C  
BRANCH  12  13
HETATM   13  S   UNL     1      -8.221  12.160  67.548  1.00  0.00    -0.178 SA 
BRANCH  13  14
HETATM   14  C   UNL     1      -9.740  13.061  67.995  1.00  0.00    -0.224 C  
BRANCH  14  15
HETATM   15  C   UNL     1      -9.968  14.169  67.017  1.00  0.00    -0.260 A  
HETATM   16  C   UNL     1     -11.121  14.510  66.328  1.00  0.00    -0.332 A  
HETATM   17  C   UNL     1     -12.478  13.921  66.295  1.00  0.00    -0.454 C  
HETATM   18  N   UNL     1     -10.784  15.627  65.607  1.00  0.00    -0.352 NA 
HETATM   19  H   UNL     1     -11.401  16.151  64.986  1.00  0.00     0.000 HD 
HETATM   20  C   UNL     1      -9.476  15.914  65.868  1.00  0.00    -0.337 A  
HETATM   21  N   UNL     1      -8.952  15.047  66.702  1.00  0.00    -0.271 NA 
ENDBRANCH  14  15
ENDBRANCH  13  14
ENDBRANCH  12  13
ENDBRANCH  11  12
ENDBRANCH   5  11
TORSDOF 5
ENDMDL
MODEL      267
REMARK 921   NORMALIZED FREE ENERGY PREDICTED BY IDOCK:   -3.05 KCAL/MOL
REMARK 922        TOTAL FREE ENERGY PREDICTED BY IDOCK:   -4.91 KCAL/MOL
REMARK 923 INTER-LIGAND FREE ENERGY PREDICTED BY IDOCK:   -4.60 KCAL/MOL
REMARK 924 INTRA-LIGAND FREE ENERGY PREDICTED BY IDOCK:   -0.31 KCAL/MOL
REMARK 927      BINDING AFFINITY PREDICTED BY RF-SCORE:    0.00 PKD
ROOT
HETATM    1  C   UNL     1     -10.333  11.322  63.516  1.00  0.00    -0.408 C  
HETATM    2  N   UNL     1     -10.161  10.468  64.666  1.00  0.00    -0.346 NA 
HETATM    3  C   UNL     1      -8.954  10.125  65.203  1.00  0.00    -0.192 C  
HETATM    4  H   UNL     1     -11.000  10.095  65.109  1.00  0.00     0.000 HD 
HETATM    5  N   UNL     1      -9.046   9.268  66.275  1.00  0.00    -0.160 NA 
HETATM    6  N   UNL     1      -7.860  10.610  64.698  1.00  0.00    -0.350 NA 
HETATM    7  C   UNL     1      -6.693  10.268  65.245  1.00  0.00    -0.126 C  
HETATM    8  H   UNL     1      -8.170   8.988  66.718  1.00  0.00     0.000 HD 
HETATM    9  N   UNL     1      -5.699   9.945  65.750  1.00  0.00    -0.055 NA 
HETATM   10  H   UNL     1      -7.892  11.241  63.898  1.00  0.00     0.000 HD 
ENDROOT
BRANCH   5  11
HETATM   11  C   UNL     1     -10.268   8.721  66.841  1.00  0.00    -0.287 C  
BRANCH  11  12
HETATM   12  C   UNL     1     -10.389   7.201  66.700  1.00  0.00    -0.151 C  
BRANCH  12  13
HETATM   13  S   UNL     1     -10.472   6.529  68.396  1.00  0.00    -0.244 SA 
BRANCH  13  14
HETATM   14  C   UNL     1     -10.531   8.073  69.360  1.00  0.00    -0.220 C  
BRANCH  14  15
HETATM   15  C   UNL     1     -11.443   7.896  70.531  1.00  0.00    -0.195 A  
HETATM   16  C   UNL     1     -12.074   8.854  71.308  1.00  0.00    -0.306 A  
HETATM   17  C   UNL     1     -12.063  10.333  71.276  1.00  0.00    -0.479 C  
HETATM   18  N   UNL     1     -12.822   8.142  72.211  1.00  0.00    -0.518 NA 
HETATM   19  H   UNL     1     -13.421   8.534  72.937  1.00  0.00     0.000 HD 
HETATM   20  C   UNL     1     -12.621   6.815  71.965  1.00  0.00    -0.218 A  
HETATM   21  N   UNL     1     -11.785   6.632  70.970  1.00  0.00    -0.344 NA 
ENDBRANCH  14  15
ENDBRANCH  13  14
ENDBRANCH  12  13
ENDBRANCH  11  12
ENDBRANCH   5  11
TORSDOF 5
ENDMDL
MODEL      268
REMARK 921   NORMALIZED FREE ENERGY PREDICTED BY IDOCK:   -3.04 KCAL/MOL
REMARK 922        TOTAL FREE ENERGY PREDICTED BY IDOCK:   -4.90 KCAL/MOL
REMARK 923 INTER-LIGAND FREE ENERGY PREDICTED BY IDOCK:   -4.42 KCAL/MOL
REMARK 924 INTRA-LIGAND FREE ENERGY PREDICTED BY IDOCK:   -0.48 KCAL/MOL
REMARK 927      BINDING AFFINITY PREDICTED BY RF-SCORE:    0.00 PKD
ROOT
HETATM    1  C   UNL     1     -11.837  13.534  66.832  1.00  0.00    -0.407 C  
HETATM    2  N   UNL     1     -11.522  12.612  67.895  1.00  0.00    -0.288 NA 
HETATM    3  C   UNL     1     -10.264  12.379  68.373  1.00  0.00    -0.225 C  
HETATM    4  H   UNL     1     -12.293  12.098  68.321  1.00  0.00     0.000 HD 
HETATM    5  N   UNL     1     -10.214  11.427  69.364  1.00  0.00    -0.433 NA 
HETATM    6  N   UNL     1      -9.256  13.042  67.891  1.00  0.00    -0.200 NA 
HETATM    7  C   UNL     1      -8.039  12.804  68.379  1.00  0.00    -0.129 C  
HETATM    8  H   UNL     1      -9.296  11.223  69.760  1.00  0.00     0.000 HD 
HETATM    9  N   UNL     1      -6.997  12.568  68.830  1.00  0.00    -0.098 NA 
HETATM   10  H   UNL     1      -9.394  13.731  67.152  1.00  0.00     0.000 HD 
ENDROOT
BRANCH   5  11
HETATM   11  C   UNL     1     -11.338  10.682  69.904  1.00  0.00    -0.313 C  
BRANCH  11  12
HETATM   12  C   UNL     1     -10.955   9.701  71.015  1.00  0.00    -0.361 C  
BRANCH  12  13
HETATM   13  S   UNL     1     -11.506   8.050  70.463  1.00  0.00    -0.123 SA 
BRANCH  13  14
HETATM   14  C   UNL     1      -9.956   7.404  69.758  1.00  0.00    -0.188 C  
BRANCH  14  15
HETATM   15  C   UNL     1     -10.228   6.810  68.414  1.00  0.00    -0.178 A  
HETATM   16  C   UNL     1     -10.387   7.440  67.190  1.00  0.00    -0.307 A  
HETATM   17  C   UNL     1     -10.363   8.863  66.786  1.00  0.00    -0.317 C  
HETATM   18  N   UNL     1     -10.571   6.421  66.289  1.00  0.00    -0.451 NA 
HETATM   19  H   UNL     1     -10.715   6.526  65.285  1.00  0.00     0.000 HD 
HETATM   20  C   UNL     1     -10.526   5.244  66.976  1.00  0.00    -0.229 A  
HETATM   21  N   UNL     1     -10.336   5.443  68.259  1.00  0.00    -0.169 NA 
ENDBRANCH  14  15
ENDBRANCH  13  14
ENDBRANCH  12  13
ENDBRANCH  11  12
ENDBRANCH   5  11
TORSDOF 5
ENDMDL
MODEL      269
REMARK 921   NORMALIZED FREE ENERGY PREDICTED BY IDOCK:   -3.03 KCAL/MOL
REMARK 922        TOTAL FREE ENERGY PREDICTED BY IDOCK:   -4.88 KCAL/MOL
REMARK 923 INTER-LIGAND FREE ENERGY PREDICTED BY IDOCK:   -4.60 KCAL/MOL
REMARK 924 INTRA-LIGAND FREE ENERGY PREDICTED BY IDOCK:   -0.29 KCAL/MOL
REMARK 927      BINDING AFFINITY PREDICTED BY RF-SCORE:    0.00 PKD
ROOT
HETATM    1  C   UNL     1     -11.979  11.789  68.850  1.00  0.00    -0.271 C  
HETATM    2  N   UNL     1     -10.653  12.133  68.398  1.00  0.00    -0.219 NA 
HETATM    3  C   UNL     1      -9.518  11.449  68.729  1.00  0.00    -0.119 C  
HETATM    4  H   UNL     1     -10.555  12.944  67.787  1.00  0.00     0.000 HD 
HETATM    5  N   UNL     1      -8.368  11.993  68.205  1.00  0.00    -0.159 NA 
HETATM    6  N   UNL     1      -9.598  10.385  69.470  1.00  0.00    -0.363 NA 
HETATM    7  C   UNL     1      -8.478   9.728  69.773  1.00  0.00    -0.193 C  
HETATM    8  H   UNL     1      -7.494  11.513  68.418  1.00  0.00     0.000 HD 
HETATM    9  N   UNL     1      -7.481   9.186  70.014  1.00  0.00    -0.067 NA 
HETATM   10  H   UNL     1     -10.500  10.058  69.813  1.00  0.00     0.000 HD 
ENDROOT
BRANCH   5  11
HETATM   11  C   UNL     1      -8.275  13.185  67.380  1.00  0.00    -0.187 C  
BRANCH  11  12
HETATM   12  C   UNL     1      -7.887  14.446  68.155  1.00  0.00    -0.138 C  
BRANCH  12  13
HETATM   13  S   UNL     1      -9.290  15.604  67.999  1.00  0.00    -0.193 SA 
BRANCH  13  14
HETATM   14  C   UNL     1      -8.762  16.569  66.548  1.00  0.00    -0.282 C  
BRANCH  14  15
HETATM   15  C   UNL     1      -9.411  17.916  66.581  1.00  0.00    -0.286 A  
HETATM   16  C   UNL     1      -9.178  18.984  67.432  1.00  0.00    -0.289 A  
HETATM   17  C   UNL     1      -8.258  19.169  68.576  1.00  0.00    -0.399 C  
HETATM   18  N   UNL     1     -10.014  19.978  66.990  1.00  0.00    -0.416 NA 
HETATM   19  H   UNL     1     -10.100  20.913  67.388  1.00  0.00     0.000 HD 
HETATM   20  C   UNL     1     -10.711  19.492  65.923  1.00  0.00    -0.420 A  
HETATM   21  N   UNL     1     -10.383  18.250  65.660  1.00  0.00    -0.597 NA 
ENDBRANCH  14  15
ENDBRANCH  13  14
ENDBRANCH  12  13
ENDBRANCH  11  12
ENDBRANCH   5  11
TORSDOF 5
ENDMDL
MODEL      270
REMARK 921   NORMALIZED FREE ENERGY PREDICTED BY IDOCK:   -3.03 KCAL/MOL
REMARK 922        TOTAL FREE ENERGY PREDICTED BY IDOCK:   -4.88 KCAL/MOL
REMARK 923 INTER-LIGAND FREE ENERGY PREDICTED BY IDOCK:   -4.70 KCAL/MOL
REMARK 924 INTRA-LIGAND FREE ENERGY PREDICTED BY IDOCK:   -0.17 KCAL/MOL
REMARK 927      BINDING AFFINITY PREDICTED BY RF-SCORE:    0.00 PKD
ROOT
HETATM    1  C   UNL     1     -11.496   7.019  72.148  1.00  0.00    -0.274 C  
HETATM    2  N   UNL     1     -11.278   7.856  70.993  1.00  0.00    -0.265 NA 
HETATM    3  C   UNL     1     -11.007   7.391  69.738  1.00  0.00    -0.200 C  
HETATM    4  H   UNL     1     -11.329   8.866  71.123  1.00  0.00     0.000 HD 
HETATM    5  N   UNL     1     -10.800   8.385  68.810  1.00  0.00    -0.432 NA 
HETATM    6  N   UNL     1     -10.973   6.112  69.516  1.00  0.00    -0.359 NA 
HETATM    7  C   UNL     1     -10.716   5.681  68.281  1.00  0.00    -0.151 C  
HETATM    8  H   UNL     1     -10.602   8.088  67.854  1.00  0.00     0.000 HD 
HETATM    9  N   UNL     1     -10.489   5.348  67.193  1.00  0.00    -0.242 NA 
HETATM   10  H   UNL     1     -11.140   5.449  70.272  1.00  0.00     0.000 HD 
ENDROOT
BRANCH   5  11
HETATM   11  C   UNL     1     -10.834   9.816  69.056  1.00  0.00    -0.199 C  
BRANCH  11  12
HETATM   12  C   UNL     1     -10.541  10.665  67.816  1.00  0.00    -0.236 C  
BRANCH  12  13
HETATM   13  S   UNL     1     -10.198  12.356  68.414  1.00  0.00    -0.207 SA 
BRANCH  13  14
HETATM   14  C   UNL     1     -11.038  13.336  67.129  1.00  0.00    -0.286 C  
BRANCH  14  15
HETATM   15  C   UNL     1     -10.854  14.792  67.413  1.00  0.00    -0.300 A  
HETATM   16  C   UNL     1     -10.780  15.858  66.530  1.00  0.00    -0.258 A  
HETATM   17  C   UNL     1     -10.837  15.940  65.054  1.00  0.00    -0.444 C  
HETATM   18  N   UNL     1     -10.652  16.968  67.325  1.00  0.00    -0.302 NA 
HETATM   19  H   UNL     1     -10.576  17.933  67.003  1.00  0.00     0.000 HD 
HETATM   20  C   UNL     1     -10.645  16.553  68.625  1.00  0.00    -0.316 A  
HETATM   21  N   UNL     1     -10.750  15.247  68.712  1.00  0.00    -0.233 NA 
ENDBRANCH  14  15
ENDBRANCH  13  14
ENDBRANCH  12  13
ENDBRANCH  11  12
ENDBRANCH   5  11
TORSDOF 5
ENDMDL
MODEL      271
REMARK 921   NORMALIZED FREE ENERGY PREDICTED BY IDOCK:   -3.02 KCAL/MOL
REMARK 922        TOTAL FREE ENERGY PREDICTED BY IDOCK:   -4.87 KCAL/MOL
REMARK 923 INTER-LIGAND FREE ENERGY PREDICTED BY IDOCK:   -4.35 KCAL/MOL
REMARK 924 INTRA-LIGAND FREE ENERGY PREDICTED BY IDOCK:   -0.52 KCAL/MOL
REMARK 927      BINDING AFFINITY PREDICTED BY RF-SCORE:    0.00 PKD
ROOT
HETATM    1  C   UNL     1      -6.093  20.088  70.326  1.00  0.00    -0.347 C  
HETATM    2  N   UNL     1      -6.315  18.850  69.619  1.00  0.00    -0.262 NA 
HETATM    3  C   UNL     1      -6.482  18.748  68.268  1.00  0.00    -0.222 C  
HETATM    4  H   UNL     1      -6.349  17.991  70.167  1.00  0.00     0.000 HD 
HETATM    5  N   UNL     1      -6.717  17.464  67.833  1.00  0.00    -0.170 NA 
HETATM    6  N   UNL     1      -6.405  19.810  67.524  1.00  0.00    -0.200 NA 
HETATM    7  C   UNL     1      -6.563  19.684  66.206  1.00  0.00    -0.197 C  
HETATM    8  H   UNL     1      -6.841  17.334  66.828  1.00  0.00     0.000 HD 
HETATM    9  N   UNL     1      -6.706  19.532  65.065  1.00  0.00    -0.414 NA 
HETATM   10  H   UNL     1      -6.227  20.723  67.941  1.00  0.00     0.000 HD 
ENDROOT
BRANCH   5  11
HETATM   11  C   UNL     1      -6.807  16.275  68.661  1.00  0.00    -0.141 C  
BRANCH  11  12
HETATM   12  C   UNL     1      -6.778  14.965  67.870  1.00  0.00    -0.160 C  
BRANCH  12  13
HETATM   13  S   UNL     1      -8.228  13.998  68.415  1.00  0.00    -0.145 SA 
BRANCH  13  14
HETATM   14  C   UNL     1      -9.579  15.047  67.789  1.00  0.00    -0.203 C  
BRANCH  14  15
HETATM   15  C   UNL     1     -10.418  15.517  68.934  1.00  0.00    -0.223 A  
HETATM   16  C   UNL     1     -10.635  16.805  69.394  1.00  0.00    -0.318 A  
HETATM   17  C   UNL     1     -10.129  18.124  68.954  1.00  0.00    -0.354 C  
HETATM   18  N   UNL     1     -11.518  16.664  70.436  1.00  0.00    -0.409 NA 
HETATM   19  H   UNL     1     -11.901  17.418  71.005  1.00  0.00     0.000 HD 
HETATM   20  C   UNL     1     -11.792  15.335  70.573  1.00  0.00    -0.324 A  
HETATM   21  N   UNL     1     -11.135  14.616  69.694  1.00  0.00    -0.262 NA 
ENDBRANCH  14  15
ENDBRANCH  13  14
ENDBRANCH  12  13
ENDBRANCH  11  12
ENDBRANCH   5  11
TORSDOF 5
ENDMDL
MODEL      272
REMARK 921   NORMALIZED FREE ENERGY PREDICTED BY IDOCK:   -3.02 KCAL/MOL
REMARK 922        TOTAL FREE ENERGY PREDICTED BY IDOCK:   -4.87 KCAL/MOL
REMARK 923 INTER-LIGAND FREE ENERGY PREDICTED BY IDOCK:   -4.66 KCAL/MOL
REMARK 924 INTRA-LIGAND FREE ENERGY PREDICTED BY IDOCK:   -0.21 KCAL/MOL
REMARK 927      BINDING AFFINITY PREDICTED BY RF-SCORE:    0.00 PKD
ROOT
HETATM    1  C   UNL     1     -10.914  12.234  64.142  1.00  0.00    -0.363 C  
HETATM    2  N   UNL     1     -10.649  12.214  65.560  1.00  0.00    -0.268 NA 
HETATM    3  C   UNL     1     -10.086  13.242  66.258  1.00  0.00    -0.294 C  
HETATM    4  H   UNL     1     -10.901  11.372  66.078  1.00  0.00     0.000 HD 
HETATM    5  N   UNL     1      -9.899  12.971  67.594  1.00  0.00    -0.207 NA 
HETATM    6  N   UNL     1      -9.787  14.350  65.649  1.00  0.00    -0.471 NA 
HETATM    7  C   UNL     1      -9.245  15.344  66.353  1.00  0.00    -0.305 C  
HETATM    8  H   UNL     1      -9.487  13.713  68.161  1.00  0.00     0.000 HD 
HETATM    9  N   UNL     1      -8.776  16.184  67.002  1.00  0.00    -0.189 NA 
HETATM   10  H   UNL     1      -9.963  14.457  64.651  1.00  0.00     0.000 HD 
ENDROOT
BRANCH   5  11
HETATM   11  C   UNL     1     -10.228  11.733  68.277  1.00  0.00    -0.205 C  
BRANCH  11  12
HETATM   12  C   UNL     1     -11.714  11.592  68.622  1.00  0.00    -0.325 C  
BRANCH  12  13
HETATM   13  S   UNL     1     -11.827  11.614  70.445  1.00  0.00    -0.203 SA 
BRANCH  13  14
HETATM   14  C   UNL     1     -12.919  10.184  70.724  1.00  0.00    -0.305 C  
BRANCH  14  15
HETATM   15  C   UNL     1     -12.122   9.049  71.282  1.00  0.00    -0.314 A  
HETATM   16  C   UNL     1     -11.262   8.176  70.635  1.00  0.00    -0.260 A  
HETATM   17  C   UNL     1     -10.850   8.043  69.221  1.00  0.00    -0.072 C  
HETATM   18  N   UNL     1     -10.770   7.365  71.626  1.00  0.00    -0.214 NA 
HETATM   19  H   UNL     1     -10.100   6.606  71.504  1.00  0.00     0.000 HD 
HETATM   20  C   UNL     1     -11.335   7.756  72.805  1.00  0.00    -0.389 A  
HETATM   21  N   UNL     1     -12.165   8.757  72.631  1.00  0.00    -0.276 NA 
ENDBRANCH  14  15
ENDBRANCH  13  14
ENDBRANCH  12  13
ENDBRANCH  11  12
ENDBRANCH   5  11
TORSDOF 5
ENDMDL
MODEL      273
REMARK 921   NORMALIZED FREE ENERGY PREDICTED BY IDOCK:   -3.02 KCAL/MOL
REMARK 922        TOTAL FREE ENERGY PREDICTED BY IDOCK:   -4.86 KCAL/MOL
REMARK 923 INTER-LIGAND FREE ENERGY PREDICTED BY IDOCK:   -3.99 KCAL/MOL
REMARK 924 INTRA-LIGAND FREE ENERGY PREDICTED BY IDOCK:   -0.87 KCAL/MOL
REMARK 927      BINDING AFFINITY PREDICTED BY RF-SCORE:    0.00 PKD
ROOT
HETATM    1  C   UNL     1     -10.671  13.265  65.354  1.00  0.00    -0.297 C  
HETATM    2  N   UNL     1     -11.130  12.675  66.588  1.00  0.00    -0.263 NA 
HETATM    3  C   UNL     1     -11.279  13.352  67.764  1.00  0.00    -0.279 C  
HETATM    4  H   UNL     1     -11.358  11.681  66.582  1.00  0.00     0.000 HD 
HETATM    5  N   UNL     1     -11.694  12.563  68.811  1.00  0.00    -0.312 NA 
HETATM    6  N   UNL     1     -11.040  14.628  67.810  1.00  0.00    -0.287 NA 
HETATM    7  C   UNL     1     -11.202  15.271  68.966  1.00  0.00    -0.280 C  
HETATM    8  H   UNL     1     -11.829  13.026  69.711  1.00  0.00     0.000 HD 
HETATM    9  N   UNL     1     -11.355  15.792  69.991  1.00  0.00    -0.320 NA 
HETATM   10  H   UNL     1     -10.734  15.129  66.976  1.00  0.00     0.000 HD 
ENDROOT
BRANCH   5  11
HETATM   11  C   UNL     1     -11.959  11.136  68.764  1.00  0.00    -0.268 C  
BRANCH  11  12
HETATM   12  C   UNL     1     -11.054  10.307  69.679  1.00  0.00    -0.274 C  
BRANCH  12  13
HETATM   13  S   UNL     1     -10.234   9.070  68.616  1.00  0.00    -0.208 SA 
BRANCH  13  14
HETATM   14  C   UNL     1      -8.767  10.010  68.086  1.00  0.00    -0.122 C  
BRANCH  14  15
HETATM   15  C   UNL     1      -8.739  10.093  66.594  1.00  0.00    -0.126 A  
HETATM   16  C   UNL     1      -7.708  10.481  65.753  1.00  0.00    -0.145 A  
HETATM   17  C   UNL     1      -6.328  10.948  66.013  1.00  0.00    -0.102 C  
HETATM   18  N   UNL     1      -8.208  10.327  64.485  1.00  0.00    -0.163 NA 
HETATM   19  H   UNL     1      -7.711  10.519  63.615  1.00  0.00     0.000 HD 
HETATM   20  C   UNL     1      -9.490   9.873  64.594  1.00  0.00    -0.278 A  
HETATM   21  N   UNL     1      -9.846   9.736  65.850  1.00  0.00    -0.268 NA 
ENDBRANCH  14  15
ENDBRANCH  13  14
ENDBRANCH  12  13
ENDBRANCH  11  12
ENDBRANCH   5  11
TORSDOF 5
ENDMDL
MODEL      274
REMARK 921   NORMALIZED FREE ENERGY PREDICTED BY IDOCK:   -3.01 KCAL/MOL
REMARK 922        TOTAL FREE ENERGY PREDICTED BY IDOCK:   -4.85 KCAL/MOL
REMARK 923 INTER-LIGAND FREE ENERGY PREDICTED BY IDOCK:   -4.63 KCAL/MOL
REMARK 924 INTRA-LIGAND FREE ENERGY PREDICTED BY IDOCK:   -0.22 KCAL/MOL
REMARK 927      BINDING AFFINITY PREDICTED BY RF-SCORE:    0.00 PKD
ROOT
HETATM    1  C   UNL     1      -8.322  13.352  67.215  1.00  0.00    -0.176 C  
HETATM    2  N   UNL     1      -8.672  12.167  66.469  1.00  0.00    -0.348 NA 
HETATM    3  C   UNL     1      -9.892  11.941  65.900  1.00  0.00    -0.237 C  
HETATM    4  H   UNL     1      -7.957  11.447  66.360  1.00  0.00     0.000 HD 
HETATM    5  N   UNL     1      -9.995  10.720  65.274  1.00  0.00    -0.263 NA 
HETATM    6  N   UNL     1     -10.820  12.847  65.977  1.00  0.00    -0.276 NA 
HETATM    7  C   UNL     1     -12.000  12.607  65.405  1.00  0.00    -0.446 C  
HETATM    8  H   UNL     1     -10.886  10.507  64.825  1.00  0.00     0.000 HD 
HETATM    9  N   UNL     1     -13.012  12.360  64.895  1.00  0.00    -0.715 NA 
HETATM   10  H   UNL     1     -10.648  13.725  66.466  1.00  0.00     0.000 HD 
ENDROOT
BRANCH   5  11
HETATM   11  C   UNL     1      -8.961   9.704  65.188  1.00  0.00    -0.207 C  
BRANCH  11  12
HETATM   12  C   UNL     1      -8.763   8.911  66.483  1.00  0.00    -0.130 C  
BRANCH  12  13
HETATM   13  S   UNL     1     -10.412   8.298  66.973  1.00  0.00    -0.262 SA 
BRANCH  13  14
HETATM   14  C   UNL     1     -10.470   8.859  68.705  1.00  0.00    -0.200 C  
BRANCH  14  15
HETATM   15  C   UNL     1     -10.241   7.695  69.615  1.00  0.00    -0.204 A  
HETATM   16  C   UNL     1      -9.601   7.651  70.843  1.00  0.00    -0.164 A  
HETATM   17  C   UNL     1      -8.928   8.686  71.658  1.00  0.00    -0.305 C  
HETATM   18  N   UNL     1      -9.716   6.348  71.256  1.00  0.00    -0.174 NA 
HETATM   19  H   UNL     1      -9.359   5.959  72.128  1.00  0.00     0.000 HD 
HETATM   20  C   UNL     1     -10.395   5.663  70.291  1.00  0.00    -0.266 A  
HETATM   21  N   UNL     1     -10.712   6.441  69.283  1.00  0.00    -0.259 NA 
ENDBRANCH  14  15
ENDBRANCH  13  14
ENDBRANCH  12  13
ENDBRANCH  11  12
ENDBRANCH   5  11
TORSDOF 5
ENDMDL
MODEL      275
REMARK 921   NORMALIZED FREE ENERGY PREDICTED BY IDOCK:   -3.00 KCAL/MOL
REMARK 922        TOTAL FREE ENERGY PREDICTED BY IDOCK:   -4.84 KCAL/MOL
REMARK 923 INTER-LIGAND FREE ENERGY PREDICTED BY IDOCK:   -4.09 KCAL/MOL
REMARK 924 INTRA-LIGAND FREE ENERGY PREDICTED BY IDOCK:   -0.75 KCAL/MOL
REMARK 927      BINDING AFFINITY PREDICTED BY RF-SCORE:    0.00 PKD
ROOT
HETATM    1  C   UNL     1     -11.783   6.427  70.221  1.00  0.00    -0.320 C  
HETATM    2  N   UNL     1     -11.488   7.839  70.260  1.00  0.00    -0.456 NA 
HETATM    3  C   UNL     1     -10.566   8.417  71.085  1.00  0.00    -0.215 C  
HETATM    4  H   UNL     1     -12.005   8.449  69.627  1.00  0.00     0.000 HD 
HETATM    5  N   UNL     1     -10.493   9.785  70.965  1.00  0.00    -0.311 NA 
HETATM    6  N   UNL     1      -9.854   7.675  71.879  1.00  0.00    -0.163 NA 
HETATM    7  C   UNL     1      -8.954   8.261  72.669  1.00  0.00    -0.246 C  
HETATM    8  H   UNL     1      -9.812  10.264  71.555  1.00  0.00     0.000 HD 
HETATM    9  N   UNL     1      -8.182   8.808  73.339  1.00  0.00    -0.334 NA 
HETATM   10  H   UNL     1      -9.982   6.664  71.897  1.00  0.00     0.000 HD 
ENDROOT
BRANCH   5  11
HETATM   11  C   UNL     1     -11.290  10.618  70.081  1.00  0.00    -0.323 C  
BRANCH  11  12
HETATM   12  C   UNL     1     -10.499  11.217  68.914  1.00  0.00    -0.207 C  
BRANCH  12  13
HETATM   13  S   UNL     1     -10.832  10.158  67.464  1.00  0.00    -0.251 SA 
BRANCH  13  14
HETATM   14  C   UNL     1      -9.288   9.193  67.400  1.00  0.00    -0.134 C  
BRANCH  14  15
HETATM   15  C   UNL     1      -9.589   7.799  66.953  1.00  0.00    -0.198 A  
HETATM   16  C   UNL     1      -8.727   6.819  66.488  1.00  0.00    -0.136 A  
HETATM   17  C   UNL     1      -7.266   6.799  66.257  1.00  0.00    -0.072 C  
HETATM   18  N   UNL     1      -9.524   5.724  66.265  1.00  0.00    -0.159 NA 
HETATM   19  H   UNL     1      -9.214   4.815  65.921  1.00  0.00     0.000 HD 
HETATM   20  C   UNL     1     -10.805   6.067  66.585  1.00  0.00    -0.213 A  
HETATM   21  N   UNL     1     -10.881   7.313  66.989  1.00  0.00    -0.354 NA 
ENDBRANCH  14  15
ENDBRANCH  13  14
ENDBRANCH  12  13
ENDBRANCH  11  12
ENDBRANCH   5  11
TORSDOF 5
ENDMDL
MODEL      276
REMARK 921   NORMALIZED FREE ENERGY PREDICTED BY IDOCK:   -3.00 KCAL/MOL
REMARK 922        TOTAL FREE ENERGY PREDICTED BY IDOCK:   -4.84 KCAL/MOL
REMARK 923 INTER-LIGAND FREE ENERGY PREDICTED BY IDOCK:   -4.40 KCAL/MOL
REMARK 924 INTRA-LIGAND FREE ENERGY PREDICTED BY IDOCK:   -0.44 KCAL/MOL
REMARK 927      BINDING AFFINITY PREDICTED BY RF-SCORE:    0.00 PKD
ROOT
HETATM    1  C   UNL     1     -12.791  13.513  71.449  1.00  0.00    -0.355 C  
HETATM    2  N   UNL     1     -12.371  13.333  70.080  1.00  0.00    -0.276 NA 
HETATM    3  C   UNL     1     -11.370  14.038  69.477  1.00  0.00    -0.245 C  
HETATM    4  H   UNL     1     -12.857  12.629  69.524  1.00  0.00     0.000 HD 
HETATM    5  N   UNL     1     -11.181  13.713  68.154  1.00  0.00    -0.262 NA 
HETATM    6  N   UNL     1     -10.696  14.916  70.157  1.00  0.00    -0.454 NA 
HETATM    7  C   UNL     1      -9.717  15.586  69.549  1.00  0.00    -0.282 C  
HETATM    8  H   UNL     1     -10.438  14.208  67.660  1.00  0.00     0.000 HD 
HETATM    9  N   UNL     1      -8.874  16.147  68.984  1.00  0.00    -0.244 NA 
HETATM   10  H   UNL     1     -10.912  15.088  71.139  1.00  0.00     0.000 HD 
ENDROOT
BRANCH   5  11
HETATM   11  C   UNL     1     -11.935  12.735  67.389  1.00  0.00    -0.272 C  
BRANCH  11  12
HETATM   12  C   UNL     1     -11.987  13.029  65.887  1.00  0.00    -0.435 C  
BRANCH  12  13
HETATM   13  S   UNL     1     -10.305  12.729  65.242  1.00  0.00    -0.291 SA 
BRANCH  13  14
HETATM   14  C   UNL     1     -10.434  10.969  64.792  1.00  0.00    -0.316 C  
BRANCH  14  15
HETATM   15  C   UNL     1      -9.675  10.144  65.781  1.00  0.00    -0.245 A  
HETATM   16  C   UNL     1      -8.313   9.898  65.860  1.00  0.00    -0.123 A  
HETATM   17  C   UNL     1      -7.170  10.326  65.025  1.00  0.00    -0.111 C  
HETATM   18  N   UNL     1      -8.159   9.119  66.979  1.00  0.00    -0.109 NA 
HETATM   19  H   UNL     1      -7.278   8.755  67.341  1.00  0.00     0.000 HD 
HETATM   20  C   UNL     1      -9.394   8.918  67.522  1.00  0.00    -0.136 A  
HETATM   21  N   UNL     1     -10.330   9.509  66.817  1.00  0.00    -0.243 NA 
ENDBRANCH  14  15
ENDBRANCH  13  14
ENDBRANCH  12  13
ENDBRANCH  11  12
ENDBRANCH   5  11
TORSDOF 5
ENDMDL
MODEL      277
REMARK 921   NORMALIZED FREE ENERGY PREDICTED BY IDOCK:   -2.98 KCAL/MOL
REMARK 922        TOTAL FREE ENERGY PREDICTED BY IDOCK:   -4.82 KCAL/MOL
REMARK 923 INTER-LIGAND FREE ENERGY PREDICTED BY IDOCK:   -4.02 KCAL/MOL
REMARK 924 INTRA-LIGAND FREE ENERGY PREDICTED BY IDOCK:   -0.79 KCAL/MOL
REMARK 927      BINDING AFFINITY PREDICTED BY RF-SCORE:    0.00 PKD
ROOT
HETATM    1  C   UNL     1     -11.672   8.972  71.226  1.00  0.00    -0.313 C  
HETATM    2  N   UNL     1     -10.544   9.449  70.463  1.00  0.00    -0.248 NA 
HETATM    3  C   UNL     1     -10.636  10.236  69.351  1.00  0.00    -0.237 C  
HETATM    4  H   UNL     1      -9.611   9.180  70.777  1.00  0.00     0.000 HD 
HETATM    5  N   UNL     1      -9.422  10.529  68.775  1.00  0.00    -0.172 NA 
HETATM    6  N   UNL     1     -11.800  10.638  68.938  1.00  0.00    -0.603 NA 
HETATM    7  C   UNL     1     -11.865  11.412  67.855  1.00  0.00    -0.165 C  
HETATM    8  H   UNL     1      -9.437  11.122  67.944  1.00  0.00     0.000 HD 
HETATM    9  N   UNL     1     -11.879  12.084  66.910  1.00  0.00    -0.616 NA 
HETATM   10  H   UNL     1     -12.649  10.366  69.433  1.00  0.00     0.000 HD 
ENDROOT
BRANCH   5  11
HETATM   11  C   UNL     1      -8.118  10.078  69.232  1.00  0.00    -0.141 C  
BRANCH  11  12
HETATM   12  C   UNL     1      -7.257   9.457  68.130  1.00  0.00    -0.078 C  
BRANCH  12  13
HETATM   13  S   UNL     1      -8.102   9.808  66.550  1.00  0.00    -0.117 SA 
BRANCH  13  14
HETATM   14  C   UNL     1      -8.115   8.146  65.806  1.00  0.00    -0.115 C  
BRANCH  14  15
HETATM   15  C   UNL     1      -9.166   7.312  66.465  1.00  0.00    -0.157 A  
HETATM   16  C   UNL     1      -9.148   5.964  66.784  1.00  0.00    -0.128 A  
HETATM   17  C   UNL     1      -8.137   4.903  66.584  1.00  0.00    -0.107 C  
HETATM   18  N   UNL     1     -10.346   5.732  67.412  1.00  0.00    -0.199 NA 
HETATM   19  H   UNL     1     -10.665   4.839  67.786  1.00  0.00     0.000 HD 
HETATM   20  C   UNL     1     -11.034   6.910  67.445  1.00  0.00    -0.304 A  
HETATM   21  N   UNL     1     -10.359   7.877  66.871  1.00  0.00    -0.324 NA 
ENDBRANCH  14  15
ENDBRANCH  13  14
ENDBRANCH  12  13
ENDBRANCH  11  12
ENDBRANCH   5  11
TORSDOF 5
ENDMDL
MODEL      278
REMARK 921   NORMALIZED FREE ENERGY PREDICTED BY IDOCK:   -2.98 KCAL/MOL
REMARK 922        TOTAL FREE ENERGY PREDICTED BY IDOCK:   -4.81 KCAL/MOL
REMARK 923 INTER-LIGAND FREE ENERGY PREDICTED BY IDOCK:   -4.39 KCAL/MOL
REMARK 924 INTRA-LIGAND FREE ENERGY PREDICTED BY IDOCK:   -0.42 KCAL/MOL
REMARK 927      BINDING AFFINITY PREDICTED BY RF-SCORE:    0.00 PKD
ROOT
HETATM    1  C   UNL     1      -9.790   9.075  66.151  1.00  0.00    -0.278 C  
HETATM    2  N   UNL     1      -9.991   9.548  67.499  1.00  0.00    -0.175 NA 
HETATM    3  C   UNL     1      -9.920  10.856  67.881  1.00  0.00    -0.176 C  
HETATM    4  H   UNL     1     -10.202   8.855  68.218  1.00  0.00     0.000 HD 
HETATM    5  N   UNL     1     -10.112  11.054  69.229  1.00  0.00    -0.398 NA 
HETATM    6  N   UNL     1      -9.696  11.778  66.993  1.00  0.00    -0.184 NA 
HETATM    7  C   UNL     1      -9.639  13.050  67.388  1.00  0.00    -0.211 C  
HETATM    8  H   UNL     1     -10.076  12.017  69.563  1.00  0.00     0.000 HD 
HETATM    9  N   UNL     1      -9.598  14.144  67.772  1.00  0.00    -0.214 NA 
HETATM   10  H   UNL     1      -9.565  11.532  66.012  1.00  0.00     0.000 HD 
ENDROOT
BRANCH   5  11
HETATM   11  C   UNL     1     -10.359  10.026  70.225  1.00  0.00    -0.242 C  
BRANCH  11  12
HETATM   12  C   UNL     1     -11.843   9.714  70.437  1.00  0.00    -0.155 C  
BRANCH  12  13
HETATM   13  S   UNL     1     -11.977   8.919  72.075  1.00  0.00    -0.360 SA 
BRANCH  13  14
HETATM   14  C   UNL     1     -12.708   7.318  71.606  1.00  0.00    -0.375 C  
BRANCH  14  15
HETATM   15  C   UNL     1     -11.652   6.261  71.628  1.00  0.00    -0.297 A  
HETATM   16  C   UNL     1     -10.798   5.849  70.617  1.00  0.00    -0.292 A  
HETATM   17  C   UNL     1     -10.638   6.273  69.209  1.00  0.00    -0.332 C  
HETATM   18  N   UNL     1     -10.008   4.885  71.192  1.00  0.00    -0.197 NA 
HETATM   19  H   UNL     1      -9.260   4.368  70.731  1.00  0.00     0.000 HD 
HETATM   20  C   UNL     1     -10.402   4.743  72.490  1.00  0.00    -0.201 A  
HETATM   21  N   UNL     1     -11.398   5.545  72.781  1.00  0.00    -0.305 NA 
ENDBRANCH  14  15
ENDBRANCH  13  14
ENDBRANCH  12  13
ENDBRANCH  11  12
ENDBRANCH   5  11
TORSDOF 5
ENDMDL
MODEL      279
REMARK 921   NORMALIZED FREE ENERGY PREDICTED BY IDOCK:   -2.98 KCAL/MOL
REMARK 922        TOTAL FREE ENERGY PREDICTED BY IDOCK:   -4.81 KCAL/MOL
REMARK 923 INTER-LIGAND FREE ENERGY PREDICTED BY IDOCK:   -4.45 KCAL/MOL
REMARK 924 INTRA-LIGAND FREE ENERGY PREDICTED BY IDOCK:   -0.36 KCAL/MOL
REMARK 927      BINDING AFFINITY PREDICTED BY RF-SCORE:    0.00 PKD
ROOT
HETATM    1  C   UNL     1      -9.930  12.472  68.424  1.00  0.00    -0.212 C  
HETATM    2  N   UNL     1      -9.222  13.539  67.759  1.00  0.00    -0.203 NA 
HETATM    3  C   UNL     1      -9.682  14.209  66.662  1.00  0.00    -0.288 C  
HETATM    4  H   UNL     1      -8.314  13.812  68.135  1.00  0.00     0.000 HD 
HETATM    5  N   UNL     1      -8.809  15.160  66.186  1.00  0.00    -0.468 NA 
HETATM    6  N   UNL     1     -10.852  13.925  66.174  1.00  0.00    -0.289 NA 
HETATM    7  C   UNL     1     -11.283  14.599  65.108  1.00  0.00    -0.374 C  
HETATM    8  H   UNL     1      -9.112  15.695  65.371  1.00  0.00     0.000 HD 
HETATM    9  N   UNL     1     -11.622  15.208  64.180  1.00  0.00    -0.196 NA 
HETATM   10  H   UNL     1     -11.428  13.199  66.598  1.00  0.00     0.000 HD 
ENDROOT
BRANCH   5  11
HETATM   11  C   UNL     1      -7.500  15.479  66.728  1.00  0.00     0.054 C  
BRANCH  11  12
HETATM   12  C   UNL     1      -7.441  16.825  67.454  1.00  0.00    -0.161 C  
BRANCH  12  13
HETATM   13  S   UNL     1      -5.955  17.685  66.833  1.00  0.00    -0.171 SA 
BRANCH  13  14
HETATM   14  C   UNL     1      -6.710  18.809  65.615  1.00  0.00    -0.276 C  
BRANCH  14  15
HETATM   15  C   UNL     1      -7.634  19.754  66.313  1.00  0.00    -0.309 A  
HETATM   16  C   UNL     1      -7.341  20.780  67.197  1.00  0.00    -0.329 A  
HETATM   17  C   UNL     1      -6.068  21.282  67.759  1.00  0.00    -0.402 C  
HETATM   18  N   UNL     1      -8.554  21.348  67.495  1.00  0.00    -0.263 NA 
HETATM   19  H   UNL     1      -8.710  22.140  68.118  1.00  0.00     0.000 HD 
HETATM   20  C   UNL     1      -9.515  20.664  66.809  1.00  0.00    -0.198 A  
HETATM   21  N   UNL     1      -8.997  19.689  66.100  1.00  0.00    -0.367 NA 
ENDBRANCH  14  15
ENDBRANCH  13  14
ENDBRANCH  12  13
ENDBRANCH  11  12
ENDBRANCH   5  11
TORSDOF 5
ENDMDL
MODEL      280
REMARK 921   NORMALIZED FREE ENERGY PREDICTED BY IDOCK:   -2.98 KCAL/MOL
REMARK 922        TOTAL FREE ENERGY PREDICTED BY IDOCK:   -4.81 KCAL/MOL
REMARK 923 INTER-LIGAND FREE ENERGY PREDICTED BY IDOCK:   -4.26 KCAL/MOL
REMARK 924 INTRA-LIGAND FREE ENERGY PREDICTED BY IDOCK:   -0.55 KCAL/MOL
REMARK 927      BINDING AFFINITY PREDICTED BY RF-SCORE:    0.00 PKD
ROOT
HETATM    1  C   UNL     1      -6.504   9.701  67.822  1.00  0.00    -0.058 C  
HETATM    2  N   UNL     1      -6.876  11.093  67.747  1.00  0.00    -0.071 NA 
HETATM    3  C   UNL     1      -7.915  11.580  67.008  1.00  0.00    -0.161 C  
HETATM    4  H   UNL     1      -6.322  11.761  68.284  1.00  0.00     0.000 HD 
HETATM    5  N   UNL     1      -8.046  12.948  67.067  1.00  0.00    -0.370 NA 
HETATM    6  N   UNL     1      -8.673  10.762  66.341  1.00  0.00    -0.153 NA 
HETATM    7  C   UNL     1      -9.688  11.260  65.634  1.00  0.00    -0.230 C  
HETATM    8  H   UNL     1      -8.815  13.360  66.537  1.00  0.00     0.000 HD 
HETATM    9  N   UNL     1     -10.559  11.732  65.031  1.00  0.00    -0.277 NA 
HETATM   10  H   UNL     1      -8.495   9.759  66.358  1.00  0.00     0.000 HD 
ENDROOT
BRANCH   5  11
HETATM   11  C   UNL     1      -7.199  13.865  67.809  1.00  0.00    -0.164 C  
BRANCH  11  12
HETATM   12  C   UNL     1      -7.338  15.326  67.375  1.00  0.00    -0.210 C  
BRANCH  12  13
HETATM   13  S   UNL     1      -8.021  16.230  68.807  1.00  0.00    -0.232 SA 
BRANCH  13  14
HETATM   14  C   UNL     1      -9.290  17.244  67.982  1.00  0.00    -0.264 C  
BRANCH  14  15
HETATM   15  C   UNL     1     -10.095  16.385  67.062  1.00  0.00    -0.272 A  
HETATM   16  C   UNL     1     -10.839  15.251  67.343  1.00  0.00    -0.304 A  
HETATM   17  C   UNL     1     -11.085  14.501  68.594  1.00  0.00    -0.272 C  
HETATM   18  N   UNL     1     -11.404  14.892  66.145  1.00  0.00    -0.335 NA 
HETATM   19  H   UNL     1     -12.023  14.097  65.987  1.00  0.00     0.000 HD 
HETATM   20  C   UNL     1     -10.991  15.788  65.204  1.00  0.00    -0.382 A  
HETATM   21  N   UNL     1     -10.190  16.691  65.719  1.00  0.00    -0.500 NA 
ENDBRANCH  14  15
ENDBRANCH  13  14
ENDBRANCH  12  13
ENDBRANCH  11  12
ENDBRANCH   5  11
TORSDOF 5
ENDMDL
MODEL      281
REMARK 921   NORMALIZED FREE ENERGY PREDICTED BY IDOCK:   -2.97 KCAL/MOL
REMARK 922        TOTAL FREE ENERGY PREDICTED BY IDOCK:   -4.80 KCAL/MOL
REMARK 923 INTER-LIGAND FREE ENERGY PREDICTED BY IDOCK:   -4.42 KCAL/MOL
REMARK 924 INTRA-LIGAND FREE ENERGY PREDICTED BY IDOCK:   -0.38 KCAL/MOL
REMARK 927      BINDING AFFINITY PREDICTED BY RF-SCORE:    0.00 PKD
ROOT
HETATM    1  C   UNL     1      -7.947   7.198  68.144  1.00  0.00    -0.119 C  
HETATM    2  N   UNL     1      -7.786   8.560  68.591  1.00  0.00    -0.101 NA 
HETATM    3  C   UNL     1      -8.680   9.230  69.376  1.00  0.00    -0.148 C  
HETATM    4  H   UNL     1      -6.945   9.058  68.300  1.00  0.00     0.000 HD 
HETATM    5  N   UNL     1      -8.323  10.532  69.638  1.00  0.00    -0.371 NA 
HETATM    6  N   UNL     1      -9.746   8.623  69.805  1.00  0.00    -0.174 NA 
HETATM    7  C   UNL     1     -10.599   9.294  70.577  1.00  0.00    -0.252 C  
HETATM    8  H   UNL     1      -8.956  11.073  70.228  1.00  0.00     0.000 HD 
HETATM    9  N   UNL     1     -11.317   9.913  71.247  1.00  0.00    -0.368 NA 
HETATM   10  H   UNL     1      -9.925   7.651  69.555  1.00  0.00     0.000 HD 
ENDROOT
BRANCH   5  11
HETATM   11  C   UNL     1      -7.134  11.214  69.157  1.00  0.00    -0.116 C  
BRANCH  11  12
HETATM   12  C   UNL     1      -7.411  12.601  68.571  1.00  0.00    -0.115 C  
BRANCH  12  13
HETATM   13  S   UNL     1      -8.517  12.349  67.140  1.00  0.00    -0.174 SA 
BRANCH  13  14
HETATM   14  C   UNL     1      -9.093  14.054  66.864  1.00  0.00    -0.248 C  
BRANCH  14  15
HETATM   15  C   UNL     1     -10.559  14.044  66.570  1.00  0.00    -0.279 A  
HETATM   16  C   UNL     1     -11.602  14.618  67.277  1.00  0.00    -0.387 A  
HETATM   17  C   UNL     1     -11.648  15.400  68.532  1.00  0.00    -0.373 C  
HETATM   18  N   UNL     1     -12.725  14.340  66.540  1.00  0.00    -0.433 NA 
HETATM   19  H   UNL     1     -13.679  14.621  66.768  1.00  0.00     0.000 HD 
HETATM   20  C   UNL     1     -12.340  13.622  65.447  1.00  0.00    -0.476 A  
HETATM   21  N   UNL     1     -11.044  13.413  65.442  1.00  0.00    -0.285 NA 
ENDBRANCH  14  15
ENDBRANCH  13  14
ENDBRANCH  12  13
ENDBRANCH  11  12
ENDBRANCH   5  11
TORSDOF 5
ENDMDL
MODEL      282
REMARK 921   NORMALIZED FREE ENERGY PREDICTED BY IDOCK:   -2.97 KCAL/MOL
REMARK 922        TOTAL FREE ENERGY PREDICTED BY IDOCK:   -4.80 KCAL/MOL
REMARK 923 INTER-LIGAND FREE ENERGY PREDICTED BY IDOCK:   -4.52 KCAL/MOL
REMARK 924 INTRA-LIGAND FREE ENERGY PREDICTED BY IDOCK:   -0.28 KCAL/MOL
REMARK 927      BINDING AFFINITY PREDICTED BY RF-SCORE:    0.00 PKD
ROOT
HETATM    1  C   UNL     1      -5.974  20.135  70.094  1.00  0.00    -0.349 C  
HETATM    2  N   UNL     1      -6.325  18.882  69.470  1.00  0.00    -0.271 NA 
HETATM    3  C   UNL     1      -6.562  18.720  68.135  1.00  0.00    -0.222 C  
HETATM    4  H   UNL     1      -6.400  18.059  70.067  1.00  0.00     0.000 HD 
HETATM    5  N   UNL     1      -6.917  17.438  67.785  1.00  0.00    -0.161 NA 
HETATM    6  N   UNL     1      -6.437  19.731  67.329  1.00  0.00    -0.193 NA 
HETATM    7  C   UNL     1      -6.666  19.547  66.028  1.00  0.00    -0.236 C  
HETATM    8  H   UNL     1      -7.097  17.264  66.796  1.00  0.00     0.000 HD 
HETATM    9  N   UNL     1      -6.873  19.346  64.905  1.00  0.00    -0.381 NA 
HETATM   10  H   UNL     1      -6.169  20.648  67.684  1.00  0.00     0.000 HD 
ENDROOT
BRANCH   5  11
HETATM   11  C   UNL     1      -7.061  16.307  68.684  1.00  0.00    -0.155 C  
BRANCH  11  12
HETATM   12  C   UNL     1      -6.427  15.015  68.160  1.00  0.00    -0.131 C  
BRANCH  12  13
HETATM   13  S   UNL     1      -7.712  13.723  68.277  1.00  0.00    -0.149 SA 
BRANCH  13  14
HETATM   14  C   UNL     1      -9.137  14.611  67.571  1.00  0.00    -0.190 C  
BRANCH  14  15
HETATM   15  C   UNL     1     -10.201  13.630  67.196  1.00  0.00    -0.244 A  
HETATM   16  C   UNL     1     -11.408  13.359  67.821  1.00  0.00    -0.294 A  
HETATM   17  C   UNL     1     -12.048  13.904  69.038  1.00  0.00    -0.365 C  
HETATM   18  N   UNL     1     -12.008  12.409  67.034  1.00  0.00    -0.565 NA 
HETATM   19  H   UNL     1     -12.920  11.982  67.198  1.00  0.00     0.000 HD 
HETATM   20  C   UNL     1     -11.169  12.136  65.994  1.00  0.00    -0.336 A  
HETATM   21  N   UNL     1     -10.066  12.843  66.070  1.00  0.00    -0.281 NA 
ENDBRANCH  14  15
ENDBRANCH  13  14
ENDBRANCH  12  13
ENDBRANCH  11  12
ENDBRANCH   5  11
TORSDOF 5
ENDMDL
MODEL      283
REMARK 921   NORMALIZED FREE ENERGY PREDICTED BY IDOCK:   -2.96 KCAL/MOL
REMARK 922        TOTAL FREE ENERGY PREDICTED BY IDOCK:   -4.79 KCAL/MOL
REMARK 923 INTER-LIGAND FREE ENERGY PREDICTED BY IDOCK:   -4.40 KCAL/MOL
REMARK 924 INTRA-LIGAND FREE ENERGY PREDICTED BY IDOCK:   -0.39 KCAL/MOL
REMARK 927      BINDING AFFINITY PREDICTED BY RF-SCORE:    0.00 PKD
ROOT
HETATM    1  C   UNL     1      -7.863   8.103  67.286  1.00  0.00    -0.105 C  
HETATM    2  N   UNL     1      -8.078   9.440  67.782  1.00  0.00    -0.106 NA 
HETATM    3  C   UNL     1      -8.912   9.760  68.814  1.00  0.00    -0.133 C  
HETATM    4  H   UNL     1      -7.571  10.201  67.330  1.00  0.00     0.000 HD 
HETATM    5  N   UNL     1      -8.978  11.109  69.078  1.00  0.00    -0.370 NA 
HETATM    6  N   UNL     1      -9.548   8.821  69.447  1.00  0.00    -0.161 NA 
HETATM    7  C   UNL     1     -10.350   9.156  70.457  1.00  0.00    -0.235 C  
HETATM    8  H   UNL     1      -9.584  11.398  69.847  1.00  0.00     0.000 HD 
HETATM    9  N   UNL     1     -11.038   9.489  71.330  1.00  0.00    -0.361 NA 
HETATM   10  H   UNL     1      -9.435   7.844  69.176  1.00  0.00     0.000 HD 
ENDROOT
BRANCH   5  11
HETATM   11  C   UNL     1      -8.272  12.162  68.370  1.00  0.00    -0.145 C  
BRANCH  11  12
HETATM   12  C   UNL     1      -8.959  13.528  68.447  1.00  0.00    -0.146 C  
BRANCH  12  13
HETATM   13  S   UNL     1      -9.664  13.848  66.793  1.00  0.00    -0.287 SA 
BRANCH  13  14
HETATM   14  C   UNL     1     -11.399  13.374  67.077  1.00  0.00    -0.317 C  
BRANCH  14  15
HETATM   15  C   UNL     1     -11.692  13.406  68.542  1.00  0.00    -0.357 A  
HETATM   16  C   UNL     1     -11.845  14.495  69.385  1.00  0.00    -0.325 A  
HETATM   17  C   UNL     1     -11.761  15.954  69.159  1.00  0.00    -0.369 C  
HETATM   18  N   UNL     1     -12.144  13.955  70.610  1.00  0.00    -0.392 NA 
HETATM   19  H   UNL     1     -12.326  14.475  71.468  1.00  0.00     0.000 HD 
HETATM   20  C   UNL     1     -12.156  12.597  70.477  1.00  0.00    -0.275 A  
HETATM   21  N   UNL     1     -11.873  12.233  69.248  1.00  0.00    -0.313 NA 
ENDBRANCH  14  15
ENDBRANCH  13  14
ENDBRANCH  12  13
ENDBRANCH  11  12
ENDBRANCH   5  11
TORSDOF 5
ENDMDL
MODEL      284
REMARK 921   NORMALIZED FREE ENERGY PREDICTED BY IDOCK:   -2.96 KCAL/MOL
REMARK 922        TOTAL FREE ENERGY PREDICTED BY IDOCK:   -4.79 KCAL/MOL
REMARK 923 INTER-LIGAND FREE ENERGY PREDICTED BY IDOCK:   -4.41 KCAL/MOL
REMARK 924 INTRA-LIGAND FREE ENERGY PREDICTED BY IDOCK:   -0.38 KCAL/MOL
REMARK 927      BINDING AFFINITY PREDICTED BY RF-SCORE:    0.00 PKD
ROOT
HETATM    1  C   UNL     1     -10.587   7.464  67.169  1.00  0.00    -0.342 C  
HETATM    2  N   UNL     1      -9.803   8.618  67.534  1.00  0.00    -0.168 NA 
HETATM    3  C   UNL     1     -10.172   9.542  68.469  1.00  0.00    -0.199 C  
HETATM    4  H   UNL     1      -8.910   8.754  67.060  1.00  0.00     0.000 HD 
HETATM    5  N   UNL     1      -9.274  10.575  68.614  1.00  0.00    -0.164 NA 
HETATM    6  N   UNL     1     -11.281   9.389  69.128  1.00  0.00    -0.446 NA 
HETATM    7  C   UNL     1     -11.616  10.299  70.043  1.00  0.00    -0.276 C  
HETATM    8  H   UNL     1      -9.501  11.288  69.308  1.00  0.00     0.000 HD 
HETATM    9  N   UNL     1     -11.870  11.113  70.829  1.00  0.00    -0.290 NA 
HETATM   10  H   UNL     1     -11.884   8.587  68.949  1.00  0.00     0.000 HD 
ENDROOT
BRANCH   5  11
HETATM   11  C   UNL     1      -8.035  10.751  67.877  1.00  0.00    -0.110 C  
BRANCH  11  12
HETATM   12  C   UNL     1      -8.145  11.734  66.708  1.00  0.00    -0.133 C  
BRANCH  12  13
HETATM   13  S   UNL     1      -8.246  13.403  67.442  1.00  0.00    -0.168 SA 
BRANCH  13  14
HETATM   14  C   UNL     1      -9.681  14.073  66.541  1.00  0.00    -0.295 C  
BRANCH  14  15
HETATM   15  C   UNL     1     -10.212  15.267  67.266  1.00  0.00    -0.248 A  
HETATM   16  C   UNL     1     -10.933  15.331  68.448  1.00  0.00    -0.271 A  
HETATM   17  C   UNL     1     -11.431  14.289  69.373  1.00  0.00    -0.337 C  
HETATM   18  N   UNL     1     -11.121  16.671  68.676  1.00  0.00    -0.328 NA 
HETATM   19  H   UNL     1     -11.613  17.082  69.469  1.00  0.00     0.000 HD 
HETATM   20  C   UNL     1     -10.533  17.355  67.653  1.00  0.00    -0.368 A  
HETATM   21  N   UNL     1      -9.990  16.540  66.780  1.00  0.00    -0.265 NA 
ENDBRANCH  14  15
ENDBRANCH  13  14
ENDBRANCH  12  13
ENDBRANCH  11  12
ENDBRANCH   5  11
TORSDOF 5
ENDMDL
MODEL      285
REMARK 921   NORMALIZED FREE ENERGY PREDICTED BY IDOCK:   -2.96 KCAL/MOL
REMARK 922        TOTAL FREE ENERGY PREDICTED BY IDOCK:   -4.78 KCAL/MOL
REMARK 923 INTER-LIGAND FREE ENERGY PREDICTED BY IDOCK:   -4.19 KCAL/MOL
REMARK 924 INTRA-LIGAND FREE ENERGY PREDICTED BY IDOCK:   -0.60 KCAL/MOL
REMARK 927      BINDING AFFINITY PREDICTED BY RF-SCORE:    0.00 PKD
ROOT
HETATM    1  C   UNL     1     -11.019  13.880  68.573  1.00  0.00    -0.257 C  
HETATM    2  N   UNL     1      -9.982  12.879  68.511  1.00  0.00    -0.344 NA 
HETATM    3  C   UNL     1      -8.677  13.132  68.200  1.00  0.00    -0.193 C  
HETATM    4  H   UNL     1     -10.243  11.914  68.713  1.00  0.00     0.000 HD 
HETATM    5  N   UNL     1      -7.886  12.008  68.168  1.00  0.00    -0.136 NA 
HETATM    6  N   UNL     1      -8.291  14.352  67.976  1.00  0.00    -0.147 NA 
HETATM    7  C   UNL     1      -7.010  14.576  67.683  1.00  0.00    -0.184 C  
HETATM    8  H   UNL     1      -6.899  12.146  67.948  1.00  0.00     0.000 HD 
HETATM    9  N   UNL     1      -5.888  14.729  67.432  1.00  0.00    -0.315 NA 
HETATM   10  H   UNL     1      -8.955  15.124  68.023  1.00  0.00     0.000 HD 
ENDROOT
BRANCH   5  11
HETATM   11  C   UNL     1      -8.315  10.642  68.415  1.00  0.00    -0.127 C  
BRANCH  11  12
HETATM   12  C   UNL     1      -8.177  10.205  69.875  1.00  0.00    -0.109 C  
BRANCH  12  13
HETATM   13  S   UNL     1      -8.949   8.554  69.997  1.00  0.00    -0.146 SA 
BRANCH  13  14
HETATM   14  C   UNL     1     -10.575   8.896  69.250  1.00  0.00    -0.207 C  
BRANCH  14  15
HETATM   15  C   UNL     1     -11.441   9.603  70.242  1.00  0.00    -0.233 A  
HETATM   16  C   UNL     1     -11.911   9.166  71.470  1.00  0.00    -0.358 A  
HETATM   17  C   UNL     1     -11.749   7.893  72.208  1.00  0.00    -0.408 C  
HETATM   18  N   UNL     1     -12.619  10.226  71.977  1.00  0.00    -0.315 NA 
HETATM   19  H   UNL     1     -13.100  10.253  72.875  1.00  0.00     0.000 HD 
HETATM   20  C   UNL     1     -12.564  11.239  71.064  1.00  0.00    -0.394 A  
HETATM   21  N   UNL     1     -11.876  10.891  70.002  1.00  0.00    -0.315 NA 
ENDBRANCH  14  15
ENDBRANCH  13  14
ENDBRANCH  12  13
ENDBRANCH  11  12
ENDBRANCH   5  11
TORSDOF 5
ENDMDL
MODEL      286
REMARK 921   NORMALIZED FREE ENERGY PREDICTED BY IDOCK:   -2.95 KCAL/MOL
REMARK 922        TOTAL FREE ENERGY PREDICTED BY IDOCK:   -4.77 KCAL/MOL
REMARK 923 INTER-LIGAND FREE ENERGY PREDICTED BY IDOCK:   -4.28 KCAL/MOL
REMARK 924 INTRA-LIGAND FREE ENERGY PREDICTED BY IDOCK:   -0.49 KCAL/MOL
REMARK 927      BINDING AFFINITY PREDICTED BY RF-SCORE:    0.00 PKD
ROOT
HETATM    1  C   UNL     1      -7.109  15.143  67.533  1.00  0.00    -0.198 C  
HETATM    2  N   UNL     1      -8.316  14.895  66.784  1.00  0.00    -0.383 NA 
HETATM    3  C   UNL     1      -9.524  14.586  67.339  1.00  0.00    -0.202 C  
HETATM    4  H   UNL     1      -8.264  14.954  65.767  1.00  0.00     0.000 HD 
HETATM    5  N   UNL     1     -10.518  14.355  66.416  1.00  0.00    -0.289 NA 
HETATM    6  N   UNL     1      -9.649  14.539  68.631  1.00  0.00    -0.218 NA 
HETATM    7  C   UNL     1     -10.841  14.244  69.151  1.00  0.00    -0.242 C  
HETATM    8  H   UNL     1     -11.443  14.128  66.782  1.00  0.00     0.000 HD 
HETATM    9  N   UNL     1     -11.893  13.984  69.563  1.00  0.00    -0.304 NA 
HETATM   10  H   UNL     1      -8.850  14.725  69.237  1.00  0.00     0.000 HD 
ENDROOT
BRANCH   5  11
HETATM   11  C   UNL     1     -10.381  14.403  64.971  1.00  0.00    -0.421 C  
BRANCH  11  12
HETATM   12  C   UNL     1     -10.939  13.169  64.255  1.00  0.00    -0.403 C  
BRANCH  12  13
HETATM   13  S   UNL     1     -11.337  11.951  65.555  1.00  0.00    -0.231 SA 
BRANCH  13  14
HETATM   14  C   UNL     1     -10.269  10.566  65.047  1.00  0.00    -0.295 C  
BRANCH  14  15
HETATM   15  C   UNL     1      -9.819   9.813  66.258  1.00  0.00    -0.250 A  
HETATM   16  C   UNL     1      -8.846  10.143  67.188  1.00  0.00    -0.132 A  
HETATM   17  C   UNL     1      -7.928  11.297  67.309  1.00  0.00    -0.141 C  
HETATM   18  N   UNL     1      -8.876   9.125  68.108  1.00  0.00    -0.129 NA 
HETATM   19  H   UNL     1      -8.290   9.048  68.938  1.00  0.00     0.000 HD 
HETATM   20  C   UNL     1      -9.832   8.235  67.714  1.00  0.00    -0.170 A  
HETATM   21  N   UNL     1     -10.408   8.612  66.597  1.00  0.00    -0.275 NA 
ENDBRANCH  14  15
ENDBRANCH  13  14
ENDBRANCH  12  13
ENDBRANCH  11  12
ENDBRANCH   5  11
TORSDOF 5
ENDMDL
MODEL      287
REMARK 921   NORMALIZED FREE ENERGY PREDICTED BY IDOCK:   -2.94 KCAL/MOL
REMARK 922        TOTAL FREE ENERGY PREDICTED BY IDOCK:   -4.76 KCAL/MOL
REMARK 923 INTER-LIGAND FREE ENERGY PREDICTED BY IDOCK:   -4.46 KCAL/MOL
REMARK 924 INTRA-LIGAND FREE ENERGY PREDICTED BY IDOCK:   -0.30 KCAL/MOL
REMARK 927      BINDING AFFINITY PREDICTED BY RF-SCORE:    0.00 PKD
ROOT
HETATM    1  C   UNL     1     -11.200   6.269  69.365  1.00  0.00    -0.420 C  
HETATM    2  N   UNL     1     -11.238   7.707  69.254  1.00  0.00    -0.433 NA 
HETATM    3  C   UNL     1     -10.235   8.543  69.652  1.00  0.00    -0.209 C  
HETATM    4  H   UNL     1     -12.074   8.129  68.849  1.00  0.00     0.000 HD 
HETATM    5  N   UNL     1     -10.522   9.877  69.478  1.00  0.00    -0.224 NA 
HETATM    6  N   UNL     1      -9.135   8.049  70.134  1.00  0.00    -0.151 NA 
HETATM    7  C   UNL     1      -8.166   8.884  70.508  1.00  0.00    -0.145 C  
HETATM    8  H   UNL     1      -9.799  10.543  69.753  1.00  0.00     0.000 HD 
HETATM    9  N   UNL     1      -7.347   9.644  70.821  1.00  0.00    -0.295 NA 
HETATM   10  H   UNL     1      -9.015   7.041  70.226  1.00  0.00     0.000 HD 
ENDROOT
BRANCH   5  11
HETATM   11  C   UNL     1     -11.752  10.433  68.942  1.00  0.00    -0.068 C  
BRANCH  11  12
HETATM   12  C   UNL     1     -11.534  11.595  67.969  1.00  0.00    -0.315 C  
BRANCH  12  13
HETATM   13  S   UNL     1     -11.753  13.129  68.937  1.00  0.00    -0.333 SA 
BRANCH  13  14
HETATM   14  C   UNL     1     -12.027  14.329  67.594  1.00  0.00    -0.365 C  
BRANCH  14  15
HETATM   15  C   UNL     1     -10.731  14.981  67.235  1.00  0.00    -0.298 A  
HETATM   16  C   UNL     1     -10.118  16.089  67.799  1.00  0.00    -0.243 A  
HETATM   17  C   UNL     1     -10.509  16.997  68.899  1.00  0.00    -0.347 C  
HETATM   18  N   UNL     1      -8.935  16.223  67.118  1.00  0.00    -0.191 NA 
HETATM   19  H   UNL     1      -8.226  16.939  67.279  1.00  0.00     0.000 HD 
HETATM   20  C   UNL     1      -8.874  15.229  66.186  1.00  0.00    -0.131 A  
HETATM   21  N   UNL     1      -9.946  14.473  66.221  1.00  0.00    -0.291 NA 
ENDBRANCH  14  15
ENDBRANCH  13  14
ENDBRANCH  12  13
ENDBRANCH  11  12
ENDBRANCH   5  11
TORSDOF 5
ENDMDL
MODEL      288
REMARK 921   NORMALIZED FREE ENERGY PREDICTED BY IDOCK:   -2.92 KCAL/MOL
REMARK 922        TOTAL FREE ENERGY PREDICTED BY IDOCK:   -4.74 KCAL/MOL
REMARK 923 INTER-LIGAND FREE ENERGY PREDICTED BY IDOCK:   -4.54 KCAL/MOL
REMARK 924 INTRA-LIGAND FREE ENERGY PREDICTED BY IDOCK:   -0.21 KCAL/MOL
REMARK 927      BINDING AFFINITY PREDICTED BY RF-SCORE:    0.00 PKD
ROOT
HETATM    1  C   UNL     1      -8.861   4.061  67.888  1.00  0.00    -0.111 C  
HETATM    2  N   UNL     1      -9.449   5.339  67.570  1.00  0.00    -0.120 NA 
HETATM    3  C   UNL     1      -9.147   6.078  66.462  1.00  0.00    -0.146 C  
HETATM    4  H   UNL     1     -10.138   5.718  68.219  1.00  0.00     0.000 HD 
HETATM    5  N   UNL     1      -9.810   7.282  66.400  1.00  0.00    -0.419 NA 
HETATM    6  N   UNL     1      -8.306   5.617  65.587  1.00  0.00    -0.129 NA 
HETATM    7  C   UNL     1      -8.034   6.352  64.508  1.00  0.00    -0.117 C  
HETATM    8  H   UNL     1      -9.624   7.868  65.585  1.00  0.00     0.000 HD 
HETATM    9  N   UNL     1      -7.824   7.022  63.585  1.00  0.00    -0.128 NA 
HETATM   10  H   UNL     1      -7.862   4.709  65.722  1.00  0.00     0.000 HD 
ENDROOT
BRANCH   5  11
HETATM   11  C   UNL     1     -10.749   7.802  67.378  1.00  0.00    -0.230 C  
BRANCH  11  12
HETATM   12  C   UNL     1     -10.222   9.007  68.163  1.00  0.00    -0.204 C  
BRANCH  12  13
HETATM   13  S   UNL     1     -10.784  10.495  67.267  1.00  0.00    -0.268 SA 
BRANCH  13  14
HETATM   14  C   UNL     1     -11.826  11.273  68.543  1.00  0.00    -0.285 C  
BRANCH  14  15
HETATM   15  C   UNL     1     -11.850  12.753  68.333  1.00  0.00    -0.310 A  
HETATM   16  C   UNL     1     -12.043  13.769  69.255  1.00  0.00    -0.329 A  
HETATM   17  C   UNL     1     -12.301  13.762  70.712  1.00  0.00    -0.451 C  
HETATM   18  N   UNL     1     -11.924  14.930  68.533  1.00  0.00    -0.543 NA 
HETATM   19  H   UNL     1     -12.005  15.878  68.901  1.00  0.00     0.000 HD 
HETATM   20  C   UNL     1     -11.677  14.590  67.235  1.00  0.00    -0.406 A  
HETATM   21  N   UNL     1     -11.641  13.288  67.078  1.00  0.00    -0.339 NA 
ENDBRANCH  14  15
ENDBRANCH  13  14
ENDBRANCH  12  13
ENDBRANCH  11  12
ENDBRANCH   5  11
TORSDOF 5
ENDMDL
MODEL      289
REMARK 921   NORMALIZED FREE ENERGY PREDICTED BY IDOCK:   -2.92 KCAL/MOL
REMARK 922        TOTAL FREE ENERGY PREDICTED BY IDOCK:   -4.74 KCAL/MOL
REMARK 923 INTER-LIGAND FREE ENERGY PREDICTED BY IDOCK:   -4.42 KCAL/MOL
REMARK 924 INTRA-LIGAND FREE ENERGY PREDICTED BY IDOCK:   -0.32 KCAL/MOL
REMARK 927      BINDING AFFINITY PREDICTED BY RF-SCORE:    0.00 PKD
ROOT
HETATM    1  C   UNL     1      -6.776  11.860  67.249  1.00  0.00    -0.138 C  
HETATM    2  N   UNL     1      -7.991  11.246  67.727  1.00  0.00    -0.113 NA 
HETATM    3  C   UNL     1      -8.088  10.503  68.868  1.00  0.00    -0.138 C  
HETATM    4  H   UNL     1      -8.837  11.376  67.172  1.00  0.00     0.000 HD 
HETATM    5  N   UNL     1      -9.345   9.990  69.091  1.00  0.00    -0.182 NA 
HETATM    6  N   UNL     1      -7.046  10.345  69.627  1.00  0.00    -0.118 NA 
HETATM    7  C   UNL     1      -7.167   9.623  70.741  1.00  0.00    -0.055 C  
HETATM    8  H   UNL     1      -9.471   9.433  69.937  1.00  0.00     0.000 HD 
HETATM    9  N   UNL     1      -7.315   8.988  71.701  1.00  0.00    -0.312 NA 
HETATM   10  H   UNL     1      -6.152  10.766  69.376  1.00  0.00     0.000 HD 
ENDROOT
BRANCH   5  11
HETATM   11  C   UNL     1     -10.511  10.162  68.243  1.00  0.00    -0.211 C  
BRANCH  11  12
HETATM   12  C   UNL     1     -11.410  11.331  68.654  1.00  0.00    -0.273 C  
BRANCH  12  13
HETATM   13  S   UNL     1     -11.909  12.170  67.111  1.00  0.00    -0.107 SA 
BRANCH  13  14
HETATM   14  C   UNL     1     -11.279  13.849  67.430  1.00  0.00    -0.312 C  
BRANCH  14  15
HETATM   15  C   UNL     1     -11.363  14.660  66.178  1.00  0.00    -0.350 A  
HETATM   16  C   UNL     1     -10.663  15.801  65.820  1.00  0.00    -0.327 A  
HETATM   17  C   UNL     1      -9.637  16.605  66.518  1.00  0.00    -0.292 C  
HETATM   18  N   UNL     1     -11.099  16.100  64.553  1.00  0.00    -0.914 NA 
HETATM   19  H   UNL     1     -10.785  16.883  63.979  1.00  0.00     0.000 HD 
HETATM   20  C   UNL     1     -12.026  15.165  64.199  1.00  0.00    -0.170 A  
HETATM   21  N   UNL     1     -12.220  14.292  65.159  1.00  0.00    -0.412 NA 
ENDBRANCH  14  15
ENDBRANCH  13  14
ENDBRANCH  12  13
ENDBRANCH  11  12
ENDBRANCH   5  11
TORSDOF 5
ENDMDL
MODEL      290
REMARK 921   NORMALIZED FREE ENERGY PREDICTED BY IDOCK:   -2.92 KCAL/MOL
REMARK 922        TOTAL FREE ENERGY PREDICTED BY IDOCK:   -4.74 KCAL/MOL
REMARK 923 INTER-LIGAND FREE ENERGY PREDICTED BY IDOCK:   -4.40 KCAL/MOL
REMARK 924 INTRA-LIGAND FREE ENERGY PREDICTED BY IDOCK:   -0.34 KCAL/MOL
REMARK 927      BINDING AFFINITY PREDICTED BY RF-SCORE:    0.00 PKD
ROOT
HETATM    1  C   UNL     1     -10.894   5.888  69.530  1.00  0.00    -0.372 C  
HETATM    2  N   UNL     1     -10.473   6.549  68.319  1.00  0.00    -0.196 NA 
HETATM    3  C   UNL     1     -10.153   5.908  67.157  1.00  0.00    -0.177 C  
HETATM    4  H   UNL     1     -10.409   7.566  68.332  1.00  0.00     0.000 HD 
HETATM    5  N   UNL     1      -9.742   6.753  66.152  1.00  0.00    -0.401 NA 
HETATM    6  N   UNL     1     -10.258   4.616  67.080  1.00  0.00    -0.145 NA 
HETATM    7  C   UNL     1      -9.949   4.013  65.932  1.00  0.00    -0.134 C  
HETATM    8  H   UNL     1      -9.500   6.322  65.259  1.00  0.00     0.000 HD 
HETATM    9  N   UNL     1      -9.671   3.527  64.916  1.00  0.00    -0.168 NA 
HETATM   10  H   UNL     1     -10.572   4.072  67.884  1.00  0.00     0.000 HD 
ENDROOT
BRANCH   5  11
HETATM   11  C   UNL     1      -9.620   8.198  66.235  1.00  0.00    -0.178 C  
BRANCH  11  12
HETATM   12  C   UNL     1      -8.267   8.675  66.769  1.00  0.00    -0.108 C  
BRANCH  12  13
HETATM   13  S   UNL     1      -8.335  10.499  66.798  1.00  0.00    -0.131 SA 
BRANCH  13  14
HETATM   14  C   UNL     1     -10.109  10.768  66.490  1.00  0.00    -0.228 C  
BRANCH  14  15
HETATM   15  C   UNL     1     -10.279  11.788  65.410  1.00  0.00    -0.261 A  
HETATM   16  C   UNL     1     -10.077  11.666  64.045  1.00  0.00    -0.323 A  
HETATM   17  C   UNL     1      -9.625  10.540  63.197  1.00  0.00    -0.375 C  
HETATM   18  N   UNL     1     -10.422  12.887  63.525  1.00  0.00    -0.524 NA 
HETATM   19  H   UNL     1     -10.398  13.150  62.540  1.00  0.00     0.000 HD 
HETATM   20  C   UNL     1     -10.803  13.689  64.561  1.00  0.00    -0.406 A  
HETATM   21  N   UNL     1     -10.715  13.063  65.710  1.00  0.00    -0.271 NA 
ENDBRANCH  14  15
ENDBRANCH  13  14
ENDBRANCH  12  13
ENDBRANCH  11  12
ENDBRANCH   5  11
TORSDOF 5
ENDMDL
MODEL      291
REMARK 921   NORMALIZED FREE ENERGY PREDICTED BY IDOCK:   -2.92 KCAL/MOL
REMARK 922        TOTAL FREE ENERGY PREDICTED BY IDOCK:   -4.74 KCAL/MOL
REMARK 923 INTER-LIGAND FREE ENERGY PREDICTED BY IDOCK:   -4.29 KCAL/MOL
REMARK 924 INTRA-LIGAND FREE ENERGY PREDICTED BY IDOCK:   -0.45 KCAL/MOL
REMARK 927      BINDING AFFINITY PREDICTED BY RF-SCORE:    0.00 PKD
ROOT
HETATM    1  C   UNL     1      -5.654  10.938  65.798  1.00  0.00    -0.138 C  
HETATM    2  N   UNL     1      -6.656   9.980  66.194  1.00  0.00    -0.083 NA 
HETATM    3  C   UNL     1      -8.002  10.211  66.175  1.00  0.00    -0.125 C  
HETATM    4  H   UNL     1      -6.338   9.064  66.511  1.00  0.00     0.000 HD 
HETATM    5  N   UNL     1      -8.754   9.156  66.635  1.00  0.00    -0.126 NA 
HETATM    6  N   UNL     1      -8.456  11.348  65.740  1.00  0.00    -0.370 NA 
HETATM    7  C   UNL     1      -9.774  11.548  65.722  1.00  0.00    -0.235 C  
HETATM    8  H   UNL     1      -9.768   9.278  66.633  1.00  0.00     0.000 HD 
HETATM    9  N   UNL     1     -10.926  11.683  65.722  1.00  0.00    -0.292 NA 
HETATM   10  H   UNL     1      -7.816  12.074  65.418  1.00  0.00     0.000 HD 
ENDROOT
BRANCH   5  11
HETATM   11  C   UNL     1      -8.250   7.885  67.125  1.00  0.00    -0.118 C  
BRANCH  11  12
HETATM   12  C   UNL     1      -8.668   7.566  68.563  1.00  0.00    -0.128 C  
BRANCH  12  13
HETATM   13  S   UNL     1     -10.284   8.374  68.825  1.00  0.00    -0.204 SA 
BRANCH  13  14
HETATM   14  C   UNL     1      -9.948   9.293  70.361  1.00  0.00    -0.237 C  
BRANCH  14  15
HETATM   15  C   UNL     1     -11.225   9.861  70.892  1.00  0.00    -0.360 A  
HETATM   16  C   UNL     1     -11.940  10.969  70.465  1.00  0.00    -0.379 A  
HETATM   17  C   UNL     1     -11.705  11.957  69.389  1.00  0.00    -0.401 C  
HETATM   18  N   UNL     1     -13.049  11.007  71.272  1.00  0.00    -0.344 NA 
HETATM   19  H   UNL     1     -13.799  11.697  71.230  1.00  0.00     0.000 HD 
HETATM   20  C   UNL     1     -12.969   9.959  72.141  1.00  0.00    -0.379 A  
HETATM   21  N   UNL     1     -11.876   9.258  71.949  1.00  0.00    -0.370 NA 
ENDBRANCH  14  15
ENDBRANCH  13  14
ENDBRANCH  12  13
ENDBRANCH  11  12
ENDBRANCH   5  11
TORSDOF 5
ENDMDL
MODEL      292
REMARK 921   NORMALIZED FREE ENERGY PREDICTED BY IDOCK:   -2.90 KCAL/MOL
REMARK 922        TOTAL FREE ENERGY PREDICTED BY IDOCK:   -4.71 KCAL/MOL
REMARK 923 INTER-LIGAND FREE ENERGY PREDICTED BY IDOCK:   -4.46 KCAL/MOL
REMARK 924 INTRA-LIGAND FREE ENERGY PREDICTED BY IDOCK:   -0.25 KCAL/MOL
REMARK 927      BINDING AFFINITY PREDICTED BY RF-SCORE:    0.00 PKD
ROOT
HETATM    1  C   UNL     1     -10.096   6.084  66.594  1.00  0.00    -0.174 C  
HETATM    2  N   UNL     1     -10.164   7.298  67.372  1.00  0.00    -0.210 NA 
HETATM    3  C   UNL     1      -9.809   7.398  68.686  1.00  0.00    -0.163 C  
HETATM    4  H   UNL     1     -10.501   8.141  66.906  1.00  0.00     0.000 HD 
HETATM    5  N   UNL     1      -9.999   8.652  69.219  1.00  0.00    -0.189 NA 
HETATM    6  N   UNL     1      -9.335   6.361  69.309  1.00  0.00    -0.137 NA 
HETATM    7  C   UNL     1      -8.987   6.485  70.590  1.00  0.00    -0.148 C  
HETATM    8  H   UNL     1      -9.741   8.780  70.198  1.00  0.00     0.000 HD 
HETATM    9  N   UNL     1      -8.696   6.635  71.703  1.00  0.00    -0.131 NA 
HETATM   10  H   UNL     1      -9.232   5.469  68.827  1.00  0.00     0.000 HD 
ENDROOT
BRANCH   5  11
HETATM   11  C   UNL     1     -10.532   9.813  68.527  1.00  0.00    -0.210 C  
BRANCH  11  12
HETATM   12  C   UNL     1      -9.465  10.662  67.831  1.00  0.00    -0.159 C  
BRANCH  12  13
HETATM   13  S   UNL     1     -10.055  10.942  66.126  1.00  0.00    -0.247 SA 
BRANCH  13  14
HETATM   14  C   UNL     1     -11.435  12.089  66.438  1.00  0.00    -0.353 C  
BRANCH  14  15
HETATM   15  C   UNL     1     -11.098  13.437  65.887  1.00  0.00    -0.280 A  
HETATM   16  C   UNL     1     -11.366  13.967  64.635  1.00  0.00    -0.375 A  
HETATM   17  C   UNL     1     -12.037  13.415  63.438  1.00  0.00    -0.437 C  
HETATM   18  N   UNL     1     -10.877  15.248  64.681  1.00  0.00    -0.635 NA 
HETATM   19  H   UNL     1     -10.910  15.932  63.926  1.00  0.00     0.000 HD 
HETATM   20  C   UNL     1     -10.338  15.444  65.919  1.00  0.00    -0.341 A  
HETATM   21  N   UNL     1     -10.441  14.369  66.664  1.00  0.00    -0.271 NA 
ENDBRANCH  14  15
ENDBRANCH  13  14
ENDBRANCH  12  13
ENDBRANCH  11  12
ENDBRANCH   5  11
TORSDOF 5
ENDMDL
MODEL      293
REMARK 921   NORMALIZED FREE ENERGY PREDICTED BY IDOCK:   -2.90 KCAL/MOL
REMARK 922        TOTAL FREE ENERGY PREDICTED BY IDOCK:   -4.71 KCAL/MOL
REMARK 923 INTER-LIGAND FREE ENERGY PREDICTED BY IDOCK:   -4.49 KCAL/MOL
REMARK 924 INTRA-LIGAND FREE ENERGY PREDICTED BY IDOCK:   -0.22 KCAL/MOL
REMARK 927      BINDING AFFINITY PREDICTED BY RF-SCORE:    0.00 PKD
ROOT
HETATM    1  C   UNL     1     -12.235  13.948  66.418  1.00  0.00    -0.449 C  
HETATM    2  N   UNL     1     -11.993  13.079  67.544  1.00  0.00    -0.342 NA 
HETATM    3  C   UNL     1     -10.759  12.805  68.061  1.00  0.00    -0.230 C  
HETATM    4  H   UNL     1     -12.800  12.639  67.985  1.00  0.00     0.000 HD 
HETATM    5  N   UNL     1     -10.782  11.917  69.112  1.00  0.00    -0.393 NA 
HETATM    6  N   UNL     1      -9.706  13.374  67.558  1.00  0.00    -0.219 NA 
HETATM    7  C   UNL     1      -8.513  13.098  68.085  1.00  0.00    -0.173 C  
HETATM    8  H   UNL     1      -9.884  11.686  69.538  1.00  0.00     0.000 HD 
HETATM    9  N   UNL     1      -7.494  12.831  68.572  1.00  0.00    -0.121 NA 
HETATM   10  H   UNL     1      -9.790  14.021  66.774  1.00  0.00     0.000 HD 
ENDROOT
BRANCH   5  11
HETATM   11  C   UNL     1     -11.958  11.275  69.674  1.00  0.00    -0.353 C  
BRANCH  11  12
HETATM   12  C   UNL     1     -11.648  10.323  70.832  1.00  0.00    -0.365 C  
BRANCH  12  13
HETATM   13  S   UNL     1     -10.771   8.894  70.108  1.00  0.00    -0.227 SA 
BRANCH  13  14
HETATM   14  C   UNL     1     -11.609   7.523  70.966  1.00  0.00    -0.283 C  
BRANCH  14  15
HETATM   15  C   UNL     1     -10.786   6.282  70.846  1.00  0.00    -0.259 A  
HETATM   16  C   UNL     1     -10.658   5.222  71.730  1.00  0.00    -0.201 A  
HETATM   17  C   UNL     1     -11.247   4.952  73.059  1.00  0.00    -0.367 C  
HETATM   18  N   UNL     1      -9.816   4.338  71.103  1.00  0.00    -0.185 NA 
HETATM   19  H   UNL     1      -9.507   3.439  71.471  1.00  0.00     0.000 HD 
HETATM   20  C   UNL     1      -9.465   4.877  69.900  1.00  0.00    -0.160 A  
HETATM   21  N   UNL     1     -10.020   6.053  69.721  1.00  0.00    -0.167 NA 
ENDBRANCH  14  15
ENDBRANCH  13  14
ENDBRANCH  12  13
ENDBRANCH  11  12
ENDBRANCH   5  11
TORSDOF 5
ENDMDL
MODEL      294
REMARK 921   NORMALIZED FREE ENERGY PREDICTED BY IDOCK:   -2.89 KCAL/MOL
REMARK 922        TOTAL FREE ENERGY PREDICTED BY IDOCK:   -4.70 KCAL/MOL
REMARK 923 INTER-LIGAND FREE ENERGY PREDICTED BY IDOCK:   -4.34 KCAL/MOL
REMARK 924 INTRA-LIGAND FREE ENERGY PREDICTED BY IDOCK:   -0.36 KCAL/MOL
REMARK 927      BINDING AFFINITY PREDICTED BY RF-SCORE:    0.00 PKD
ROOT
HETATM    1  C   UNL     1      -9.082   7.836  73.412  1.00  0.00    -0.276 C  
HETATM    2  N   UNL     1      -9.602   8.504  72.244  1.00  0.00    -0.300 NA 
HETATM    3  C   UNL     1     -10.926   8.594  71.927  1.00  0.00    -0.342 C  
HETATM    4  H   UNL     1      -8.932   8.939  71.609  1.00  0.00     0.000 HD 
HETATM    5  N   UNL     1     -11.171   9.247  70.741  1.00  0.00    -0.268 NA 
HETATM    6  N   UNL     1     -11.818   8.091  72.726  1.00  0.00    -0.595 NA 
HETATM    7  C   UNL     1     -13.106   8.199  72.400  1.00  0.00    -0.108 C  
HETATM    8  H   UNL     1     -12.148   9.348  70.464  1.00  0.00     0.000 HD 
HETATM    9  N   UNL     1     -14.216   8.315  72.081  1.00  0.00    -0.391 NA 
HETATM   10  H   UNL     1     -11.538   7.622  73.587  1.00  0.00     0.000 HD 
ENDROOT
BRANCH   5  11
HETATM   11  C   UNL     1     -10.176   9.808  69.843  1.00  0.00    -0.254 C  
BRANCH  11  12
HETATM   12  C   UNL     1      -9.977   9.001  68.558  1.00  0.00    -0.176 C  
BRANCH  12  13
HETATM   13  S   UNL     1     -10.295  10.147  67.172  1.00  0.00    -0.246 SA 
BRANCH  13  14
HETATM   14  C   UNL     1     -10.224  11.745  68.042  1.00  0.00    -0.193 C  
BRANCH  14  15
HETATM   15  C   UNL     1      -8.945  12.442  67.702  1.00  0.00    -0.183 A  
HETATM   16  C   UNL     1      -8.715  13.785  67.454  1.00  0.00    -0.207 A  
HETATM   17  C   UNL     1      -9.608  14.964  67.420  1.00  0.00    -0.206 C  
HETATM   18  N   UNL     1      -7.363  13.879  67.240  1.00  0.00    -0.330 NA 
HETATM   19  H   UNL     1      -6.845  14.732  67.032  1.00  0.00     0.000 HD 
HETATM   20  C   UNL     1      -6.835  12.626  67.354  1.00  0.00    -0.140 A  
HETATM   21  N   UNL     1      -7.762  11.736  67.617  1.00  0.00    -0.128 NA 
ENDBRANCH  14  15
ENDBRANCH  13  14
ENDBRANCH  12  13
ENDBRANCH  11  12
ENDBRANCH   5  11
TORSDOF 5
ENDMDL
MODEL      295
REMARK 921   NORMALIZED FREE ENERGY PREDICTED BY IDOCK:   -2.86 KCAL/MOL
REMARK 922        TOTAL FREE ENERGY PREDICTED BY IDOCK:   -4.66 KCAL/MOL
REMARK 923 INTER-LIGAND FREE ENERGY PREDICTED BY IDOCK:   -3.56 KCAL/MOL
REMARK 924 INTRA-LIGAND FREE ENERGY PREDICTED BY IDOCK:   -1.10 KCAL/MOL
REMARK 927      BINDING AFFINITY PREDICTED BY RF-SCORE:    0.00 PKD
ROOT
HETATM    1  C   UNL     1     -10.408   9.769  66.496  1.00  0.00    -0.192 C  
HETATM    2  N   UNL     1      -9.290   8.986  66.965  1.00  0.00    -0.144 NA 
HETATM    3  C   UNL     1      -9.287   7.625  67.073  1.00  0.00    -0.157 C  
HETATM    4  H   UNL     1      -8.442   9.484  67.234  1.00  0.00     0.000 HD 
HETATM    5  N   UNL     1      -8.117   7.110  67.581  1.00  0.00    -0.113 NA 
HETATM    6  N   UNL     1     -10.330   6.945  66.702  1.00  0.00    -0.452 NA 
HETATM    7  C   UNL     1     -10.301   5.616  66.809  1.00  0.00    -0.262 C  
HETATM    8  H   UNL     1      -8.063   6.095  67.674  1.00  0.00     0.000 HD 
HETATM    9  N   UNL     1     -10.236   4.463  66.918  1.00  0.00    -0.123 NA 
HETATM   10  H   UNL     1     -11.156   7.418  66.337  1.00  0.00     0.000 HD 
ENDROOT
BRANCH   5  11
HETATM   11  C   UNL     1      -6.951   7.868  68.000  1.00  0.00    -0.073 C  
BRANCH  11  12
HETATM   12  C   UNL     1      -6.607   7.706  69.483  1.00  0.00    -0.036 C  
BRANCH  12  13
HETATM   13  S   UNL     1      -7.223   6.061  69.982  1.00  0.00    -0.075 SA 
BRANCH  13  14
HETATM   14  C   UNL     1      -8.348   6.528  71.336  1.00  0.00    -0.125 C  
BRANCH  14  15
HETATM   15  C   UNL     1      -9.698   6.845  70.777  1.00  0.00    -0.171 A  
HETATM   16  C   UNL     1     -10.244   8.072  70.436  1.00  0.00    -0.201 A  
HETATM   17  C   UNL     1      -9.722   9.454  70.513  1.00  0.00    -0.331 C  
HETATM   18  N   UNL     1     -11.486   7.780  69.933  1.00  0.00    -0.462 NA 
HETATM   19  H   UNL     1     -12.165   8.454  69.580  1.00  0.00     0.000 HD 
HETATM   20  C   UNL     1     -11.652   6.427  69.990  1.00  0.00    -0.377 A  
HETATM   21  N   UNL     1     -10.601   5.836  70.506  1.00  0.00    -0.270 NA 
ENDBRANCH  14  15
ENDBRANCH  13  14
ENDBRANCH  12  13
ENDBRANCH  11  12
ENDBRANCH   5  11
TORSDOF 5
ENDMDL
MODEL      296
REMARK 921   NORMALIZED FREE ENERGY PREDICTED BY IDOCK:   -2.85 KCAL/MOL
REMARK 922        TOTAL FREE ENERGY PREDICTED BY IDOCK:   -4.65 KCAL/MOL
REMARK 923 INTER-LIGAND FREE ENERGY PREDICTED BY IDOCK:   -4.37 KCAL/MOL
REMARK 924 INTRA-LIGAND FREE ENERGY PREDICTED BY IDOCK:   -0.28 KCAL/MOL
REMARK 927      BINDING AFFINITY PREDICTED BY RF-SCORE:    0.00 PKD
ROOT
HETATM    1  C   UNL     1     -11.160  16.540  64.634  1.00  0.00    -0.123 C  
HETATM    2  N   UNL     1     -11.435  15.414  65.493  1.00  0.00    -0.158 NA 
HETATM    3  C   UNL     1     -11.886  14.200  65.062  1.00  0.00    -0.389 C  
HETATM    4  H   UNL     1     -11.281  15.534  66.495  1.00  0.00     0.000 HD 
HETATM    5  N   UNL     1     -12.110  13.298  66.076  1.00  0.00    -0.424 NA 
HETATM    6  N   UNL     1     -12.056  13.988  63.792  1.00  0.00    -0.857 NA 
HETATM    7  C   UNL     1     -12.488  12.792  63.393  1.00  0.00    -0.339 C  
HETATM    8  H   UNL     1     -12.441  12.372  65.803  1.00  0.00     0.000 HD 
HETATM    9  N   UNL     1     -12.866  11.738  63.088  1.00  0.00    -0.440 NA 
HETATM   10  H   UNL     1     -11.862  14.723  63.112  1.00  0.00     0.000 HD 
ENDROOT
BRANCH   5  11
HETATM   11  C   UNL     1     -11.924  13.534  67.497  1.00  0.00    -0.346 C  
BRANCH  11  12
HETATM   12  C   UNL     1     -11.741  12.254  68.318  1.00  0.00    -0.336 C  
BRANCH  12  13
HETATM   13  S   UNL     1     -10.304  11.382  67.605  1.00  0.00    -0.189 SA 
BRANCH  13  14
HETATM   14  C   UNL     1      -9.712  10.473  69.068  1.00  0.00    -0.210 C  
BRANCH  14  15
HETATM   15  C   UNL     1      -8.427   9.783  68.740  1.00  0.00    -0.122 A  
HETATM   16  C   UNL     1      -7.134  10.282  68.744  1.00  0.00    -0.072 A  
HETATM   17  C   UNL     1      -6.580  11.620  69.043  1.00  0.00    -0.092 C  
HETATM   18  N   UNL     1      -6.341   9.213  68.409  1.00  0.00    -0.053 NA 
HETATM   19  H   UNL     1      -5.325   9.223  68.323  1.00  0.00     0.000 HD 
HETATM   20  C   UNL     1      -7.154   8.136  68.212  1.00  0.00    -0.081 A  
HETATM   21  N   UNL     1      -8.416   8.448  68.389  1.00  0.00    -0.134 NA 
ENDBRANCH  14  15
ENDBRANCH  13  14
ENDBRANCH  12  13
ENDBRANCH  11  12
ENDBRANCH   5  11
TORSDOF 5
ENDMDL
MODEL      297
REMARK 921   NORMALIZED FREE ENERGY PREDICTED BY IDOCK:   -2.83 KCAL/MOL
REMARK 922        TOTAL FREE ENERGY PREDICTED BY IDOCK:   -4.62 KCAL/MOL
REMARK 923 INTER-LIGAND FREE ENERGY PREDICTED BY IDOCK:   -4.61 KCAL/MOL
REMARK 924 INTRA-LIGAND FREE ENERGY PREDICTED BY IDOCK:   -0.01 KCAL/MOL
REMARK 927      BINDING AFFINITY PREDICTED BY RF-SCORE:    0.00 PKD
ROOT
HETATM    1  C   UNL     1     -11.869  15.604  69.025  1.00  0.00    -0.364 C  
HETATM    2  N   UNL     1     -11.238  14.360  68.655  1.00  0.00    -0.246 NA 
HETATM    3  C   UNL     1     -11.528  13.649  67.527  1.00  0.00    -0.329 C  
HETATM    4  H   UNL     1     -10.525  13.986  69.281  1.00  0.00     0.000 HD 
HETATM    5  N   UNL     1     -10.821  12.474  67.413  1.00  0.00    -0.234 NA 
HETATM    6  N   UNL     1     -12.400  14.107  66.679  1.00  0.00    -0.537 NA 
HETATM    7  C   UNL     1     -12.660  13.399  65.580  1.00  0.00    -0.465 C  
HETATM    8  H   UNL     1     -10.997  11.910  66.581  1.00  0.00     0.000 HD 
HETATM    9  N   UNL     1     -12.858  12.754  64.636  1.00  0.00    -0.743 NA 
HETATM   10  H   UNL     1     -12.876  14.992  66.852  1.00  0.00     0.000 HD 
ENDROOT
BRANCH   5  11
HETATM   11  C   UNL     1      -9.848  11.957  68.360  1.00  0.00    -0.201 C  
BRANCH  11  12
HETATM   12  C   UNL     1      -8.460  12.590  68.229  1.00  0.00    -0.165 C  
BRANCH  12  13
HETATM   13  S   UNL     1      -7.830  12.120  66.581  1.00  0.00     0.192 SA 
BRANCH  13  14
HETATM   14  C   UNL     1      -7.253  10.426  66.919  1.00  0.00    -0.099 C  
BRANCH  14  15
HETATM   15  C   UNL     1      -8.382   9.467  66.724  1.00  0.00    -0.123 A  
HETATM   16  C   UNL     1      -9.249   9.334  65.651  1.00  0.00    -0.231 A  
HETATM   17  C   UNL     1      -9.379  10.069  64.373  1.00  0.00    -0.348 C  
HETATM   18  N   UNL     1     -10.057   8.274  65.977  1.00  0.00    -0.393 NA 
HETATM   19  H   UNL     1     -10.811   7.895  65.405  1.00  0.00     0.000 HD 
HETATM   20  C   UNL     1      -9.671   7.817  67.203  1.00  0.00    -0.186 A  
HETATM   21  N   UNL     1      -8.675   8.522  67.686  1.00  0.00    -0.136 NA 
ENDBRANCH  14  15
ENDBRANCH  13  14
ENDBRANCH  12  13
ENDBRANCH  11  12
ENDBRANCH   5  11
TORSDOF 5
ENDMDL
MODEL      298
REMARK 921   NORMALIZED FREE ENERGY PREDICTED BY IDOCK:   -2.79 KCAL/MOL
REMARK 922        TOTAL FREE ENERGY PREDICTED BY IDOCK:   -4.57 KCAL/MOL
REMARK 923 INTER-LIGAND FREE ENERGY PREDICTED BY IDOCK:   -4.38 KCAL/MOL
REMARK 924 INTRA-LIGAND FREE ENERGY PREDICTED BY IDOCK:   -0.19 KCAL/MOL
REMARK 927      BINDING AFFINITY PREDICTED BY RF-SCORE:    0.00 PKD
ROOT
HETATM    1  C   UNL     1      -9.309  15.070  66.245  1.00  0.00    -0.307 C  
HETATM    2  N   UNL     1      -9.820  13.779  66.639  1.00  0.00    -0.276 NA 
HETATM    3  C   UNL     1     -10.790  13.091  65.968  1.00  0.00    -0.272 C  
HETATM    4  H   UNL     1      -9.429  13.351  67.477  1.00  0.00     0.000 HD 
HETATM    5  N   UNL     1     -11.136  11.899  66.560  1.00  0.00    -0.293 NA 
HETATM    6  N   UNL     1     -11.288  13.579  64.872  1.00  0.00    -0.323 NA 
HETATM    7  C   UNL     1     -12.227  12.885  64.229  1.00  0.00    -0.410 C  
HETATM    8  H   UNL     1     -11.852  11.343  66.092  1.00  0.00     0.000 HD 
HETATM    9  N   UNL     1     -13.042  12.251  63.701  1.00  0.00    -0.760 NA 
HETATM   10  H   UNL     1     -10.966  14.476  64.510  1.00  0.00     0.000 HD 
ENDROOT
BRANCH   5  11
HETATM   11  C   UNL     1     -10.584  11.353  67.788  1.00  0.00    -0.195 C  
BRANCH  11  12
HETATM   12  C   UNL     1     -11.281  10.076  68.266  1.00  0.00    -0.132 C  
BRANCH  12  13
HETATM   13  S   UNL     1     -10.585   9.690  69.910  1.00  0.00    -0.268 SA 
BRANCH  13  14
HETATM   14  C   UNL     1     -10.263   7.908  69.721  1.00  0.00    -0.212 C  
BRANCH  14  15
HETATM   15  C   UNL     1      -9.560   7.396  70.937  1.00  0.00    -0.166 A  
HETATM   16  C   UNL     1     -10.086   7.009  72.159  1.00  0.00    -0.181 A  
HETATM   17  C   UNL     1     -11.467   6.977  72.689  1.00  0.00    -0.250 C  
HETATM   18  N   UNL     1      -9.005   6.585  72.891  1.00  0.00    -0.130 NA 
HETATM   19  H   UNL     1      -9.029   6.224  73.844  1.00  0.00     0.000 HD 
HETATM   20  C   UNL     1      -7.893   6.731  72.115  1.00  0.00    -0.095 A  
HETATM   21  N   UNL     1      -8.190   7.231  70.939  1.00  0.00    -0.114 NA 
ENDBRANCH  14  15
ENDBRANCH  13  14
ENDBRANCH  12  13
ENDBRANCH  11  12
ENDBRANCH   5  11
TORSDOF 5
ENDMDL
MODEL      299
REMARK 921   NORMALIZED FREE ENERGY PREDICTED BY IDOCK:   -2.79 KCAL/MOL
REMARK 922        TOTAL FREE ENERGY PREDICTED BY IDOCK:   -4.57 KCAL/MOL
REMARK 923 INTER-LIGAND FREE ENERGY PREDICTED BY IDOCK:   -3.86 KCAL/MOL
REMARK 924 INTRA-LIGAND FREE ENERGY PREDICTED BY IDOCK:   -0.71 KCAL/MOL
REMARK 927      BINDING AFFINITY PREDICTED BY RF-SCORE:    0.00 PKD
ROOT
HETATM    1  C   UNL     1      -6.024  10.724  65.725  1.00  0.00    -0.126 C  
HETATM    2  N   UNL     1      -7.113   9.780  65.786  1.00  0.00    -0.099 NA 
HETATM    3  C   UNL     1      -8.416  10.113  66.022  1.00  0.00    -0.131 C  
HETATM    4  H   UNL     1      -6.894   8.794  65.642  1.00  0.00     0.000 HD 
HETATM    5  N   UNL     1      -9.265   9.032  66.071  1.00  0.00    -0.208 NA 
HETATM    6  N   UNL     1      -8.748  11.360  66.170  1.00  0.00    -0.239 NA 
HETATM    7  C   UNL     1     -10.027  11.662  66.391  1.00  0.00    -0.206 C  
HETATM    8  H   UNL     1     -10.253   9.231  66.238  1.00  0.00     0.000 HD 
HETATM    9  N   UNL     1     -11.150  11.883  66.582  1.00  0.00    -0.295 NA 
HETATM   10  H   UNL     1      -8.043  12.095  66.118  1.00  0.00     0.000 HD 
ENDROOT
BRANCH   5  11
HETATM   11  C   UNL     1      -8.897   7.637  65.910  1.00  0.00    -0.130 C  
BRANCH  11  12
HETATM   12  C   UNL     1      -8.971   6.823  67.205  1.00  0.00    -0.115 C  
BRANCH  12  13
HETATM   13  S   UNL     1     -10.732   6.770  67.684  1.00  0.00    -0.302 SA 
BRANCH  13  14
HETATM   14  C   UNL     1     -10.581   6.778  69.499  1.00  0.00    -0.232 C  
BRANCH  14  15
HETATM   15  C   UNL     1     -10.774   8.169  70.009  1.00  0.00    -0.243 A  
HETATM   16  C   UNL     1     -11.160   8.598  71.269  1.00  0.00    -0.272 A  
HETATM   17  C   UNL     1     -11.522   7.872  72.506  1.00  0.00    -0.455 C  
HETATM   18  N   UNL     1     -11.133   9.968  71.200  1.00  0.00    -0.289 NA 
HETATM   19  H   UNL     1     -11.358  10.613  71.957  1.00  0.00     0.000 HD 
HETATM   20  C   UNL     1     -10.750  10.315  69.937  1.00  0.00    -0.294 A  
HETATM   21  N   UNL     1     -10.540   9.256  69.191  1.00  0.00    -0.221 NA 
ENDBRANCH  14  15
ENDBRANCH  13  14
ENDBRANCH  12  13
ENDBRANCH  11  12
ENDBRANCH   5  11
TORSDOF 5
ENDMDL
MODEL      300
REMARK 921   NORMALIZED FREE ENERGY PREDICTED BY IDOCK:   -2.79 KCAL/MOL
REMARK 922        TOTAL FREE ENERGY PREDICTED BY IDOCK:   -4.57 KCAL/MOL
REMARK 923 INTER-LIGAND FREE ENERGY PREDICTED BY IDOCK:   -3.72 KCAL/MOL
REMARK 924 INTRA-LIGAND FREE ENERGY PREDICTED BY IDOCK:   -0.85 KCAL/MOL
REMARK 927      BINDING AFFINITY PREDICTED BY RF-SCORE:    0.00 PKD
ROOT
HETATM    1  C   UNL     1     -13.033   7.283  71.442  1.00  0.00    -0.373 C  
HETATM    2  N   UNL     1     -11.666   7.690  71.227  1.00  0.00    -0.278 NA 
HETATM    3  C   UNL     1     -10.676   6.871  70.765  1.00  0.00    -0.233 C  
HETATM    4  H   UNL     1     -11.422   8.658  71.435  1.00  0.00     0.000 HD 
HETATM    5  N   UNL     1      -9.446   7.481  70.680  1.00  0.00    -0.164 NA 
HETATM    6  N   UNL     1     -10.949   5.642  70.448  1.00  0.00    -0.259 NA 
HETATM    7  C   UNL     1      -9.968   4.863  69.991  1.00  0.00    -0.253 C  
HETATM    8  H   UNL     1      -8.673   6.911  70.332  1.00  0.00     0.000 HD 
HETATM    9  N   UNL     1      -9.087   4.219  69.597  1.00  0.00    -0.103 NA 
HETATM   10  H   UNL     1     -11.897   5.279  70.547  1.00  0.00     0.000 HD 
ENDROOT
BRANCH   5  11
HETATM   11  C   UNL     1      -9.136   8.854  71.037  1.00  0.00    -0.243 C  
BRANCH  11  12
HETATM   12  C   UNL     1      -7.745   9.311  70.590  1.00  0.00    -0.151 C  
BRANCH  12  13
HETATM   13  S   UNL     1      -7.997  10.419  69.161  1.00  0.00    -0.150 SA 
BRANCH  13  14
HETATM   14  C   UNL     1      -7.382   9.361  67.812  1.00  0.00    -0.083 C  
BRANCH  14  15
HETATM   15  C   UNL     1      -8.494   8.497  67.309  1.00  0.00    -0.123 A  
HETATM   16  C   UNL     1      -9.605   8.842  66.556  1.00  0.00    -0.237 A  
HETATM   17  C   UNL     1     -10.085  10.132  66.015  1.00  0.00    -0.317 C  
HETATM   18  N   UNL     1     -10.267   7.660  66.341  1.00  0.00    -0.485 NA 
HETATM   19  H   UNL     1     -11.132   7.543  65.813  1.00  0.00     0.000 HD 
HETATM   20  C   UNL     1      -9.562   6.668  66.957  1.00  0.00    -0.150 A  
HETATM   21  N   UNL     1      -8.497   7.140  67.561  1.00  0.00    -0.122 NA 
ENDBRANCH  14  15
ENDBRANCH  13  14
ENDBRANCH  12  13
ENDBRANCH  11  12
ENDBRANCH   5  11
TORSDOF 5
ENDMDL
MODEL      301
REMARK 921   NORMALIZED FREE ENERGY PREDICTED BY IDOCK:   -2.77 KCAL/MOL
REMARK 922        TOTAL FREE ENERGY PREDICTED BY IDOCK:   -4.55 KCAL/MOL
REMARK 923 INTER-LIGAND FREE ENERGY PREDICTED BY IDOCK:   -4.14 KCAL/MOL
REMARK 924 INTRA-LIGAND FREE ENERGY PREDICTED BY IDOCK:   -0.41 KCAL/MOL
REMARK 927      BINDING AFFINITY PREDICTED BY RF-SCORE:    0.00 PKD
ROOT
HETATM    1  C   UNL     1     -11.021   7.819  70.030  1.00  0.00    -0.214 C  
HETATM    2  N   UNL     1     -10.769   8.597  68.841  1.00  0.00    -0.402 NA 
HETATM    3  C   UNL     1      -9.539   8.773  68.276  1.00  0.00    -0.146 C  
HETATM    4  H   UNL     1     -11.566   9.047  68.391  1.00  0.00     0.000 HD 
HETATM    5  N   UNL     1      -9.549   9.588  67.168  1.00  0.00    -0.154 NA 
HETATM    6  N   UNL     1      -8.501   8.186  68.790  1.00  0.00    -0.126 NA 
HETATM    7  C   UNL     1      -7.312   8.365  68.216  1.00  0.00    -0.095 C  
HETATM    8  H   UNL     1      -8.653   9.744  66.704  1.00  0.00     0.000 HD 
HETATM    9  N   UNL     1      -6.295   8.547  67.686  1.00  0.00    -0.053 NA 
HETATM   10  H   UNL     1      -8.594   7.598  69.618  1.00  0.00     0.000 HD 
ENDROOT
BRANCH   5  11
HETATM   11  C   UNL     1     -10.707  10.249  66.592  1.00  0.00    -0.113 C  
BRANCH  11  12
HETATM   12  C   UNL     1     -10.358  11.439  65.694  1.00  0.00    -0.257 C  
BRANCH  12  13
HETATM   13  S   UNL     1     -11.689  12.668  65.921  1.00  0.00    -0.434 SA 
BRANCH  13  14
HETATM   14  C   UNL     1     -10.781  13.977  66.804  1.00  0.00    -0.285 C  
BRANCH  14  15
HETATM   15  C   UNL     1     -11.084  13.895  68.266  1.00  0.00    -0.258 A  
HETATM   16  C   UNL     1     -10.558  14.631  69.316  1.00  0.00    -0.226 A  
HETATM   17  C   UNL     1      -9.541  15.704  69.375  1.00  0.00    -0.287 C  
HETATM   18  N   UNL     1     -11.217  14.178  70.431  1.00  0.00    -0.481 NA 
HETATM   19  H   UNL     1     -11.080  14.508  71.386  1.00  0.00     0.000 HD 
HETATM   20  C   UNL     1     -12.089  13.206  70.034  1.00  0.00    -0.305 A  
HETATM   21  N   UNL     1     -12.023  13.002  68.740  1.00  0.00    -0.306 NA 
ENDBRANCH  14  15
ENDBRANCH  13  14
ENDBRANCH  12  13
ENDBRANCH  11  12
ENDBRANCH   5  11
TORSDOF 5
ENDMDL
MODEL      302
REMARK 921   NORMALIZED FREE ENERGY PREDICTED BY IDOCK:   -2.76 KCAL/MOL
REMARK 922        TOTAL FREE ENERGY PREDICTED BY IDOCK:   -4.54 KCAL/MOL
REMARK 923 INTER-LIGAND FREE ENERGY PREDICTED BY IDOCK:   -3.93 KCAL/MOL
REMARK 924 INTRA-LIGAND FREE ENERGY PREDICTED BY IDOCK:   -0.61 KCAL/MOL
REMARK 927      BINDING AFFINITY PREDICTED BY RF-SCORE:    0.00 PKD
ROOT
HETATM    1  C   UNL     1     -11.626   8.180  70.983  1.00  0.00    -0.279 C  
HETATM    2  N   UNL     1     -10.517   8.903  70.411  1.00  0.00    -0.200 NA 
HETATM    3  C   UNL     1     -10.633   9.886  69.471  1.00  0.00    -0.242 C  
HETATM    4  H   UNL     1      -9.579   8.663  70.732  1.00  0.00     0.000 HD 
HETATM    5  N   UNL     1      -9.427  10.400  69.053  1.00  0.00    -0.188 NA 
HETATM    6  N   UNL     1     -11.809  10.254  69.062  1.00  0.00    -0.540 NA 
HETATM    7  C   UNL     1     -11.899  11.223  68.151  1.00  0.00    -0.205 C  
HETATM    8  H   UNL     1      -9.462  11.145  68.355  1.00  0.00     0.000 HD 
HETATM    9  N   UNL     1     -11.933  12.068  67.357  1.00  0.00    -0.585 NA 
HETATM   10  H   UNL     1     -12.649   9.811  69.433  1.00  0.00     0.000 HD 
ENDROOT
BRANCH   5  11
HETATM   11  C   UNL     1      -8.110   9.989  69.505  1.00  0.00    -0.161 C  
BRANCH  11  12
HETATM   12  C   UNL     1      -7.178   9.544  68.374  1.00  0.00    -0.075 C  
BRANCH  12  13
HETATM   13  S   UNL     1      -6.431  11.063  67.690  1.00  0.00    -0.063 SA 
BRANCH  13  14
HETATM   14  C   UNL     1      -6.257  10.585  65.941  1.00  0.00    -0.128 C  
BRANCH  14  15
HETATM   15  C   UNL     1      -7.609  10.319  65.359  1.00  0.00    -0.146 A  
HETATM   16  C   UNL     1      -7.985   9.401  64.392  1.00  0.00    -0.131 A  
HETATM   17  C   UNL     1      -7.222   8.406  63.607  1.00  0.00    -0.095 C  
HETATM   18  N   UNL     1      -9.343   9.551  64.271  1.00  0.00    -0.421 NA 
HETATM   19  H   UNL     1      -9.953   9.025  63.645  1.00  0.00     0.000 HD 
HETATM   20  C   UNL     1      -9.734  10.531  65.135  1.00  0.00    -0.282 A  
HETATM   21  N   UNL     1      -8.712  11.024  65.795  1.00  0.00    -0.187 NA 
ENDBRANCH  14  15
ENDBRANCH  13  14
ENDBRANCH  12  13
ENDBRANCH  11  12
ENDBRANCH   5  11
TORSDOF 5
ENDMDL
MODEL      303
REMARK 921   NORMALIZED FREE ENERGY PREDICTED BY IDOCK:   -2.76 KCAL/MOL
REMARK 922        TOTAL FREE ENERGY PREDICTED BY IDOCK:   -4.53 KCAL/MOL
REMARK 923 INTER-LIGAND FREE ENERGY PREDICTED BY IDOCK:   -4.31 KCAL/MOL
REMARK 924 INTRA-LIGAND FREE ENERGY PREDICTED BY IDOCK:   -0.22 KCAL/MOL
REMARK 927      BINDING AFFINITY PREDICTED BY RF-SCORE:    0.00 PKD
ROOT
HETATM    1  C   UNL     1     -10.674   9.891  68.728  1.00  0.00    -0.220 C  
HETATM    2  N   UNL     1     -10.132  11.170  68.340  1.00  0.00    -0.178 NA 
HETATM    3  C   UNL     1      -9.034  11.339  67.547  1.00  0.00    -0.140 C  
HETATM    4  H   UNL     1     -10.603  12.008  68.682  1.00  0.00     0.000 HD 
HETATM    5  N   UNL     1      -8.689  12.656  67.348  1.00  0.00    -0.181 NA 
HETATM    6  N   UNL     1      -8.426  10.302  67.054  1.00  0.00    -0.129 NA 
HETATM    7  C   UNL     1      -7.362  10.492  66.274  1.00  0.00    -0.133 C  
HETATM    8  H   UNL     1      -7.878  12.835  66.755  1.00  0.00     0.000 HD 
HETATM    9  N   UNL     1      -6.440  10.700  65.601  1.00  0.00    -0.117 NA 
HETATM   10  H   UNL     1      -8.758   9.360  67.259  1.00  0.00     0.000 HD 
ENDROOT
BRANCH   5  11
HETATM   11  C   UNL     1      -9.363  13.818  67.901  1.00  0.00    -0.211 C  
BRANCH  11  12
HETATM   12  C   UNL     1      -8.998  15.134  67.208  1.00  0.00    -0.199 C  
BRANCH  12  13
HETATM   13  S   UNL     1     -10.574  15.916  66.717  1.00  0.00    -0.281 SA 
BRANCH  13  14
HETATM   14  C   UNL     1     -10.747  17.163  68.034  1.00  0.00    -0.372 C  
BRANCH  14  15
HETATM   15  C   UNL     1      -9.713  18.227  67.852  1.00  0.00    -0.303 A  
HETATM   16  C   UNL     1      -9.679  19.274  66.946  1.00  0.00    -0.331 A  
HETATM   17  C   UNL     1     -10.600  19.694  65.867  1.00  0.00    -0.566 C  
HETATM   18  N   UNL     1      -8.533  19.966  67.247  1.00  0.00    -0.312 NA 
HETATM   19  H   UNL     1      -8.196  20.806  66.777  1.00  0.00     0.000 HD 
HETATM   20  C   UNL     1      -7.924  19.331  68.290  1.00  0.00    -0.326 A  
HETATM   21  N   UNL     1      -8.600  18.272  68.668  1.00  0.00    -0.311 NA 
ENDBRANCH  14  15
ENDBRANCH  13  14
ENDBRANCH  12  13
ENDBRANCH  11  12
ENDBRANCH   5  11
TORSDOF 5
ENDMDL
MODEL      304
REMARK 921   NORMALIZED FREE ENERGY PREDICTED BY IDOCK:   -2.76 KCAL/MOL
REMARK 922        TOTAL FREE ENERGY PREDICTED BY IDOCK:   -4.52 KCAL/MOL
REMARK 923 INTER-LIGAND FREE ENERGY PREDICTED BY IDOCK:   -4.07 KCAL/MOL
REMARK 924 INTRA-LIGAND FREE ENERGY PREDICTED BY IDOCK:   -0.45 KCAL/MOL
REMARK 927      BINDING AFFINITY PREDICTED BY RF-SCORE:    0.00 PKD
ROOT
HETATM    1  C   UNL     1     -11.104   6.082  69.845  1.00  0.00    -0.399 C  
HETATM    2  N   UNL     1     -10.933   6.886  68.660  1.00  0.00    -0.441 NA 
HETATM    3  C   UNL     1     -10.655   6.390  67.419  1.00  0.00    -0.295 C  
HETATM    4  H   UNL     1     -11.025   7.898  68.756  1.00  0.00     0.000 HD 
HETATM    5  N   UNL     1     -10.498   7.360  66.455  1.00  0.00    -0.501 NA 
HETATM    6  N   UNL     1     -10.569   5.107  67.240  1.00  0.00    -0.137 NA 
HETATM    7  C   UNL     1     -10.306   4.645  66.017  1.00  0.00    -0.284 C  
HETATM    8  H   UNL     1     -10.297   7.038  65.508  1.00  0.00     0.000 HD 
HETATM    9  N   UNL     1     -10.076   4.284  64.939  1.00  0.00    -0.191 NA 
HETATM   10  H   UNL     1     -10.701   4.464  68.020  1.00  0.00     0.000 HD 
ENDROOT
BRANCH   5  11
HETATM   11  C   UNL     1     -10.590   8.796  66.653  1.00  0.00    -0.070 C  
BRANCH  11  12
HETATM   12  C   UNL     1      -9.564   9.598  65.849  1.00  0.00    -0.257 C  
BRANCH  12  13
HETATM   13  S   UNL     1     -10.152  11.327  65.836  1.00  0.00    -0.255 SA 
BRANCH  13  14
HETATM   14  C   UNL     1     -10.426  11.595  67.617  1.00  0.00    -0.191 C  
BRANCH  14  15
HETATM   15  C   UNL     1      -9.115  11.571  68.333  1.00  0.00    -0.185 A  
HETATM   16  C   UNL     1      -8.698  10.764  69.380  1.00  0.00     0.041 A  
HETATM   17  C   UNL     1      -9.372   9.692  70.145  1.00  0.00    -0.294 C  
HETATM   18  N   UNL     1      -7.399  11.135  69.617  1.00  0.00    -0.352 NA 
HETATM   19  H   UNL     1      -6.780  10.737  70.324  1.00  0.00     0.000 HD 
HETATM   20  C   UNL     1      -7.081  12.130  68.739  1.00  0.00    -0.110 A  
HETATM   21  N   UNL     1      -8.096  12.427  67.963  1.00  0.00    -0.151 NA 
ENDBRANCH  14  15
ENDBRANCH  13  14
ENDBRANCH  12  13
ENDBRANCH  11  12
ENDBRANCH   5  11
TORSDOF 5
ENDMDL
MODEL      305
REMARK 921   NORMALIZED FREE ENERGY PREDICTED BY IDOCK:   -2.74 KCAL/MOL
REMARK 922        TOTAL FREE ENERGY PREDICTED BY IDOCK:   -4.50 KCAL/MOL
REMARK 923 INTER-LIGAND FREE ENERGY PREDICTED BY IDOCK:   -3.88 KCAL/MOL
REMARK 924 INTRA-LIGAND FREE ENERGY PREDICTED BY IDOCK:   -0.62 KCAL/MOL
REMARK 927      BINDING AFFINITY PREDICTED BY RF-SCORE:    0.00 PKD
ROOT
HETATM    1  C   UNL     1      -6.866  14.692  69.178  1.00  0.00    -0.126 C  
HETATM    2  N   UNL     1      -8.272  14.436  68.982  1.00  0.00    -0.316 NA 
HETATM    3  C   UNL     1      -9.209  15.399  68.738  1.00  0.00    -0.206 C  
HETATM    4  H   UNL     1      -8.589  13.468  69.029  1.00  0.00     0.000 HD 
HETATM    5  N   UNL     1     -10.490  14.912  68.624  1.00  0.00    -0.235 NA 
HETATM    6  N   UNL     1      -8.845  16.642  68.628  1.00  0.00    -0.241 NA 
HETATM    7  C   UNL     1      -9.776  17.563  68.380  1.00  0.00    -0.316 C  
HETATM    8  H   UNL     1     -11.226  15.593  68.433  1.00  0.00     0.000 HD 
HETATM    9  N   UNL     1     -10.616  18.334  68.164  1.00  0.00    -0.332 NA 
HETATM   10  H   UNL     1      -7.866  16.907  68.729  1.00  0.00     0.000 HD 
ENDROOT
BRANCH   5  11
HETATM   11  C   UNL     1     -10.900  13.524  68.749  1.00  0.00    -0.253 C  
BRANCH  11  12
HETATM   12  C   UNL     1     -11.837  13.052  67.634  1.00  0.00    -0.351 C  
BRANCH  12  13
HETATM   13  S   UNL     1     -10.770  12.421  66.293  1.00  0.00    -0.264 SA 
BRANCH  13  14
HETATM   14  C   UNL     1      -9.754  11.224  67.216  1.00  0.00    -0.174 C  
BRANCH  14  15
HETATM   15  C   UNL     1      -8.401  11.127  66.588  1.00  0.00    -0.160 A  
HETATM   16  C   UNL     1      -8.033  10.569  65.374  1.00  0.00    -0.129 A  
HETATM   17  C   UNL     1      -8.803   9.883  64.314  1.00  0.00    -0.252 C  
HETATM   18  N   UNL     1      -6.683  10.795  65.276  1.00  0.00    -0.354 NA 
HETATM   19  H   UNL     1      -6.082  10.518  64.500  1.00  0.00     0.000 HD 
HETATM   20  C   UNL     1      -6.287  11.455  66.402  1.00  0.00    -0.047 A  
HETATM   21  N   UNL     1      -7.294  11.657  67.219  1.00  0.00    -0.128 NA 
ENDBRANCH  14  15
ENDBRANCH  13  14
ENDBRANCH  12  13
ENDBRANCH  11  12
ENDBRANCH   5  11
TORSDOF 5
ENDMDL
MODEL      306
REMARK 921   NORMALIZED FREE ENERGY PREDICTED BY IDOCK:   -2.73 KCAL/MOL
REMARK 922        TOTAL FREE ENERGY PREDICTED BY IDOCK:   -4.50 KCAL/MOL
REMARK 923 INTER-LIGAND FREE ENERGY PREDICTED BY IDOCK:   -4.15 KCAL/MOL
REMARK 924 INTRA-LIGAND FREE ENERGY PREDICTED BY IDOCK:   -0.34 KCAL/MOL
REMARK 927      BINDING AFFINITY PREDICTED BY RF-SCORE:    0.00 PKD
ROOT
HETATM    1  C   UNL     1     -13.258   7.090  71.318  1.00  0.00    -0.230 C  
HETATM    2  N   UNL     1     -12.195   7.714  70.568  1.00  0.00    -0.505 NA 
HETATM    3  C   UNL     1     -10.976   7.146  70.331  1.00  0.00    -0.265 C  
HETATM    4  H   UNL     1     -12.366   8.644  70.188  1.00  0.00     0.000 HD 
HETATM    5  N   UNL     1     -10.115   7.953  69.624  1.00  0.00    -0.193 NA 
HETATM    6  N   UNL     1     -10.727   5.945  70.760  1.00  0.00    -0.263 NA 
HETATM    7  C   UNL     1      -9.534   5.408  70.509  1.00  0.00    -0.165 C  
HETATM    8  H   UNL     1      -9.193   7.570  69.414  1.00  0.00     0.000 HD 
HETATM    9  N   UNL     1      -8.483   4.977  70.270  1.00  0.00    -0.098 NA 
HETATM   10  H   UNL     1     -11.433   5.423  71.279  1.00  0.00     0.000 HD 
ENDROOT
BRANCH   5  11
HETATM   11  C   UNL     1     -10.389   9.297  69.146  1.00  0.00    -0.211 C  
BRANCH  11  12
HETATM   12  C   UNL     1      -9.721   9.626  67.807  1.00  0.00    -0.146 C  
BRANCH  12  13
HETATM   13  S   UNL     1      -9.130  11.349  67.933  1.00  0.00    -0.170 SA 
BRANCH  13  14
HETATM   14  C   UNL     1     -10.648  12.252  67.487  1.00  0.00    -0.218 C  
BRANCH  14  15
HETATM   15  C   UNL     1     -11.091  13.086  68.646  1.00  0.00    -0.269 A  
HETATM   16  C   UNL     1     -10.715  14.372  68.999  1.00  0.00    -0.250 A  
HETATM   17  C   UNL     1      -9.771  15.339  68.396  1.00  0.00    -0.213 C  
HETATM   18  N   UNL     1     -11.457  14.663  70.116  1.00  0.00    -0.303 NA 
HETATM   19  H   UNL     1     -11.435  15.537  70.640  1.00  0.00     0.000 HD 
HETATM   20  C   UNL     1     -12.228  13.575  70.400  1.00  0.00    -0.356 A  
HETATM   21  N   UNL     1     -12.022  12.603  69.543  1.00  0.00    -0.297 NA 
ENDBRANCH  14  15
ENDBRANCH  13  14
ENDBRANCH  12  13
ENDBRANCH  11  12
ENDBRANCH   5  11
TORSDOF 5
ENDMDL
MODEL      307
REMARK 921   NORMALIZED FREE ENERGY PREDICTED BY IDOCK:   -2.73 KCAL/MOL
REMARK 922        TOTAL FREE ENERGY PREDICTED BY IDOCK:   -4.49 KCAL/MOL
REMARK 923 INTER-LIGAND FREE ENERGY PREDICTED BY IDOCK:   -4.15 KCAL/MOL
REMARK 924 INTRA-LIGAND FREE ENERGY PREDICTED BY IDOCK:   -0.33 KCAL/MOL
REMARK 927      BINDING AFFINITY PREDICTED BY RF-SCORE:    0.00 PKD
ROOT
HETATM    1  C   UNL     1     -11.943   7.219  71.993  1.00  0.00    -0.296 C  
HETATM    2  N   UNL     1     -11.458   8.156  71.009  1.00  0.00    -0.277 NA 
HETATM    3  C   UNL     1     -11.151   7.836  69.718  1.00  0.00    -0.089 C  
HETATM    4  H   UNL     1     -11.335   9.126  71.299  1.00  0.00     0.000 HD 
HETATM    5  N   UNL     1     -10.670   8.894  68.982  1.00  0.00    -0.378 NA 
HETATM    6  N   UNL     1     -11.331   6.621  69.292  1.00  0.00    -0.574 NA 
HETATM    7  C   UNL     1     -11.033   6.334  68.025  1.00  0.00    -0.327 C  
HETATM    8  H   UNL     1     -10.433   8.707  68.007  1.00  0.00     0.000 HD 
HETATM    9  N   UNL     1     -10.761   6.126  66.917  1.00  0.00    -0.324 NA 
HETATM   10  H   UNL     1     -11.694   5.901  69.916  1.00  0.00     0.000 HD 
ENDROOT
BRANCH   5  11
HETATM   11  C   UNL     1     -10.464  10.251  69.456  1.00  0.00    -0.244 C  
BRANCH  11  12
HETATM   12  C   UNL     1      -9.641  11.122  68.502  1.00  0.00    -0.193 C  
BRANCH  12  13
HETATM   13  S   UNL     1      -9.933  10.469  66.822  1.00  0.00    -0.211 SA 
BRANCH  13  14
HETATM   14  C   UNL     1      -8.245  10.545  66.141  1.00  0.00    -0.151 C  
BRANCH  14  15
HETATM   15  C   UNL     1      -8.288  10.286  64.670  1.00  0.00    -0.169 A  
HETATM   16  C   UNL     1      -7.244  10.090  63.780  1.00  0.00    -0.128 A  
HETATM   17  C   UNL     1      -5.775  10.081  63.949  1.00  0.00    -0.123 C  
HETATM   18  N   UNL     1      -7.849   9.852  62.571  1.00  0.00    -0.118 NA 
HETATM   19  H   UNL     1      -7.375   9.661  61.689  1.00  0.00     0.000 HD 
HETATM   20  C   UNL     1      -9.199   9.918  62.760  1.00  0.00    -0.268 A  
HETATM   21  N   UNL     1      -9.496  10.192  64.008  1.00  0.00    -0.286 NA 
ENDBRANCH  14  15
ENDBRANCH  13  14
ENDBRANCH  12  13
ENDBRANCH  11  12
ENDBRANCH   5  11
TORSDOF 5
ENDMDL
MODEL      308
REMARK 921   NORMALIZED FREE ENERGY PREDICTED BY IDOCK:   -2.72 KCAL/MOL
REMARK 922        TOTAL FREE ENERGY PREDICTED BY IDOCK:   -4.48 KCAL/MOL
REMARK 923 INTER-LIGAND FREE ENERGY PREDICTED BY IDOCK:   -4.20 KCAL/MOL
REMARK 924 INTRA-LIGAND FREE ENERGY PREDICTED BY IDOCK:   -0.28 KCAL/MOL
REMARK 927      BINDING AFFINITY PREDICTED BY RF-SCORE:    0.00 PKD
ROOT
HETATM    1  C   UNL     1     -11.896  16.090  70.692  1.00  0.00    -0.315 C  
HETATM    2  N   UNL     1     -10.863  15.459  69.908  1.00  0.00    -0.272 NA 
HETATM    3  C   UNL     1     -10.397  15.931  68.715  1.00  0.00    -0.228 C  
HETATM    4  H   UNL     1     -10.452  14.599  70.270  1.00  0.00     0.000 HD 
HETATM    5  N   UNL     1      -9.436  15.133  68.138  1.00  0.00    -0.198 NA 
HETATM    6  N   UNL     1     -10.862  17.045  68.234  1.00  0.00    -0.370 NA 
HETATM    7  C   UNL     1     -10.385  17.492  67.072  1.00  0.00    -0.324 C  
HETATM    8  H   UNL     1      -9.050  15.448  67.247  1.00  0.00     0.000 HD 
HETATM    9  N   UNL     1      -9.944  17.845  66.059  1.00  0.00    -0.540 NA 
HETATM   10  H   UNL     1     -11.577  17.569  68.737  1.00  0.00     0.000 HD 
ENDROOT
BRANCH   5  11
HETATM   11  C   UNL     1      -8.917  13.886  68.671  1.00  0.00    -0.079 C  
BRANCH  11  12
HETATM   12  C   UNL     1      -8.956  12.723  67.675  1.00  0.00    -0.191 C  
BRANCH  12  13
HETATM   13  S   UNL     1      -7.901  11.407  68.373  1.00  0.00    -0.141 SA 
BRANCH  13  14
HETATM   14  C   UNL     1      -8.577   9.951  67.512  1.00  0.00    -0.122 C  
BRANCH  14  15
HETATM   15  C   UNL     1      -9.466   9.190  68.442  1.00  0.00    -0.142 A  
HETATM   16  C   UNL     1     -10.134   7.993  68.237  1.00  0.00    -0.196 A  
HETATM   17  C   UNL     1     -10.221   7.083  67.075  1.00  0.00    -0.330 C  
HETATM   18  N   UNL     1     -10.764   7.732  69.427  1.00  0.00    -0.332 NA 
HETATM   19  H   UNL     1     -11.347   6.921  69.634  1.00  0.00     0.000 HD 
HETATM   20  C   UNL     1     -10.473   8.751  70.286  1.00  0.00    -0.208 A  
HETATM   21  N   UNL     1      -9.706   9.652  69.720  1.00  0.00    -0.209 NA 
ENDBRANCH  14  15
ENDBRANCH  13  14
ENDBRANCH  12  13
ENDBRANCH  11  12
ENDBRANCH   5  11
TORSDOF 5
ENDMDL
MODEL      309
REMARK 921   NORMALIZED FREE ENERGY PREDICTED BY IDOCK:   -2.71 KCAL/MOL
REMARK 922        TOTAL FREE ENERGY PREDICTED BY IDOCK:   -4.46 KCAL/MOL
REMARK 923 INTER-LIGAND FREE ENERGY PREDICTED BY IDOCK:   -4.18 KCAL/MOL
REMARK 924 INTRA-LIGAND FREE ENERGY PREDICTED BY IDOCK:   -0.28 KCAL/MOL
REMARK 927      BINDING AFFINITY PREDICTED BY RF-SCORE:    0.00 PKD
ROOT
HETATM    1  C   UNL     1     -10.329  17.088  69.400  1.00  0.00    -0.230 C  
HETATM    2  N   UNL     1      -9.869  15.827  68.871  1.00  0.00    -0.211 NA 
HETATM    3  C   UNL     1      -8.652  15.630  68.283  1.00  0.00    -0.158 C  
HETATM    4  H   UNL     1     -10.496  15.026  68.941  1.00  0.00     0.000 HD 
HETATM    5  N   UNL     1      -8.459  14.348  67.822  1.00  0.00    -0.162 NA 
HETATM    6  N   UNL     1      -7.804  16.611  68.209  1.00  0.00    -0.175 NA 
HETATM    7  C   UNL     1      -6.619  16.393  67.639  1.00  0.00    -0.148 C  
HETATM    8  H   UNL     1      -7.560  14.149  67.382  1.00  0.00     0.000 HD 
HETATM    9  N   UNL     1      -5.599  16.161  67.136  1.00  0.00    -0.341 NA 
HETATM   10  H   UNL     1      -8.040  17.530  68.580  1.00  0.00     0.000 HD 
ENDROOT
BRANCH   5  11
HETATM   11  C   UNL     1      -9.407  13.251  67.901  1.00  0.00    -0.214 C  
BRANCH  11  12
HETATM   12  C   UNL     1      -9.167  12.150  66.864  1.00  0.00    -0.203 C  
BRANCH  12  13
HETATM   13  S   UNL     1      -9.659  10.578  67.652  1.00  0.00    -0.158 SA 
BRANCH  13  14
HETATM   14  C   UNL     1     -11.152  11.112  68.547  1.00  0.00    -0.244 C  
BRANCH  14  15
HETATM   15  C   UNL     1     -11.366  10.227  69.733  1.00  0.00    -0.273 A  
HETATM   16  C   UNL     1     -12.035  10.490  70.918  1.00  0.00    -0.377 A  
HETATM   17  C   UNL     1     -12.735  11.691  71.426  1.00  0.00    -0.445 C  
HETATM   18  N   UNL     1     -11.964   9.321  71.632  1.00  0.00    -0.354 NA 
HETATM   19  H   UNL     1     -12.361   9.156  72.557  1.00  0.00     0.000 HD 
HETATM   20  C   UNL     1     -11.269   8.417  70.883  1.00  0.00    -0.262 A  
HETATM   21  N   UNL     1     -10.882   8.935  69.741  1.00  0.00    -0.227 NA 
ENDBRANCH  14  15
ENDBRANCH  13  14
ENDBRANCH  12  13
ENDBRANCH  11  12
ENDBRANCH   5  11
TORSDOF 5
ENDMDL
MODEL      310
REMARK 921   NORMALIZED FREE ENERGY PREDICTED BY IDOCK:   -2.71 KCAL/MOL
REMARK 922        TOTAL FREE ENERGY PREDICTED BY IDOCK:   -4.46 KCAL/MOL
REMARK 923 INTER-LIGAND FREE ENERGY PREDICTED BY IDOCK:   -4.29 KCAL/MOL
REMARK 924 INTRA-LIGAND FREE ENERGY PREDICTED BY IDOCK:   -0.17 KCAL/MOL
REMARK 927      BINDING AFFINITY PREDICTED BY RF-SCORE:    0.00 PKD
ROOT
HETATM    1  C   UNL     1      -7.763   5.222  65.738  1.00  0.00    -0.091 C  
HETATM    2  N   UNL     1      -8.297   6.397  66.383  1.00  0.00    -0.115 NA 
HETATM    3  C   UNL     1      -8.523   7.590  65.759  1.00  0.00    -0.144 C  
HETATM    4  H   UNL     1      -8.522   6.332  67.376  1.00  0.00     0.000 HD 
HETATM    5  N   UNL     1      -9.001   8.573  66.594  1.00  0.00    -0.140 NA 
HETATM    6  N   UNL     1      -8.292   7.707  64.486  1.00  0.00    -0.358 NA 
HETATM    7  C   UNL     1      -8.529   8.879  63.896  1.00  0.00    -0.136 C  
HETATM    8  H   UNL     1      -9.194   9.482  66.172  1.00  0.00     0.000 HD 
HETATM    9  N   UNL     1      -8.748   9.914  63.420  1.00  0.00    -0.203 NA 
HETATM   10  H   UNL     1      -7.935   6.918  63.948  1.00  0.00     0.000 HD 
ENDROOT
BRANCH   5  11
HETATM   11  C   UNL     1      -9.258   8.445  68.018  1.00  0.00    -0.136 C  
BRANCH  11  12
HETATM   12  C   UNL     1      -9.742   9.739  68.678  1.00  0.00    -0.155 C  
BRANCH  12  13
HETATM   13  S   UNL     1     -10.724  10.627  67.420  1.00  0.00    -0.287 SA 
BRANCH  13  14
HETATM   14  C   UNL     1     -11.945  11.461  68.482  1.00  0.00    -0.225 C  
BRANCH  14  15
HETATM   15  C   UNL     1     -11.893  12.936  68.241  1.00  0.00    -0.330 A  
HETATM   16  C   UNL     1     -12.067  13.640  67.060  1.00  0.00    -0.380 A  
HETATM   17  C   UNL     1     -12.339  13.212  65.671  1.00  0.00    -0.519 C  
HETATM   18  N   UNL     1     -11.959  14.961  67.417  1.00  0.00    -0.433 NA 
HETATM   19  H   UNL     1     -12.041  15.761  66.790  1.00  0.00     0.000 HD 
HETATM   20  C   UNL     1     -11.722  15.012  68.759  1.00  0.00    -0.334 A  
HETATM   21  N   UNL     1     -11.662  13.811  69.283  1.00  0.00    -0.304 NA 
ENDBRANCH  14  15
ENDBRANCH  13  14
ENDBRANCH  12  13
ENDBRANCH  11  12
ENDBRANCH   5  11
TORSDOF 5
ENDMDL
MODEL      311
REMARK 921   NORMALIZED FREE ENERGY PREDICTED BY IDOCK:   -2.68 KCAL/MOL
REMARK 922        TOTAL FREE ENERGY PREDICTED BY IDOCK:   -4.42 KCAL/MOL
REMARK 923 INTER-LIGAND FREE ENERGY PREDICTED BY IDOCK:   -4.05 KCAL/MOL
REMARK 924 INTRA-LIGAND FREE ENERGY PREDICTED BY IDOCK:   -0.37 KCAL/MOL
REMARK 927      BINDING AFFINITY PREDICTED BY RF-SCORE:    0.00 PKD
ROOT
HETATM    1  C   UNL     1      -5.944   4.395  72.513  1.00  0.00    -0.016 C  
HETATM    2  N   UNL     1      -6.988   5.309  72.906  1.00  0.00    -0.080 NA 
HETATM    3  C   UNL     1      -8.293   4.959  73.104  1.00  0.00    -0.104 C  
HETATM    4  H   UNL     1      -6.734   6.287  73.046  1.00  0.00     0.000 HD 
HETATM    5  N   UNL     1      -9.108   6.016  73.438  1.00  0.00    -0.132 NA 
HETATM    6  N   UNL     1      -8.655   3.717  72.979  1.00  0.00    -0.093 NA 
HETATM    7  C   UNL     1      -9.932   3.397  73.186  1.00  0.00    -0.137 C  
HETATM    8  H   UNL     1     -10.092   5.803  73.604  1.00  0.00     0.000 HD 
HETATM    9  N   UNL     1     -11.052   3.160  73.375  1.00  0.00    -0.201 NA 
HETATM   10  H   UNL     1      -7.975   3.001  72.727  1.00  0.00     0.000 HD 
ENDROOT
BRANCH   5  11
HETATM   11  C   UNL     1      -8.707   7.405  73.575  1.00  0.00    -0.177 C  
BRANCH  11  12
HETATM   12  C   UNL     1      -9.572   8.381  72.774  1.00  0.00    -0.238 C  
BRANCH  12  13
HETATM   13  S   UNL     1     -11.271   7.712  72.801  1.00  0.00    -0.365 SA 
BRANCH  13  14
HETATM   14  C   UNL     1     -11.844   8.199  71.142  1.00  0.00    -0.279 C  
BRANCH  14  15
HETATM   15  C   UNL     1     -12.066   9.677  71.105  1.00  0.00    -0.362 A  
HETATM   16  C   UNL     1     -11.419  10.645  70.353  1.00  0.00    -0.334 A  
HETATM   17  C   UNL     1     -10.313  10.576  69.372  1.00  0.00    -0.258 C  
HETATM   18  N   UNL     1     -12.047  11.821  70.675  1.00  0.00    -0.424 NA 
HETATM   19  H   UNL     1     -11.827  12.743  70.299  1.00  0.00     0.000 HD 
HETATM   20  C   UNL     1     -13.019  11.538  71.589  1.00  0.00    -0.394 A  
HETATM   21  N   UNL     1     -13.048  10.259  71.880  1.00  0.00    -0.461 NA 
ENDBRANCH  14  15
ENDBRANCH  13  14
ENDBRANCH  12  13
ENDBRANCH  11  12
ENDBRANCH   5  11
TORSDOF 5
ENDMDL
MODEL      312
REMARK 921   NORMALIZED FREE ENERGY PREDICTED BY IDOCK:   -2.66 KCAL/MOL
REMARK 922        TOTAL FREE ENERGY PREDICTED BY IDOCK:   -4.40 KCAL/MOL
REMARK 923 INTER-LIGAND FREE ENERGY PREDICTED BY IDOCK:   -3.52 KCAL/MOL
REMARK 924 INTRA-LIGAND FREE ENERGY PREDICTED BY IDOCK:   -0.88 KCAL/MOL
REMARK 927      BINDING AFFINITY PREDICTED BY RF-SCORE:    0.00 PKD
ROOT
HETATM    1  C   UNL     1      -5.577  10.830  65.579  1.00  0.00    -0.126 C  
HETATM    2  N   UNL     1      -6.649   9.864  65.596  1.00  0.00    -0.087 NA 
HETATM    3  C   UNL     1      -7.977  10.178  65.545  1.00  0.00    -0.146 C  
HETATM    4  H   UNL     1      -6.397   8.878  65.651  1.00  0.00     0.000 HD 
HETATM    5  N   UNL     1      -8.809   9.085  65.614  1.00  0.00    -0.174 NA 
HETATM    6  N   UNL     1      -8.344  11.419  65.432  1.00  0.00    -0.360 NA 
HETATM    7  C   UNL     1      -9.645  11.701  65.375  1.00  0.00    -0.205 C  
HETATM    8  H   UNL     1      -9.813   9.268  65.571  1.00  0.00     0.000 HD 
HETATM    9  N   UNL     1     -10.787  11.904  65.327  1.00  0.00    -0.289 NA 
HETATM   10  H   UNL     1      -7.649  12.164  65.389  1.00  0.00     0.000 HD 
ENDROOT
BRANCH   5  11
HETATM   11  C   UNL     1      -8.402   7.697  65.743  1.00  0.00    -0.141 C  
BRANCH  11  12
HETATM   12  C   UNL     1      -8.848   7.040  67.052  1.00  0.00    -0.124 C  
BRANCH  12  13
HETATM   13  S   UNL     1     -10.592   7.520  67.305  1.00  0.00    -0.307 SA 
BRANCH  13  14
HETATM   14  C   UNL     1     -10.512   8.166  69.006  1.00  0.00    -0.198 C  
BRANCH  14  15
HETATM   15  C   UNL     1     -10.344   9.651  68.969  1.00  0.00    -0.205 A  
HETATM   16  C   UNL     1      -9.182  10.406  68.987  1.00  0.00    -0.187 A  
HETATM   17  C   UNL     1      -7.751  10.038  69.063  1.00  0.00    -0.094 C  
HETATM   18  N   UNL     1      -9.604  11.708  68.889  1.00  0.00    -0.404 NA 
HETATM   19  H   UNL     1      -9.006  12.534  68.868  1.00  0.00     0.000 HD 
HETATM   20  C   UNL     1     -10.967  11.701  68.824  1.00  0.00    -0.226 A  
HETATM   21  N   UNL     1     -11.444  10.480  68.885  1.00  0.00    -0.248 NA 
ENDBRANCH  14  15
ENDBRANCH  13  14
ENDBRANCH  12  13
ENDBRANCH  11  12
ENDBRANCH   5  11
TORSDOF 5
ENDMDL
MODEL      313
REMARK 921   NORMALIZED FREE ENERGY PREDICTED BY IDOCK:   -2.66 KCAL/MOL
REMARK 922        TOTAL FREE ENERGY PREDICTED BY IDOCK:   -4.40 KCAL/MOL
REMARK 923 INTER-LIGAND FREE ENERGY PREDICTED BY IDOCK:   -4.18 KCAL/MOL
REMARK 924 INTRA-LIGAND FREE ENERGY PREDICTED BY IDOCK:   -0.22 KCAL/MOL
REMARK 927      BINDING AFFINITY PREDICTED BY RF-SCORE:    0.00 PKD
ROOT
HETATM    1  C   UNL     1      -6.820   9.781  67.978  1.00  0.00    -0.072 C  
HETATM    2  N   UNL     1      -7.533  10.998  67.672  1.00  0.00    -0.094 NA 
HETATM    3  C   UNL     1      -8.138  11.263  66.477  1.00  0.00    -0.160 C  
HETATM    4  H   UNL     1      -7.588  11.711  68.399  1.00  0.00     0.000 HD 
HETATM    5  N   UNL     1      -8.721  12.507  66.413  1.00  0.00    -0.419 NA 
HETATM    6  N   UNL     1      -8.129  10.368  65.536  1.00  0.00    -0.154 NA 
HETATM    7  C   UNL     1      -8.735  10.645  64.381  1.00  0.00    -0.137 C  
HETATM    8  H   UNL     1      -9.194  12.750  65.542  1.00  0.00     0.000 HD 
HETATM    9  N   UNL     1      -9.273  10.926  63.392  1.00  0.00    -0.246 NA 
HETATM   10  H   UNL     1      -7.668   9.470  65.677  1.00  0.00     0.000 HD 
ENDROOT
BRANCH   5  11
HETATM   11  C   UNL     1      -8.729  13.511  67.463  1.00  0.00    -0.208 C  
BRANCH  11  12
HETATM   12  C   UNL     1      -8.312  14.906  66.989  1.00  0.00    -0.216 C  
BRANCH  12  13
HETATM   13  S   UNL     1      -9.508  16.080  67.715  1.00  0.00    -0.217 SA 
BRANCH  13  14
HETATM   14  C   UNL     1      -9.804  17.172  66.288  1.00  0.00    -0.291 C  
BRANCH  14  15
HETATM   15  C   UNL     1      -9.399  18.569  66.636  1.00  0.00    -0.310 A  
HETATM   16  C   UNL     1      -8.140  19.076  66.915  1.00  0.00    -0.265 A  
HETATM   17  C   UNL     1      -6.802  18.449  66.983  1.00  0.00    -0.207 C  
HETATM   18  N   UNL     1      -8.337  20.418  67.122  1.00  0.00    -0.416 NA 
HETATM   19  H   UNL     1      -7.617  21.104  67.347  1.00  0.00     0.000 HD 
HETATM   20  C   UNL     1      -9.670  20.672  66.975  1.00  0.00    -0.345 A  
HETATM   21  N   UNL     1     -10.339  19.578  66.697  1.00  0.00    -0.428 NA 
ENDBRANCH  14  15
ENDBRANCH  13  14
ENDBRANCH  12  13
ENDBRANCH  11  12
ENDBRANCH   5  11
TORSDOF 5
ENDMDL
MODEL      314
REMARK 921   NORMALIZED FREE ENERGY PREDICTED BY IDOCK:   -2.65 KCAL/MOL
REMARK 922        TOTAL FREE ENERGY PREDICTED BY IDOCK:   -4.39 KCAL/MOL
REMARK 923 INTER-LIGAND FREE ENERGY PREDICTED BY IDOCK:   -3.96 KCAL/MOL
REMARK 924 INTRA-LIGAND FREE ENERGY PREDICTED BY IDOCK:   -0.44 KCAL/MOL
REMARK 927      BINDING AFFINITY PREDICTED BY RF-SCORE:    0.00 PKD
ROOT
HETATM    1  C   UNL     1     -13.919   8.951  72.277  1.00  0.00    -0.466 C  
HETATM    2  N   UNL     1     -12.504   9.037  72.013  1.00  0.00    -0.372 NA 
HETATM    3  C   UNL     1     -11.933   9.891  71.114  1.00  0.00    -0.384 C  
HETATM    4  H   UNL     1     -11.885   8.414  72.533  1.00  0.00     0.000 HD 
HETATM    5  N   UNL     1     -10.567   9.759  71.011  1.00  0.00    -0.306 NA 
HETATM    6  N   UNL     1     -12.676  10.731  70.458  1.00  0.00    -0.329 NA 
HETATM    7  C   UNL     1     -12.095  11.562  69.593  1.00  0.00    -0.296 C  
HETATM    8  H   UNL     1     -10.092  10.383  70.358  1.00  0.00     0.000 HD 
HETATM    9  N   UNL     1     -11.551  12.268  68.850  1.00  0.00    -0.293 NA 
HETATM   10  H   UNL     1     -13.685  10.754  70.603  1.00  0.00     0.000 HD 
ENDROOT
BRANCH   5  11
HETATM   11  C   UNL     1      -9.734   8.819  71.741  1.00  0.00    -0.310 C  
BRANCH  11  12
HETATM   12  C   UNL     1      -8.674   8.131  70.876  1.00  0.00    -0.140 C  
BRANCH  12  13
HETATM   13  S   UNL     1      -9.519   6.764  70.010  1.00  0.00    -0.156 SA 
BRANCH  13  14
HETATM   14  C   UNL     1      -8.359   5.399  70.338  1.00  0.00    -0.113 C  
BRANCH  14  15
HETATM   15  C   UNL     1      -8.955   4.470  71.346  1.00  0.00    -0.127 A  
HETATM   16  C   UNL     1      -9.067   4.616  72.720  1.00  0.00    -0.122 A  
HETATM   17  C   UNL     1      -8.644   5.686  73.649  1.00  0.00    -0.120 C  
HETATM   18  N   UNL     1      -9.732   3.493  73.142  1.00  0.00    -0.113 NA 
HETATM   19  H   UNL     1      -9.990   3.273  74.104  1.00  0.00     0.000 HD 
HETATM   20  C   UNL     1      -9.987   2.721  72.047  1.00  0.00    -0.156 A  
HETATM   21  N   UNL     1      -9.519   3.273  70.952  1.00  0.00    -0.155 NA 
ENDBRANCH  14  15
ENDBRANCH  13  14
ENDBRANCH  12  13
ENDBRANCH  11  12
ENDBRANCH   5  11
TORSDOF 5
ENDMDL
MODEL      315
REMARK 921   NORMALIZED FREE ENERGY PREDICTED BY IDOCK:   -2.65 KCAL/MOL
REMARK 922        TOTAL FREE ENERGY PREDICTED BY IDOCK:   -4.39 KCAL/MOL
REMARK 923 INTER-LIGAND FREE ENERGY PREDICTED BY IDOCK:   -4.09 KCAL/MOL
REMARK 924 INTRA-LIGAND FREE ENERGY PREDICTED BY IDOCK:   -0.30 KCAL/MOL
REMARK 927      BINDING AFFINITY PREDICTED BY RF-SCORE:    0.00 PKD
ROOT
HETATM    1  C   UNL     1      -8.969   7.072  66.908  1.00  0.00    -0.126 C  
HETATM    2  N   UNL     1      -9.381   8.369  66.429  1.00  0.00    -0.199 NA 
HETATM    3  C   UNL     1      -8.911   8.962  65.293  1.00  0.00    -0.184 C  
HETATM    4  H   UNL     1     -10.073   8.879  66.979  1.00  0.00     0.000 HD 
HETATM    5  N   UNL     1      -9.427  10.217  65.067  1.00  0.00    -0.248 NA 
HETATM    6  N   UNL     1      -8.060   8.332  64.540  1.00  0.00    -0.149 NA 
HETATM    7  C   UNL     1      -7.622   8.927  63.430  1.00  0.00    -0.110 C  
HETATM    8  H   UNL     1      -9.111  10.699  64.224  1.00  0.00     0.000 HD 
HETATM    9  N   UNL     1      -7.265   9.479  62.474  1.00  0.00    -0.100 NA 
HETATM   10  H   UNL     1      -7.734   7.400  64.792  1.00  0.00     0.000 HD 
ENDROOT
BRANCH   5  11
HETATM   11  C   UNL     1     -10.375  10.925  65.909  1.00  0.00    -0.250 C  
BRANCH  11  12
HETATM   12  C   UNL     1     -10.076  12.420  66.056  1.00  0.00    -0.251 C  
BRANCH  12  13
HETATM   13  S   UNL     1      -9.957  12.750  67.848  1.00  0.00    -0.235 SA 
BRANCH  13  14
HETATM   14  C   UNL     1     -11.705  13.084  68.238  1.00  0.00    -0.353 C  
BRANCH  14  15
HETATM   15  C   UNL     1     -12.095  12.329  69.468  1.00  0.00    -0.198 A  
HETATM   16  C   UNL     1     -12.605  12.802  70.666  1.00  0.00    -0.168 A  
HETATM   17  C   UNL     1     -12.920  14.164  71.151  1.00  0.00    -0.419 C  
HETATM   18  N   UNL     1     -12.824  11.680  71.425  1.00  0.00    -0.399 NA 
HETATM   19  H   UNL     1     -13.203  11.659  72.372  1.00  0.00     0.000 HD 
HETATM   20  C   UNL     1     -12.444  10.597  70.688  1.00  0.00    -0.371 A  
HETATM   21  N   UNL     1     -11.987  10.953  69.511  1.00  0.00    -0.325 NA 
ENDBRANCH  14  15
ENDBRANCH  13  14
ENDBRANCH  12  13
ENDBRANCH  11  12
ENDBRANCH   5  11
TORSDOF 5
ENDMDL
MODEL      316
REMARK 921   NORMALIZED FREE ENERGY PREDICTED BY IDOCK:   -2.63 KCAL/MOL
REMARK 922        TOTAL FREE ENERGY PREDICTED BY IDOCK:   -4.37 KCAL/MOL
REMARK 923 INTER-LIGAND FREE ENERGY PREDICTED BY IDOCK:   -4.00 KCAL/MOL
REMARK 924 INTRA-LIGAND FREE ENERGY PREDICTED BY IDOCK:   -0.36 KCAL/MOL
REMARK 927      BINDING AFFINITY PREDICTED BY RF-SCORE:    0.00 PKD
ROOT
HETATM    1  C   UNL     1      -7.447   6.003  69.719  1.00  0.00    -0.080 C  
HETATM    2  N   UNL     1      -8.006   7.289  69.379  1.00  0.00    -0.122 NA 
HETATM    3  C   UNL     1      -7.744   7.968  68.224  1.00  0.00    -0.117 C  
HETATM    4  H   UNL     1      -8.642   7.721  70.049  1.00  0.00     0.000 HD 
HETATM    5  N   UNL     1      -8.367   9.192  68.146  1.00  0.00    -0.120 NA 
HETATM    6  N   UNL     1      -6.973   7.438  67.323  1.00  0.00    -0.080 NA 
HETATM    7  C   UNL     1      -6.739   8.116  66.199  1.00  0.00    -0.054 C  
HETATM    8  H   UNL     1      -8.208   9.736  67.297  1.00  0.00     0.000 HD 
HETATM    9  N   UNL     1      -6.561   8.737  65.236  1.00  0.00    -0.067 NA 
HETATM   10  H   UNL     1      -6.555   6.520  67.472  1.00  0.00     0.000 HD 
ENDROOT
BRANCH   5  11
HETATM   11  C   UNL     1      -9.226   9.789  69.153  1.00  0.00    -0.176 C  
BRANCH  11  12
HETATM   12  C   UNL     1     -10.315  10.699  68.578  1.00  0.00    -0.183 C  
BRANCH  12  13
HETATM   13  S   UNL     1     -11.641  10.777  69.830  1.00  0.00    -0.360 SA 
BRANCH  13  14
HETATM   14  C   UNL     1     -11.143   9.409  70.924  1.00  0.00    -0.319 C  
BRANCH  14  15
HETATM   15  C   UNL     1     -12.345   8.601  71.292  1.00  0.00    -0.263 A  
HETATM   16  C   UNL     1     -12.455   7.237  71.510  1.00  0.00    -0.373 A  
HETATM   17  C   UNL     1     -11.474   6.131  71.445  1.00  0.00    -0.317 C  
HETATM   18  N   UNL     1     -13.767   7.039  71.861  1.00  0.00    -0.530 NA 
HETATM   19  H   UNL     1     -14.198   6.145  72.097  1.00  0.00     0.000 HD 
HETATM   20  C   UNL     1     -14.392   8.251  71.838  1.00  0.00    -0.476 A  
HETATM   21  N   UNL     1     -13.569   9.210  71.485  1.00  0.00    -0.368 NA 
ENDBRANCH  14  15
ENDBRANCH  13  14
ENDBRANCH  12  13
ENDBRANCH  11  12
ENDBRANCH   5  11
TORSDOF 5
ENDMDL
MODEL      317
REMARK 921   NORMALIZED FREE ENERGY PREDICTED BY IDOCK:   -2.62 KCAL/MOL
REMARK 922        TOTAL FREE ENERGY PREDICTED BY IDOCK:   -4.35 KCAL/MOL
REMARK 923 INTER-LIGAND FREE ENERGY PREDICTED BY IDOCK:   -4.18 KCAL/MOL
REMARK 924 INTRA-LIGAND FREE ENERGY PREDICTED BY IDOCK:   -0.16 KCAL/MOL
REMARK 927      BINDING AFFINITY PREDICTED BY RF-SCORE:    0.00 PKD
ROOT
HETATM    1  C   UNL     1      -6.709  11.202  69.348  1.00  0.00    -0.120 C  
HETATM    2  N   UNL     1      -7.373  10.380  68.366  1.00  0.00    -0.083 NA 
HETATM    3  C   UNL     1      -8.721  10.362  68.153  1.00  0.00    -0.125 C  
HETATM    4  H   UNL     1      -6.794   9.768  67.791  1.00  0.00     0.000 HD 
HETATM    5  N   UNL     1      -9.119   9.466  67.188  1.00  0.00    -0.129 NA 
HETATM    6  N   UNL     1      -9.494  11.154  68.833  1.00  0.00    -0.338 NA 
HETATM    7  C   UNL     1     -10.806  11.126  68.601  1.00  0.00    -0.209 C  
HETATM    8  H   UNL     1     -10.119   9.421  66.986  1.00  0.00     0.000 HD 
HETATM    9  N   UNL     1     -11.942  11.071  68.369  1.00  0.00    -0.581 NA 
HETATM   10  H   UNL     1      -9.104  11.786  69.531  1.00  0.00     0.000 HD 
ENDROOT
BRANCH   5  11
HETATM   11  C   UNL     1      -8.259   8.576  66.428  1.00  0.00    -0.108 C  
BRANCH  11  12
HETATM   12  C   UNL     1      -7.770   7.361  67.221  1.00  0.00    -0.116 C  
BRANCH  12  13
HETATM   13  S   UNL     1      -7.177   6.145  65.994  1.00  0.00    -0.077 SA 
BRANCH  13  14
HETATM   14  C   UNL     1      -8.060   4.654  66.553  1.00  0.00    -0.103 C  
BRANCH  14  15
HETATM   15  C   UNL     1      -9.345   4.523  65.800  1.00  0.00    -0.162 A  
HETATM   16  C   UNL     1     -10.552   5.173  65.999  1.00  0.00    -0.182 A  
HETATM   17  C   UNL     1     -10.997   6.174  66.993  1.00  0.00    -0.414 C  
HETATM   18  N   UNL     1     -11.372   4.711  65.001  1.00  0.00    -1.059 NA 
HETATM   19  H   UNL     1     -12.341   4.986  64.843  1.00  0.00     0.000 HD 
HETATM   20  C   UNL     1     -10.660   3.817  64.256  1.00  0.00    -0.228 A  
HETATM   21  N   UNL     1      -9.441   3.670  64.719  1.00  0.00    -0.151 NA 
ENDBRANCH  14  15
ENDBRANCH  13  14
ENDBRANCH  12  13
ENDBRANCH  11  12
ENDBRANCH   5  11
TORSDOF 5
ENDMDL
MODEL      318
REMARK 921   NORMALIZED FREE ENERGY PREDICTED BY IDOCK:   -2.62 KCAL/MOL
REMARK 922        TOTAL FREE ENERGY PREDICTED BY IDOCK:   -4.34 KCAL/MOL
REMARK 923 INTER-LIGAND FREE ENERGY PREDICTED BY IDOCK:   -4.04 KCAL/MOL
REMARK 924 INTRA-LIGAND FREE ENERGY PREDICTED BY IDOCK:   -0.30 KCAL/MOL
REMARK 927      BINDING AFFINITY PREDICTED BY RF-SCORE:    0.00 PKD
ROOT
HETATM    1  C   UNL     1      -9.404   3.594  68.932  1.00  0.00    -0.167 C  
HETATM    2  N   UNL     1      -9.884   4.733  68.188  1.00  0.00    -0.142 NA 
HETATM    3  C   UNL     1     -10.221   4.709  66.865  1.00  0.00    -0.155 C  
HETATM    4  H   UNL     1      -9.977   5.619  68.684  1.00  0.00     0.000 HD 
HETATM    5  N   UNL     1     -10.615   5.930  66.370  1.00  0.00    -0.483 NA 
HETATM    6  N   UNL     1     -10.158   3.594  66.202  1.00  0.00    -0.390 NA 
HETATM    7  C   UNL     1     -10.501   3.593  64.914  1.00  0.00     0.044 C  
HETATM    8  H   UNL     1     -10.885   5.962  65.386  1.00  0.00     0.000 HD 
HETATM    9  N   UNL     1     -10.807   3.634  63.795  1.00  0.00    -0.257 NA 
HETATM   10  H   UNL     1      -9.851   2.735  66.658  1.00  0.00     0.000 HD 
ENDROOT
BRANCH   5  11
HETATM   11  C   UNL     1     -10.683   7.179  67.108  1.00  0.00    -0.352 C  
BRANCH  11  12
HETATM   12  C   UNL     1      -9.419   8.035  66.995  1.00  0.00    -0.174 C  
BRANCH  12  13
HETATM   13  S   UNL     1      -8.601   7.970  68.626  1.00  0.00    -0.127 SA 
BRANCH  13  14
HETATM   14  C   UNL     1      -9.428   9.358  69.466  1.00  0.00    -0.180 C  
BRANCH  14  15
HETATM   15  C   UNL     1     -10.067   8.870  70.726  1.00  0.00    -0.226 A  
HETATM   16  C   UNL     1      -9.478   8.494  71.923  1.00  0.00    -0.280 A  
HETATM   17  C   UNL     1      -8.068   8.426  72.365  1.00  0.00    -0.185 C  
HETATM   18  N   UNL     1     -10.526   8.176  72.749  1.00  0.00    -0.334 NA 
HETATM   19  H   UNL     1     -10.454   7.861  73.717  1.00  0.00     0.000 HD 
HETATM   20  C   UNL     1     -11.681   8.356  72.046  1.00  0.00    -0.352 A  
HETATM   21  N   UNL     1     -11.440   8.759  70.821  1.00  0.00    -0.277 NA 
ENDBRANCH  14  15
ENDBRANCH  13  14
ENDBRANCH  12  13
ENDBRANCH  11  12
ENDBRANCH   5  11
TORSDOF 5
ENDMDL
MODEL      319
REMARK 921   NORMALIZED FREE ENERGY PREDICTED BY IDOCK:   -2.61 KCAL/MOL
REMARK 922        TOTAL FREE ENERGY PREDICTED BY IDOCK:   -4.34 KCAL/MOL
REMARK 923 INTER-LIGAND FREE ENERGY PREDICTED BY IDOCK:   -4.01 KCAL/MOL
REMARK 924 INTRA-LIGAND FREE ENERGY PREDICTED BY IDOCK:   -0.33 KCAL/MOL
REMARK 927      BINDING AFFINITY PREDICTED BY RF-SCORE:    0.00 PKD
ROOT
HETATM    1  C   UNL     1      -9.383   2.384  68.692  1.00  0.00    -0.182 C  
HETATM    2  N   UNL     1      -9.086   3.748  68.328  1.00  0.00    -0.130 NA 
HETATM    3  C   UNL     1      -9.435   4.842  69.066  1.00  0.00    -0.148 C  
HETATM    4  H   UNL     1      -8.580   3.907  67.457  1.00  0.00     0.000 HD 
HETATM    5  N   UNL     1      -9.075   6.039  68.492  1.00  0.00    -0.113 NA 
HETATM    6  N   UNL     1     -10.045   4.687  70.203  1.00  0.00    -0.244 NA 
HETATM    7  C   UNL     1     -10.368   5.769  70.912  1.00  0.00    -0.237 C  
HETATM    8  H   UNL     1      -9.307   6.886  69.011  1.00  0.00     0.000 HD 
HETATM    9  N   UNL     1     -10.631   6.735  71.497  1.00  0.00    -0.218 NA 
HETATM   10  H   UNL     1     -10.272   3.754  70.547  1.00  0.00     0.000 HD 
ENDROOT
BRANCH   5  11
HETATM   11  C   UNL     1      -8.396   6.216  67.220  1.00  0.00    -0.105 C  
BRANCH  11  12
HETATM   12  C   UNL     1      -9.123   7.158  66.257  1.00  0.00    -0.147 C  
BRANCH  12  13
HETATM   13  S   UNL     1     -10.174   8.242  67.285  1.00  0.00    -0.300 SA 
BRANCH  13  14
HETATM   14  C   UNL     1     -10.095   9.786  66.323  1.00  0.00    -0.243 C  
BRANCH  14  15
HETATM   15  C   UNL     1     -10.854  10.858  67.037  1.00  0.00    -0.266 A  
HETATM   16  C   UNL     1     -11.335  12.065  66.555  1.00  0.00    -0.354 A  
HETATM   17  C   UNL     1     -11.262  12.712  65.227  1.00  0.00    -0.335 C  
HETATM   18  N   UNL     1     -11.990  12.634  67.618  1.00  0.00    -0.403 NA 
HETATM   19  H   UNL     1     -12.471  13.533  67.616  1.00  0.00     0.000 HD 
HETATM   20  C   UNL     1     -11.882  11.784  68.679  1.00  0.00    -0.310 A  
HETATM   21  N   UNL     1     -11.192  10.712  68.367  1.00  0.00    -0.274 NA 
ENDBRANCH  14  15
ENDBRANCH  13  14
ENDBRANCH  12  13
ENDBRANCH  11  12
ENDBRANCH   5  11
TORSDOF 5
ENDMDL
MODEL      320
REMARK 921   NORMALIZED FREE ENERGY PREDICTED BY IDOCK:   -2.61 KCAL/MOL
REMARK 922        TOTAL FREE ENERGY PREDICTED BY IDOCK:   -4.33 KCAL/MOL
REMARK 923 INTER-LIGAND FREE ENERGY PREDICTED BY IDOCK:   -4.12 KCAL/MOL
REMARK 924 INTRA-LIGAND FREE ENERGY PREDICTED BY IDOCK:   -0.22 KCAL/MOL
REMARK 927      BINDING AFFINITY PREDICTED BY RF-SCORE:    0.00 PKD
ROOT
HETATM    1  C   UNL     1     -13.610  13.358  72.255  1.00  0.00    -0.605 C  
HETATM    2  N   UNL     1     -12.920  12.328  71.516  1.00  0.00    -0.354 NA 
HETATM    3  C   UNL     1     -12.428  12.477  70.252  1.00  0.00    -0.084 C  
HETATM    4  H   UNL     1     -12.792  11.424  71.971  1.00  0.00     0.000 HD 
HETATM    5  N   UNL     1     -11.844  11.339  69.745  1.00  0.00    -0.332 NA 
HETATM    6  N   UNL     1     -12.531  13.623  69.649  1.00  0.00    -0.217 NA 
HETATM    7  C   UNL     1     -12.035  13.748  68.418  1.00  0.00    -0.360 C  
HETATM    8  H   UNL     1     -11.453  11.402  68.804  1.00  0.00     0.000 HD 
HETATM    9  N   UNL     1     -11.591  13.815  67.348  1.00  0.00    -0.341 NA 
HETATM   10  H   UNL     1     -12.984  14.412  70.108  1.00  0.00     0.000 HD 
ENDROOT
BRANCH   5  11
HETATM   11  C   UNL     1     -11.730  10.056  70.415  1.00  0.00    -0.286 C  
BRANCH  11  12
HETATM   12  C   UNL     1     -10.290   9.660  70.754  1.00  0.00    -0.286 C  
BRANCH  12  13
HETATM   13  S   UNL     1      -9.720   8.569  69.406  1.00  0.00    -0.180 SA 
BRANCH  13  14
HETATM   14  C   UNL     1      -8.511   9.658  68.589  1.00  0.00    -0.119 C  
BRANCH  14  15
HETATM   15  C   UNL     1      -8.600   9.481  67.107  1.00  0.00    -0.132 A  
HETATM   16  C   UNL     1      -8.904  10.411  66.127  1.00  0.00    -0.158 A  
HETATM   17  C   UNL     1      -9.253  11.848  66.185  1.00  0.00    -0.204 C  
HETATM   18  N   UNL     1      -8.801   9.725  64.943  1.00  0.00    -0.182 NA 
HETATM   19  H   UNL     1      -8.955  10.108  64.011  1.00  0.00     0.000 HD 
HETATM   20  C   UNL     1      -8.455   8.438  65.236  1.00  0.00    -0.171 A  
HETATM   21  N   UNL     1      -8.341   8.254  66.530  1.00  0.00    -0.109 NA 
ENDBRANCH  14  15
ENDBRANCH  13  14
ENDBRANCH  12  13
ENDBRANCH  11  12
ENDBRANCH   5  11
TORSDOF 5
ENDMDL
MODEL      321
REMARK 921   NORMALIZED FREE ENERGY PREDICTED BY IDOCK:   -2.60 KCAL/MOL
REMARK 922        TOTAL FREE ENERGY PREDICTED BY IDOCK:   -4.33 KCAL/MOL
REMARK 923 INTER-LIGAND FREE ENERGY PREDICTED BY IDOCK:   -4.11 KCAL/MOL
REMARK 924 INTRA-LIGAND FREE ENERGY PREDICTED BY IDOCK:   -0.22 KCAL/MOL
REMARK 927      BINDING AFFINITY PREDICTED BY RF-SCORE:    0.00 PKD
ROOT
HETATM    1  C   UNL     1     -10.398   7.523  70.166  1.00  0.00    -0.216 C  
HETATM    2  N   UNL     1     -10.169   8.576  69.207  1.00  0.00    -0.204 NA 
HETATM    3  C   UNL     1      -8.962   9.176  68.987  1.00  0.00    -0.143 C  
HETATM    4  H   UNL     1     -10.964   8.895  68.654  1.00  0.00     0.000 HD 
HETATM    5  N   UNL     1      -9.004  10.181  68.049  1.00  0.00    -0.125 NA 
HETATM    6  N   UNL     1      -7.912   8.774  69.638  1.00  0.00    -0.093 NA 
HETATM    7  C   UNL     1      -6.743   9.368  69.401  1.00  0.00    -0.048 C  
HETATM    8  H   UNL     1      -8.123  10.655  67.843  1.00  0.00     0.000 HD 
HETATM    9  N   UNL     1      -5.745   9.911  69.165  1.00  0.00    -0.035 NA 
HETATM   10  H   UNL     1      -7.981   8.018  70.318  1.00  0.00     0.000 HD 
ENDROOT
BRANCH   5  11
HETATM   11  C   UNL     1     -10.176  10.634  67.321  1.00  0.00    -0.208 C  
BRANCH  11  12
HETATM   12  C   UNL     1     -10.113  12.105  66.901  1.00  0.00    -0.206 C  
BRANCH  12  13
HETATM   13  S   UNL     1     -11.697  12.859  67.410  1.00  0.00    -0.361 SA 
BRANCH  13  14
HETATM   14  C   UNL     1     -11.107  14.069  68.637  1.00  0.00    -0.264 C  
BRANCH  14  15
HETATM   15  C   UNL     1     -12.047  14.101  69.798  1.00  0.00    -0.354 A  
HETATM   16  C   UNL     1     -12.488  13.063  70.603  1.00  0.00    -0.268 A  
HETATM   17  C   UNL     1     -12.215  11.609  70.598  1.00  0.00    -0.461 C  
HETATM   18  N   UNL     1     -13.298  13.658  71.536  1.00  0.00    -0.325 NA 
HETATM   19  H   UNL     1     -13.791  13.185  72.294  1.00  0.00     0.000 HD 
HETATM   20  C   UNL     1     -13.329  14.996  71.271  1.00  0.00    -0.438 A  
HETATM   21  N   UNL     1     -12.598  15.294  70.222  1.00  0.00    -0.366 NA 
ENDBRANCH  14  15
ENDBRANCH  13  14
ENDBRANCH  12  13
ENDBRANCH  11  12
ENDBRANCH   5  11
TORSDOF 5
ENDMDL
MODEL      322
REMARK 921   NORMALIZED FREE ENERGY PREDICTED BY IDOCK:   -2.58 KCAL/MOL
REMARK 922        TOTAL FREE ENERGY PREDICTED BY IDOCK:   -4.30 KCAL/MOL
REMARK 923 INTER-LIGAND FREE ENERGY PREDICTED BY IDOCK:   -3.98 KCAL/MOL
REMARK 924 INTRA-LIGAND FREE ENERGY PREDICTED BY IDOCK:   -0.33 KCAL/MOL
REMARK 927      BINDING AFFINITY PREDICTED BY RF-SCORE:    0.00 PKD
ROOT
HETATM    1  C   UNL     1      -6.693   6.504  69.813  1.00  0.00    -0.050 C  
HETATM    2  N   UNL     1      -7.606   7.337  69.068  1.00  0.00    -0.097 NA 
HETATM    3  C   UNL     1      -8.915   7.539  69.396  1.00  0.00    -0.139 C  
HETATM    4  H   UNL     1      -7.247   7.808  68.238  1.00  0.00     0.000 HD 
HETATM    5  N   UNL     1      -9.592   8.344  68.509  1.00  0.00    -0.147 NA 
HETATM    6  N   UNL     1      -9.406   6.992  70.467  1.00  0.00    -0.159 NA 
HETATM    7  C   UNL     1     -10.685   7.211  70.772  1.00  0.00    -0.231 C  
HETATM    8  H   UNL     1     -10.574   8.532  68.715  1.00  0.00     0.000 HD 
HETATM    9  N   UNL     1     -11.802   7.426  71.001  1.00  0.00    -0.302 NA 
HETATM   10  H   UNL     1      -8.823   6.407  71.065  1.00  0.00     0.000 HD 
ENDROOT
BRANCH   5  11
HETATM   11  C   UNL     1      -9.048   8.954  67.309  1.00  0.00    -0.134 C  
BRANCH  11  12
HETATM   12  C   UNL     1      -9.977   9.985  66.662  1.00  0.00    -0.216 C  
BRANCH  12  13
HETATM   13  S   UNL     1     -11.067  10.605  67.989  1.00  0.00    -0.308 SA 
BRANCH  13  14
HETATM   14  C   UNL     1     -10.445  12.309  68.158  1.00  0.00    -0.217 C  
BRANCH  14  15
HETATM   15  C   UNL     1     -11.366  13.091  69.038  1.00  0.00    -0.289 A  
HETATM   16  C   UNL     1     -11.717  14.430  68.975  1.00  0.00    -0.310 A  
HETATM   17  C   UNL     1     -11.316  15.527  68.066  1.00  0.00    -0.332 C  
HETATM   18  N   UNL     1     -12.621  14.607  69.991  1.00  0.00    -0.525 NA 
HETATM   19  H   UNL     1     -13.092  15.480  70.231  1.00  0.00     0.000 HD 
HETATM   20  C   UNL     1     -12.779  13.409  70.623  1.00  0.00    -0.176 A  
HETATM   21  N   UNL     1     -12.026  12.479  70.084  1.00  0.00    -0.343 NA 
ENDBRANCH  14  15
ENDBRANCH  13  14
ENDBRANCH  12  13
ENDBRANCH  11  12
ENDBRANCH   5  11
TORSDOF 5
ENDMDL
MODEL      323
REMARK 921   NORMALIZED FREE ENERGY PREDICTED BY IDOCK:   -2.58 KCAL/MOL
REMARK 922        TOTAL FREE ENERGY PREDICTED BY IDOCK:   -4.30 KCAL/MOL
REMARK 923 INTER-LIGAND FREE ENERGY PREDICTED BY IDOCK:   -3.99 KCAL/MOL
REMARK 924 INTRA-LIGAND FREE ENERGY PREDICTED BY IDOCK:   -0.31 KCAL/MOL
REMARK 927      BINDING AFFINITY PREDICTED BY RF-SCORE:    0.00 PKD
ROOT
HETATM    1  C   UNL     1      -6.614  15.980  67.198  1.00  0.00    -0.142 C  
HETATM    2  N   UNL     1      -7.975  15.504  67.254  1.00  0.00    -0.184 NA 
HETATM    3  C   UNL     1      -9.074  16.308  67.352  1.00  0.00    -0.195 C  
HETATM    4  H   UNL     1      -8.126  14.496  67.218  1.00  0.00     0.000 HD 
HETATM    5  N   UNL     1     -10.262  15.618  67.428  1.00  0.00    -0.259 NA 
HETATM    6  N   UNL     1      -8.932  17.599  67.360  1.00  0.00    -0.230 NA 
HETATM    7  C   UNL     1     -10.020  18.364  67.448  1.00  0.00    -0.334 C  
HETATM    8  H   UNL     1     -11.114  16.176  67.495  1.00  0.00     0.000 HD 
HETATM    9  N   UNL     1     -10.992  18.994  67.525  1.00  0.00    -0.388 NA 
HETATM   10  H   UNL     1      -8.006  18.020  67.299  1.00  0.00     0.000 HD 
ENDROOT
BRANCH   5  11
HETATM   11  C   UNL     1     -10.423  14.175  67.424  1.00  0.00    -0.271 C  
BRANCH  11  12
HETATM   12  C   UNL     1     -11.433  13.662  68.454  1.00  0.00    -0.311 C  
BRANCH  12  13
HETATM   13  S   UNL     1     -10.928  11.957  68.871  1.00  0.00    -0.231 SA 
BRANCH  13  14
HETATM   14  C   UNL     1     -11.218  11.127  67.276  1.00  0.00    -0.277 C  
BRANCH  14  15
HETATM   15  C   UNL     1      -9.955  10.473  66.817  1.00  0.00    -0.204 A  
HETATM   16  C   UNL     1      -9.591   9.137  66.860  1.00  0.00    -0.178 A  
HETATM   17  C   UNL     1     -10.277   7.929  67.368  1.00  0.00    -0.320 C  
HETATM   18  N   UNL     1      -8.354   9.088  66.269  1.00  0.00    -0.117 NA 
HETATM   19  H   UNL     1      -7.788   8.251  66.128  1.00  0.00     0.000 HD 
HETATM   20  C   UNL     1      -8.015  10.358  65.904  1.00  0.00    -0.151 A  
HETATM   21  N   UNL     1      -8.951  11.217  66.232  1.00  0.00    -0.193 NA 
ENDBRANCH  14  15
ENDBRANCH  13  14
ENDBRANCH  12  13
ENDBRANCH  11  12
ENDBRANCH   5  11
TORSDOF 5
ENDMDL
MODEL      324
REMARK 921   NORMALIZED FREE ENERGY PREDICTED BY IDOCK:   -2.57 KCAL/MOL
REMARK 922        TOTAL FREE ENERGY PREDICTED BY IDOCK:   -4.28 KCAL/MOL
REMARK 923 INTER-LIGAND FREE ENERGY PREDICTED BY IDOCK:   -3.87 KCAL/MOL
REMARK 924 INTRA-LIGAND FREE ENERGY PREDICTED BY IDOCK:   -0.41 KCAL/MOL
REMARK 927      BINDING AFFINITY PREDICTED BY RF-SCORE:    0.00 PKD
ROOT
HETATM    1  C   UNL     1      -8.405   8.079  73.562  1.00  0.00    -0.233 C  
HETATM    2  N   UNL     1      -8.652   7.186  72.456  1.00  0.00    -0.115 NA 
HETATM    3  C   UNL     1      -9.888   6.894  71.956  1.00  0.00    -0.162 C  
HETATM    4  H   UNL     1      -7.846   6.742  72.016  1.00  0.00     0.000 HD 
HETATM    5  N   UNL     1      -9.869   5.985  70.923  1.00  0.00    -0.180 NA 
HETATM    6  N   UNL     1     -10.940   7.467  72.457  1.00  0.00    -0.286 NA 
HETATM    7  C   UNL     1     -12.136   7.173  71.947  1.00  0.00    -0.321 C  
HETATM    8  H   UNL     1     -10.770   5.740  70.510  1.00  0.00     0.000 HD 
HETATM    9  N   UNL     1     -13.158   6.890  71.475  1.00  0.00    -0.331 NA 
HETATM   10  H   UNL     1     -10.853   8.130  73.227  1.00  0.00     0.000 HD 
ENDROOT
BRANCH   5  11
HETATM   11  C   UNL     1      -8.695   5.339  70.363  1.00  0.00    -0.127 C  
BRANCH  11  12
HETATM   12  C   UNL     1      -8.627   3.834  70.635  1.00  0.00    -0.071 C  
BRANCH  12  13
HETATM   13  S   UNL     1      -9.237   3.006  69.126  1.00  0.00    -0.152 SA 
BRANCH  13  14
HETATM   14  C   UNL     1      -8.565   4.115  67.847  1.00  0.00    -0.096 C  
BRANCH  14  15
HETATM   15  C   UNL     1      -9.502   4.159  66.683  1.00  0.00    -0.191 A  
HETATM   16  C   UNL     1     -10.433   5.126  66.339  1.00  0.00    -0.303 A  
HETATM   17  C   UNL     1     -10.835   6.399  66.976  1.00  0.00    -0.464 C  
HETATM   18  N   UNL     1     -10.982   4.685  65.161  1.00  0.00    -0.805 NA 
HETATM   19  H   UNL     1     -11.705   5.160  64.620  1.00  0.00     0.000 HD 
HETATM   20  C   UNL     1     -10.390   3.499  64.843  1.00  0.00     0.068 A  
HETATM   21  N   UNL     1      -9.505   3.146  65.745  1.00  0.00    -0.103 NA 
ENDBRANCH  14  15
ENDBRANCH  13  14
ENDBRANCH  12  13
ENDBRANCH  11  12
ENDBRANCH   5  11
TORSDOF 5
ENDMDL
MODEL      325
REMARK 921   NORMALIZED FREE ENERGY PREDICTED BY IDOCK:   -2.56 KCAL/MOL
REMARK 922        TOTAL FREE ENERGY PREDICTED BY IDOCK:   -4.27 KCAL/MOL
REMARK 923 INTER-LIGAND FREE ENERGY PREDICTED BY IDOCK:   -3.99 KCAL/MOL
REMARK 924 INTRA-LIGAND FREE ENERGY PREDICTED BY IDOCK:   -0.28 KCAL/MOL
REMARK 927      BINDING AFFINITY PREDICTED BY RF-SCORE:    0.00 PKD
ROOT
HETATM    1  C   UNL     1     -12.899  13.326  71.560  1.00  0.00    -0.327 C  
HETATM    2  N   UNL     1     -12.238  12.279  70.819  1.00  0.00    -0.439 NA 
HETATM    3  C   UNL     1     -11.855  12.377  69.513  1.00  0.00    -0.303 C  
HETATM    4  H   UNL     1     -12.043  11.405  71.306  1.00  0.00     0.000 HD 
HETATM    5  N   UNL     1     -11.276  11.232  69.016  1.00  0.00    -0.234 NA 
HETATM    6  N   UNL     1     -12.045  13.487  68.864  1.00  0.00    -0.327 NA 
HETATM    7  C   UNL     1     -11.654  13.562  67.592  1.00  0.00    -0.339 C  
HETATM    8  H   UNL     1     -10.965  11.258  68.044  1.00  0.00     0.000 HD 
HETATM    9  N   UNL     1     -11.300  13.586  66.487  1.00  0.00    -0.311 NA 
HETATM   10  H   UNL     1     -12.485  14.285  69.320  1.00  0.00     0.000 HD 
ENDROOT
BRANCH   5  11
HETATM   11  C   UNL     1     -11.065   9.989  69.737  1.00  0.00    -0.274 C  
BRANCH  11  12
HETATM   12  C   UNL     1      -9.629   9.464  69.659  1.00  0.00    -0.188 C  
BRANCH  12  13
HETATM   13  S   UNL     1      -9.746   7.644  69.570  1.00  0.00    -0.169 SA 
BRANCH  13  14
HETATM   14  C   UNL     1      -8.163   7.174  70.338  1.00  0.00    -0.126 C  
BRANCH  14  15
HETATM   15  C   UNL     1      -8.424   6.357  71.562  1.00  0.00    -0.129 A  
HETATM   16  C   UNL     1      -8.939   6.749  72.787  1.00  0.00    -0.127 A  
HETATM   17  C   UNL     1      -9.383   8.059  73.313  1.00  0.00    -0.344 C  
HETATM   18  N   UNL     1      -9.008   5.595  73.527  1.00  0.00    -0.125 NA 
HETATM   19  H   UNL     1      -9.349   5.515  74.485  1.00  0.00     0.000 HD 
HETATM   20  C   UNL     1      -8.540   4.574  72.753  1.00  0.00    -0.113 A  
HETATM   21  N   UNL     1      -8.166   5.001  71.570  1.00  0.00    -0.112 NA 
ENDBRANCH  14  15
ENDBRANCH  13  14
ENDBRANCH  12  13
ENDBRANCH  11  12
ENDBRANCH   5  11
TORSDOF 5
ENDMDL
MODEL      326
REMARK 921   NORMALIZED FREE ENERGY PREDICTED BY IDOCK:   -2.56 KCAL/MOL
REMARK 922        TOTAL FREE ENERGY PREDICTED BY IDOCK:   -4.27 KCAL/MOL
REMARK 923 INTER-LIGAND FREE ENERGY PREDICTED BY IDOCK:   -3.90 KCAL/MOL
REMARK 924 INTRA-LIGAND FREE ENERGY PREDICTED BY IDOCK:   -0.37 KCAL/MOL
REMARK 927      BINDING AFFINITY PREDICTED BY RF-SCORE:    0.00 PKD
ROOT
HETATM    1  C   UNL     1      -9.129  15.097  66.510  1.00  0.00    -0.294 C  
HETATM    2  N   UNL     1      -9.182  13.657  66.432  1.00  0.00    -0.453 NA 
HETATM    3  C   UNL     1     -10.024  12.954  65.620  1.00  0.00    -0.235 C  
HETATM    4  H   UNL     1      -8.544  13.127  67.026  1.00  0.00     0.000 HD 
HETATM    5  N   UNL     1      -9.913  11.589  65.753  1.00  0.00    -0.224 NA 
HETATM    6  N   UNL     1     -10.824  13.586  64.815  1.00  0.00    -0.359 NA 
HETATM    7  C   UNL     1     -11.631  12.879  64.025  1.00  0.00    -0.426 C  
HETATM    8  H   UNL     1     -10.517  11.019  65.160  1.00  0.00     0.000 HD 
HETATM    9  N   UNL     1     -12.317  12.226  63.354  1.00  0.00    -0.592 NA 
HETATM   10  H   UNL     1     -10.835  14.605  64.789  1.00  0.00     0.000 HD 
ENDROOT
BRANCH   5  11
HETATM   11  C   UNL     1      -9.022  10.879  66.653  1.00  0.00    -0.164 C  
BRANCH  11  12
HETATM   12  C   UNL     1      -7.932  10.075  65.940  1.00  0.00    -0.124 C  
BRANCH  12  13
HETATM   13  S   UNL     1      -8.086   8.354  66.531  1.00  0.00    -0.102 SA 
BRANCH  13  14
HETATM   14  C   UNL     1      -9.386   8.553  67.791  1.00  0.00    -0.137 C  
BRANCH  14  15
HETATM   15  C   UNL     1      -8.822   8.251  69.142  1.00  0.00    -0.143 A  
HETATM   16  C   UNL     1      -8.809   7.055  69.842  1.00  0.00    -0.142 A  
HETATM   17  C   UNL     1      -9.337   5.709  69.532  1.00  0.00    -0.165 C  
HETATM   18  N   UNL     1      -8.130   7.332  71.001  1.00  0.00    -0.102 NA 
HETATM   19  H   UNL     1      -7.928   6.672  71.752  1.00  0.00     0.000 HD 
HETATM   20  C   UNL     1      -7.771   8.648  70.971  1.00  0.00    -0.108 A  
HETATM   21  N   UNL     1      -8.185   9.233  69.872  1.00  0.00    -0.128 NA 
ENDBRANCH  14  15
ENDBRANCH  13  14
ENDBRANCH  12  13
ENDBRANCH  11  12
ENDBRANCH   5  11
TORSDOF 5
ENDMDL
MODEL      327
REMARK 921   NORMALIZED FREE ENERGY PREDICTED BY IDOCK:   -2.55 KCAL/MOL
REMARK 922        TOTAL FREE ENERGY PREDICTED BY IDOCK:   -4.26 KCAL/MOL
REMARK 923 INTER-LIGAND FREE ENERGY PREDICTED BY IDOCK:   -3.66 KCAL/MOL
REMARK 924 INTRA-LIGAND FREE ENERGY PREDICTED BY IDOCK:   -0.61 KCAL/MOL
REMARK 927      BINDING AFFINITY PREDICTED BY RF-SCORE:    0.00 PKD
ROOT
HETATM    1  C   UNL     1      -6.615  12.843  68.620  1.00  0.00    -0.091 C  
HETATM    2  N   UNL     1      -7.799  12.041  68.813  1.00  0.00    -0.289 NA 
HETATM    3  C   UNL     1      -9.056  12.409  68.430  1.00  0.00    -0.141 C  
HETATM    4  H   UNL     1      -7.688  11.135  69.267  1.00  0.00     0.000 HD 
HETATM    5  N   UNL     1     -10.028  11.492  68.757  1.00  0.00    -0.320 NA 
HETATM    6  N   UNL     1      -9.239  13.536  67.810  1.00  0.00    -0.203 NA 
HETATM    7  C   UNL     1     -10.475  13.871  67.438  1.00  0.00    -0.263 C  
HETATM    8  H   UNL     1     -10.985  11.719  68.484  1.00  0.00     0.000 HD 
HETATM    9  N   UNL     1     -11.564  14.125  67.131  1.00  0.00    -0.356 NA 
HETATM   10  H   UNL     1      -8.452  14.153  67.612  1.00  0.00     0.000 HD 
ENDROOT
BRANCH   5  11
HETATM   11  C   UNL     1      -9.827  10.233  69.453  1.00  0.00    -0.227 C  
BRANCH  11  12
HETATM   12  C   UNL     1     -10.535   9.044  68.798  1.00  0.00    -0.206 C  
BRANCH  12  13
HETATM   13  S   UNL     1      -9.253   7.778  68.499  1.00  0.00    -0.136 SA 
BRANCH  13  14
HETATM   14  C   UNL     1      -8.028   8.761  67.577  1.00  0.00    -0.102 C  
BRANCH  14  15
HETATM   15  C   UNL     1      -8.219   8.547  66.110  1.00  0.00    -0.115 A  
HETATM   16  C   UNL     1      -9.016   9.244  65.216  1.00  0.00    -0.213 A  
HETATM   17  C   UNL     1      -9.938  10.389  65.380  1.00  0.00    -0.362 C  
HETATM   18  N   UNL     1      -8.778   8.657  63.998  1.00  0.00    -0.420 NA 
HETATM   19  H   UNL     1      -9.199   8.926  63.109  1.00  0.00     0.000 HD 
HETATM   20  C   UNL     1      -7.878   7.650  64.189  1.00  0.00    -0.133 A  
HETATM   21  N   UNL     1      -7.533   7.547  65.450  1.00  0.00    -0.078 NA 
ENDBRANCH  14  15
ENDBRANCH  13  14
ENDBRANCH  12  13
ENDBRANCH  11  12
ENDBRANCH   5  11
TORSDOF 5
ENDMDL
MODEL      328
REMARK 921   NORMALIZED FREE ENERGY PREDICTED BY IDOCK:   -2.55 KCAL/MOL
REMARK 922        TOTAL FREE ENERGY PREDICTED BY IDOCK:   -4.25 KCAL/MOL
REMARK 923 INTER-LIGAND FREE ENERGY PREDICTED BY IDOCK:   -3.96 KCAL/MOL
REMARK 924 INTRA-LIGAND FREE ENERGY PREDICTED BY IDOCK:   -0.30 KCAL/MOL
REMARK 927      BINDING AFFINITY PREDICTED BY RF-SCORE:    0.00 PKD
ROOT
HETATM    1  C   UNL     1      -6.635  12.898  68.576  1.00  0.00    -0.087 C  
HETATM    2  N   UNL     1      -7.878  12.185  68.742  1.00  0.00    -0.301 NA 
HETATM    3  C   UNL     1      -9.099  12.655  68.355  1.00  0.00    -0.128 C  
HETATM    4  H   UNL     1      -7.841  11.264  69.181  1.00  0.00     0.000 HD 
HETATM    5  N   UNL     1     -10.141  11.808  68.655  1.00  0.00    -0.288 NA 
HETATM    6  N   UNL     1      -9.190  13.804  67.755  1.00  0.00    -0.197 NA 
HETATM    7  C   UNL     1     -10.392  14.238  67.378  1.00  0.00    -0.259 C  
HETATM    8  H   UNL     1     -11.075  12.112  68.377  1.00  0.00     0.000 HD 
HETATM    9  N   UNL     1     -11.456  14.580  67.065  1.00  0.00    -0.357 NA 
HETATM   10  H   UNL     1      -8.356  14.363  67.577  1.00  0.00     0.000 HD 
ENDROOT
BRANCH   5  11
HETATM   11  C   UNL     1     -10.044  10.525  69.328  1.00  0.00    -0.224 C  
BRANCH  11  12
HETATM   12  C   UNL     1     -10.892   9.423  68.687  1.00  0.00    -0.109 C  
BRANCH  12  13
HETATM   13  S   UNL     1      -9.742   8.078  68.237  1.00  0.00    -0.169 SA 
BRANCH  13  14
HETATM   14  C   UNL     1     -10.861   6.644  68.329  1.00  0.00    -0.254 C  
BRANCH  14  15
HETATM   15  C   UNL     1     -10.621   5.905  69.606  1.00  0.00    -0.313 A  
HETATM   16  C   UNL     1     -11.193   6.096  70.853  1.00  0.00    -0.299 A  
HETATM   17  C   UNL     1     -12.189   7.066  71.359  1.00  0.00    -0.407 C  
HETATM   18  N   UNL     1     -10.648   5.118  71.646  1.00  0.00    -0.192 NA 
HETATM   19  H   UNL     1     -10.853   4.961  72.633  1.00  0.00     0.000 HD 
HETATM   20  C   UNL     1      -9.785   4.391  70.879  1.00  0.00    -0.197 A  
HETATM   21  N   UNL     1      -9.734   4.848  69.650  1.00  0.00    -0.177 NA 
ENDBRANCH  14  15
ENDBRANCH  13  14
ENDBRANCH  12  13
ENDBRANCH  11  12
ENDBRANCH   5  11
TORSDOF 5
ENDMDL
MODEL      329
REMARK 921   NORMALIZED FREE ENERGY PREDICTED BY IDOCK:   -2.54 KCAL/MOL
REMARK 922        TOTAL FREE ENERGY PREDICTED BY IDOCK:   -4.25 KCAL/MOL
REMARK 923 INTER-LIGAND FREE ENERGY PREDICTED BY IDOCK:   -4.07 KCAL/MOL
REMARK 924 INTRA-LIGAND FREE ENERGY PREDICTED BY IDOCK:   -0.18 KCAL/MOL
REMARK 927      BINDING AFFINITY PREDICTED BY RF-SCORE:    0.00 PKD
ROOT
HETATM    1  C   UNL     1      -8.590   9.079  66.235  1.00  0.00    -0.128 C  
HETATM    2  N   UNL     1      -8.851  10.245  67.044  1.00  0.00    -0.136 NA 
HETATM    3  C   UNL     1      -9.025  10.226  68.398  1.00  0.00    -0.132 C  
HETATM    4  H   UNL     1      -8.911  11.146  66.571  1.00  0.00     0.000 HD 
HETATM    5  N   UNL     1      -9.301  11.460  68.939  1.00  0.00    -0.380 NA 
HETATM    6  N   UNL     1      -8.917   9.107  69.048  1.00  0.00    -0.141 NA 
HETATM    7  C   UNL     1      -9.082   9.115  70.371  1.00  0.00    -0.233 C  
HETATM    8  H   UNL     1      -9.431  11.500  69.951  1.00  0.00     0.000 HD 
HETATM    9  N   UNL     1      -9.232   9.165  71.520  1.00  0.00    -0.321 NA 
HETATM   10  H   UNL     1      -8.710   8.239  68.556  1.00  0.00     0.000 HD 
ENDROOT
BRANCH   5  11
HETATM   11  C   UNL     1      -9.426  12.713  68.215  1.00  0.00    -0.203 C  
BRANCH  11  12
HETATM   12  C   UNL     1      -8.117  13.499  68.107  1.00  0.00    -0.154 C  
BRANCH  12  13
HETATM   13  S   UNL     1      -8.422  15.123  68.884  1.00  0.00    -0.211 SA 
BRANCH  13  14
HETATM   14  C   UNL     1      -8.806  16.126  67.412  1.00  0.00    -0.187 C  
BRANCH  14  15
HETATM   15  C   UNL     1      -9.021  17.548  67.819  1.00  0.00    -0.245 A  
HETATM   16  C   UNL     1      -8.118  18.597  67.861  1.00  0.00    -0.264 A  
HETATM   17  C   UNL     1      -6.674  18.688  67.549  1.00  0.00    -0.201 C  
HETATM   18  N   UNL     1      -8.854  19.683  68.263  1.00  0.00    -0.325 NA 
HETATM   19  H   UNL     1      -8.504  20.631  68.396  1.00  0.00     0.000 HD 
HETATM   20  C   UNL     1     -10.140  19.268  68.454  1.00  0.00    -0.431 A  
HETATM   21  N   UNL     1     -10.271  17.985  68.209  1.00  0.00    -0.378 NA 
ENDBRANCH  14  15
ENDBRANCH  13  14
ENDBRANCH  12  13
ENDBRANCH  11  12
ENDBRANCH   5  11
TORSDOF 5
ENDMDL
MODEL      330
REMARK 921   NORMALIZED FREE ENERGY PREDICTED BY IDOCK:   -2.54 KCAL/MOL
REMARK 922        TOTAL FREE ENERGY PREDICTED BY IDOCK:   -4.25 KCAL/MOL
REMARK 923 INTER-LIGAND FREE ENERGY PREDICTED BY IDOCK:   -3.96 KCAL/MOL
REMARK 924 INTRA-LIGAND FREE ENERGY PREDICTED BY IDOCK:   -0.29 KCAL/MOL
REMARK 927      BINDING AFFINITY PREDICTED BY RF-SCORE:    0.00 PKD
ROOT
HETATM    1  C   UNL     1      -7.687   5.885  66.135  1.00  0.00    -0.102 C  
HETATM    2  N   UNL     1      -8.463   7.100  66.207  1.00  0.00    -0.131 NA 
HETATM    3  C   UNL     1      -8.389   8.122  65.305  1.00  0.00    -0.152 C  
HETATM    4  H   UNL     1      -9.112   7.202  66.987  1.00  0.00     0.000 HD 
HETATM    5  N   UNL     1      -9.199   9.191  65.610  1.00  0.00    -0.225 NA 
HETATM    6  N   UNL     1      -7.607   8.019  64.273  1.00  0.00    -0.110 NA 
HETATM    7  C   UNL     1      -7.558   9.026  63.401  1.00  0.00    -0.107 C  
HETATM    8  H   UNL     1      -9.185   9.978  64.961  1.00  0.00     0.000 HD 
HETATM    9  N   UNL     1      -7.545   9.924  62.667  1.00  0.00    -0.119 NA 
HETATM   10  H   UNL     1      -7.041   7.182  64.132  1.00  0.00     0.000 HD 
ENDROOT
BRANCH   5  11
HETATM   11  C   UNL     1     -10.072   9.311  66.765  1.00  0.00    -0.261 C  
BRANCH  11  12
HETATM   12  C   UNL     1     -10.476  10.752  67.088  1.00  0.00    -0.237 C  
BRANCH  12  13
HETATM   13  S   UNL     1     -10.882  11.547  65.495  1.00  0.00    -0.219 SA 
BRANCH  13  14
HETATM   14  C   UNL     1     -11.671  13.080  66.082  1.00  0.00    -0.394 C  
BRANCH  14  15
HETATM   15  C   UNL     1     -10.686  14.203  66.020  1.00  0.00    -0.299 A  
HETATM   16  C   UNL     1     -10.738  15.378  65.287  1.00  0.00    -0.421 A  
HETATM   17  C   UNL     1     -11.729  15.918  64.331  1.00  0.00    -0.179 C  
HETATM   18  N   UNL     1      -9.603  16.064  65.639  1.00  0.00    -0.427 NA 
HETATM   19  H   UNL     1      -9.321  16.980  65.290  1.00  0.00     0.000 HD 
HETATM   20  C   UNL     1      -8.917  15.303  66.540  1.00  0.00    -0.305 A  
HETATM   21  N   UNL     1      -9.535  14.170  66.780  1.00  0.00    -0.269 NA 
ENDBRANCH  14  15
ENDBRANCH  13  14
ENDBRANCH  12  13
ENDBRANCH  11  12
ENDBRANCH   5  11
TORSDOF 5
ENDMDL
MODEL      331
REMARK 921   NORMALIZED FREE ENERGY PREDICTED BY IDOCK:   -2.54 KCAL/MOL
REMARK 922        TOTAL FREE ENERGY PREDICTED BY IDOCK:   -4.25 KCAL/MOL
REMARK 923 INTER-LIGAND FREE ENERGY PREDICTED BY IDOCK:   -3.82 KCAL/MOL
REMARK 924 INTRA-LIGAND FREE ENERGY PREDICTED BY IDOCK:   -0.43 KCAL/MOL
REMARK 927      BINDING AFFINITY PREDICTED BY RF-SCORE:    0.00 PKD
ROOT
HETATM    1  C   UNL     1      -8.657   5.577  66.327  1.00  0.00    -0.125 C  
HETATM    2  N   UNL     1      -9.022   6.536  67.342  1.00  0.00    -0.111 NA 
HETATM    3  C   UNL     1      -8.802   6.373  68.679  1.00  0.00    -0.120 C  
HETATM    4  H   UNL     1      -9.476   7.398  67.038  1.00  0.00     0.000 HD 
HETATM    5  N   UNL     1      -9.274   7.409  69.451  1.00  0.00    -0.146 NA 
HETATM    6  N   UNL     1      -8.190   5.311  69.109  1.00  0.00    -0.091 NA 
HETATM    7  C   UNL     1      -7.978   5.177  70.418  1.00  0.00    -0.086 C  
HETATM    8  H   UNL     1      -9.126   7.337  70.458  1.00  0.00     0.000 HD 
HETATM    9  N   UNL     1      -7.814   5.098  71.564  1.00  0.00    -0.108 NA 
HETATM   10  H   UNL     1      -7.876   4.593  68.456  1.00  0.00     0.000 HD 
ENDROOT
BRANCH   5  11
HETATM   11  C   UNL     1      -9.962   8.596  68.974  1.00  0.00    -0.192 C  
BRANCH  11  12
HETATM   12  C   UNL     1      -9.115   9.870  69.037  1.00  0.00    -0.164 C  
BRANCH  12  13
HETATM   13  S   UNL     1      -9.479  10.811  67.515  1.00  0.00    -0.154 SA 
BRANCH  13  14
HETATM   14  C   UNL     1     -11.277  11.041  67.691  1.00  0.00    -0.305 C  
BRANCH  14  15
HETATM   15  C   UNL     1     -11.546  12.150  68.656  1.00  0.00    -0.321 A  
HETATM   16  C   UNL     1     -11.973  12.086  69.973  1.00  0.00    -0.324 A  
HETATM   17  C   UNL     1     -12.319  10.953  70.858  1.00  0.00    -0.501 C  
HETATM   18  N   UNL     1     -12.012  13.391  70.396  1.00  0.00    -0.488 NA 
HETATM   19  H   UNL     1     -12.281  13.714  71.325  1.00  0.00     0.000 HD 
HETATM   20  C   UNL     1     -11.626  14.180  69.352  1.00  0.00    -0.304 A  
HETATM   21  N   UNL     1     -11.353  13.466  68.286  1.00  0.00    -0.276 NA 
ENDBRANCH  14  15
ENDBRANCH  13  14
ENDBRANCH  12  13
ENDBRANCH  11  12
ENDBRANCH   5  11
TORSDOF 5
ENDMDL
MODEL      332
REMARK 921   NORMALIZED FREE ENERGY PREDICTED BY IDOCK:   -2.54 KCAL/MOL
REMARK 922        TOTAL FREE ENERGY PREDICTED BY IDOCK:   -4.25 KCAL/MOL
REMARK 923 INTER-LIGAND FREE ENERGY PREDICTED BY IDOCK:   -3.61 KCAL/MOL
REMARK 924 INTRA-LIGAND FREE ENERGY PREDICTED BY IDOCK:   -0.63 KCAL/MOL
REMARK 927      BINDING AFFINITY PREDICTED BY RF-SCORE:    0.00 PKD
ROOT
HETATM    1  C   UNL     1     -10.885  11.493  65.459  1.00  0.00    -0.254 C  
HETATM    2  N   UNL     1      -9.741  12.126  66.069  1.00  0.00    -0.243 NA 
HETATM    3  C   UNL     1      -9.639  13.464  66.323  1.00  0.00    -0.235 C  
HETATM    4  H   UNL     1      -8.954  11.533  66.330  1.00  0.00     0.000 HD 
HETATM    5  N   UNL     1      -8.435  13.834  66.876  1.00  0.00    -0.411 NA 
HETATM    6  N   UNL     1     -10.633  14.252  66.046  1.00  0.00    -0.293 NA 
HETATM    7  C   UNL     1     -10.513  15.553  66.310  1.00  0.00    -0.307 C  
HETATM    8  H   UNL     1      -8.312  14.824  67.091  1.00  0.00     0.000 HD 
HETATM    9  N   UNL     1     -10.369  16.678  66.555  1.00  0.00    -0.305 NA 
HETATM   10  H   UNL     1     -11.489  13.883  65.634  1.00  0.00     0.000 HD 
ENDROOT
BRANCH   5  11
HETATM   11  C   UNL     1      -7.320  12.955  67.184  1.00  0.00     0.013 C  
BRANCH  11  12
HETATM   12  C   UNL     1      -7.302  12.461  68.633  1.00  0.00    -0.102 C  
BRANCH  12  13
HETATM   13  S   UNL     1      -6.574  10.786  68.601  1.00  0.00    -0.058 SA 
BRANCH  13  14
HETATM   14  C   UNL     1      -8.079   9.776  68.423  1.00  0.00    -0.104 C  
BRANCH  14  15
HETATM   15  C   UNL     1      -8.217   9.332  67.002  1.00  0.00    -0.116 A  
HETATM   16  C   UNL     1      -9.189   8.533  66.421  1.00  0.00    -0.199 A  
HETATM   17  C   UNL     1     -10.379   7.847  66.969  1.00  0.00    -0.411 C  
HETATM   18  N   UNL     1      -8.857   8.484  65.090  1.00  0.00    -0.382 NA 
HETATM   19  H   UNL     1      -9.365   7.983  64.362  1.00  0.00     0.000 HD 
HETATM   20  C   UNL     1      -7.725   9.225  64.915  1.00  0.00    -0.110 A  
HETATM   21  N   UNL     1      -7.306   9.737  66.048  1.00  0.00    -0.099 NA 
ENDBRANCH  14  15
ENDBRANCH  13  14
ENDBRANCH  12  13
ENDBRANCH  11  12
ENDBRANCH   5  11
TORSDOF 5
ENDMDL
MODEL      333
REMARK 921   NORMALIZED FREE ENERGY PREDICTED BY IDOCK:   -2.53 KCAL/MOL
REMARK 922        TOTAL FREE ENERGY PREDICTED BY IDOCK:   -4.24 KCAL/MOL
REMARK 923 INTER-LIGAND FREE ENERGY PREDICTED BY IDOCK:   -3.99 KCAL/MOL
REMARK 924 INTRA-LIGAND FREE ENERGY PREDICTED BY IDOCK:   -0.25 KCAL/MOL
REMARK 927      BINDING AFFINITY PREDICTED BY RF-SCORE:    0.00 PKD
ROOT
HETATM    1  C   UNL     1      -9.177  11.075  62.623  1.00  0.00    -0.333 C  
HETATM    2  N   UNL     1      -9.638  10.710  63.940  1.00  0.00    -0.279 NA 
HETATM    3  C   UNL     1      -9.938  11.599  64.931  1.00  0.00    -0.255 C  
HETATM    4  H   UNL     1      -9.747   9.717  64.145  1.00  0.00     0.000 HD 
HETATM    5  N   UNL     1     -10.320  11.006  66.113  1.00  0.00    -0.246 NA 
HETATM    6  N   UNL     1      -9.854  12.875  64.703  1.00  0.00    -0.569 NA 
HETATM    7  C   UNL     1     -10.161  13.724  65.683  1.00  0.00    -0.313 C  
HETATM    8  H   UNL     1     -10.563  11.630  66.883  1.00  0.00     0.000 HD 
HETATM    9  N   UNL     1     -10.437  14.430  66.562  1.00  0.00    -0.285 NA 
HETATM   10  H   UNL     1      -9.559  13.220  63.790  1.00  0.00     0.000 HD 
ENDROOT
BRANCH   5  11
HETATM   11  C   UNL     1     -10.412   9.580  66.373  1.00  0.00    -0.098 C  
BRANCH  11  12
HETATM   12  C   UNL     1     -10.253   9.209  67.849  1.00  0.00    -0.216 C  
BRANCH  12  13
HETATM   13  S   UNL     1      -8.979   7.903  67.921  1.00  0.00    -0.128 SA 
BRANCH  13  14
HETATM   14  C   UNL     1      -9.915   6.574  68.743  1.00  0.00    -0.143 C  
BRANCH  14  15
HETATM   15  C   UNL     1      -9.904   5.351  67.883  1.00  0.00    -0.144 A  
HETATM   16  C   UNL     1      -9.482   4.066  68.187  1.00  0.00    -0.158 A  
HETATM   17  C   UNL     1      -8.901   3.466  69.408  1.00  0.00    -0.154 C  
HETATM   18  N   UNL     1      -9.735   3.334  67.054  1.00  0.00    -0.382 NA 
HETATM   19  H   UNL     1      -9.550   2.339  66.928  1.00  0.00     0.000 HD 
HETATM   20  C   UNL     1     -10.278   4.174  66.127  1.00  0.00    -0.039 A  
HETATM   21  N   UNL     1     -10.380   5.398  66.589  1.00  0.00    -0.248 NA 
ENDBRANCH  14  15
ENDBRANCH  13  14
ENDBRANCH  12  13
ENDBRANCH  11  12
ENDBRANCH   5  11
TORSDOF 5
ENDMDL
MODEL      334
REMARK 921   NORMALIZED FREE ENERGY PREDICTED BY IDOCK:   -2.51 KCAL/MOL
REMARK 922        TOTAL FREE ENERGY PREDICTED BY IDOCK:   -4.21 KCAL/MOL
REMARK 923 INTER-LIGAND FREE ENERGY PREDICTED BY IDOCK:   -3.87 KCAL/MOL
REMARK 924 INTRA-LIGAND FREE ENERGY PREDICTED BY IDOCK:   -0.34 KCAL/MOL
REMARK 927      BINDING AFFINITY PREDICTED BY RF-SCORE:    0.00 PKD
ROOT
HETATM    1  C   UNL     1     -11.661  15.116  68.492  1.00  0.00    -0.325 C  
HETATM    2  N   UNL     1     -10.871  14.143  67.778  1.00  0.00    -0.250 NA 
HETATM    3  C   UNL     1     -11.169  13.664  66.534  1.00  0.00    -0.310 C  
HETATM    4  H   UNL     1     -10.031  13.787  68.234  1.00  0.00     0.000 HD 
HETATM    5  N   UNL     1     -10.284  12.713  66.079  1.00  0.00    -0.266 NA 
HETATM    6  N   UNL     1     -12.206  14.118  65.897  1.00  0.00    -0.432 NA 
HETATM    7  C   UNL     1     -12.471  13.642  64.681  1.00  0.00    -0.314 C  
HETATM    8  H   UNL     1     -10.460  12.330  65.149  1.00  0.00     0.000 HD 
HETATM    9  N   UNL     1     -12.667  13.203  63.625  1.00  0.00    -0.701 NA 
HETATM   10  H   UNL     1     -12.805  14.826  66.320  1.00  0.00     0.000 HD 
ENDROOT
BRANCH   5  11
HETATM   11  C   UNL     1      -9.126  12.201  66.790  1.00  0.00    -0.205 C  
BRANCH  11  12
HETATM   12  C   UNL     1      -9.204  10.704  67.103  1.00  0.00    -0.147 C  
BRANCH  12  13
HETATM   13  S   UNL     1      -8.938  10.536  68.901  1.00  0.00    -0.172 SA 
BRANCH  13  14
HETATM   14  C   UNL     1      -9.074   8.729  69.087  1.00  0.00    -0.141 C  
BRANCH  14  15
HETATM   15  C   UNL     1      -8.053   8.060  68.224  1.00  0.00    -0.126 A  
HETATM   16  C   UNL     1      -8.234   7.226  67.132  1.00  0.00    -0.118 A  
HETATM   17  C   UNL     1      -9.446   6.703  66.464  1.00  0.00    -0.192 C  
HETATM   18  N   UNL     1      -6.967   6.937  66.693  1.00  0.00    -0.061 NA 
HETATM   19  H   UNL     1      -6.727   6.347  65.897  1.00  0.00     0.000 HD 
HETATM   20  C   UNL     1      -6.085   7.580  67.512  1.00  0.00    -0.048 A  
HETATM   21  N   UNL     1      -6.706   8.253  68.452  1.00  0.00    -0.063 NA 
ENDBRANCH  14  15
ENDBRANCH  13  14
ENDBRANCH  12  13
ENDBRANCH  11  12
ENDBRANCH   5  11
TORSDOF 5
ENDMDL
MODEL      335
REMARK 921   NORMALIZED FREE ENERGY PREDICTED BY IDOCK:   -2.51 KCAL/MOL
REMARK 922        TOTAL FREE ENERGY PREDICTED BY IDOCK:   -4.21 KCAL/MOL
REMARK 923 INTER-LIGAND FREE ENERGY PREDICTED BY IDOCK:   -3.92 KCAL/MOL
REMARK 924 INTRA-LIGAND FREE ENERGY PREDICTED BY IDOCK:   -0.29 KCAL/MOL
REMARK 927      BINDING AFFINITY PREDICTED BY RF-SCORE:    0.00 PKD
ROOT
HETATM    1  C   UNL     1     -11.390  13.650  64.577  1.00  0.00    -0.375 C  
HETATM    2  N   UNL     1     -10.640  13.036  65.645  1.00  0.00    -0.278 NA 
HETATM    3  C   UNL     1      -9.681  13.668  66.383  1.00  0.00    -0.292 C  
HETATM    4  H   UNL     1     -10.841  12.060  65.865  1.00  0.00     0.000 HD 
HETATM    5  N   UNL     1      -9.079  12.861  67.320  1.00  0.00    -0.200 NA 
HETATM    6  N   UNL     1      -9.421  14.922  66.166  1.00  0.00    -0.338 NA 
HETATM    7  C   UNL     1      -8.486  15.521  66.905  1.00  0.00    -0.254 C  
HETATM    8  H   UNL     1      -8.360  13.290  67.903  1.00  0.00     0.000 HD 
HETATM    9  N   UNL     1      -7.667  16.004  67.569  1.00  0.00    -0.141 NA 
HETATM   10  H   UNL     1      -9.922  15.439  65.445  1.00  0.00     0.000 HD 
ENDROOT
BRANCH   5  11
HETATM   11  C   UNL     1      -9.365  11.458  67.562  1.00  0.00    -0.164 C  
BRANCH  11  12
HETATM   12  C   UNL     1      -9.413  11.082  69.046  1.00  0.00    -0.108 C  
BRANCH  12  13
HETATM   13  S   UNL     1      -7.914  10.094  69.379  1.00  0.00    -0.165 SA 
BRANCH  13  14
HETATM   14  C   UNL     1      -8.422   9.227  70.898  1.00  0.00    -0.149 C  
BRANCH  14  15
HETATM   15  C   UNL     1      -9.416   8.164  70.558  1.00  0.00    -0.163 A  
HETATM   16  C   UNL     1     -10.663   7.916  71.109  1.00  0.00    -0.227 A  
HETATM   17  C   UNL     1     -11.424   8.572  72.195  1.00  0.00    -0.446 C  
HETATM   18  N   UNL     1     -11.161   6.856  70.396  1.00  0.00    -0.293 NA 
HETATM   19  H   UNL     1     -12.069   6.412  70.533  1.00  0.00     0.000 HD 
HETATM   20  C   UNL     1     -10.226   6.500  69.468  1.00  0.00    -0.186 A  
HETATM   21  N   UNL     1      -9.158   7.258  69.549  1.00  0.00    -0.143 NA 
ENDBRANCH  14  15
ENDBRANCH  13  14
ENDBRANCH  12  13
ENDBRANCH  11  12
ENDBRANCH   5  11
TORSDOF 5
ENDMDL
MODEL      336
REMARK 921   NORMALIZED FREE ENERGY PREDICTED BY IDOCK:   -2.50 KCAL/MOL
REMARK 922        TOTAL FREE ENERGY PREDICTED BY IDOCK:   -4.20 KCAL/MOL
REMARK 923 INTER-LIGAND FREE ENERGY PREDICTED BY IDOCK:   -3.86 KCAL/MOL
REMARK 924 INTRA-LIGAND FREE ENERGY PREDICTED BY IDOCK:   -0.35 KCAL/MOL
REMARK 927      BINDING AFFINITY PREDICTED BY RF-SCORE:    0.00 PKD
ROOT
HETATM    1  C   UNL     1     -11.391  10.193  67.850  1.00  0.00    -0.032 C  
HETATM    2  N   UNL     1     -11.197  11.615  68.000  1.00  0.00    -0.242 NA 
HETATM    3  C   UNL     1     -11.560  12.549  67.074  1.00  0.00    -0.368 C  
HETATM    4  H   UNL     1     -10.758  11.945  68.859  1.00  0.00     0.000 HD 
HETATM    5  N   UNL     1     -11.237  13.839  67.429  1.00  0.00    -0.299 NA 
HETATM    6  N   UNL     1     -12.160  12.179  65.982  1.00  0.00    -0.586 NA 
HETATM    7  C   UNL     1     -12.513  13.110  65.096  1.00  0.00    -0.483 C  
HETATM    8  H   UNL     1     -11.495  14.575  66.771  1.00  0.00     0.000 HD 
HETATM    9  N   UNL     1     -12.804  13.951  64.352  1.00  0.00    -0.555 NA 
HETATM   10  H   UNL     1     -12.357  11.195  65.807  1.00  0.00     0.000 HD 
ENDROOT
BRANCH   5  11
HETATM   11  C   UNL     1     -10.563  14.256  68.646  1.00  0.00    -0.250 C  
BRANCH  11  12
HETATM   12  C   UNL     1      -9.121  14.720  68.427  1.00  0.00    -0.188 C  
BRANCH  12  13
HETATM   13  S   UNL     1      -8.474  13.758  67.017  1.00  0.00    -0.071 SA 
BRANCH  13  14
HETATM   14  C   UNL     1      -7.101  12.873  67.823  1.00  0.00    -0.137 C  
BRANCH  14  15
HETATM   15  C   UNL     1      -7.403  11.410  67.859  1.00  0.00    -0.093 A  
HETATM   16  C   UNL     1      -7.089  10.423  66.938  1.00  0.00    -0.094 A  
HETATM   17  C   UNL     1      -6.387  10.458  65.636  1.00  0.00    -0.126 C  
HETATM   18  N   UNL     1      -7.563   9.260  67.489  1.00  0.00    -0.088 NA 
HETATM   19  H   UNL     1      -7.497   8.329  67.078  1.00  0.00     0.000 HD 
HETATM   20  C   UNL     1      -8.139   9.570  68.687  1.00  0.00    -0.097 A  
HETATM   21  N   UNL     1      -8.073  10.857  68.932  1.00  0.00    -0.144 NA 
ENDBRANCH  14  15
ENDBRANCH  13  14
ENDBRANCH  12  13
ENDBRANCH  11  12
ENDBRANCH   5  11
TORSDOF 5
ENDMDL
MODEL      337
REMARK 921   NORMALIZED FREE ENERGY PREDICTED BY IDOCK:   -2.50 KCAL/MOL
REMARK 922        TOTAL FREE ENERGY PREDICTED BY IDOCK:   -4.19 KCAL/MOL
REMARK 923 INTER-LIGAND FREE ENERGY PREDICTED BY IDOCK:   -3.86 KCAL/MOL
REMARK 924 INTRA-LIGAND FREE ENERGY PREDICTED BY IDOCK:   -0.33 KCAL/MOL
REMARK 927      BINDING AFFINITY PREDICTED BY RF-SCORE:    0.00 PKD
ROOT
HETATM    1  C   UNL     1      -5.535  11.257  66.697  1.00  0.00    -0.126 C  
HETATM    2  N   UNL     1      -6.434  10.143  66.873  1.00  0.00    -0.068 NA 
HETATM    3  C   UNL     1      -7.672  10.048  66.304  1.00  0.00    -0.105 C  
HETATM    4  H   UNL     1      -6.124   9.373  67.465  1.00  0.00     0.000 HD 
HETATM    5  N   UNL     1      -8.357   8.907  66.653  1.00  0.00    -0.110 NA 
HETATM    6  N   UNL     1      -8.093  10.986  65.510  1.00  0.00    -0.359 NA 
HETATM    7  C   UNL     1      -9.300  10.866  64.959  1.00  0.00    -0.226 C  
HETATM    8  H   UNL     1      -9.285   8.786  66.246  1.00  0.00     0.000 HD 
HETATM    9  N   UNL     1     -10.357  10.725  64.500  1.00  0.00    -0.355 NA 
HETATM   10  H   UNL     1      -7.509  11.798  65.312  1.00  0.00     0.000 HD 
ENDROOT
BRANCH   5  11
HETATM   11  C   UNL     1      -7.892   7.858  67.543  1.00  0.00    -0.122 C  
BRANCH  11  12
HETATM   12  C   UNL     1      -8.490   7.930  68.951  1.00  0.00    -0.128 C  
BRANCH  12  13
HETATM   13  S   UNL     1     -10.290   8.155  68.738  1.00  0.00    -0.178 SA 
BRANCH  13  14
HETATM   14  C   UNL     1     -10.916   6.765  69.735  1.00  0.00    -0.297 C  
BRANCH  14  15
HETATM   15  C   UNL     1     -11.342   7.266  71.077  1.00  0.00    -0.274 A  
HETATM   16  C   UNL     1     -10.733   7.102  72.311  1.00  0.00    -0.221 A  
HETATM   17  C   UNL     1      -9.507   6.391  72.735  1.00  0.00    -0.147 C  
HETATM   18  N   UNL     1     -11.521   7.802  73.190  1.00  0.00    -0.605 NA 
HETATM   19  H   UNL     1     -11.362   7.899  74.193  1.00  0.00     0.000 HD 
HETATM   20  C   UNL     1     -12.554   8.344  72.484  1.00  0.00    -0.253 A  
HETATM   21  N   UNL     1     -12.484   8.029  71.212  1.00  0.00    -0.286 NA 
ENDBRANCH  14  15
ENDBRANCH  13  14
ENDBRANCH  12  13
ENDBRANCH  11  12
ENDBRANCH   5  11
TORSDOF 5
ENDMDL
MODEL      338
REMARK 921   NORMALIZED FREE ENERGY PREDICTED BY IDOCK:   -2.49 KCAL/MOL
REMARK 922        TOTAL FREE ENERGY PREDICTED BY IDOCK:   -4.18 KCAL/MOL
REMARK 923 INTER-LIGAND FREE ENERGY PREDICTED BY IDOCK:   -3.78 KCAL/MOL
REMARK 924 INTRA-LIGAND FREE ENERGY PREDICTED BY IDOCK:   -0.40 KCAL/MOL
REMARK 927      BINDING AFFINITY PREDICTED BY RF-SCORE:    0.00 PKD
ROOT
HETATM    1  C   UNL     1      -6.936  12.674  68.774  1.00  0.00    -0.096 C  
HETATM    2  N   UNL     1      -7.505  11.504  69.397  1.00  0.00    -0.343 NA 
HETATM    3  C   UNL     1      -8.820  11.146  69.320  1.00  0.00     0.188 C  
HETATM    4  H   UNL     1      -6.881  10.902  69.934  1.00  0.00     0.000 HD 
HETATM    5  N   UNL     1      -9.129  10.009  70.030  1.00  0.00    -0.375 NA 
HETATM    6  N   UNL     1      -9.644  11.859  68.614  1.00  0.00    -0.357 NA 
HETATM    7  C   UNL     1     -10.922  11.485  68.545  1.00  0.00    -0.223 C  
HETATM    8  H   UNL     1     -10.100   9.695  69.997  1.00  0.00     0.000 HD 
HETATM    9  N   UNL     1     -12.024  11.125  68.512  1.00  0.00    -0.574 NA 
HETATM   10  H   UNL     1      -9.320  12.690  68.121  1.00  0.00     0.000 HD 
ENDROOT
BRANCH   5  11
HETATM   11  C   UNL     1      -8.211   9.210  70.824  1.00  0.00    -0.190 C  
BRANCH  11  12
HETATM   12  C   UNL     1      -8.449   7.702  70.716  1.00  0.00    -0.125 C  
BRANCH  12  13
HETATM   13  S   UNL     1     -10.202   7.422  71.144  1.00  0.00    -0.192 SA 
BRANCH  13  14
HETATM   14  C   UNL     1     -10.502   5.842  70.290  1.00  0.00    -0.280 C  
BRANCH  14  15
HETATM   15  C   UNL     1     -10.335   6.031  68.817  1.00  0.00    -0.214 A  
HETATM   16  C   UNL     1      -9.785   5.174  67.877  1.00  0.00    -0.145 A  
HETATM   17  C   UNL     1      -9.176   3.830  67.983  1.00  0.00    -0.216 C  
HETATM   18  N   UNL     1      -9.925   5.827  66.678  1.00  0.00    -0.164 NA 
HETATM   19  H   UNL     1      -9.630   5.479  65.766  1.00  0.00     0.000 HD 
HETATM   20  C   UNL     1     -10.530   7.025  66.923  1.00  0.00    -0.286 A  
HETATM   21  N   UNL     1     -10.776   7.185  68.202  1.00  0.00    -0.188 NA 
ENDBRANCH  14  15
ENDBRANCH  13  14
ENDBRANCH  12  13
ENDBRANCH  11  12
ENDBRANCH   5  11
TORSDOF 5
ENDMDL
MODEL      339
REMARK 921   NORMALIZED FREE ENERGY PREDICTED BY IDOCK:   -2.44 KCAL/MOL
REMARK 922        TOTAL FREE ENERGY PREDICTED BY IDOCK:   -4.12 KCAL/MOL
REMARK 923 INTER-LIGAND FREE ENERGY PREDICTED BY IDOCK:   -3.80 KCAL/MOL
REMARK 924 INTRA-LIGAND FREE ENERGY PREDICTED BY IDOCK:   -0.32 KCAL/MOL
REMARK 927      BINDING AFFINITY PREDICTED BY RF-SCORE:    0.00 PKD
ROOT
HETATM    1  C   UNL     1     -11.475  14.737  69.825  1.00  0.00    -0.291 C  
HETATM    2  N   UNL     1     -11.231  13.335  69.590  1.00  0.00    -0.470 NA 
HETATM    3  C   UNL     1     -11.443  12.699  68.401  1.00  0.00    -0.310 C  
HETATM    4  H   UNL     1     -10.874  12.779  70.368  1.00  0.00     0.000 HD 
HETATM    5  N   UNL     1     -11.173  11.351  68.436  1.00  0.00    -0.238 NA 
HETATM    6  N   UNL     1     -11.857  13.375  67.371  1.00  0.00    -0.372 NA 
HETATM    7  C   UNL     1     -12.048  12.735  66.218  1.00  0.00    -0.332 C  
HETATM    8  H   UNL     1     -11.308  10.832  67.567  1.00  0.00     0.000 HD 
HETATM    9  N   UNL     1     -12.203  12.140  65.234  1.00  0.00    -0.476 NA 
HETATM   10  H   UNL     1     -12.031  14.377  67.444  1.00  0.00     0.000 HD 
ENDROOT
BRANCH   5  11
HETATM   11  C   UNL     1     -10.713  10.592  69.585  1.00  0.00    -0.259 C  
BRANCH  11  12
HETATM   12  C   UNL     1     -10.871   9.077  69.430  1.00  0.00    -0.138 C  
BRANCH  12  13
HETATM   13  S   UNL     1      -9.211   8.355  69.673  1.00  0.00    -0.161 SA 
BRANCH  13  14
HETATM   14  C   UNL     1      -8.422   8.806  68.095  1.00  0.00    -0.130 C  
BRANCH  14  15
HETATM   15  C   UNL     1      -8.331   7.598  67.219  1.00  0.00    -0.115 A  
HETATM   16  C   UNL     1      -7.212   6.992  66.670  1.00  0.00    -0.083 A  
HETATM   17  C   UNL     1      -5.769   7.312  66.731  1.00  0.00    -0.023 C  
HETATM   18  N   UNL     1      -7.697   5.901  65.993  1.00  0.00    -0.096 NA 
HETATM   19  H   UNL     1      -7.143   5.223  65.471  1.00  0.00     0.000 HD 
HETATM   20  C   UNL     1      -9.053   5.886  66.144  1.00  0.00    -0.150 A  
HETATM   21  N   UNL     1      -9.468   6.901  66.864  1.00  0.00    -0.152 NA 
ENDBRANCH  14  15
ENDBRANCH  13  14
ENDBRANCH  12  13
ENDBRANCH  11  12
ENDBRANCH   5  11
TORSDOF 5
ENDMDL
MODEL      340
REMARK 921   NORMALIZED FREE ENERGY PREDICTED BY IDOCK:   -2.43 KCAL/MOL
REMARK 922        TOTAL FREE ENERGY PREDICTED BY IDOCK:   -4.10 KCAL/MOL
REMARK 923 INTER-LIGAND FREE ENERGY PREDICTED BY IDOCK:   -3.93 KCAL/MOL
REMARK 924 INTRA-LIGAND FREE ENERGY PREDICTED BY IDOCK:   -0.17 KCAL/MOL
REMARK 927      BINDING AFFINITY PREDICTED BY RF-SCORE:    0.00 PKD
ROOT
HETATM    1  C   UNL     1      -9.211   7.941  73.544  1.00  0.00    -0.276 C  
HETATM    2  N   UNL     1      -9.721   8.539  72.334  1.00  0.00    -0.298 NA 
HETATM    3  C   UNL     1     -11.046   8.677  72.035  1.00  0.00    -0.367 C  
HETATM    4  H   UNL     1      -9.043   8.883  71.653  1.00  0.00     0.000 HD 
HETATM    5  N   UNL     1     -11.282   9.244  70.804  1.00  0.00    -0.268 NA 
HETATM    6  N   UNL     1     -11.945   8.291  72.889  1.00  0.00    -0.542 NA 
HETATM    7  C   UNL     1     -13.232   8.444  72.580  1.00  0.00    -0.148 C  
HETATM    8  H   UNL     1     -12.258   9.375  70.538  1.00  0.00     0.000 HD 
HETATM    9  N   UNL     1     -14.341   8.595  72.272  1.00  0.00    -0.493 NA 
HETATM   10  H   UNL     1     -11.671   7.880  73.781  1.00  0.00     0.000 HD 
ENDROOT
BRANCH   5  11
HETATM   11  C   UNL     1     -10.279   9.673  69.844  1.00  0.00    -0.245 C  
BRANCH  11  12
HETATM   12  C   UNL     1      -9.852   8.577  68.864  1.00  0.00    -0.176 C  
BRANCH  12  13
HETATM   13  S   UNL     1     -10.202   9.215  67.189  1.00  0.00    -0.270 SA 
BRANCH  13  14
HETATM   14  C   UNL     1      -8.510   9.351  66.528  1.00  0.00    -0.133 C  
BRANCH  14  15
HETATM   15  C   UNL     1      -8.217   8.170  65.660  1.00  0.00    -0.133 A  
HETATM   16  C   UNL     1      -7.590   8.120  64.425  1.00  0.00    -0.115 A  
HETATM   17  C   UNL     1      -7.023   9.167  63.548  1.00  0.00    -0.089 C  
HETATM   18  N   UNL     1      -7.546   6.786  64.105  1.00  0.00    -0.098 NA 
HETATM   19  H   UNL     1      -7.143   6.384  63.259  1.00  0.00     0.000 HD 
HETATM   20  C   UNL     1      -8.136   6.093  65.121  1.00  0.00    -0.133 A  
HETATM   21  N   UNL     1      -8.564   6.897  66.065  1.00  0.00    -0.142 NA 
ENDBRANCH  14  15
ENDBRANCH  13  14
ENDBRANCH  12  13
ENDBRANCH  11  12
ENDBRANCH   5  11
TORSDOF 5
ENDMDL
MODEL      341
REMARK 921   NORMALIZED FREE ENERGY PREDICTED BY IDOCK:   -2.42 KCAL/MOL
REMARK 922        TOTAL FREE ENERGY PREDICTED BY IDOCK:   -4.09 KCAL/MOL
REMARK 923 INTER-LIGAND FREE ENERGY PREDICTED BY IDOCK:   -3.88 KCAL/MOL
REMARK 924 INTRA-LIGAND FREE ENERGY PREDICTED BY IDOCK:   -0.21 KCAL/MOL
REMARK 927      BINDING AFFINITY PREDICTED BY RF-SCORE:    0.00 PKD
ROOT
HETATM    1  C   UNL     1     -11.661  15.116  68.492  1.00  0.00    -0.325 C  
HETATM    2  N   UNL     1     -10.871  14.143  67.778  1.00  0.00    -0.250 NA 
HETATM    3  C   UNL     1     -11.169  13.664  66.534  1.00  0.00    -0.310 C  
HETATM    4  H   UNL     1     -10.031  13.787  68.234  1.00  0.00     0.000 HD 
HETATM    5  N   UNL     1     -10.284  12.713  66.079  1.00  0.00    -0.266 NA 
HETATM    6  N   UNL     1     -12.206  14.118  65.897  1.00  0.00    -0.432 NA 
HETATM    7  C   UNL     1     -12.471  13.642  64.681  1.00  0.00    -0.314 C  
HETATM    8  H   UNL     1     -10.460  12.330  65.149  1.00  0.00     0.000 HD 
HETATM    9  N   UNL     1     -12.667  13.203  63.625  1.00  0.00    -0.701 NA 
HETATM   10  H   UNL     1     -12.805  14.826  66.320  1.00  0.00     0.000 HD 
ENDROOT
BRANCH   5  11
HETATM   11  C   UNL     1      -9.126  12.201  66.790  1.00  0.00    -0.205 C  
BRANCH  11  12
HETATM   12  C   UNL     1      -9.204  10.704  67.103  1.00  0.00    -0.147 C  
BRANCH  12  13
HETATM   13  S   UNL     1      -8.938  10.536  68.901  1.00  0.00    -0.172 SA 
BRANCH  13  14
HETATM   14  C   UNL     1      -7.172  10.091  68.933  1.00  0.00    -0.077 C  
BRANCH  14  15
HETATM   15  C   UNL     1      -6.375  11.165  68.265  1.00  0.00    -0.049 A  
HETATM   16  C   UNL     1      -5.616  11.107  67.108  1.00  0.00    -0.065 A  
HETATM   17  C   UNL     1      -5.317  10.009  66.162  1.00  0.00    -0.049 C  
HETATM   18  N   UNL     1      -5.140  12.382  66.932  1.00  0.00    -0.334 NA 
HETATM   19  H   UNL     1      -4.544  12.701  66.168  1.00  0.00     0.000 HD 
HETATM   20  C   UNL     1      -5.605  13.146  67.962  1.00  0.00    -0.110 A  
HETATM   21  N   UNL     1      -6.339  12.441  68.790  1.00  0.00    -0.073 NA 
ENDBRANCH  14  15
ENDBRANCH  13  14
ENDBRANCH  12  13
ENDBRANCH  11  12
ENDBRANCH   5  11
TORSDOF 5
ENDMDL
MODEL      342
REMARK 921   NORMALIZED FREE ENERGY PREDICTED BY IDOCK:   -2.42 KCAL/MOL
REMARK 922        TOTAL FREE ENERGY PREDICTED BY IDOCK:   -4.09 KCAL/MOL
REMARK 923 INTER-LIGAND FREE ENERGY PREDICTED BY IDOCK:   -3.72 KCAL/MOL
REMARK 924 INTRA-LIGAND FREE ENERGY PREDICTED BY IDOCK:   -0.37 KCAL/MOL
REMARK 927      BINDING AFFINITY PREDICTED BY RF-SCORE:    0.00 PKD
ROOT
HETATM    1  C   UNL     1     -14.273   8.683  72.223  1.00  0.00    -0.417 C  
HETATM    2  N   UNL     1     -12.919   8.247  71.982  1.00  0.00    -0.378 NA 
HETATM    3  C   UNL     1     -12.052   8.850  71.117  1.00  0.00    -0.277 C  
HETATM    4  H   UNL     1     -12.585   7.430  72.494  1.00  0.00     0.000 HD 
HETATM    5  N   UNL     1     -10.829   8.227  71.031  1.00  0.00    -0.228 NA 
HETATM    6  N   UNL     1     -12.418   9.918  70.474  1.00  0.00    -0.489 NA 
HETATM    7  C   UNL     1     -11.552  10.495  69.641  1.00  0.00    -0.271 C  
HETATM    8  H   UNL     1     -10.142   8.646  70.402  1.00  0.00     0.000 HD 
HETATM    9  N   UNL     1     -10.769  10.967  68.927  1.00  0.00    -0.201 NA 
HETATM   10  H   UNL     1     -13.351  10.307  70.604  1.00  0.00     0.000 HD 
ENDROOT
BRANCH   5  11
HETATM   11  C   UNL     1     -10.417   7.031  71.745  1.00  0.00    -0.202 C  
BRANCH  11  12
HETATM   12  C   UNL     1     -10.739   5.728  71.009  1.00  0.00    -0.258 C  
BRANCH  12  13
HETATM   13  S   UNL     1      -9.204   4.739  71.009  1.00  0.00    -0.148 SA 
BRANCH  13  14
HETATM   14  C   UNL     1      -9.000   4.448  69.223  1.00  0.00    -0.099 C  
BRANCH  14  15
HETATM   15  C   UNL     1      -8.781   5.752  68.526  1.00  0.00    -0.111 A  
HETATM   16  C   UNL     1      -9.164   6.145  67.254  1.00  0.00    -0.117 A  
HETATM   17  C   UNL     1      -9.882   5.447  66.165  1.00  0.00    -0.161 C  
HETATM   18  N   UNL     1      -8.748   7.448  67.146  1.00  0.00    -0.120 NA 
HETATM   19  H   UNL     1      -8.872   8.054  66.335  1.00  0.00     0.000 HD 
HETATM   20  C   UNL     1      -8.137   7.790  68.317  1.00  0.00    -0.124 A  
HETATM   21  N   UNL     1      -8.127   6.787  69.164  1.00  0.00    -0.119 NA 
ENDBRANCH  14  15
ENDBRANCH  13  14
ENDBRANCH  12  13
ENDBRANCH  11  12
ENDBRANCH   5  11
TORSDOF 5
ENDMDL
MODEL      343
REMARK 921   NORMALIZED FREE ENERGY PREDICTED BY IDOCK:   -2.38 KCAL/MOL
REMARK 922        TOTAL FREE ENERGY PREDICTED BY IDOCK:   -4.04 KCAL/MOL
REMARK 923 INTER-LIGAND FREE ENERGY PREDICTED BY IDOCK:   -4.64 KCAL/MOL
REMARK 924 INTRA-LIGAND FREE ENERGY PREDICTED BY IDOCK:    0.59 KCAL/MOL
REMARK 927      BINDING AFFINITY PREDICTED BY RF-SCORE:    0.00 PKD
ROOT
HETATM    1  C   UNL     1      -6.416   8.723  66.609  1.00  0.00    -0.063 C  
HETATM    2  N   UNL     1      -7.168   9.943  66.771  1.00  0.00    -0.090 NA 
HETATM    3  C   UNL     1      -8.036  10.448  65.847  1.00  0.00    -0.149 C  
HETATM    4  H   UNL     1      -7.043  10.466  67.638  1.00  0.00     0.000 HD 
HETATM    5  N   UNL     1      -8.605  11.646  66.214  1.00  0.00    -0.323 NA 
HETATM    6  N   UNL     1      -8.260   9.796  64.745  1.00  0.00    -0.139 NA 
HETATM    7  C   UNL     1      -9.118  10.304  63.861  1.00  0.00    -0.254 C  
HETATM    8  H   UNL     1      -9.268  12.060  65.558  1.00  0.00     0.000 HD 
HETATM    9  N   UNL     1      -9.872  10.780  63.118  1.00  0.00    -0.339 NA 
HETATM   10  H   UNL     1      -7.787   8.912  64.561  1.00  0.00     0.000 HD 
ENDROOT
BRANCH   5  11
HETATM   11  C   UNL     1      -8.355  12.379  67.443  1.00  0.00    -0.180 C  
BRANCH  11  12
HETATM   12  C   UNL     1      -8.547  13.892  67.310  1.00  0.00    -0.211 C  
BRANCH  12  13
HETATM   13  S   UNL     1     -10.313  14.222  67.638  1.00  0.00    -0.249 SA 
BRANCH  13  14
HETATM   14  C   UNL     1     -10.233  15.969  68.148  1.00  0.00    -0.243 C  
BRANCH  14  15
HETATM   15  C   UNL     1     -10.447  16.846  66.957  1.00  0.00    -0.281 A  
HETATM   16  C   UNL     1     -10.745  16.497  65.649  1.00  0.00    -0.248 A  
HETATM   17  C   UNL     1     -10.935  15.191  64.981  1.00  0.00    -0.443 C  
HETATM   18  N   UNL     1     -10.877  17.691  64.986  1.00  0.00    -0.733 NA 
HETATM   19  H   UNL     1     -11.102  17.808  63.998  1.00  0.00     0.000 HD 
HETATM   20  C   UNL     1     -10.655  18.694  65.883  1.00  0.00    -0.321 A  
HETATM   21  N   UNL     1     -10.378  18.220  67.075  1.00  0.00    -0.374 NA 
ENDBRANCH  14  15
ENDBRANCH  13  14
ENDBRANCH  12  13
ENDBRANCH  11  12
ENDBRANCH   5  11
TORSDOF 5
ENDMDL
MODEL      344
REMARK 921   NORMALIZED FREE ENERGY PREDICTED BY IDOCK:   -2.37 KCAL/MOL
REMARK 922        TOTAL FREE ENERGY PREDICTED BY IDOCK:   -4.03 KCAL/MOL
REMARK 923 INTER-LIGAND FREE ENERGY PREDICTED BY IDOCK:   -3.54 KCAL/MOL
REMARK 924 INTRA-LIGAND FREE ENERGY PREDICTED BY IDOCK:   -0.49 KCAL/MOL
REMARK 927      BINDING AFFINITY PREDICTED BY RF-SCORE:    0.00 PKD
ROOT
HETATM    1  C   UNL     1     -11.028   6.556  67.067  1.00  0.00    -0.396 C  
HETATM    2  N   UNL     1      -9.963   6.837  68.000  1.00  0.00    -0.140 NA 
HETATM    3  C   UNL     1      -8.935   7.703  67.765  1.00  0.00    -0.131 C  
HETATM    4  H   UNL     1      -9.980   6.355  68.898  1.00  0.00     0.000 HD 
HETATM    5  N   UNL     1      -8.022   7.774  68.791  1.00  0.00    -0.123 NA 
HETATM    6  N   UNL     1      -8.894   8.372  66.652  1.00  0.00    -0.135 NA 
HETATM    7  C   UNL     1      -7.885   9.219  66.448  1.00  0.00    -0.103 C  
HETATM    8  H   UNL     1      -7.237   8.415  68.667  1.00  0.00     0.000 HD 
HETATM    9  N   UNL     1      -6.991   9.945  66.310  1.00  0.00    -0.096 NA 
HETATM   10  H   UNL     1      -9.620   8.251  65.947  1.00  0.00     0.000 HD 
ENDROOT
BRANCH   5  11
HETATM   11  C   UNL     1      -8.063   7.026  70.036  1.00  0.00    -0.128 C  
BRANCH  11  12
HETATM   12  C   UNL     1      -7.463   5.621  69.934  1.00  0.00    -0.071 C  
BRANCH  12  13
HETATM   13  S   UNL     1      -8.268   4.618  71.230  1.00  0.00    -0.102 SA 
BRANCH  13  14
HETATM   14  C   UNL     1      -9.941   4.455  70.530  1.00  0.00    -0.185 C  
BRANCH  14  15
HETATM   15  C   UNL     1     -10.879   5.360  71.262  1.00  0.00    -0.131 A  
HETATM   16  C   UNL     1     -11.292   5.316  72.584  1.00  0.00    -0.231 A  
HETATM   17  C   UNL     1     -10.984   4.392  73.697  1.00  0.00    -0.374 C  
HETATM   18  N   UNL     1     -12.114   6.404  72.735  1.00  0.00    -0.467 NA 
HETATM   19  H   UNL     1     -12.592   6.682  73.591  1.00  0.00     0.000 HD 
HETATM   20  C   UNL     1     -12.177   7.049  71.534  1.00  0.00    -0.368 A  
HETATM   21  N   UNL     1     -11.457   6.438  70.623  1.00  0.00    -0.356 NA 
ENDBRANCH  14  15
ENDBRANCH  13  14
ENDBRANCH  12  13
ENDBRANCH  11  12
ENDBRANCH   5  11
TORSDOF 5
ENDMDL
MODEL      345
REMARK 921   NORMALIZED FREE ENERGY PREDICTED BY IDOCK:   -2.37 KCAL/MOL
REMARK 922        TOTAL FREE ENERGY PREDICTED BY IDOCK:   -4.02 KCAL/MOL
REMARK 923 INTER-LIGAND FREE ENERGY PREDICTED BY IDOCK:   -3.80 KCAL/MOL
REMARK 924 INTRA-LIGAND FREE ENERGY PREDICTED BY IDOCK:   -0.23 KCAL/MOL
REMARK 927      BINDING AFFINITY PREDICTED BY RF-SCORE:    0.00 PKD
ROOT
HETATM    1  C   UNL     1     -10.054  11.278  62.920  1.00  0.00    -0.199 C  
HETATM    2  N   UNL     1     -10.640  11.466  64.225  1.00  0.00    -0.331 NA 
HETATM    3  C   UNL     1     -11.004  12.675  64.745  1.00  0.00    -0.302 C  
HETATM    4  H   UNL     1     -10.792  10.638  64.800  1.00  0.00     0.000 HD 
HETATM    5  N   UNL     1     -11.505  12.602  66.024  1.00  0.00    -0.347 NA 
HETATM    6  N   UNL     1     -10.866  13.753  64.033  1.00  0.00    -0.509 NA 
HETATM    7  C   UNL     1     -11.237  14.921  64.558  1.00  0.00    -0.264 C  
HETATM    8  H   UNL     1     -11.799  13.479  66.454  1.00  0.00     0.000 HD 
HETATM    9  N   UNL     1     -11.571  15.916  65.051  1.00  0.00    -0.043 NA 
HETATM   10  H   UNL     1     -10.483  13.706  63.090  1.00  0.00     0.000 HD 
ENDROOT
BRANCH   5  11
HETATM   11  C   UNL     1     -11.656  11.399  66.824  1.00  0.00     0.046 C  
BRANCH  11  12
HETATM   12  C   UNL     1     -11.462  11.625  68.326  1.00  0.00    -0.303 C  
BRANCH  12  13
HETATM   13  S   UNL     1     -10.016  10.625  68.819  1.00  0.00    -0.200 SA 
BRANCH  13  14
HETATM   14  C   UNL     1     -10.716   9.704  70.226  1.00  0.00    -0.281 C  
BRANCH  14  15
HETATM   15  C   UNL     1     -10.380   8.254  70.090  1.00  0.00    -0.212 A  
HETATM   16  C   UNL     1      -9.674   7.430  70.953  1.00  0.00    -0.169 A  
HETATM   17  C   UNL     1      -9.013   7.676  72.253  1.00  0.00    -0.177 C  
HETATM   18  N   UNL     1      -9.701   6.192  70.361  1.00  0.00    -0.167 NA 
HETATM   19  H   UNL     1      -9.279   5.341  70.730  1.00  0.00     0.000 HD 
HETATM   20  C   UNL     1     -10.394   6.304  69.191  1.00  0.00    -0.216 A  
HETATM   21  N   UNL     1     -10.804   7.534  68.991  1.00  0.00    -0.124 NA 
ENDBRANCH  14  15
ENDBRANCH  13  14
ENDBRANCH  12  13
ENDBRANCH  11  12
ENDBRANCH   5  11
TORSDOF 5
ENDMDL
MODEL      346
REMARK 921   NORMALIZED FREE ENERGY PREDICTED BY IDOCK:   -2.36 KCAL/MOL
REMARK 922        TOTAL FREE ENERGY PREDICTED BY IDOCK:   -4.01 KCAL/MOL
REMARK 923 INTER-LIGAND FREE ENERGY PREDICTED BY IDOCK:   -3.77 KCAL/MOL
REMARK 924 INTRA-LIGAND FREE ENERGY PREDICTED BY IDOCK:   -0.24 KCAL/MOL
REMARK 927      BINDING AFFINITY PREDICTED BY RF-SCORE:    0.00 PKD
ROOT
HETATM    1  C   UNL     1     -13.304  12.538  72.327  1.00  0.00    -0.370 C  
HETATM    2  N   UNL     1     -12.675  12.342  71.044  1.00  0.00    -0.293 NA 
HETATM    3  C   UNL     1     -12.177  13.344  70.263  1.00  0.00    -0.335 C  
HETATM    4  H   UNL     1     -12.597  11.386  70.696  1.00  0.00     0.000 HD 
HETATM    5  N   UNL     1     -11.659  12.910  69.065  1.00  0.00    -0.303 NA 
HETATM    6  N   UNL     1     -12.216  14.573  70.683  1.00  0.00    -0.307 NA 
HETATM    7  C   UNL     1     -11.715  15.534  69.907  1.00  0.00    -0.352 C  
HETATM    8  H   UNL     1     -11.266  13.622  68.448  1.00  0.00     0.000 HD 
HETATM    9  N   UNL     1     -11.269  16.340  69.202  1.00  0.00    -0.320 NA 
HETATM   10  H   UNL     1     -12.623  14.797  71.591  1.00  0.00     0.000 HD 
ENDROOT
BRANCH   5  11
HETATM   11  C   UNL     1     -11.615  11.538  68.590  1.00  0.00    -0.313 C  
BRANCH  11  12
HETATM   12  C   UNL     1     -10.394  11.221  67.722  1.00  0.00    -0.182 C  
BRANCH  12  13
HETATM   13  S   UNL     1     -10.570   9.481  67.196  1.00  0.00    -0.180 SA 
BRANCH  13  14
HETATM   14  C   UNL     1      -9.794   9.555  65.550  1.00  0.00    -0.234 C  
BRANCH  14  15
HETATM   15  C   UNL     1      -8.307   9.534  65.698  1.00  0.00    -0.126 A  
HETATM   16  C   UNL     1      -7.477   8.500  66.100  1.00  0.00    -0.089 A  
HETATM   17  C   UNL     1      -7.746   7.110  66.527  1.00  0.00    -0.100 C  
HETATM   18  N   UNL     1      -6.206   9.012  66.013  1.00  0.00    -0.059 NA 
HETATM   19  H   UNL     1      -5.342   8.516  66.232  1.00  0.00     0.000 HD 
HETATM   20  C   UNL     1      -6.305  10.302  65.581  1.00  0.00    -0.118 A  
HETATM   21  N   UNL     1      -7.556  10.652  65.396  1.00  0.00    -0.091 NA 
ENDBRANCH  14  15
ENDBRANCH  13  14
ENDBRANCH  12  13
ENDBRANCH  11  12
ENDBRANCH   5  11
TORSDOF 5
ENDMDL
MODEL      347
REMARK 921   NORMALIZED FREE ENERGY PREDICTED BY IDOCK:   -2.35 KCAL/MOL
REMARK 922        TOTAL FREE ENERGY PREDICTED BY IDOCK:   -4.00 KCAL/MOL
REMARK 923 INTER-LIGAND FREE ENERGY PREDICTED BY IDOCK:   -3.67 KCAL/MOL
REMARK 924 INTRA-LIGAND FREE ENERGY PREDICTED BY IDOCK:   -0.32 KCAL/MOL
REMARK 927      BINDING AFFINITY PREDICTED BY RF-SCORE:    0.00 PKD
ROOT
HETATM    1  C   UNL     1      -8.419   9.137  63.134  1.00  0.00    -0.199 C  
HETATM    2  N   UNL     1      -8.818   8.456  64.342  1.00  0.00    -0.394 NA 
HETATM    3  C   UNL     1      -8.265   7.293  64.795  1.00  0.00    -0.052 C  
HETATM    4  H   UNL     1      -9.567   8.872  64.896  1.00  0.00     0.000 HD 
HETATM    5  N   UNL     1      -8.841   6.817  65.950  1.00  0.00    -0.256 NA 
HETATM    6  N   UNL     1      -7.281   6.748  64.145  1.00  0.00    -0.065 NA 
HETATM    7  C   UNL     1      -6.750   5.618  64.612  1.00  0.00    -0.046 C  
HETATM    8  H   UNL     1      -8.456   5.953  66.334  1.00  0.00     0.000 HD 
HETATM    9  N   UNL     1      -6.317   4.636  65.052  1.00  0.00    -0.034 NA 
HETATM   10  H   UNL     1      -6.921   7.178  63.294  1.00  0.00     0.000 HD 
ENDROOT
BRANCH   5  11
HETATM   11  C   UNL     1      -9.943   7.421  66.678  1.00  0.00    -0.191 C  
BRANCH  11  12
HETATM   12  C   UNL     1     -11.021   6.424  67.110  1.00  0.00    -0.399 C  
BRANCH  12  13
HETATM   13  S   UNL     1     -11.043   6.443  68.936  1.00  0.00    -0.307 SA 
BRANCH  13  14
HETATM   14  C   UNL     1     -10.504   8.154  69.254  1.00  0.00    -0.214 C  
BRANCH  14  15
HETATM   15  C   UNL     1      -9.989   8.263  70.653  1.00  0.00    -0.183 A  
HETATM   16  C   UNL     1     -10.687   8.459  71.834  1.00  0.00    -0.303 A  
HETATM   17  C   UNL     1     -12.126   8.639  72.128  1.00  0.00    -0.451 C  
HETATM   18  N   UNL     1      -9.731   8.436  72.818  1.00  0.00    -0.262 NA 
HETATM   19  H   UNL     1      -9.895   8.545  73.819  1.00  0.00     0.000 HD 
HETATM   20  C   UNL     1      -8.521   8.241  72.220  1.00  0.00    -0.187 A  
HETATM   21  N   UNL     1      -8.639   8.148  70.916  1.00  0.00    -0.130 NA 
ENDBRANCH  14  15
ENDBRANCH  13  14
ENDBRANCH  12  13
ENDBRANCH  11  12
ENDBRANCH   5  11
TORSDOF 5
ENDMDL
MODEL      348
REMARK 921   NORMALIZED FREE ENERGY PREDICTED BY IDOCK:   -2.34 KCAL/MOL
REMARK 922        TOTAL FREE ENERGY PREDICTED BY IDOCK:   -3.99 KCAL/MOL
REMARK 923 INTER-LIGAND FREE ENERGY PREDICTED BY IDOCK:   -3.95 KCAL/MOL
REMARK 924 INTRA-LIGAND FREE ENERGY PREDICTED BY IDOCK:   -0.04 KCAL/MOL
REMARK 927      BINDING AFFINITY PREDICTED BY RF-SCORE:    0.00 PKD
ROOT
HETATM    1  C   UNL     1      -9.499   3.373  68.650  1.00  0.00    -0.136 C  
HETATM    2  N   UNL     1      -9.647   4.787  68.410  1.00  0.00    -0.144 NA 
HETATM    3  C   UNL     1      -9.975   5.706  69.365  1.00  0.00    -0.197 C  
HETATM    4  H   UNL     1      -9.497   5.125  67.459  1.00  0.00     0.000 HD 
HETATM    5  N   UNL     1     -10.095   6.989  68.884  1.00  0.00    -0.168 NA 
HETATM    6  N   UNL     1     -10.135   5.329  70.598  1.00  0.00    -0.223 NA 
HETATM    7  C   UNL     1     -10.446   6.245  71.515  1.00  0.00    -0.223 C  
HETATM    8  H   UNL     1     -10.331   7.715  69.562  1.00  0.00     0.000 HD 
HETATM    9  N   UNL     1     -10.715   7.073  72.282  1.00  0.00    -0.214 NA 
HETATM   10  H   UNL     1     -10.025   4.349  70.859  1.00  0.00     0.000 HD 
ENDROOT
BRANCH   5  11
HETATM   11  C   UNL     1      -9.920   7.414  67.506  1.00  0.00    -0.173 C  
BRANCH  11  12
HETATM   12  C   UNL     1     -10.479   8.809  67.212  1.00  0.00    -0.283 C  
BRANCH  12  13
HETATM   13  S   UNL     1     -10.466   9.717  68.797  1.00  0.00    -0.225 SA 
BRANCH  13  14
HETATM   14  C   UNL     1     -11.411  11.203  68.333  1.00  0.00    -0.306 C  
BRANCH  14  15
HETATM   15  C   UNL     1     -10.753  11.871  67.170  1.00  0.00    -0.240 A  
HETATM   16  C   UNL     1      -9.766  12.844  67.157  1.00  0.00    -0.221 A  
HETATM   17  C   UNL     1      -9.048  13.555  68.237  1.00  0.00    -0.189 C  
HETATM   18  N   UNL     1      -9.501  13.062  65.828  1.00  0.00    -0.470 NA 
HETATM   19  H   UNL     1      -8.817  13.718  65.451  1.00  0.00     0.000 HD 
HETATM   20  C   UNL     1     -10.317  12.246  65.101  1.00  0.00    -0.286 A  
HETATM   21  N   UNL     1     -11.093  11.526  65.877  1.00  0.00    -0.257 NA 
ENDBRANCH  14  15
ENDBRANCH  13  14
ENDBRANCH  12  13
ENDBRANCH  11  12
ENDBRANCH   5  11
TORSDOF 5
ENDMDL
MODEL      349
REMARK 921   NORMALIZED FREE ENERGY PREDICTED BY IDOCK:   -2.34 KCAL/MOL
REMARK 922        TOTAL FREE ENERGY PREDICTED BY IDOCK:   -3.99 KCAL/MOL
REMARK 923 INTER-LIGAND FREE ENERGY PREDICTED BY IDOCK:   -3.67 KCAL/MOL
REMARK 924 INTRA-LIGAND FREE ENERGY PREDICTED BY IDOCK:   -0.32 KCAL/MOL
REMARK 927      BINDING AFFINITY PREDICTED BY RF-SCORE:    0.00 PKD
ROOT
HETATM    1  C   UNL     1      -8.077   5.660  65.904  1.00  0.00    -0.111 C  
HETATM    2  N   UNL     1      -8.900   6.812  66.181  1.00  0.00    -0.151 NA 
HETATM    3  C   UNL     1      -8.841   7.990  65.494  1.00  0.00    -0.061 C  
HETATM    4  H   UNL     1      -9.573   6.741  66.943  1.00  0.00     0.000 HD 
HETATM    5  N   UNL     1      -9.699   8.954  65.970  1.00  0.00    -0.373 NA 
HETATM    6  N   UNL     1      -8.027   8.113  64.489  1.00  0.00    -0.138 NA 
HETATM    7  C   UNL     1      -7.993   9.270  63.827  1.00  0.00    -0.142 C  
HETATM    8  H   UNL     1      -9.698   9.852  65.484  1.00  0.00     0.000 HD 
HETATM    9  N   UNL     1      -7.994  10.293  63.279  1.00  0.00    -0.154 NA 
HETATM   10  H   UNL     1      -7.426   7.338  64.210  1.00  0.00     0.000 HD 
ENDROOT
BRANCH   5  11
HETATM   11  C   UNL     1     -10.607   8.822  67.096  1.00  0.00    -0.233 C  
BRANCH  11  12
HETATM   12  C   UNL     1     -10.887  10.139  67.824  1.00  0.00    -0.292 C  
BRANCH  12  13
HETATM   13  S   UNL     1     -11.001  11.429  66.536  1.00  0.00    -0.240 SA 
BRANCH  13  14
HETATM   14  C   UNL     1     -11.580  12.840  67.533  1.00  0.00    -0.356 C  
BRANCH  14  15
HETATM   15  C   UNL     1     -10.404  13.638  67.997  1.00  0.00    -0.250 A  
HETATM   16  C   UNL     1     -10.307  14.527  69.055  1.00  0.00    -0.223 A  
HETATM   17  C   UNL     1     -11.287  15.001  70.056  1.00  0.00    -0.305 C  
HETATM   18  N   UNL     1      -8.997  14.937  69.054  1.00  0.00    -0.267 NA 
HETATM   19  H   UNL     1      -8.573  15.595  69.707  1.00  0.00     0.000 HD 
HETATM   20  C   UNL     1      -8.365  14.310  68.021  1.00  0.00    -0.157 A  
HETATM   21  N   UNL     1      -9.186  13.532  67.356  1.00  0.00    -0.213 NA 
ENDBRANCH  14  15
ENDBRANCH  13  14
ENDBRANCH  12  13
ENDBRANCH  11  12
ENDBRANCH   5  11
TORSDOF 5
ENDMDL
MODEL      350
REMARK 921   NORMALIZED FREE ENERGY PREDICTED BY IDOCK:   -2.33 KCAL/MOL
REMARK 922        TOTAL FREE ENERGY PREDICTED BY IDOCK:   -3.98 KCAL/MOL
REMARK 923 INTER-LIGAND FREE ENERGY PREDICTED BY IDOCK:   -3.70 KCAL/MOL
REMARK 924 INTRA-LIGAND FREE ENERGY PREDICTED BY IDOCK:   -0.28 KCAL/MOL
REMARK 927      BINDING AFFINITY PREDICTED BY RF-SCORE:    0.00 PKD
ROOT
HETATM    1  C   UNL     1      -8.480   5.484  72.257  1.00  0.00    -0.122 C  
HETATM    2  N   UNL     1      -8.948   6.167  71.075  1.00  0.00    -0.143 NA 
HETATM    3  C   UNL     1     -10.194   6.705  70.932  1.00  0.00    -0.196 C  
HETATM    4  H   UNL     1      -8.301   6.253  70.291  1.00  0.00     0.000 HD 
HETATM    5  N   UNL     1     -10.417   7.271  69.698  1.00  0.00    -0.225 NA 
HETATM    6  N   UNL     1     -11.037   6.656  71.919  1.00  0.00    -0.243 NA 
HETATM    7  C   UNL     1     -12.245   7.196  71.760  1.00  0.00    -0.344 C  
HETATM    8  H   UNL     1     -11.332   7.695  69.545  1.00  0.00     0.000 HD 
HETATM    9  N   UNL     1     -13.285   7.678  71.580  1.00  0.00    -0.352 NA 
HETATM   10  H   UNL     1     -10.779   6.212  72.800  1.00  0.00     0.000 HD 
ENDROOT
BRANCH   5  11
HETATM   11  C   UNL     1      -9.478   7.325  68.591  1.00  0.00    -0.137 C  
BRANCH  11  12
HETATM   12  C   UNL     1      -9.741   6.279  67.505  1.00  0.00    -0.117 C  
BRANCH  12  13
HETATM   13  S   UNL     1      -8.939   6.897  65.985  1.00  0.00    -0.055 SA 
BRANCH  13  14
HETATM   14  C   UNL     1      -9.130   8.693  66.219  1.00  0.00    -0.186 C  
BRANCH  14  15
HETATM   15  C   UNL     1      -9.263   9.359  64.887  1.00  0.00    -0.183 A  
HETATM   16  C   UNL     1      -9.988  10.486  64.535  1.00  0.00    -0.345 A  
HETATM   17  C   UNL     1     -10.868  11.391  65.307  1.00  0.00    -0.297 C  
HETATM   18  N   UNL     1      -9.720  10.678  63.203  1.00  0.00    -0.365 NA 
HETATM   19  H   UNL     1     -10.088  11.427  62.617  1.00  0.00     0.000 HD 
HETATM   20  C   UNL     1      -8.873   9.687  62.801  1.00  0.00    -0.247 A  
HETATM   21  N   UNL     1      -8.590   8.868  63.786  1.00  0.00    -0.140 NA 
ENDBRANCH  14  15
ENDBRANCH  13  14
ENDBRANCH  12  13
ENDBRANCH  11  12
ENDBRANCH   5  11
TORSDOF 5
ENDMDL
MODEL      351
REMARK 921   NORMALIZED FREE ENERGY PREDICTED BY IDOCK:   -2.33 KCAL/MOL
REMARK 922        TOTAL FREE ENERGY PREDICTED BY IDOCK:   -3.97 KCAL/MOL
REMARK 923 INTER-LIGAND FREE ENERGY PREDICTED BY IDOCK:   -3.63 KCAL/MOL
REMARK 924 INTRA-LIGAND FREE ENERGY PREDICTED BY IDOCK:   -0.34 KCAL/MOL
REMARK 927      BINDING AFFINITY PREDICTED BY RF-SCORE:    0.00 PKD
ROOT
HETATM    1  C   UNL     1     -12.262  11.260  69.305  1.00  0.00    -0.222 C  
HETATM    2  N   UNL     1     -11.371  10.650  68.348  1.00  0.00    -0.346 NA 
HETATM    3  C   UNL     1     -11.237  11.049  67.049  1.00  0.00    -0.181 C  
HETATM    4  H   UNL     1     -10.802   9.865  68.663  1.00  0.00     0.000 HD 
HETATM    5  N   UNL     1     -10.353  10.287  66.322  1.00  0.00    -0.215 NA 
HETATM    6  N   UNL     1     -11.910  12.071  66.614  1.00  0.00    -0.610 NA 
HETATM    7  C   UNL     1     -11.756  12.448  65.345  1.00  0.00    -0.402 C  
HETATM    8  H   UNL     1     -10.211  10.551  65.346  1.00  0.00     0.000 HD 
HETATM    9  N   UNL     1     -11.593  12.744  64.235  1.00  0.00    -0.350 NA 
HETATM   10  H   UNL     1     -12.545  12.576  67.232  1.00  0.00     0.000 HD 
ENDROOT
BRANCH   5  11
HETATM   11  C   UNL     1      -9.601   9.142  66.805  1.00  0.00    -0.195 C  
BRANCH  11  12
HETATM   12  C   UNL     1     -10.251   7.793  66.484  1.00  0.00    -0.125 C  
BRANCH  12  13
HETATM   13  S   UNL     1      -9.197   6.514  67.249  1.00  0.00    -0.123 SA 
BRANCH  13  14
HETATM   14  C   UNL     1      -9.796   6.577  68.968  1.00  0.00    -0.143 C  
BRANCH  14  15
HETATM   15  C   UNL     1      -8.630   6.603  69.902  1.00  0.00    -0.140 A  
HETATM   16  C   UNL     1      -8.131   7.651  70.658  1.00  0.00    -0.108 A  
HETATM   17  C   UNL     1      -8.540   9.066  70.799  1.00  0.00    -0.259 C  
HETATM   18  N   UNL     1      -7.085   7.113  71.364  1.00  0.00    -0.064 NA 
HETATM   19  H   UNL     1      -6.490   7.608  72.028  1.00  0.00     0.000 HD 
HETATM   20  C   UNL     1      -6.981   5.798  71.017  1.00  0.00    -0.066 A  
HETATM   21  N   UNL     1      -7.886   5.462  70.129  1.00  0.00    -0.080 NA 
ENDBRANCH  14  15
ENDBRANCH  13  14
ENDBRANCH  12  13
ENDBRANCH  11  12
ENDBRANCH   5  11
TORSDOF 5
ENDMDL
MODEL      352
REMARK 921   NORMALIZED FREE ENERGY PREDICTED BY IDOCK:   -2.30 KCAL/MOL
REMARK 922        TOTAL FREE ENERGY PREDICTED BY IDOCK:   -3.93 KCAL/MOL
REMARK 923 INTER-LIGAND FREE ENERGY PREDICTED BY IDOCK:   -4.27 KCAL/MOL
REMARK 924 INTRA-LIGAND FREE ENERGY PREDICTED BY IDOCK:    0.34 KCAL/MOL
REMARK 927      BINDING AFFINITY PREDICTED BY RF-SCORE:    0.00 PKD
ROOT
HETATM    1  C   UNL     1      -8.978  14.859  66.655  1.00  0.00    -0.270 C  
HETATM    2  N   UNL     1      -9.695  13.937  67.501  1.00  0.00    -0.228 NA 
HETATM    3  C   UNL     1     -10.589  14.303  68.465  1.00  0.00    -0.257 C  
HETATM    4  H   UNL     1      -9.521  12.940  67.370  1.00  0.00     0.000 HD 
HETATM    5  N   UNL     1     -11.115  13.243  69.168  1.00  0.00    -0.372 NA 
HETATM    6  N   UNL     1     -10.874  15.558  68.640  1.00  0.00    -0.255 NA 
HETATM    7  C   UNL     1     -11.757  15.892  69.581  1.00  0.00    -0.317 C  
HETATM    8  H   UNL     1     -11.796  13.465  69.895  1.00  0.00     0.000 HD 
HETATM    9  N   UNL     1     -12.530  16.140  70.410  1.00  0.00    -0.100 NA 
HETATM   10  H   UNL     1     -10.430  16.276  68.068  1.00  0.00     0.000 HD 
ENDROOT
BRANCH   5  11
HETATM   11  C   UNL     1     -10.797  11.839  68.977  1.00  0.00    -0.195 C  
BRANCH  11  12
HETATM   12  C   UNL     1     -11.634  10.892  69.840  1.00  0.00    -0.331 C  
BRANCH  12  13
HETATM   13  S   UNL     1     -10.848   9.248  69.720  1.00  0.00    -0.198 SA 
BRANCH  13  14
HETATM   14  C   UNL     1     -11.654   8.394  71.112  1.00  0.00    -0.279 C  
BRANCH  14  15
HETATM   15  C   UNL     1     -11.086   7.018  71.250  1.00  0.00    -0.252 A  
HETATM   16  C   UNL     1     -10.614   6.159  70.270  1.00  0.00    -0.258 A  
HETATM   17  C   UNL     1     -10.519   6.276  68.798  1.00  0.00    -0.279 C  
HETATM   18  N   UNL     1     -10.171   5.054  70.952  1.00  0.00    -0.228 NA 
HETATM   19  H   UNL     1      -9.753   4.220  70.539  1.00  0.00     0.000 HD 
HETATM   20  C   UNL     1     -10.388   5.269  72.281  1.00  0.00    -0.212 A  
HETATM   21  N   UNL     1     -10.951   6.435  72.493  1.00  0.00    -0.240 NA 
ENDBRANCH  14  15
ENDBRANCH  13  14
ENDBRANCH  12  13
ENDBRANCH  11  12
ENDBRANCH   5  11
TORSDOF 5
ENDMDL
MODEL      353
REMARK 921   NORMALIZED FREE ENERGY PREDICTED BY IDOCK:   -2.30 KCAL/MOL
REMARK 922        TOTAL FREE ENERGY PREDICTED BY IDOCK:   -3.93 KCAL/MOL
REMARK 923 INTER-LIGAND FREE ENERGY PREDICTED BY IDOCK:   -3.70 KCAL/MOL
REMARK 924 INTRA-LIGAND FREE ENERGY PREDICTED BY IDOCK:   -0.24 KCAL/MOL
REMARK 927      BINDING AFFINITY PREDICTED BY RF-SCORE:    0.00 PKD
ROOT
HETATM    1  C   UNL     1      -7.440  13.557  67.856  1.00  0.00    -0.153 C  
HETATM    2  N   UNL     1      -7.912  12.638  66.849  1.00  0.00    -0.387 NA 
HETATM    3  C   UNL     1      -9.183  12.620  66.350  1.00  0.00    -0.160 C  
HETATM    4  H   UNL     1      -7.251  11.953  66.484  1.00  0.00     0.000 HD 
HETATM    5  N   UNL     1      -9.404  11.625  65.426  1.00  0.00    -0.372 NA 
HETATM    6  N   UNL     1     -10.049  13.500  66.755  1.00  0.00    -0.262 NA 
HETATM    7  C   UNL     1     -11.281  13.469  66.247  1.00  0.00    -0.297 C  
HETATM    8  H   UNL     1     -10.338  11.575  65.018  1.00  0.00     0.000 HD 
HETATM    9  N   UNL     1     -12.342  13.407  65.782  1.00  0.00    -0.456 NA 
HETATM   10  H   UNL     1      -9.791  14.201  67.448  1.00  0.00     0.000 HD 
ENDROOT
BRANCH   5  11
HETATM   11  C   UNL     1      -8.439  10.638  64.974  1.00  0.00    -0.133 C  
BRANCH  11  12
HETATM   12  C   UNL     1      -8.838   9.193  65.288  1.00  0.00    -0.199 C  
BRANCH  12  13
HETATM   13  S   UNL     1     -10.139   9.281  66.566  1.00  0.00    -0.253 SA 
BRANCH  13  14
HETATM   14  C   UNL     1      -9.236   8.615  68.002  1.00  0.00    -0.140 C  
BRANCH  14  15
HETATM   15  C   UNL     1      -8.639   7.292  67.646  1.00  0.00    -0.126 A  
HETATM   16  C   UNL     1      -9.266   6.125  67.238  1.00  0.00    -0.117 A  
HETATM   17  C   UNL     1     -10.688   5.774  67.030  1.00  0.00    -0.369 C  
HETATM   18  N   UNL     1      -8.245   5.239  67.003  1.00  0.00    -0.108 NA 
HETATM   19  H   UNL     1      -8.347   4.276  66.682  1.00  0.00     0.000 HD 
HETATM   20  C   UNL     1      -7.069   5.875  67.275  1.00  0.00    -0.074 A  
HETATM   21  N   UNL     1      -7.272   7.107  67.679  1.00  0.00    -0.088 NA 
ENDBRANCH  14  15
ENDBRANCH  13  14
ENDBRANCH  12  13
ENDBRANCH  11  12
ENDBRANCH   5  11
TORSDOF 5
ENDMDL
MODEL      354
REMARK 921   NORMALIZED FREE ENERGY PREDICTED BY IDOCK:   -2.29 KCAL/MOL
REMARK 922        TOTAL FREE ENERGY PREDICTED BY IDOCK:   -3.92 KCAL/MOL
REMARK 923 INTER-LIGAND FREE ENERGY PREDICTED BY IDOCK:   -3.66 KCAL/MOL
REMARK 924 INTRA-LIGAND FREE ENERGY PREDICTED BY IDOCK:   -0.27 KCAL/MOL
REMARK 927      BINDING AFFINITY PREDICTED BY RF-SCORE:    0.00 PKD
ROOT
HETATM    1  C   UNL     1     -12.270  14.031  70.264  1.00  0.00    -0.361 C  
HETATM    2  N   UNL     1     -11.216  13.732  69.326  1.00  0.00    -0.310 NA 
HETATM    3  C   UNL     1     -11.357  13.753  67.968  1.00  0.00    -0.288 C  
HETATM    4  H   UNL     1     -10.301  13.487  69.703  1.00  0.00     0.000 HD 
HETATM    5  N   UNL     1     -10.218  13.394  67.285  1.00  0.00    -0.240 NA 
HETATM    6  N   UNL     1     -12.493  14.099  67.441  1.00  0.00    -0.510 NA 
HETATM    7  C   UNL     1     -12.604  14.122  66.113  1.00  0.00    -0.321 C  
HETATM    8  H   UNL     1     -10.270  13.403  66.266  1.00  0.00     0.000 HD 
HETATM    9  N   UNL     1     -12.660  14.129  64.954  1.00  0.00    -0.645 NA 
HETATM   10  H   UNL     1     -13.284  14.350  68.033  1.00  0.00     0.000 HD 
ENDROOT
BRANCH   5  11
HETATM   11  C   UNL     1      -8.948  13.003  67.871  1.00  0.00    -0.200 C  
BRANCH  11  12
HETATM   12  C   UNL     1      -7.866  12.671  66.839  1.00  0.00     0.056 C  
BRANCH  12  13
HETATM   13  S   UNL     1      -7.685  10.854  66.844  1.00  0.00    -0.142 SA 
BRANCH  13  14
HETATM   14  C   UNL     1      -8.595  10.429  65.324  1.00  0.00    -0.176 C  
BRANCH  14  15
HETATM   15  C   UNL     1      -7.977   9.222  64.695  1.00  0.00    -0.125 A  
HETATM   16  C   UNL     1      -6.758   9.093  64.048  1.00  0.00    -0.089 A  
HETATM   17  C   UNL     1      -5.680  10.059  63.744  1.00  0.00    -0.122 C  
HETATM   18  N   UNL     1      -6.677   7.766  63.709  1.00  0.00    -0.061 NA 
HETATM   19  H   UNL     1      -5.902   7.317  63.220  1.00  0.00     0.000 HD 
HETATM   20  C   UNL     1      -7.817   7.154  64.139  1.00  0.00    -0.113 A  
HETATM   21  N   UNL     1      -8.627   8.004  64.724  1.00  0.00    -0.011 NA 
ENDBRANCH  14  15
ENDBRANCH  13  14
ENDBRANCH  12  13
ENDBRANCH  11  12
ENDBRANCH   5  11
TORSDOF 5
ENDMDL
MODEL      355
REMARK 921   NORMALIZED FREE ENERGY PREDICTED BY IDOCK:   -2.27 KCAL/MOL
REMARK 922        TOTAL FREE ENERGY PREDICTED BY IDOCK:   -3.90 KCAL/MOL
REMARK 923 INTER-LIGAND FREE ENERGY PREDICTED BY IDOCK:   -3.42 KCAL/MOL
REMARK 924 INTRA-LIGAND FREE ENERGY PREDICTED BY IDOCK:   -0.49 KCAL/MOL
REMARK 927      BINDING AFFINITY PREDICTED BY RF-SCORE:    0.00 PKD
ROOT
HETATM    1  C   UNL     1      -7.239   5.539  69.505  1.00  0.00    -0.065 C  
HETATM    2  N   UNL     1      -7.956   6.362  68.562  1.00  0.00    -0.105 NA 
HETATM    3  C   UNL     1      -8.416   5.933  67.351  1.00  0.00    -0.103 C  
HETATM    4  H   UNL     1      -8.131   7.334  68.818  1.00  0.00     0.000 HD 
HETATM    5  N   UNL     1      -9.036   6.914  66.613  1.00  0.00    -0.146 NA 
HETATM    6  N   UNL     1      -8.253   4.693  66.999  1.00  0.00    -0.106 NA 
HETATM    7  C   UNL     1      -8.719   4.295  65.815  1.00  0.00    -0.119 C  
HETATM    8  H   UNL     1      -9.406   6.640  65.701  1.00  0.00     0.000 HD 
HETATM    9  N   UNL     1      -9.139   3.988  64.778  1.00  0.00    -0.133 NA 
HETATM   10  H   UNL     1      -7.777   4.037  67.617  1.00  0.00     0.000 HD 
ENDROOT
BRANCH   5  11
HETATM   11  C   UNL     1      -9.218   8.302  67.001  1.00  0.00    -0.152 C  
BRANCH  11  12
HETATM   12  C   UNL     1     -10.593   8.871  66.643  1.00  0.00    -0.080 C  
BRANCH  12  13
HETATM   13  S   UNL     1     -10.874  10.289  67.759  1.00  0.00    -0.292 SA 
BRANCH  13  14
HETATM   14  C   UNL     1     -10.017   9.705  69.256  1.00  0.00    -0.191 C  
BRANCH  14  15
HETATM   15  C   UNL     1     -11.023   9.224  70.252  1.00  0.00    -0.247 A  
HETATM   16  C   UNL     1     -11.383   7.927  70.583  1.00  0.00    -0.259 A  
HETATM   17  C   UNL     1     -10.937   6.608  70.085  1.00  0.00    -0.358 C  
HETATM   18  N   UNL     1     -12.315   8.062  71.581  1.00  0.00    -0.304 NA 
HETATM   19  H   UNL     1     -12.791   7.302  72.065  1.00  0.00     0.000 HD 
HETATM   20  C   UNL     1     -12.490   9.395  71.811  1.00  0.00    -0.391 A  
HETATM   21  N   UNL     1     -11.739  10.122  71.018  1.00  0.00    -0.366 NA 
ENDBRANCH  14  15
ENDBRANCH  13  14
ENDBRANCH  12  13
ENDBRANCH  11  12
ENDBRANCH   5  11
TORSDOF 5
ENDMDL
MODEL      356
REMARK 921   NORMALIZED FREE ENERGY PREDICTED BY IDOCK:   -2.27 KCAL/MOL
REMARK 922        TOTAL FREE ENERGY PREDICTED BY IDOCK:   -3.90 KCAL/MOL
REMARK 923 INTER-LIGAND FREE ENERGY PREDICTED BY IDOCK:   -3.67 KCAL/MOL
REMARK 924 INTRA-LIGAND FREE ENERGY PREDICTED BY IDOCK:   -0.23 KCAL/MOL
REMARK 927      BINDING AFFINITY PREDICTED BY RF-SCORE:    0.00 PKD
ROOT
HETATM    1  C   UNL     1      -7.390   5.253  68.624  1.00  0.00    -0.070 C  
HETATM    2  N   UNL     1      -7.756   6.556  68.123  1.00  0.00    -0.103 NA 
HETATM    3  C   UNL     1      -7.263   7.113  66.978  1.00  0.00    -0.091 C  
HETATM    4  H   UNL     1      -8.429   7.099  68.663  1.00  0.00     0.000 HD 
HETATM    5  N   UNL     1      -7.734   8.381  66.730  1.00  0.00    -0.090 NA 
HETATM    6  N   UNL     1      -6.435   6.441  66.236  1.00  0.00    -0.042 NA 
HETATM    7  C   UNL     1      -5.974   7.001  65.118  1.00  0.00    -0.036 C  
HETATM    8  H   UNL     1      -7.401   8.838  65.880  1.00  0.00     0.000 HD 
HETATM    9  N   UNL     1      -5.597   7.525  64.154  1.00  0.00    -0.033 NA 
HETATM   10  H   UNL     1      -6.142   5.502  66.505  1.00  0.00     0.000 HD 
ENDROOT
BRANCH   5  11
HETATM   11  C   UNL     1      -8.658   9.136  67.558  1.00  0.00    -0.116 C  
BRANCH  11  12
HETATM   12  C   UNL     1     -10.101   9.123  67.047  1.00  0.00    -0.249 C  
BRANCH  12  13
HETATM   13  S   UNL     1     -10.228  10.466  65.817  1.00  0.00    -0.200 SA 
BRANCH  13  14
HETATM   14  C   UNL     1     -11.285  11.642  66.722  1.00  0.00    -0.308 C  
BRANCH  14  15
HETATM   15  C   UNL     1     -11.582  12.819  65.850  1.00  0.00    -0.382 A  
HETATM   16  C   UNL     1     -10.884  14.009  65.711  1.00  0.00    -0.291 A  
HETATM   17  C   UNL     1      -9.660  14.532  66.356  1.00  0.00    -0.324 C  
HETATM   18  N   UNL     1     -11.569  14.711  64.751  1.00  0.00    -0.405 NA 
HETATM   19  H   UNL     1     -11.328  15.636  64.396  1.00  0.00     0.000 HD 
HETATM   20  C   UNL     1     -12.631  13.951  64.357  1.00  0.00    -0.168 A  
HETATM   21  N   UNL     1     -12.676  12.813  65.009  1.00  0.00    -0.760 NA 
ENDBRANCH  14  15
ENDBRANCH  13  14
ENDBRANCH  12  13
ENDBRANCH  11  12
ENDBRANCH   5  11
TORSDOF 5
ENDMDL
MODEL      357
REMARK 921   NORMALIZED FREE ENERGY PREDICTED BY IDOCK:   -2.26 KCAL/MOL
REMARK 922        TOTAL FREE ENERGY PREDICTED BY IDOCK:   -3.89 KCAL/MOL
REMARK 923 INTER-LIGAND FREE ENERGY PREDICTED BY IDOCK:   -3.56 KCAL/MOL
REMARK 924 INTRA-LIGAND FREE ENERGY PREDICTED BY IDOCK:   -0.33 KCAL/MOL
REMARK 927      BINDING AFFINITY PREDICTED BY RF-SCORE:    0.00 PKD
ROOT
HETATM    1  C   UNL     1      -7.189   6.123  66.875  1.00  0.00    -0.074 C  
HETATM    2  N   UNL     1      -8.011   7.300  66.726  1.00  0.00    -0.116 NA 
HETATM    3  C   UNL     1      -7.700   8.531  67.226  1.00  0.00    -0.097 C  
HETATM    4  H   UNL     1      -8.886   7.205  66.211  1.00  0.00     0.000 HD 
HETATM    5  N   UNL     1      -8.660   9.487  66.988  1.00  0.00    -0.127 NA 
HETATM    6  N   UNL     1      -6.576   8.710  67.854  1.00  0.00    -0.060 NA 
HETATM    7  C   UNL     1      -6.290   9.923  68.325  1.00  0.00    -0.054 C  
HETATM    8  H   UNL     1      -8.470  10.428  67.335  1.00  0.00     0.000 HD 
HETATM    9  N   UNL     1      -6.079  10.994  68.720  1.00  0.00    -0.043 NA 
HETATM   10  H   UNL     1      -5.925   7.936  67.982  1.00  0.00     0.000 HD 
ENDROOT
BRANCH   5  11
HETATM   11  C   UNL     1      -9.919   9.290  66.290  1.00  0.00    -0.286 C  
BRANCH  11  12
HETATM   12  C   UNL     1     -10.965  10.369  66.583  1.00  0.00     0.003 C  
BRANCH  12  13
HETATM   13  S   UNL     1     -10.679  11.710  65.378  1.00  0.00    -0.279 SA 
BRANCH  13  14
HETATM   14  C   UNL     1     -12.137  12.755  65.695  1.00  0.00    -0.459 C  
BRANCH  14  15
HETATM   15  C   UNL     1     -11.843  13.694  66.820  1.00  0.00    -0.413 A  
HETATM   16  C   UNL     1     -11.189  14.916  66.798  1.00  0.00    -0.338 A  
HETATM   17  C   UNL     1     -10.559  15.694  65.708  1.00  0.00    -0.374 C  
HETATM   18  N   UNL     1     -11.237  15.367  68.093  1.00  0.00    -0.312 NA 
HETATM   19  H   UNL     1     -10.853  16.246  68.438  1.00  0.00     0.000 HD 
HETATM   20  C   UNL     1     -11.891  14.429  68.837  1.00  0.00    -0.320 A  
HETATM   21  N   UNL     1     -12.256  13.403  68.104  1.00  0.00    -0.208 NA 
ENDBRANCH  14  15
ENDBRANCH  13  14
ENDBRANCH  12  13
ENDBRANCH  11  12
ENDBRANCH   5  11
TORSDOF 5
ENDMDL
MODEL      358
REMARK 921   NORMALIZED FREE ENERGY PREDICTED BY IDOCK:   -2.26 KCAL/MOL
REMARK 922        TOTAL FREE ENERGY PREDICTED BY IDOCK:   -3.88 KCAL/MOL
REMARK 923 INTER-LIGAND FREE ENERGY PREDICTED BY IDOCK:   -3.82 KCAL/MOL
REMARK 924 INTRA-LIGAND FREE ENERGY PREDICTED BY IDOCK:   -0.06 KCAL/MOL
REMARK 927      BINDING AFFINITY PREDICTED BY RF-SCORE:    0.00 PKD
ROOT
HETATM    1  C   UNL     1     -11.952  10.725  69.892  1.00  0.00    -0.342 C  
HETATM    2  N   UNL     1     -11.201  11.484  68.922  1.00  0.00    -0.224 NA 
HETATM    3  C   UNL     1     -10.585  10.951  67.827  1.00  0.00    -0.217 C  
HETATM    4  H   UNL     1     -11.123  12.491  69.066  1.00  0.00     0.000 HD 
HETATM    5  N   UNL     1      -9.897  11.873  67.072  1.00  0.00    -0.191 NA 
HETATM    6  N   UNL     1     -10.691   9.680  67.580  1.00  0.00    -0.335 NA 
HETATM    7  C   UNL     1     -10.089   9.183  66.500  1.00  0.00    -0.287 C  
HETATM    8  H   UNL     1      -9.426  11.524  66.237  1.00  0.00     0.000 HD 
HETATM    9  N   UNL     1      -9.550   8.791  65.550  1.00  0.00    -0.055 NA 
HETATM   10  H   UNL     1     -11.224   9.073  68.202  1.00  0.00     0.000 HD 
ENDROOT
BRANCH   5  11
HETATM   11  C   UNL     1      -9.774  13.294  67.346  1.00  0.00    -0.221 C  
BRANCH  11  12
HETATM   12  C   UNL     1      -8.374  13.856  67.087  1.00  0.00    -0.154 C  
BRANCH  12  13
HETATM   13  S   UNL     1      -8.606  15.451  66.229  1.00  0.00     0.045 SA 
BRANCH  13  14
HETATM   14  C   UNL     1      -8.130  16.609  67.551  1.00  0.00    -0.168 C  
BRANCH  14  15
HETATM   15  C   UNL     1      -9.241  16.715  68.546  1.00  0.00    -0.234 A  
HETATM   16  C   UNL     1     -10.232  17.677  68.658  1.00  0.00    -0.377 A  
HETATM   17  C   UNL     1     -10.530  18.901  67.883  1.00  0.00    -0.459 C  
HETATM   18  N   UNL     1     -11.008  17.264  69.712  1.00  0.00    -0.188 NA 
HETATM   19  H   UNL     1     -11.836  17.739  70.071  1.00  0.00     0.000 HD 
HETATM   20  C   UNL     1     -10.474  16.106  70.195  1.00  0.00    -0.141 A  
HETATM   21  N   UNL     1      -9.401  15.755  69.525  1.00  0.00    -0.268 NA 
ENDBRANCH  14  15
ENDBRANCH  13  14
ENDBRANCH  12  13
ENDBRANCH  11  12
ENDBRANCH   5  11
TORSDOF 5
ENDMDL
MODEL      359
REMARK 921   NORMALIZED FREE ENERGY PREDICTED BY IDOCK:   -2.26 KCAL/MOL
REMARK 922        TOTAL FREE ENERGY PREDICTED BY IDOCK:   -3.88 KCAL/MOL
REMARK 923 INTER-LIGAND FREE ENERGY PREDICTED BY IDOCK:   -3.61 KCAL/MOL
REMARK 924 INTRA-LIGAND FREE ENERGY PREDICTED BY IDOCK:   -0.27 KCAL/MOL
REMARK 927      BINDING AFFINITY PREDICTED BY RF-SCORE:    0.00 PKD
ROOT
HETATM    1  C   UNL     1      -9.367   5.283  71.779  1.00  0.00    -0.146 C  
HETATM    2  N   UNL     1     -10.030   5.765  70.592  1.00  0.00    -0.185 NA 
HETATM    3  C   UNL     1     -11.087   6.629  70.590  1.00  0.00    -0.298 C  
HETATM    4  H   UNL     1      -9.685   5.438  69.690  1.00  0.00     0.000 HD 
HETATM    5  N   UNL     1     -11.573   6.911  69.334  1.00  0.00    -0.590 NA 
HETATM    6  N   UNL     1     -11.535   7.105  71.713  1.00  0.00    -0.258 NA 
HETATM    7  C   UNL     1     -12.563   7.953  71.686  1.00  0.00    -0.321 C  
HETATM    8  H   UNL     1     -12.359   7.559  69.280  1.00  0.00     0.000 HD 
HETATM    9  N   UNL     1     -13.458   8.688  71.620  1.00  0.00    -0.357 NA 
HETATM   10  H   UNL     1     -11.108   6.834  72.598  1.00  0.00     0.000 HD 
ENDROOT
BRANCH   5  11
HETATM   11  C   UNL     1     -11.077   6.378  68.078  1.00  0.00    -0.267 C  
BRANCH  11  12
HETATM   12  C   UNL     1     -10.079   7.296  67.366  1.00  0.00    -0.204 C  
BRANCH  12  13
HETATM   13  S   UNL     1      -9.152   6.246  66.195  1.00  0.00    -0.104 SA 
BRANCH  13  14
HETATM   14  C   UNL     1     -10.116   4.704  66.301  1.00  0.00    -0.265 C  
BRANCH  14  15
HETATM   15  C   UNL     1      -9.235   3.541  65.973  1.00  0.00    -0.165 A  
HETATM   16  C   UNL     1      -8.101   3.085  66.625  1.00  0.00    -0.084 A  
HETATM   17  C   UNL     1      -7.371   3.568  67.818  1.00  0.00    -0.058 C  
HETATM   18  N   UNL     1      -7.718   1.967  65.929  1.00  0.00    -0.070 NA 
HETATM   19  H   UNL     1      -6.916   1.373  66.139  1.00  0.00     0.000 HD 
HETATM   20  C   UNL     1      -8.601   1.791  64.904  1.00  0.00    -0.099 A  
HETATM   21  N   UNL     1      -9.518   2.729  64.893  1.00  0.00    -0.140 NA 
ENDBRANCH  14  15
ENDBRANCH  13  14
ENDBRANCH  12  13
ENDBRANCH  11  12
ENDBRANCH   5  11
TORSDOF 5
ENDMDL
MODEL      360
REMARK 921   NORMALIZED FREE ENERGY PREDICTED BY IDOCK:   -2.23 KCAL/MOL
REMARK 922        TOTAL FREE ENERGY PREDICTED BY IDOCK:   -3.85 KCAL/MOL
REMARK 923 INTER-LIGAND FREE ENERGY PREDICTED BY IDOCK:   -3.73 KCAL/MOL
REMARK 924 INTRA-LIGAND FREE ENERGY PREDICTED BY IDOCK:   -0.12 KCAL/MOL
REMARK 927      BINDING AFFINITY PREDICTED BY RF-SCORE:    0.00 PKD
ROOT
HETATM    1  C   UNL     1      -7.077  12.711  68.635  1.00  0.00    -0.096 C  
HETATM    2  N   UNL     1      -8.048  11.718  69.026  1.00  0.00    -0.360 NA 
HETATM    3  C   UNL     1      -9.318  11.638  68.532  1.00  0.00    -0.167 C  
HETATM    4  H   UNL     1      -7.765  11.026  69.720  1.00  0.00     0.000 HD 
HETATM    5  N   UNL     1     -10.068  10.628  69.088  1.00  0.00    -0.215 NA 
HETATM    6  N   UNL     1      -9.709  12.472  67.616  1.00  0.00    -0.192 NA 
HETATM    7  C   UNL     1     -10.951  12.370  67.143  1.00  0.00    -0.262 C  
HETATM    8  H   UNL     1     -11.024  10.522  68.745  1.00  0.00     0.000 HD 
HETATM    9  N   UNL     1     -12.039  12.247  66.757  1.00  0.00    -0.565 NA 
HETATM   10  H   UNL     1      -9.078  13.191  67.266  1.00  0.00     0.000 HD 
ENDROOT
BRANCH   5  11
HETATM   11  C   UNL     1      -9.636   9.696  70.115  1.00  0.00    -0.254 C  
BRANCH  11  12
HETATM   12  C   UNL     1      -9.923   8.230  69.781  1.00  0.00    -0.191 C  
BRANCH  12  13
HETATM   13  S   UNL     1      -8.361   7.322  70.049  1.00  0.00    -0.139 SA 
BRANCH  13  14
HETATM   14  C   UNL     1      -8.995   5.625  70.239  1.00  0.00    -0.139 C  
BRANCH  14  15
HETATM   15  C   UNL     1      -9.760   5.519  71.519  1.00  0.00    -0.156 A  
HETATM   16  C   UNL     1      -9.310   5.199  72.790  1.00  0.00    -0.135 A  
HETATM   17  C   UNL     1      -7.973   4.847  73.317  1.00  0.00    -0.100 C  
HETATM   18  N   UNL     1     -10.419   5.290  73.592  1.00  0.00    -0.232 NA 
HETATM   19  H   UNL     1     -10.449   5.124  74.598  1.00  0.00     0.000 HD 
HETATM   20  C   UNL     1     -11.475   5.644  72.805  1.00  0.00    -0.274 A  
HETATM   21  N   UNL     1     -11.116   5.775  71.549  1.00  0.00    -0.248 NA 
ENDBRANCH  14  15
ENDBRANCH  13  14
ENDBRANCH  12  13
ENDBRANCH  11  12
ENDBRANCH   5  11
TORSDOF 5
ENDMDL
MODEL      361
REMARK 921   NORMALIZED FREE ENERGY PREDICTED BY IDOCK:   -2.21 KCAL/MOL
REMARK 922        TOTAL FREE ENERGY PREDICTED BY IDOCK:   -3.82 KCAL/MOL
REMARK 923 INTER-LIGAND FREE ENERGY PREDICTED BY IDOCK:   -3.58 KCAL/MOL
REMARK 924 INTRA-LIGAND FREE ENERGY PREDICTED BY IDOCK:   -0.24 KCAL/MOL
REMARK 927      BINDING AFFINITY PREDICTED BY RF-SCORE:    0.00 PKD
ROOT
HETATM    1  C   UNL     1     -11.877  13.375  69.461  1.00  0.00    -0.332 C  
HETATM    2  N   UNL     1     -11.088  12.621  68.516  1.00  0.00    -0.250 NA 
HETATM    3  C   UNL     1     -11.270  12.640  67.164  1.00  0.00    -0.300 C  
HETATM    4  H   UNL     1     -10.342  12.032  68.885  1.00  0.00     0.000 HD 
HETATM    5  N   UNL     1     -10.418  11.807  66.476  1.00  0.00    -0.223 NA 
HETATM    6  N   UNL     1     -12.181  13.407  66.645  1.00  0.00    -0.370 NA 
HETATM    7  C   UNL     1     -12.335  13.417  65.320  1.00  0.00    -0.469 C  
HETATM    8  H   UNL     1     -10.510  11.793  65.460  1.00  0.00     0.000 HD 
HETATM    9  N   UNL     1     -12.436  13.396  64.165  1.00  0.00    -0.653 NA 
HETATM   10  H   UNL     1     -12.768  13.992  67.239  1.00  0.00     0.000 HD 
ENDROOT
BRANCH   5  11
HETATM   11  C   UNL     1      -9.401  10.946  67.053  1.00  0.00    -0.163 C  
BRANCH  11  12
HETATM   12  C   UNL     1      -9.953   9.646  67.644  1.00  0.00    -0.174 C  
BRANCH  12  13
HETATM   13  S   UNL     1      -8.737   8.341  67.252  1.00  0.00    -0.124 SA 
BRANCH  13  14
HETATM   14  C   UNL     1      -8.735   8.429  65.433  1.00  0.00    -0.141 C  
BRANCH  14  15
HETATM   15  C   UNL     1      -7.327   8.525  64.940  1.00  0.00    -0.087 A  
HETATM   16  C   UNL     1      -6.376   7.527  64.792  1.00  0.00    -0.038 A  
HETATM   17  C   UNL     1      -6.400   6.074  65.069  1.00  0.00    -0.037 C  
HETATM   18  N   UNL     1      -5.280   8.159  64.263  1.00  0.00    -0.040 NA 
HETATM   19  H   UNL     1      -4.392   7.720  64.020  1.00  0.00     0.000 HD 
HETATM   20  C   UNL     1      -5.588   9.480  64.119  1.00  0.00    -0.072 A  
HETATM   21  N   UNL     1      -6.807   9.736  64.531  1.00  0.00    -0.112 NA 
ENDBRANCH  14  15
ENDBRANCH  13  14
ENDBRANCH  12  13
ENDBRANCH  11  12
ENDBRANCH   5  11
TORSDOF 5
ENDMDL
MODEL      362
REMARK 921   NORMALIZED FREE ENERGY PREDICTED BY IDOCK:   -2.06 KCAL/MOL
REMARK 922        TOTAL FREE ENERGY PREDICTED BY IDOCK:   -3.63 KCAL/MOL
REMARK 923 INTER-LIGAND FREE ENERGY PREDICTED BY IDOCK:   -3.24 KCAL/MOL
REMARK 924 INTRA-LIGAND FREE ENERGY PREDICTED BY IDOCK:   -0.39 KCAL/MOL
REMARK 927      BINDING AFFINITY PREDICTED BY RF-SCORE:    0.00 PKD
ROOT
HETATM    1  C   UNL     1      -6.649  10.831  66.195  1.00  0.00    -0.127 C  
HETATM    2  N   UNL     1      -8.016  10.434  66.431  1.00  0.00    -0.125 NA 
HETATM    3  C   UNL     1      -9.086  11.281  66.400  1.00  0.00    -0.192 C  
HETATM    4  H   UNL     1      -8.195   9.451  66.635  1.00  0.00     0.000 HD 
HETATM    5  N   UNL     1     -10.284  10.673  66.694  1.00  0.00    -0.224 NA 
HETATM    6  N   UNL     1      -8.911  12.533  66.103  1.00  0.00    -0.418 NA 
HETATM    7  C   UNL     1      -9.972  13.340  66.070  1.00  0.00    -0.292 C  
HETATM    8  H   UNL     1     -11.116  11.264  66.676  1.00  0.00     0.000 HD 
HETATM    9  N   UNL     1     -10.920  14.008  66.052  1.00  0.00    -0.295 NA 
HETATM   10  H   UNL     1      -7.979  12.893  65.899  1.00  0.00     0.000 HD 
ENDROOT
BRANCH   5  11
HETATM   11  C   UNL     1     -10.483   9.274  67.030  1.00  0.00    -0.233 C  
BRANCH  11  12
HETATM   12  C   UNL     1     -10.511   8.996  68.535  1.00  0.00    -0.196 C  
BRANCH  12  13
HETATM   13  S   UNL     1     -10.683   7.188  68.725  1.00  0.00    -0.128 SA 
BRANCH  13  14
HETATM   14  C   UNL     1     -11.001   6.704  66.999  1.00  0.00    -0.393 C  
BRANCH  14  15
HETATM   15  C   UNL     1     -10.134   5.540  66.639  1.00  0.00    -0.209 A  
HETATM   16  C   UNL     1      -9.003   5.500  65.839  1.00  0.00    -0.154 A  
HETATM   17  C   UNL     1      -8.283   6.540  65.072  1.00  0.00    -0.115 C  
HETATM   18  N   UNL     1      -8.583   4.195  65.886  1.00  0.00    -0.113 NA 
HETATM   19  H   UNL     1      -7.767   3.808  65.411  1.00  0.00     0.000 HD 
HETATM   20  C   UNL     1      -9.450   3.505  66.683  1.00  0.00    -0.156 A  
HETATM   21  N   UNL     1     -10.403   4.282  67.140  1.00  0.00     0.124 NA 
ENDBRANCH  14  15
ENDBRANCH  13  14
ENDBRANCH  12  13
ENDBRANCH  11  12
ENDBRANCH   5  11
TORSDOF 5
ENDMDL
MODEL      363
REMARK 921   NORMALIZED FREE ENERGY PREDICTED BY IDOCK:   -2.04 KCAL/MOL
REMARK 922        TOTAL FREE ENERGY PREDICTED BY IDOCK:   -3.60 KCAL/MOL
REMARK 923 INTER-LIGAND FREE ENERGY PREDICTED BY IDOCK:   -3.14 KCAL/MOL
REMARK 924 INTRA-LIGAND FREE ENERGY PREDICTED BY IDOCK:   -0.46 KCAL/MOL
REMARK 927      BINDING AFFINITY PREDICTED BY RF-SCORE:    0.00 PKD
ROOT
HETATM    1  C   UNL     1      -6.113   5.096  72.586  1.00  0.00    -0.027 C  
HETATM    2  N   UNL     1      -7.197   6.032  72.764  1.00  0.00    -0.088 NA 
HETATM    3  C   UNL     1      -8.500   5.680  72.964  1.00  0.00    -0.118 C  
HETATM    4  H   UNL     1      -6.973   7.027  72.738  1.00  0.00     0.000 HD 
HETATM    5  N   UNL     1      -9.356   6.753  73.068  1.00  0.00    -0.134 NA 
HETATM    6  N   UNL     1      -8.827   4.425  73.046  1.00  0.00    -0.113 NA 
HETATM    7  C   UNL     1     -10.104   4.106  73.251  1.00  0.00    -0.142 C  
HETATM    8  H   UNL     1     -10.342   6.541  73.227  1.00  0.00     0.000 HD 
HETATM    9  N   UNL     1     -11.226   3.870  73.431  1.00  0.00    -0.234 NA 
HETATM   10  H   UNL     1      -8.118   3.698  72.955  1.00  0.00     0.000 HD 
ENDROOT
BRANCH   5  11
HETATM   11  C   UNL     1      -8.995   8.156  72.974  1.00  0.00    -0.266 C  
BRANCH  11  12
HETATM   12  C   UNL     1      -9.401   8.812  71.651  1.00  0.00    -0.275 C  
BRANCH  12  13
HETATM   13  S   UNL     1      -7.850   9.233  70.784  1.00  0.00    -0.108 SA 
BRANCH  13  14
HETATM   14  C   UNL     1      -8.495  10.287  69.446  1.00  0.00    -0.160 C  
BRANCH  14  15
HETATM   15  C   UNL     1      -9.399   9.481  68.568  1.00  0.00    -0.137 A  
HETATM   16  C   UNL     1     -10.710   9.727  68.193  1.00  0.00    -0.233 A  
HETATM   17  C   UNL     1     -11.656  10.816  68.521  1.00  0.00    -0.325 C  
HETATM   18  N   UNL     1     -11.036   8.696  67.349  1.00  0.00    -0.428 NA 
HETATM   19  H   UNL     1     -11.932   8.563  66.880  1.00  0.00     0.000 HD 
HETATM   20  C   UNL     1      -9.948   7.879  67.248  1.00  0.00    -0.215 A  
HETATM   21  N   UNL     1      -8.951   8.315  67.981  1.00  0.00    -0.138 NA 
ENDBRANCH  14  15
ENDBRANCH  13  14
ENDBRANCH  12  13
ENDBRANCH  11  12
ENDBRANCH   5  11
TORSDOF 5
ENDMDL
MODEL      364
REMARK 921   NORMALIZED FREE ENERGY PREDICTED BY IDOCK:   -2.00 KCAL/MOL
REMARK 922        TOTAL FREE ENERGY PREDICTED BY IDOCK:   -3.55 KCAL/MOL
REMARK 923 INTER-LIGAND FREE ENERGY PREDICTED BY IDOCK:   -3.25 KCAL/MOL
REMARK 924 INTRA-LIGAND FREE ENERGY PREDICTED BY IDOCK:   -0.30 KCAL/MOL
REMARK 927      BINDING AFFINITY PREDICTED BY RF-SCORE:    0.00 PKD
ROOT
HETATM    1  C   UNL     1     -10.675   9.982  69.813  1.00  0.00    -0.271 C  
HETATM    2  N   UNL     1      -9.850   9.124  68.998  1.00  0.00    -0.170 NA 
HETATM    3  C   UNL     1      -9.690   9.254  67.649  1.00  0.00    -0.157 C  
HETATM    4  H   UNL     1      -9.352   8.365  69.464  1.00  0.00     0.000 HD 
HETATM    5  N   UNL     1      -8.883   8.291  67.090  1.00  0.00    -0.135 NA 
HETATM    6  N   UNL     1     -10.272  10.230  67.020  1.00  0.00    -0.217 NA 
HETATM    7  C   UNL     1     -10.094  10.343  65.704  1.00  0.00    -0.269 C  
HETATM    8  H   UNL     1      -8.725   8.350  66.083  1.00  0.00     0.000 HD 
HETATM    9  N   UNL     1      -9.913  10.406  64.559  1.00  0.00    -0.343 NA 
HETATM   10  H   UNL     1     -10.855  10.898  67.524  1.00  0.00     0.000 HD 
ENDROOT
BRANCH   5  11
HETATM   11  C   UNL     1      -8.233   7.196  67.789  1.00  0.00    -0.115 C  
BRANCH  11  12
HETATM   12  C   UNL     1      -9.154   6.005  68.066  1.00  0.00    -0.117 C  
BRANCH  12  13
HETATM   13  S   UNL     1      -8.305   4.971  69.309  1.00  0.00    -0.082 SA 
BRANCH  13  14
HETATM   14  C   UNL     1      -9.686   3.921  69.863  1.00  0.00    -0.164 C  
BRANCH  14  15
HETATM   15  C   UNL     1     -10.011   4.234  71.289  1.00  0.00    -0.160 A  
HETATM   16  C   UNL     1     -10.754   5.279  71.812  1.00  0.00    -0.170 A  
HETATM   17  C   UNL     1     -11.452   6.423  71.185  1.00  0.00    -0.381 C  
HETATM   18  N   UNL     1     -10.769   5.059  73.167  1.00  0.00    -0.232 NA 
HETATM   19  H   UNL     1     -11.235   5.638  73.865  1.00  0.00     0.000 HD 
HETATM   20  C   UNL     1     -10.051   3.926  73.413  1.00  0.00    -0.138 A  
HETATM   21  N   UNL     1      -9.568   3.413  72.306  1.00  0.00    -0.126 NA 
ENDBRANCH  14  15
ENDBRANCH  13  14
ENDBRANCH  12  13
ENDBRANCH  11  12
ENDBRANCH   5  11
TORSDOF 5
ENDMDL
MODEL      365
REMARK 921   NORMALIZED FREE ENERGY PREDICTED BY IDOCK:   -1.99 KCAL/MOL
REMARK 922        TOTAL FREE ENERGY PREDICTED BY IDOCK:   -3.54 KCAL/MOL
REMARK 923 INTER-LIGAND FREE ENERGY PREDICTED BY IDOCK:   -2.99 KCAL/MOL
REMARK 924 INTRA-LIGAND FREE ENERGY PREDICTED BY IDOCK:   -0.55 KCAL/MOL
REMARK 927      BINDING AFFINITY PREDICTED BY RF-SCORE:    0.00 PKD
ROOT
HETATM    1  C   UNL     1     -10.560  16.064  69.757  1.00  0.00    -0.323 C  
HETATM    2  N   UNL     1     -10.990  14.687  69.728  1.00  0.00    -0.384 NA 
HETATM    3  C   UNL     1     -11.574  14.079  68.655  1.00  0.00    -0.325 C  
HETATM    4  H   UNL     1     -10.847  14.128  70.569  1.00  0.00     0.000 HD 
HETATM    5  N   UNL     1     -11.931  12.770  68.883  1.00  0.00    -0.286 NA 
HETATM    6  N   UNL     1     -11.739  14.740  67.548  1.00  0.00    -0.376 NA 
HETATM    7  C   UNL     1     -12.304  14.122  66.510  1.00  0.00    -0.372 C  
HETATM    8  H   UNL     1     -12.365  12.269  68.107  1.00  0.00     0.000 HD 
HETATM    9  N   UNL     1     -12.799  13.550  65.631  1.00  0.00    -0.503 NA 
HETATM   10  H   UNL     1     -11.442  15.712  67.475  1.00  0.00     0.000 HD 
ENDROOT
BRANCH   5  11
HETATM   11  C   UNL     1     -11.751  12.030  70.120  1.00  0.00    -0.233 C  
BRANCH  11  12
HETATM   12  C   UNL     1     -11.717  10.511  69.933  1.00  0.00    -0.294 C  
BRANCH  12  13
HETATM   13  S   UNL     1     -10.116   9.942  70.602  1.00  0.00     0.066 SA 
BRANCH  13  14
HETATM   14  C   UNL     1      -8.980  11.086  69.755  1.00  0.00     0.799 C  
BRANCH  14  15
HETATM   15  C   UNL     1      -8.459  10.442  68.511  1.00  0.00    -0.129 A  
HETATM   16  C   UNL     1      -8.609  10.832  67.189  1.00  0.00    -0.128 A  
HETATM   17  C   UNL     1      -9.318  11.965  66.556  1.00  0.00    -0.222 C  
HETATM   18  N   UNL     1      -7.895   9.911  66.465  1.00  0.00    -0.109 NA 
HETATM   19  H   UNL     1      -7.784   9.898  65.452  1.00  0.00     0.000 HD 
HETATM   20  C   UNL     1      -7.358   9.015  67.343  1.00  0.00    -0.084 A  
HETATM   21  N   UNL     1      -7.691   9.297  68.581  1.00  0.00    -0.084 NA 
ENDBRANCH  14  15
ENDBRANCH  13  14
ENDBRANCH  12  13
ENDBRANCH  11  12
ENDBRANCH   5  11
TORSDOF 5
ENDMDL
MODEL      366
REMARK 921   NORMALIZED FREE ENERGY PREDICTED BY IDOCK:   -1.98 KCAL/MOL
REMARK 922        TOTAL FREE ENERGY PREDICTED BY IDOCK:   -3.52 KCAL/MOL
REMARK 923 INTER-LIGAND FREE ENERGY PREDICTED BY IDOCK:   -3.15 KCAL/MOL
REMARK 924 INTRA-LIGAND FREE ENERGY PREDICTED BY IDOCK:   -0.37 KCAL/MOL
REMARK 927      BINDING AFFINITY PREDICTED BY RF-SCORE:    0.00 PKD
ROOT
HETATM    1  C   UNL     1      -7.759  11.876  68.460  1.00  0.00    -0.135 C  
HETATM    2  N   UNL     1      -7.963  11.197  67.203  1.00  0.00    -0.133 NA 
HETATM    3  C   UNL     1      -9.102  11.275  66.456  1.00  0.00    -0.184 C  
HETATM    4  H   UNL     1      -7.202  10.619  66.848  1.00  0.00     0.000 HD 
HETATM    5  N   UNL     1      -9.072  10.507  65.314  1.00  0.00    -0.180 NA 
HETATM    6  N   UNL     1     -10.083  12.032  66.847  1.00  0.00    -0.204 NA 
HETATM    7  C   UNL     1     -11.182  12.100  66.096  1.00  0.00    -0.338 C  
HETATM    8  H   UNL     1      -9.899  10.538  64.717  1.00  0.00     0.000 HD 
HETATM    9  N   UNL     1     -12.120  12.130  65.414  1.00  0.00    -0.484 NA 
HETATM   10  H   UNL     1     -10.012  12.566  67.713  1.00  0.00     0.000 HD 
ENDROOT
BRANCH   5  11
HETATM   11  C   UNL     1      -7.979   9.657  64.876  1.00  0.00    -0.124 C  
BRANCH  11  12
HETATM   12  C   UNL     1      -8.283   8.159  64.972  1.00  0.00    -0.154 C  
BRANCH  12  13
HETATM   13  S   UNL     1      -7.152   7.481  66.235  1.00  0.00    -0.071 SA 
BRANCH  13  14
HETATM   14  C   UNL     1      -6.878   5.808  65.568  1.00  0.00    -0.059 C  
BRANCH  14  15
HETATM   15  C   UNL     1      -8.140   5.015  65.675  1.00  0.00    -0.113 A  
HETATM   16  C   UNL     1      -8.803   4.565  66.806  1.00  0.00    -0.112 A  
HETATM   17  C   UNL     1      -8.510   4.685  68.251  1.00  0.00    -0.101 C  
HETATM   18  N   UNL     1      -9.924   3.932  66.331  1.00  0.00    -0.404 NA 
HETATM   19  H   UNL     1     -10.646   3.484  66.895  1.00  0.00     0.000 HD 
HETATM   20  C   UNL     1      -9.901   4.009  64.969  1.00  0.00    -0.202 A  
HETATM   21  N   UNL     1      -8.834   4.642  64.542  1.00  0.00    -0.151 NA 
ENDBRANCH  14  15
ENDBRANCH  13  14
ENDBRANCH  12  13
ENDBRANCH  11  12
ENDBRANCH   5  11
TORSDOF 5
ENDMDL
MODEL      367
REMARK 921   NORMALIZED FREE ENERGY PREDICTED BY IDOCK:   -1.78 KCAL/MOL
REMARK 922        TOTAL FREE ENERGY PREDICTED BY IDOCK:   -3.26 KCAL/MOL
REMARK 923 INTER-LIGAND FREE ENERGY PREDICTED BY IDOCK:   -2.89 KCAL/MOL
REMARK 924 INTRA-LIGAND FREE ENERGY PREDICTED BY IDOCK:   -0.37 KCAL/MOL
REMARK 927      BINDING AFFINITY PREDICTED BY RF-SCORE:    0.00 PKD
ROOT
HETATM    1  C   UNL     1      -9.360   1.570  68.792  1.00  0.00    -0.161 C  
HETATM    2  N   UNL     1      -8.867   2.871  68.409  1.00  0.00    -0.108 NA 
HETATM    3  C   UNL     1      -9.184   4.037  69.042  1.00  0.00    -0.152 C  
HETATM    4  H   UNL     1      -8.238   2.922  67.608  1.00  0.00     0.000 HD 
HETATM    5  N   UNL     1      -8.620   5.153  68.468  1.00  0.00    -0.094 NA 
HETATM    6  N   UNL     1      -9.949   4.016  70.092  1.00  0.00    -0.126 NA 
HETATM    7  C   UNL     1     -10.237   5.167  70.700  1.00  0.00    -0.256 C  
HETATM    8  H   UNL     1      -8.821   6.050  68.911  1.00  0.00     0.000 HD 
HETATM    9  N   UNL     1     -10.464   6.189  71.200  1.00  0.00    -0.221 NA 
HETATM   10  H   UNL     1     -10.321   3.135  70.445  1.00  0.00     0.000 HD 
ENDROOT
BRANCH   5  11
HETATM   11  C   UNL     1      -7.768   5.181  67.292  1.00  0.00    -0.092 C  
BRANCH  11  12
HETATM   12  C   UNL     1      -8.385   5.912  66.097  1.00  0.00    -0.124 C  
BRANCH  12  13
HETATM   13  S   UNL     1      -9.574   7.116  66.783  1.00  0.00    -0.175 SA 
BRANCH  13  14
HETATM   14  C   UNL     1      -8.431   8.290  67.580  1.00  0.00    -0.130 C  
BRANCH  14  15
HETATM   15  C   UNL     1      -9.128   8.974  68.712  1.00  0.00    -0.137 A  
HETATM   16  C   UNL     1      -8.591   9.670  69.783  1.00  0.00    -0.199 A  
HETATM   17  C   UNL     1      -7.199   9.964  70.188  1.00  0.00    -0.159 C  
HETATM   18  N   UNL     1      -9.676  10.124  70.489  1.00  0.00    -0.283 NA 
HETATM   19  H   UNL     1      -9.648  10.683  71.342  1.00  0.00     0.000 HD 
HETATM   20  C   UNL     1     -10.801   9.695  69.848  1.00  0.00    -0.256 A  
HETATM   21  N   UNL     1     -10.506   8.987  68.783  1.00  0.00    -0.218 NA 
ENDBRANCH  14  15
ENDBRANCH  13  14
ENDBRANCH  12  13
ENDBRANCH  11  12
ENDBRANCH   5  11
TORSDOF 5
ENDMDL
MODEL      368
REMARK 921   NORMALIZED FREE ENERGY PREDICTED BY IDOCK:   -1.65 KCAL/MOL
REMARK 922        TOTAL FREE ENERGY PREDICTED BY IDOCK:   -3.09 KCAL/MOL
REMARK 923 INTER-LIGAND FREE ENERGY PREDICTED BY IDOCK:   -2.75 KCAL/MOL
REMARK 924 INTRA-LIGAND FREE ENERGY PREDICTED BY IDOCK:   -0.35 KCAL/MOL
REMARK 927      BINDING AFFINITY PREDICTED BY RF-SCORE:    0.00 PKD
ROOT
HETATM    1  C   UNL     1      -9.330   3.077  68.905  1.00  0.00    -0.160 C  
HETATM    2  N   UNL     1      -9.422   4.516  68.955  1.00  0.00    -0.149 NA 
HETATM    3  C   UNL     1      -9.868   5.228  70.031  1.00  0.00    -0.218 C  
HETATM    4  H   UNL     1      -9.132   5.038  68.129  1.00  0.00     0.000 HD 
HETATM    5  N   UNL     1      -9.899   6.587  69.824  1.00  0.00    -0.164 NA 
HETATM    6  N   UNL     1     -10.208   4.608  71.121  1.00  0.00    -0.169 NA 
HETATM    7  C   UNL     1     -10.632   5.325  72.162  1.00  0.00    -0.221 C  
HETATM    8  H   UNL     1     -10.218   7.165  70.603  1.00  0.00     0.000 HD 
HETATM    9  N   UNL     1     -10.995   5.985  73.044  1.00  0.00    -0.260 NA 
HETATM   10  H   UNL     1     -10.151   3.592  71.179  1.00  0.00     0.000 HD 
ENDROOT
BRANCH   5  11
HETATM   11  C   UNL     1      -9.523   7.283  68.606  1.00  0.00    -0.137 C  
BRANCH  11  12
HETATM   12  C   UNL     1     -10.472   8.423  68.226  1.00  0.00    -0.163 C  
BRANCH  12  13
HETATM   13  S   UNL     1     -10.200   9.753  69.446  1.00  0.00    -0.226 SA 
BRANCH  13  14
HETATM   14  C   UNL     1      -9.800  11.142  68.338  1.00  0.00    -0.185 C  
BRANCH  14  15
HETATM   15  C   UNL     1      -8.791  10.700  67.328  1.00  0.00    -0.136 A  
HETATM   16  C   UNL     1      -7.450  10.394  67.499  1.00  0.00    -0.093 A  
HETATM   17  C   UNL     1      -6.565  10.409  68.685  1.00  0.00    -0.052 C  
HETATM   18  N   UNL     1      -7.014  10.006  66.258  1.00  0.00    -0.099 NA 
HETATM   19  H   UNL     1      -6.069   9.705  66.020  1.00  0.00     0.000 HD 
HETATM   20  C   UNL     1      -8.069  10.093  65.398  1.00  0.00    -0.149 A  
HETATM   21  N   UNL     1      -9.150  10.521  66.007  1.00  0.00    -0.163 NA 
ENDBRANCH  14  15
ENDBRANCH  13  14
ENDBRANCH  12  13
ENDBRANCH  11  12
ENDBRANCH   5  11
TORSDOF 5
ENDMDL
MODEL      369
REMARK 921   NORMALIZED FREE ENERGY PREDICTED BY IDOCK:   -1.64 KCAL/MOL
REMARK 922        TOTAL FREE ENERGY PREDICTED BY IDOCK:   -3.08 KCAL/MOL
REMARK 923 INTER-LIGAND FREE ENERGY PREDICTED BY IDOCK:   -2.81 KCAL/MOL
REMARK 924 INTRA-LIGAND FREE ENERGY PREDICTED BY IDOCK:   -0.27 KCAL/MOL
REMARK 927      BINDING AFFINITY PREDICTED BY RF-SCORE:    0.00 PKD
ROOT
HETATM    1  C   UNL     1      -6.897  11.239  69.370  1.00  0.00    -0.121 C  
HETATM    2  N   UNL     1      -7.690  10.531  68.395  1.00  0.00    -0.099 NA 
HETATM    3  C   UNL     1      -9.054  10.550  68.342  1.00  0.00    -0.148 C  
HETATM    4  H   UNL     1      -7.196   9.976  67.696  1.00  0.00     0.000 HD 
HETATM    5  N   UNL     1      -9.582   9.763  67.345  1.00  0.00    -0.151 NA 
HETATM    6  N   UNL     1      -9.723  11.275  69.187  1.00  0.00    -0.413 NA 
HETATM    7  C   UNL     1     -11.054  11.285  69.110  1.00  0.00    -0.253 C  
HETATM    8  H   UNL     1     -10.599   9.751  67.259  1.00  0.00     0.000 HD 
HETATM    9  N   UNL     1     -12.210  11.267  69.010  1.00  0.00    -0.464 NA 
HETATM   10  H   UNL     1      -9.240  11.826  69.895  1.00  0.00     0.000 HD 
ENDROOT
BRANCH   5  11
HETATM   11  C   UNL     1      -8.837   8.949  66.402  1.00  0.00    -0.152 C  
BRANCH  11  12
HETATM   12  C   UNL     1      -8.539   7.534  66.905  1.00  0.00    -0.124 C  
BRANCH  12  13
HETATM   13  S   UNL     1      -8.264   6.503  65.424  1.00  0.00    -0.127 SA 
BRANCH  13  14
HETATM   14  C   UNL     1      -9.388   5.114  65.776  1.00  0.00    -0.154 C  
BRANCH  14  15
HETATM   15  C   UNL     1      -9.035   4.510  67.097  1.00  0.00    -0.116 A  
HETATM   16  C   UNL     1      -7.922   3.767  67.456  1.00  0.00    -0.089 A  
HETATM   17  C   UNL     1      -6.738   3.309  66.696  1.00  0.00    -0.048 C  
HETATM   18  N   UNL     1      -8.086   3.506  68.793  1.00  0.00    -0.061 NA 
HETATM   19  H   UNL     1      -7.444   2.981  69.387  1.00  0.00     0.000 HD 
HETATM   20  C   UNL     1      -9.262   4.074  69.188  1.00  0.00    -0.152 A  
HETATM   21  N   UNL     1      -9.865   4.673  68.188  1.00  0.00    -0.136 NA 
ENDBRANCH  14  15
ENDBRANCH  13  14
ENDBRANCH  12  13
ENDBRANCH  11  12
ENDBRANCH   5  11
TORSDOF 5
ENDMDL
MODEL      370
REMARK 921   NORMALIZED FREE ENERGY PREDICTED BY IDOCK:   -1.62 KCAL/MOL
REMARK 922        TOTAL FREE ENERGY PREDICTED BY IDOCK:   -3.06 KCAL/MOL
REMARK 923 INTER-LIGAND FREE ENERGY PREDICTED BY IDOCK:   -2.84 KCAL/MOL
REMARK 924 INTRA-LIGAND FREE ENERGY PREDICTED BY IDOCK:   -0.21 KCAL/MOL
REMARK 927      BINDING AFFINITY PREDICTED BY RF-SCORE:    0.00 PKD
ROOT
HETATM    1  C   UNL     1      -7.818  10.253  66.908  1.00  0.00    -0.112 C  
HETATM    2  N   UNL     1      -7.905   8.844  67.208  1.00  0.00    -0.096 NA 
HETATM    3  C   UNL     1      -7.923   7.851  66.272  1.00  0.00    -0.103 C  
HETATM    4  H   UNL     1      -7.957   8.571  68.190  1.00  0.00     0.000 HD 
HETATM    5  N   UNL     1      -8.050   6.589  66.803  1.00  0.00    -0.108 NA 
HETATM    6  N   UNL     1      -7.817   8.149  65.012  1.00  0.00    -0.120 NA 
HETATM    7  C   UNL     1      -7.827   7.162  64.116  1.00  0.00    -0.113 C  
HETATM    8  H   UNL     1      -8.060   5.811  66.142  1.00  0.00     0.000 HD 
HETATM    9  N   UNL     1      -7.841   6.274  63.369  1.00  0.00    -0.108 NA 
HETATM   10  H   UNL     1      -7.727   9.119  64.714  1.00  0.00     0.000 HD 
ENDROOT
BRANCH   5  11
HETATM   11  C   UNL     1      -8.172   6.253  68.211  1.00  0.00    -0.115 C  
BRANCH  11  12
HETATM   12  C   UNL     1      -9.620   6.142  68.698  1.00  0.00    -0.127 C  
BRANCH  12  13
HETATM   13  S   UNL     1      -9.661   4.764  69.894  1.00  0.00    -0.200 SA 
BRANCH  13  14
HETATM   14  C   UNL     1      -8.834   5.539  71.320  1.00  0.00    -0.135 C  
BRANCH  14  15
HETATM   15  C   UNL     1      -9.610   5.250  72.564  1.00  0.00    -0.149 A  
HETATM   16  C   UNL     1     -10.564   6.023  73.206  1.00  0.00    -0.256 A  
HETATM   17  C   UNL     1     -11.127   7.361  72.918  1.00  0.00    -0.397 C  
HETATM   18  N   UNL     1     -10.981   5.262  74.269  1.00  0.00    -0.398 NA 
HETATM   19  H   UNL     1     -11.687   5.524  74.956  1.00  0.00     0.000 HD 
HETATM   20  C   UNL     1     -10.281   4.091  74.243  1.00  0.00    -0.192 A  
HETATM   21  N   UNL     1      -9.437   4.058  73.238  1.00  0.00    -0.111 NA 
ENDBRANCH  14  15
ENDBRANCH  13  14
ENDBRANCH  12  13
ENDBRANCH  11  12
ENDBRANCH   5  11
TORSDOF 5
ENDMDL
MODEL      371
REMARK 921   NORMALIZED FREE ENERGY PREDICTED BY IDOCK:   -1.61 KCAL/MOL
REMARK 922        TOTAL FREE ENERGY PREDICTED BY IDOCK:   -3.05 KCAL/MOL
REMARK 923 INTER-LIGAND FREE ENERGY PREDICTED BY IDOCK:   -2.72 KCAL/MOL
REMARK 924 INTRA-LIGAND FREE ENERGY PREDICTED BY IDOCK:   -0.33 KCAL/MOL
REMARK 927      BINDING AFFINITY PREDICTED BY RF-SCORE:    0.00 PKD
ROOT
HETATM    1  C   UNL     1      -7.290  13.851  68.048  1.00  0.00    -0.141 C  
HETATM    2  N   UNL     1      -6.923  12.459  68.141  1.00  0.00    -0.078 NA 
HETATM    3  C   UNL     1      -7.487  11.458  67.403  1.00  0.00    -0.120 C  
HETATM    4  H   UNL     1      -6.192  12.204  68.804  1.00  0.00     0.000 HD 
HETATM    5  N   UNL     1      -6.997  10.207  67.698  1.00  0.00    -0.084 NA 
HETATM    6  N   UNL     1      -8.393  11.740  66.515  1.00  0.00    -0.315 NA 
HETATM    7  C   UNL     1      -8.922  10.747  65.800  1.00  0.00    -0.187 C  
HETATM    8  H   UNL     1      -7.381   9.425  67.166  1.00  0.00     0.000 HD 
HETATM    9  N   UNL     1      -9.357   9.855  65.200  1.00  0.00    -0.238 NA 
HETATM   10  H   UNL     1      -8.693  12.703  66.369  1.00  0.00     0.000 HD 
ENDROOT
BRANCH   5  11
HETATM   11  C   UNL     1      -5.987   9.887  68.691  1.00  0.00    -0.038 C  
BRANCH  11  12
HETATM   12  C   UNL     1      -6.510   9.048  69.860  1.00  0.00    -0.038 C  
BRANCH  12  13
HETATM   13  S   UNL     1      -7.215   7.528  69.131  1.00  0.00    -0.086 SA 
BRANCH  13  14
HETATM   14  C   UNL     1      -8.994   7.886  69.280  1.00  0.00    -0.145 C  
BRANCH  14  15
HETATM   15  C   UNL     1      -9.635   6.871  70.171  1.00  0.00    -0.161 A  
HETATM   16  C   UNL     1     -10.014   6.981  71.499  1.00  0.00    -0.180 A  
HETATM   17  C   UNL     1      -9.913   8.083  72.480  1.00  0.00    -0.338 C  
HETATM   18  N   UNL     1     -10.589   5.773  71.804  1.00  0.00    -0.231 NA 
HETATM   19  H   UNL     1     -10.986   5.506  72.705  1.00  0.00     0.000 HD 
HETATM   20  C   UNL     1     -10.535   4.991  70.687  1.00  0.00    -0.157 A  
HETATM   21  N   UNL     1      -9.954   5.617  69.691  1.00  0.00    -0.185 NA 
ENDBRANCH  14  15
ENDBRANCH  13  14
ENDBRANCH  12  13
ENDBRANCH  11  12
ENDBRANCH   5  11
TORSDOF 5
ENDMDL
MODEL      372
REMARK 921   NORMALIZED FREE ENERGY PREDICTED BY IDOCK:   -1.58 KCAL/MOL
REMARK 922        TOTAL FREE ENERGY PREDICTED BY IDOCK:   -3.01 KCAL/MOL
REMARK 923 INTER-LIGAND FREE ENERGY PREDICTED BY IDOCK:   -2.88 KCAL/MOL
REMARK 924 INTRA-LIGAND FREE ENERGY PREDICTED BY IDOCK:   -0.13 KCAL/MOL
REMARK 927      BINDING AFFINITY PREDICTED BY RF-SCORE:    0.00 PKD
ROOT
HETATM    1  C   UNL     1      -9.691  20.700  65.948  1.00  0.00     0.306 C  
HETATM    2  N   UNL     1      -8.517  20.133  66.566  1.00  0.00    -0.469 NA 
HETATM    3  C   UNL     1      -7.373  19.803  65.899  1.00  0.00    -0.318 C  
HETATM    4  H   UNL     1      -8.545  19.966  67.572  1.00  0.00     0.000 HD 
HETATM    5  N   UNL     1      -6.405  19.241  66.700  1.00  0.00    -0.185 NA 
HETATM    6  N   UNL     1      -7.277  20.035  64.625  1.00  0.00    -0.084 NA 
HETATM    7  C   UNL     1      -6.146  19.713  63.997  1.00  0.00    -0.116 C  
HETATM    8  H   UNL     1      -5.527  18.984  66.249  1.00  0.00     0.000 HD 
HETATM    9  N   UNL     1      -5.146  19.418  63.488  1.00  0.00    -0.214 NA 
HETATM   10  H   UNL     1      -8.052  20.456  64.114  1.00  0.00     0.000 HD 
ENDROOT
BRANCH   5  11
HETATM   11  C   UNL     1      -6.511  18.977  68.124  1.00  0.00    -0.223 C  
BRANCH  11  12
HETATM   12  C   UNL     1      -5.258  18.338  68.730  1.00  0.00    -0.179 C  
BRANCH  12  13
HETATM   13  S   UNL     1      -5.666  16.584  69.034  1.00  0.00    -0.144 SA 
BRANCH  13  14
HETATM   14  C   UNL     1      -6.563  16.184  67.501  1.00  0.00    -0.171 C  
BRANCH  14  15
HETATM   15  C   UNL     1      -7.786  15.389  67.831  1.00  0.00    -0.133 A  
HETATM   16  C   UNL     1      -7.888  14.106  68.345  1.00  0.00    -0.143 A  
HETATM   17  C   UNL     1      -6.876  13.096  68.722  1.00  0.00    -0.102 C  
HETATM   18  N   UNL     1      -9.235  13.891  68.493  1.00  0.00    -0.287 NA 
HETATM   19  H   UNL     1      -9.673  13.044  68.855  1.00  0.00     0.000 HD 
HETATM   20  C   UNL     1      -9.886  15.013  68.070  1.00  0.00    -0.218 A  
HETATM   21  N   UNL     1      -9.044  15.928  67.651  1.00  0.00    -0.197 NA 
ENDBRANCH  14  15
ENDBRANCH  13  14
ENDBRANCH  12  13
ENDBRANCH  11  12
ENDBRANCH   5  11
TORSDOF 5
ENDMDL
MODEL      373
REMARK 921   NORMALIZED FREE ENERGY PREDICTED BY IDOCK:   -1.54 KCAL/MOL
REMARK 922        TOTAL FREE ENERGY PREDICTED BY IDOCK:   -2.95 KCAL/MOL
REMARK 923 INTER-LIGAND FREE ENERGY PREDICTED BY IDOCK:   -2.67 KCAL/MOL
REMARK 924 INTRA-LIGAND FREE ENERGY PREDICTED BY IDOCK:   -0.27 KCAL/MOL
REMARK 927      BINDING AFFINITY PREDICTED BY RF-SCORE:    0.00 PKD
ROOT
HETATM    1  C   UNL     1      -6.537  10.887  69.835  1.00  0.00    -0.148 C  
HETATM    2  N   UNL     1      -7.318   9.882  69.156  1.00  0.00    -0.077 NA 
HETATM    3  C   UNL     1      -8.645   9.999  68.859  1.00  0.00    -0.138 C  
HETATM    4  H   UNL     1      -6.845   9.022  68.878  1.00  0.00     0.000 HD 
HETATM    5  N   UNL     1      -9.177   8.891  68.241  1.00  0.00    -0.140 NA 
HETATM    6  N   UNL     1      -9.280  11.093  69.156  1.00  0.00    -0.398 NA 
HETATM    7  C   UNL     1     -10.573  11.189  68.848  1.00  0.00    -0.207 C  
HETATM    8  H   UNL     1     -10.165   8.934  67.991  1.00  0.00     0.000 HD 
HETATM    9  N   UNL     1     -11.697  11.232  68.564  1.00  0.00    -0.429 NA 
HETATM   10  H   UNL     1      -8.797  11.864  69.617  1.00  0.00     0.000 HD 
ENDROOT
BRANCH   5  11
HETATM   11  C   UNL     1      -8.471   7.666  67.910  1.00  0.00    -0.123 C  
BRANCH  11  12
HETATM   12  C   UNL     1      -8.478   6.625  69.033  1.00  0.00    -0.130 C  
BRANCH  12  13
HETATM   13  S   UNL     1      -7.998   5.036  68.270  1.00  0.00    -0.086 SA 
BRANCH  13  14
HETATM   14  C   UNL     1      -9.303   3.948  68.927  1.00  0.00    -0.164 C  
BRANCH  14  15
HETATM   15  C   UNL     1      -9.175   3.857  70.414  1.00  0.00    -0.139 A  
HETATM   16  C   UNL     1      -8.194   3.244  71.176  1.00  0.00    -0.062 A  
HETATM   17  C   UNL     1      -6.981   2.478  70.817  1.00  0.00    -0.033 C  
HETATM   18  N   UNL     1      -8.544   3.503  72.477  1.00  0.00    -0.085 NA 
HETATM   19  H   UNL     1      -8.035   3.201  73.308  1.00  0.00     0.000 HD 
HETATM   20  C   UNL     1      -9.695   4.235  72.463  1.00  0.00    -0.147 A  
HETATM   21  N   UNL     1     -10.109   4.453  71.237  1.00  0.00    -0.168 NA 
ENDBRANCH  14  15
ENDBRANCH  13  14
ENDBRANCH  12  13
ENDBRANCH  11  12
ENDBRANCH   5  11
TORSDOF 5
ENDMDL
MODEL      374
REMARK 921   NORMALIZED FREE ENERGY PREDICTED BY IDOCK:   -1.43 KCAL/MOL
REMARK 922        TOTAL FREE ENERGY PREDICTED BY IDOCK:   -2.82 KCAL/MOL
REMARK 923 INTER-LIGAND FREE ENERGY PREDICTED BY IDOCK:   -2.54 KCAL/MOL
REMARK 924 INTRA-LIGAND FREE ENERGY PREDICTED BY IDOCK:   -0.28 KCAL/MOL
REMARK 927      BINDING AFFINITY PREDICTED BY RF-SCORE:    0.00 PKD
ROOT
HETATM    1  C   UNL     1      -6.472   8.782  74.386  1.00  0.00    -0.090 C  
HETATM    2  N   UNL     1      -6.703   7.899  73.269  1.00  0.00    -0.083 NA 
HETATM    3  C   UNL     1      -7.894   7.775  72.612  1.00  0.00    -0.110 C  
HETATM    4  H   UNL     1      -5.923   7.327  72.947  1.00  0.00     0.000 HD 
HETATM    5  N   UNL     1      -7.877   6.839  71.603  1.00  0.00    -0.100 NA 
HETATM    6  N   UNL     1      -8.904   8.513  72.959  1.00  0.00    -0.348 NA 
HETATM    7  C   UNL     1     -10.054   8.380  72.298  1.00  0.00    -0.312 C  
HETATM    8  H   UNL     1      -8.742   6.715  71.076  1.00  0.00     0.000 HD 
HETATM    9  N   UNL     1     -11.036   8.235  71.697  1.00  0.00    -0.250 NA 
HETATM   10  H   UNL     1      -8.820   9.181  73.724  1.00  0.00     0.000 HD 
ENDROOT
BRANCH   5  11
HETATM   11  C   UNL     1      -6.750   6.010  71.214  1.00  0.00    -0.058 C  
BRANCH  11  12
HETATM   12  C   UNL     1      -6.932   4.525  71.538  1.00  0.00    -0.039 C  
BRANCH  12  13
HETATM   13  S   UNL     1      -7.997   3.834  70.225  1.00  0.00    -0.046 SA 
BRANCH  13  14
HETATM   14  C   UNL     1      -7.516   4.892  68.822  1.00  0.00    -0.065 C  
BRANCH  14  15
HETATM   15  C   UNL     1      -8.644   4.966  67.843  1.00  0.00    -0.103 A  
HETATM   16  C   UNL     1      -9.805   5.721  67.894  1.00  0.00    -0.127 A  
HETATM   17  C   UNL     1     -10.335   6.673  68.894  1.00  0.00    -0.216 C  
HETATM   18  N   UNL     1     -10.462   5.439  66.723  1.00  0.00    -0.272 NA 
HETATM   19  H   UNL     1     -11.356   5.829  66.427  1.00  0.00     0.000 HD 
HETATM   20  C   UNL     1      -9.706   4.543  66.025  1.00  0.00    -0.210 A  
HETATM   21  N   UNL     1      -8.613   4.226  66.678  1.00  0.00    -0.111 NA 
ENDBRANCH  14  15
ENDBRANCH  13  14
ENDBRANCH  12  13
ENDBRANCH  11  12
ENDBRANCH   5  11
TORSDOF 5
ENDMDL
MODEL      375
REMARK 921   NORMALIZED FREE ENERGY PREDICTED BY IDOCK:   -1.31 KCAL/MOL
REMARK 922        TOTAL FREE ENERGY PREDICTED BY IDOCK:   -2.65 KCAL/MOL
REMARK 923 INTER-LIGAND FREE ENERGY PREDICTED BY IDOCK:   -2.48 KCAL/MOL
REMARK 924 INTRA-LIGAND FREE ENERGY PREDICTED BY IDOCK:   -0.17 KCAL/MOL
REMARK 927      BINDING AFFINITY PREDICTED BY RF-SCORE:    0.00 PKD
ROOT
HETATM    1  C   UNL     1     -10.704  10.032  69.831  1.00  0.00    -0.286 C  
HETATM    2  N   UNL     1      -9.879   9.116  69.083  1.00  0.00    -0.167 NA 
HETATM    3  C   UNL     1      -9.669   9.183  67.736  1.00  0.00    -0.154 C  
HETATM    4  H   UNL     1      -9.419   8.364  69.597  1.00  0.00     0.000 HD 
HETATM    5  N   UNL     1      -8.874   8.173  67.246  1.00  0.00    -0.129 NA 
HETATM    6  N   UNL     1     -10.200  10.147  67.046  1.00  0.00    -0.222 NA 
HETATM    7  C   UNL     1      -9.974  10.197  65.733  1.00  0.00    -0.271 C  
HETATM    8  H   UNL     1      -8.681   8.184  66.244  1.00  0.00     0.000 HD 
HETATM    9  N   UNL     1      -9.754  10.205  64.594  1.00  0.00    -0.314 NA 
HETATM   10  H   UNL     1     -10.779  10.852  67.501  1.00  0.00     0.000 HD 
ENDROOT
BRANCH   5  11
HETATM   11  C   UNL     1      -8.281   7.091  68.014  1.00  0.00    -0.119 C  
BRANCH  11  12
HETATM   12  C   UNL     1      -9.273   5.992  68.402  1.00  0.00    -0.114 C  
BRANCH  12  13
HETATM   13  S   UNL     1      -8.454   4.984  69.686  1.00  0.00    -0.088 SA 
BRANCH  13  14
HETATM   14  C   UNL     1      -9.050   5.821  71.190  1.00  0.00    -0.146 C  
BRANCH  14  15
HETATM   15  C   UNL     1      -7.881   6.268  72.008  1.00  0.00    -0.097 A  
HETATM   16  C   UNL     1      -7.186   7.466  71.967  1.00  0.00    -0.067 A  
HETATM   17  C   UNL     1      -7.327   8.676  71.128  1.00  0.00    -0.092 C  
HETATM   18  N   UNL     1      -6.242   7.362  72.958  1.00  0.00    -0.058 NA 
HETATM   19  H   UNL     1      -5.555   8.072  73.211  1.00  0.00     0.000 HD 
HETATM   20  C   UNL     1      -6.386   6.139  73.544  1.00  0.00    -0.065 A  
HETATM   21  N   UNL     1      -7.354   5.450  72.987  1.00  0.00    -0.090 NA 
ENDBRANCH  14  15
ENDBRANCH  13  14
ENDBRANCH  12  13
ENDBRANCH  11  12
ENDBRANCH   5  11
TORSDOF 5
ENDMDL
MODEL      376
REMARK 921   NORMALIZED FREE ENERGY PREDICTED BY IDOCK:   -1.23 KCAL/MOL
REMARK 922        TOTAL FREE ENERGY PREDICTED BY IDOCK:   -2.55 KCAL/MOL
REMARK 923 INTER-LIGAND FREE ENERGY PREDICTED BY IDOCK:   -2.20 KCAL/MOL
REMARK 924 INTRA-LIGAND FREE ENERGY PREDICTED BY IDOCK:   -0.35 KCAL/MOL
REMARK 927      BINDING AFFINITY PREDICTED BY RF-SCORE:    0.00 PKD
ROOT
HETATM    1  C   UNL     1      -7.598  11.082  66.324  1.00  0.00    -0.111 C  
HETATM    2  N   UNL     1      -7.334   9.848  67.023  1.00  0.00    -0.091 NA 
HETATM    3  C   UNL     1      -7.038   8.661  66.417  1.00  0.00    -0.079 C  
HETATM    4  H   UNL     1      -7.372   9.863  68.042  1.00  0.00     0.000 HD 
HETATM    5  N   UNL     1      -6.865   7.616  67.296  1.00  0.00    -0.067 NA 
HETATM    6  N   UNL     1      -6.938   8.603  65.124  1.00  0.00    -0.071 NA 
HETATM    7  C   UNL     1      -6.638   7.435  64.555  1.00  0.00    -0.040 C  
HETATM    8  H   UNL     1      -6.633   6.709  66.891  1.00  0.00     0.000 HD 
HETATM    9  N   UNL     1      -6.376   6.401  64.099  1.00  0.00    -0.030 NA 
HETATM   10  H   UNL     1      -7.085   9.435  64.554  1.00  0.00     0.000 HD 
ENDROOT
BRANCH   5  11
HETATM   11  C   UNL     1      -6.979   7.677  68.742  1.00  0.00    -0.071 C  
BRANCH  11  12
HETATM   12  C   UNL     1      -8.394   7.410  69.263  1.00  0.00    -0.132 C  
BRANCH  12  13
HETATM   13  S   UNL     1      -8.256   6.036  70.458  1.00  0.00    -0.114 SA 
BRANCH  13  14
HETATM   14  C   UNL     1      -9.815   5.155  70.129  1.00  0.00    -0.230 C  
BRANCH  14  15
HETATM   15  C   UNL     1      -9.599   4.142  69.051  1.00  0.00    -0.162 A  
HETATM   16  C   UNL     1      -9.658   4.296  67.675  1.00  0.00    -0.165 A  
HETATM   17  C   UNL     1      -9.957   5.458  66.810  1.00  0.00    -0.217 C  
HETATM   18  N   UNL     1      -9.334   3.063  67.167  1.00  0.00    -0.315 NA 
HETATM   19  H   UNL     1      -9.275   2.817  66.179  1.00  0.00     0.000 HD 
HETATM   20  C   UNL     1      -9.104   2.226  68.219  1.00  0.00    -0.172 A  
HETATM   21  N   UNL     1      -9.270   2.839  69.366  1.00  0.00    -0.132 NA 
ENDBRANCH  14  15
ENDBRANCH  13  14
ENDBRANCH  12  13
ENDBRANCH  11  12
ENDBRANCH   5  11
TORSDOF 5
ENDMDL
MODEL      377
REMARK 921   NORMALIZED FREE ENERGY PREDICTED BY IDOCK:   -1.22 KCAL/MOL
REMARK 922        TOTAL FREE ENERGY PREDICTED BY IDOCK:   -2.54 KCAL/MOL
REMARK 923 INTER-LIGAND FREE ENERGY PREDICTED BY IDOCK:   -2.17 KCAL/MOL
REMARK 924 INTRA-LIGAND FREE ENERGY PREDICTED BY IDOCK:   -0.37 KCAL/MOL
REMARK 927      BINDING AFFINITY PREDICTED BY RF-SCORE:    0.00 PKD
ROOT
HETATM    1  C   UNL     1      -8.741   9.304  64.477  1.00  0.00    -0.187 C  
HETATM    2  N   UNL     1      -8.514   9.169  65.896  1.00  0.00    -0.135 NA 
HETATM    3  C   UNL     1      -7.759   8.188  66.471  1.00  0.00    -0.093 C  
HETATM    4  H   UNL     1      -8.949   9.855  66.513  1.00  0.00     0.000 HD 
HETATM    5  N   UNL     1      -7.724   8.247  67.845  1.00  0.00    -0.102 NA 
HETATM    6  N   UNL     1      -7.152   7.317  65.723  1.00  0.00    -0.064 NA 
HETATM    7  C   UNL     1      -6.413   6.374  66.306  1.00  0.00    -0.043 C  
HETATM    8  H   UNL     1      -7.165   7.539  68.322  1.00  0.00     0.000 HD 
HETATM    9  N   UNL     1      -5.779   5.570  66.853  1.00  0.00    -0.017 NA 
HETATM   10  H   UNL     1      -7.239   7.354  64.708  1.00  0.00     0.000 HD 
ENDROOT
BRANCH   5  11
HETATM   11  C   UNL     1      -8.405   9.218  68.685  1.00  0.00    -0.118 C  
BRANCH  11  12
HETATM   12  C   UNL     1      -7.509   9.845  69.757  1.00  0.00    -0.140 C  
BRANCH  12  13
HETATM   13  S   UNL     1      -7.805   8.906  71.294  1.00  0.00    -0.090 SA 
BRANCH  13  14
HETATM   14  C   UNL     1      -9.551   8.439  71.065  1.00  0.00    -0.169 C  
BRANCH  14  15
HETATM   15  C   UNL     1      -9.737   7.003  71.437  1.00  0.00    -0.169 A  
HETATM   16  C   UNL     1      -9.500   5.862  70.688  1.00  0.00    -0.171 A  
HETATM   17  C   UNL     1      -9.014   5.656  69.306  1.00  0.00    -0.122 C  
HETATM   18  N   UNL     1      -9.796   4.819  71.528  1.00  0.00    -0.179 NA 
HETATM   19  H   UNL     1      -9.728   3.827  71.302  1.00  0.00     0.000 HD 
HETATM   20  C   UNL     1     -10.199   5.345  72.721  1.00  0.00    -0.187 A  
HETATM   21  N   UNL     1     -10.189   6.657  72.695  1.00  0.00    -0.182 NA 
ENDBRANCH  14  15
ENDBRANCH  13  14
ENDBRANCH  12  13
ENDBRANCH  11  12
ENDBRANCH   5  11
TORSDOF 5
ENDMDL
MODEL      378
REMARK 921   NORMALIZED FREE ENERGY PREDICTED BY IDOCK:   -0.79 KCAL/MOL
REMARK 922        TOTAL FREE ENERGY PREDICTED BY IDOCK:   -1.99 KCAL/MOL
REMARK 923 INTER-LIGAND FREE ENERGY PREDICTED BY IDOCK:   -2.06 KCAL/MOL
REMARK 924 INTRA-LIGAND FREE ENERGY PREDICTED BY IDOCK:    0.07 KCAL/MOL
REMARK 927      BINDING AFFINITY PREDICTED BY RF-SCORE:    0.00 PKD
ROOT
HETATM    1  C   UNL     1     -10.638   8.782  69.541  1.00  0.00    -0.219 C  
HETATM    2  N   UNL     1      -9.519   8.360  68.734  1.00  0.00    -0.147 NA 
HETATM    3  C   UNL     1      -9.203   8.881  67.513  1.00  0.00    -0.136 C  
HETATM    4  H   UNL     1      -8.921   7.620  69.103  1.00  0.00     0.000 HD 
HETATM    5  N   UNL     1      -8.112   8.287  66.921  1.00  0.00    -0.103 NA 
HETATM    6  N   UNL     1      -9.910   9.853  67.022  1.00  0.00    -0.181 NA 
HETATM    7  C   UNL     1      -9.578  10.352  65.831  1.00  0.00    -0.206 C  
HETATM    8  H   UNL     1      -7.831   8.647  66.008  1.00  0.00     0.000 HD 
HETATM    9  N   UNL     1      -9.255  10.757  64.793  1.00  0.00    -0.206 NA 
HETATM   10  H   UNL     1     -10.705  10.228  67.538  1.00  0.00     0.000 HD 
ENDROOT
BRANCH   5  11
HETATM   11  C   UNL     1      -7.321   7.197  67.465  1.00  0.00    -0.092 C  
BRANCH  11  12
HETATM   12  C   UNL     1      -8.111   5.902  67.672  1.00  0.00    -0.102 C  
BRANCH  12  13
HETATM   13  S   UNL     1      -7.082   4.832  68.735  1.00  0.00    -0.053 SA 
BRANCH  13  14
HETATM   14  C   UNL     1      -8.166   3.376  68.886  1.00  0.00    -0.060 C  
BRANCH  14  15
HETATM   15  C   UNL     1      -8.686   3.284  70.284  1.00  0.00    -0.069 A  
HETATM   16  C   UNL     1      -8.128   2.663  71.391  1.00  0.00    -0.054 A  
HETATM   17  C   UNL     1      -6.882   1.888  71.581  1.00  0.00    -0.023 C  
HETATM   18  N   UNL     1      -8.998   2.925  72.419  1.00  0.00    -0.081 NA 
HETATM   19  H   UNL     1      -8.894   2.620  73.387  1.00  0.00     0.000 HD 
HETATM   20  C   UNL     1     -10.027   3.666  71.917  1.00  0.00    -0.153 A  
HETATM   21  N   UNL     1      -9.878   3.887  70.632  1.00  0.00    -0.174 NA 
ENDBRANCH  14  15
ENDBRANCH  13  14
ENDBRANCH  12  13
ENDBRANCH  11  12
ENDBRANCH   5  11
TORSDOF 5
ENDMDL
MODEL      379
REMARK 921   NORMALIZED FREE ENERGY PREDICTED BY IDOCK:    4.17 KCAL/MOL
REMARK 922        TOTAL FREE ENERGY PREDICTED BY IDOCK:    4.42 KCAL/MOL
REMARK 923 INTER-LIGAND FREE ENERGY PREDICTED BY IDOCK:    4.65 KCAL/MOL
REMARK 924 INTRA-LIGAND FREE ENERGY PREDICTED BY IDOCK:   -0.24 KCAL/MOL
REMARK 927      BINDING AFFINITY PREDICTED BY RF-SCORE:    0.00 PKD
ROOT
HETATM    1  C   UNL     1     -12.164  10.202  67.668  1.00  0.00     3.292 C  
HETATM    2  N   UNL     1     -10.736  10.021  67.753  1.00  0.00    -0.263 NA 
HETATM    3  C   UNL     1      -9.818  10.753  67.056  1.00  0.00    -0.187 C  
HETATM    4  H   UNL     1     -10.387   9.295  68.378  1.00  0.00     0.000 HD 
HETATM    5  N   UNL     1      -8.516  10.368  67.277  1.00  0.00    -0.122 NA 
HETATM    6  N   UNL     1     -10.214  11.717  66.280  1.00  0.00    -0.220 NA 
HETATM    7  C   UNL     1      -9.299  12.424  65.617  1.00  0.00     0.054 C  
HETATM    8  H   UNL     1      -7.791  10.891  66.784  1.00  0.00     0.000 HD 
HETATM    9  N   UNL     1      -8.472  13.015  65.058  1.00  0.00     2.704 NA 
HETATM   10  H   UNL     1     -11.206  11.928  66.180  1.00  0.00     0.000 HD 
ENDROOT
BRANCH   5  11
HETATM   11  C   UNL     1      -8.070   9.289  68.142  1.00  0.00    -0.107 C  
BRANCH  11  12
HETATM   12  C   UNL     1      -6.916   8.467  67.561  1.00  0.00    -0.079 C  
BRANCH  12  13
HETATM   13  S   UNL     1      -5.941   7.867  68.983  1.00  0.00    -0.039 SA 
BRANCH  13  14
HETATM   14  C   UNL     1      -7.215   6.926  69.883  1.00  0.00    -0.076 C  
BRANCH  14  15
HETATM   15  C   UNL     1      -7.107   5.477  69.532  1.00  0.00    -0.064 A  
HETATM   16  C   UNL     1      -7.021   4.374  70.366  1.00  0.00    -0.041 A  
HETATM   17  C   UNL     1      -6.989   4.233  71.838  1.00  0.00    -0.046 C  
HETATM   18  N   UNL     1      -6.988   3.294  69.521  1.00  0.00    -0.041 NA 
HETATM   19  H   UNL     1      -6.930   2.314  69.800  1.00  0.00     0.000 HD 
HETATM   20  C   UNL     1      -7.045   3.762  68.241  1.00  0.00    -0.051 A  
HETATM   21  N   UNL     1      -7.102   5.073  68.212  1.00  0.00    -0.061 NA 
ENDBRANCH  14  15
ENDBRANCH  13  14
ENDBRANCH  12  13
ENDBRANCH  11  12
ENDBRANCH   5  11
TORSDOF 5
ENDMDL
