MODEL        1
REMARK 921   NORMALIZED FREE ENERGY PREDICTED BY IDOCK:   -6.58 KCAL/MOL
REMARK 922        TOTAL FREE ENERGY PREDICTED BY IDOCK:  -12.01 KCAL/MOL
REMARK 923 INTER-LIGAND FREE ENERGY PREDICTED BY IDOCK:   -8.89 KCAL/MOL
REMARK 924 INTRA-LIGAND FREE ENERGY PREDICTED BY IDOCK:   -3.13 KCAL/MOL
REMARK 927      BINDING AFFINITY PREDICTED BY RF-SCORE:    0.00 PKD
ROOT
HETATM    1  C   UNL     1     -12.161  10.629  69.904  1.00  0.00    -0.346 C  
HETATM    2  C   UNL     1     -11.911  12.001  69.254  1.00  0.00    -0.318 C  
ENDROOT
BRANCH   2   3
HETATM    3  C   UNL     1     -11.009  11.954  68.016  1.00  0.00    -0.271 A  
HETATM    4  C   UNL     1     -12.562  14.445  65.615  1.00  0.00    -0.337 A  
HETATM    5  C   UNL     1      -9.913  11.067  67.991  1.00  0.00    -0.188 A  
HETATM    6  C   UNL     1     -11.819  14.193  64.472  1.00  0.00    -0.451 A  
HETATM    7  C   UNL     1     -12.286  13.746  66.794  1.00  0.00    -0.440 A  
HETATM    8  C   UNL     1     -10.776  13.271  64.519  1.00  0.00    -0.428 A  
HETATM    9  C   UNL     1      -9.118  10.930  66.858  1.00  0.00    -0.164 A  
HETATM   10  C   UNL     1      -9.416  11.660  65.715  1.00  0.00    -0.244 A  
HETATM   11  C   UNL     1     -11.273  12.760  66.865  1.00  0.00    -0.339 A  
HETATM   12  C   UNL     1     -10.485  12.564  65.698  1.00  0.00    -0.299 A  
ENDBRANCH   2   3
BRANCH   2  13
HETATM   13  N   UNL     1     -11.518  13.033  70.229  1.00  0.00    -0.495 NA 
HETATM   14  H   UNL     1     -10.651  13.486  69.939  1.00  0.00     0.000 HD 
BRANCH  13  15
HETATM   15  C   UNL     1     -12.547  14.032  70.499  1.00  0.00    -0.329 C  
BRANCH  15  16
HETATM   16  C   UNL     1     -12.070  15.418  70.070  1.00  0.00    -0.388 C  
BRANCH  16  17
HETATM   17  C   UNL     1     -10.541  15.479  70.101  1.00  0.00    -0.336 C  
BRANCH  17  18
HETATM   18  C   UNL     1      -9.985  15.905  68.769  1.00  0.00    -0.220 A  
HETATM   19  C   UNL     1      -9.927  17.490  66.917  1.00  0.00    -0.313 A  
HETATM   20  C   UNL     1     -10.390  18.770  66.269  1.00  0.00    -0.448 C  
HETATM   21  C   UNL     1     -10.394  17.113  68.186  1.00  0.00    -0.350 A  
HETATM   22  C   UNL     1      -8.622  15.442  66.820  1.00  0.00    -0.308 A  
HETATM   23  F   UNL     1     -11.256  19.491  67.036  1.00  0.00    -0.558 F  
HETATM   24  F   UNL     1      -9.359  19.614  65.983  1.00  0.00    -0.375 F  
HETATM   25  F   UNL     1     -11.034  18.554  65.088  1.00  0.00    -0.420 F  
HETATM   26  C   UNL     1      -9.035  16.644  66.241  1.00  0.00    -0.340 A  
HETATM   27  C   UNL     1      -9.099  15.074  68.075  1.00  0.00    -0.178 A  
ENDBRANCH  17  18
ENDBRANCH  16  17
ENDBRANCH  15  16
ENDBRANCH  13  15
ENDBRANCH   2  13
TORSDOF 6
ENDMDL
MODEL        2
REMARK 921   NORMALIZED FREE ENERGY PREDICTED BY IDOCK:   -6.57 KCAL/MOL
REMARK 922        TOTAL FREE ENERGY PREDICTED BY IDOCK:  -12.00 KCAL/MOL
REMARK 923 INTER-LIGAND FREE ENERGY PREDICTED BY IDOCK:  -10.15 KCAL/MOL
REMARK 924 INTRA-LIGAND FREE ENERGY PREDICTED BY IDOCK:   -1.85 KCAL/MOL
REMARK 927      BINDING AFFINITY PREDICTED BY RF-SCORE:    0.00 PKD
ROOT
HETATM    1  C   UNL     1      -9.820  11.409  68.453  1.00  0.00    -0.205 C  
HETATM    2  C   UNL     1     -11.185  12.117  68.389  1.00  0.00    -0.265 C  
ENDROOT
BRANCH   2   3
HETATM    3  C   UNL     1     -11.987  12.051  69.692  1.00  0.00    -0.360 A  
HETATM    4  C   UNL     1     -12.405  15.674  70.735  1.00  0.00    -0.466 A  
HETATM    5  C   UNL     1     -12.351  10.795  70.219  1.00  0.00    -0.423 A  
HETATM    6  C   UNL     1     -12.951  15.513  71.999  1.00  0.00    -0.517 A  
HETATM    7  C   UNL     1     -12.116  14.551  69.953  1.00  0.00    -0.389 A  
HETATM    8  C   UNL     1     -13.245  14.233  72.463  1.00  0.00    -0.581 A  
HETATM    9  C   UNL     1     -13.006  10.683  71.441  1.00  0.00    -0.545 A  
HETATM   10  C   UNL     1     -13.292  11.826  72.176  1.00  0.00    -0.334 A  
HETATM   11  C   UNL     1     -12.346  13.233  70.413  1.00  0.00    -0.365 A  
HETATM   12  C   UNL     1     -12.964  13.096  71.686  1.00  0.00    -0.429 A  
ENDBRANCH   2   3
BRANCH   2  13
HETATM   13  N   UNL     1     -11.967  11.747  67.197  1.00  0.00    -0.595 NA 
HETATM   14  H   UNL     1     -12.961  11.706  67.422  1.00  0.00     0.000 HD 
BRANCH  13  15
HETATM   15  C   UNL     1     -11.743  12.604  66.037  1.00  0.00    -0.417 C  
BRANCH  15  16
HETATM   16  C   UNL     1     -11.982  14.068  66.401  1.00  0.00    -0.462 C  
BRANCH  16  17
HETATM   17  C   UNL     1     -10.916  14.951  65.746  1.00  0.00    -0.345 C  
BRANCH  17  18
HETATM   18  C   UNL     1     -10.278  15.871  66.752  1.00  0.00    -0.283 A  
HETATM   19  C   UNL     1      -9.889  18.122  67.602  1.00  0.00    -0.316 A  
HETATM   20  C   UNL     1     -10.126  19.610  67.537  1.00  0.00    -0.409 C  
HETATM   21  C   UNL     1     -10.527  17.249  66.707  1.00  0.00    -0.261 A  
HETATM   22  C   UNL     1      -8.756  16.221  68.605  1.00  0.00    -0.226 A  
HETATM   23  F   UNL     1     -11.006  19.983  66.565  1.00  0.00    -0.553 F  
HETATM   24  F   UNL     1     -10.626  20.112  68.701  1.00  0.00    -0.537 F  
HETATM   25  F   UNL     1      -8.983  20.309  67.289  1.00  0.00    -0.381 F  
HETATM   26  C   UNL     1      -9.004  17.594  68.553  1.00  0.00    -0.289 A  
HETATM   27  C   UNL     1      -9.388  15.366  67.705  1.00  0.00    -0.195 A  
ENDBRANCH  17  18
ENDBRANCH  16  17
ENDBRANCH  15  16
ENDBRANCH  13  15
ENDBRANCH   2  13
TORSDOF 6
ENDMDL
MODEL        3
REMARK 921   NORMALIZED FREE ENERGY PREDICTED BY IDOCK:   -6.18 KCAL/MOL
REMARK 922        TOTAL FREE ENERGY PREDICTED BY IDOCK:  -11.47 KCAL/MOL
REMARK 923 INTER-LIGAND FREE ENERGY PREDICTED BY IDOCK:   -8.61 KCAL/MOL
REMARK 924 INTRA-LIGAND FREE ENERGY PREDICTED BY IDOCK:   -2.86 KCAL/MOL
REMARK 927      BINDING AFFINITY PREDICTED BY RF-SCORE:    0.00 PKD
ROOT
HETATM    1  C   UNL     1     -10.922   5.372  72.558  1.00  0.00    -0.312 C  
HETATM    2  C   UNL     1     -11.659   6.421  71.707  1.00  0.00    -0.316 C  
ENDROOT
BRANCH   2   3
HETATM    3  C   UNL     1     -10.733   7.385  70.958  1.00  0.00    -0.244 A  
HETATM    4  C   UNL     1     -10.965   6.298  67.332  1.00  0.00    -0.447 A  
HETATM    5  C   UNL     1     -10.022   8.365  71.681  1.00  0.00    -0.302 A  
HETATM    6  C   UNL     1      -9.963   7.073  66.770  1.00  0.00    -0.266 A  
HETATM    7  C   UNL     1     -11.254   6.413  68.695  1.00  0.00    -0.338 A  
HETATM    8  C   UNL     1      -9.278   7.992  67.562  1.00  0.00    -0.153 A  
HETATM    9  C   UNL     1      -9.108   9.206  71.055  1.00  0.00    -0.305 A  
HETATM   10  C   UNL     1      -8.867   9.070  69.694  1.00  0.00    -0.145 A  
HETATM   11  C   UNL     1     -10.540   7.293  69.544  1.00  0.00    -0.244 A  
HETATM   12  C   UNL     1      -9.561   8.121  68.932  1.00  0.00    -0.153 A  
ENDBRANCH   2   3
BRANCH   2  13
HETATM   13  N   UNL     1     -12.741   7.097  72.444  1.00  0.00    -0.493 NA 
HETATM   14  H   UNL     1     -12.440   8.024  72.747  1.00  0.00     0.000 HD 
BRANCH  13  15
HETATM   15  C   UNL     1     -14.004   7.185  71.718  1.00  0.00    -0.278 C  
BRANCH  15  16
HETATM   16  C   UNL     1     -14.302   8.635  71.340  1.00  0.00    -0.332 C  
BRANCH  16  17
HETATM   17  C   UNL     1     -13.438   9.582  72.177  1.00  0.00    -0.535 C  
BRANCH  17  18
HETATM   18  C   UNL     1     -13.006  10.779  71.373  1.00  0.00    -0.535 A  
HETATM   19  C   UNL     1     -12.013  11.716  69.353  1.00  0.00    -0.381 A  
HETATM   20  C   UNL     1     -11.407  11.540  67.983  1.00  0.00    -0.298 C  
HETATM   21  C   UNL     1     -12.474  10.612  70.087  1.00  0.00    -0.342 A  
HETATM   22  C   UNL     1     -12.634  13.167  71.201  1.00  0.00    -0.403 A  
HETATM   23  F   UNL     1     -11.384  10.245  67.557  1.00  0.00    -0.373 F  
HETATM   24  F   UNL     1     -12.079  12.233  67.021  1.00  0.00    -0.416 F  
HETATM   25  F   UNL     1     -10.117  11.973  67.924  1.00  0.00    -0.179 F  
HETATM   26  C   UNL     1     -12.101  12.995  69.922  1.00  0.00    -0.347 A  
HETATM   27  C   UNL     1     -13.080  12.063  71.923  1.00  0.00    -0.475 A  
ENDBRANCH  17  18
ENDBRANCH  16  17
ENDBRANCH  15  16
ENDBRANCH  13  15
ENDBRANCH   2  13
TORSDOF 6
ENDMDL
MODEL        4
REMARK 921   NORMALIZED FREE ENERGY PREDICTED BY IDOCK:   -6.18 KCAL/MOL
REMARK 922        TOTAL FREE ENERGY PREDICTED BY IDOCK:  -11.47 KCAL/MOL
REMARK 923 INTER-LIGAND FREE ENERGY PREDICTED BY IDOCK:   -9.76 KCAL/MOL
REMARK 924 INTRA-LIGAND FREE ENERGY PREDICTED BY IDOCK:   -1.71 KCAL/MOL
REMARK 927      BINDING AFFINITY PREDICTED BY RF-SCORE:    0.00 PKD
ROOT
HETATM    1  C   UNL     1      -9.330  11.044  69.057  1.00  0.00    -0.105 C  
HETATM    2  C   UNL     1     -10.321  10.340  68.114  1.00  0.00    -0.177 C  
ENDROOT
BRANCH   2   3
HETATM    3  C   UNL     1     -10.876  11.237  67.004  1.00  0.00    -0.332 A  
HETATM    4  C   UNL     1      -9.248   9.942  63.833  1.00  0.00    -0.295 A  
HETATM    5  C   UNL     1     -11.764  12.282  67.336  1.00  0.00    -0.405 A  
HETATM    6  C   UNL     1      -9.638  10.918  62.930  1.00  0.00    -0.371 A  
HETATM    7  C   UNL     1      -9.673  10.012  65.163  1.00  0.00    -0.380 A  
HETATM    8  C   UNL     1     -10.486  11.941  63.347  1.00  0.00    -0.487 A  
HETATM    9  C   UNL     1     -12.227  13.172  66.373  1.00  0.00    -0.396 A  
HETATM   10  C   UNL     1     -11.794  13.053  65.059  1.00  0.00    -0.401 A  
HETATM   11  C   UNL     1     -10.487  11.068  65.638  1.00  0.00    -0.293 A  
HETATM   12  C   UNL     1     -10.925  12.022  64.679  1.00  0.00    -0.367 A  
ENDBRANCH   2   3
BRANCH   2  13
HETATM   13  N   UNL     1     -11.360   9.585  68.837  1.00  0.00    -0.452 NA 
HETATM   14  H   UNL     1     -11.181   8.583  68.773  1.00  0.00     0.000 HD 
BRANCH  13  15
HETATM   15  C   UNL     1     -11.537   9.982  70.230  1.00  0.00    -0.280 C  
BRANCH  15  16
HETATM   16  C   UNL     1     -12.947  10.524  70.456  1.00  0.00    -0.289 C  
BRANCH  16  17
HETATM   17  C   UNL     1     -13.003  11.304  71.771  1.00  0.00    -0.519 C  
BRANCH  17  18
HETATM   18  C   UNL     1     -13.105  12.786  71.522  1.00  0.00    -0.380 A  
HETATM   19  C   UNL     1     -12.283  14.801  70.424  1.00  0.00    -0.395 A  
HETATM   20  C   UNL     1     -11.328  15.486  69.480  1.00  0.00    -0.313 C  
HETATM   21  C   UNL     1     -12.236  13.412  70.618  1.00  0.00    -0.427 A  
HETATM   22  C   UNL     1     -14.094  14.936  72.040  1.00  0.00    -0.613 A  
HETATM   23  F   UNL     1     -10.470  14.631  68.853  1.00  0.00    -0.220 F  
HETATM   24  F   UNL     1     -11.969  16.161  68.485  1.00  0.00    -0.362 F  
HETATM   25  F   UNL     1     -10.542  16.405  70.108  1.00  0.00    -0.289 F  
HETATM   26  C   UNL     1     -13.223  15.556  71.141  1.00  0.00    -0.576 A  
HETATM   27  C   UNL     1     -14.031  13.558  72.231  1.00  0.00    -0.638 A  
ENDBRANCH  17  18
ENDBRANCH  16  17
ENDBRANCH  15  16
ENDBRANCH  13  15
ENDBRANCH   2  13
TORSDOF 6
ENDMDL
MODEL        5
REMARK 921   NORMALIZED FREE ENERGY PREDICTED BY IDOCK:   -6.15 KCAL/MOL
REMARK 922        TOTAL FREE ENERGY PREDICTED BY IDOCK:  -11.44 KCAL/MOL
REMARK 923 INTER-LIGAND FREE ENERGY PREDICTED BY IDOCK:   -7.53 KCAL/MOL
REMARK 924 INTRA-LIGAND FREE ENERGY PREDICTED BY IDOCK:   -3.91 KCAL/MOL
REMARK 927      BINDING AFFINITY PREDICTED BY RF-SCORE:    0.00 PKD
ROOT
HETATM    1  C   UNL     1     -12.527  12.010  70.909  1.00  0.00    -0.384 C  
HETATM    2  C   UNL     1     -12.291  10.498  71.078  1.00  0.00    -0.399 C  
ENDROOT
BRANCH   2   3
HETATM    3  C   UNL     1     -11.104   9.956  70.277  1.00  0.00    -0.368 A  
HETATM    4  C   UNL     1      -8.937   8.211  72.855  1.00  0.00    -0.328 A  
HETATM    5  C   UNL     1     -11.030  10.207  68.891  1.00  0.00    -0.261 A  
HETATM    6  C   UNL     1      -7.812   7.934  72.096  1.00  0.00    -0.129 A  
HETATM    7  C   UNL     1     -10.038   8.841  72.266  1.00  0.00    -0.308 A  
HETATM    8  C   UNL     1      -7.803   8.251  70.739  1.00  0.00    -0.091 A  
HETATM    9  C   UNL     1      -9.931   9.806  68.140  1.00  0.00    -0.179 A  
HETATM   10  C   UNL     1      -8.868   9.164  68.762  1.00  0.00    -0.132 A  
HETATM   11  C   UNL     1     -10.044   9.230  70.905  1.00  0.00    -0.373 A  
HETATM   12  C   UNL     1      -8.903   8.880  70.133  1.00  0.00    -0.172 A  
ENDBRANCH   2   3
BRANCH   2  13
HETATM   13  N   UNL     1     -13.523   9.706  70.916  1.00  0.00    -0.582 NA 
HETATM   14  H   UNL     1     -13.581   9.329  69.970  1.00  0.00     0.000 HD 
BRANCH  13  15
HETATM   15  C   UNL     1     -13.689   8.640  71.899  1.00  0.00    -0.421 C  
BRANCH  15  16
HETATM   16  C   UNL     1     -13.530   7.273  71.236  1.00  0.00    -0.333 C  
BRANCH  16  17
HETATM   17  C   UNL     1     -12.432   6.474  71.943  1.00  0.00    -0.291 C  
BRANCH  17  18
HETATM   18  C   UNL     1     -11.389   5.999  70.967  1.00  0.00    -0.299 A  
HETATM   19  C   UNL     1     -10.564   5.829  68.679  1.00  0.00    -0.305 A  
HETATM   20  C   UNL     1     -10.695   6.140  67.209  1.00  0.00    -0.335 C  
HETATM   21  C   UNL     1     -11.498   6.318  69.606  1.00  0.00    -0.425 A  
HETATM   22  C   UNL     1      -9.396   4.706  70.490  1.00  0.00    -0.222 A  
HETATM   23  F   UNL     1     -11.764   6.930  66.909  1.00  0.00    -0.242 F  
HETATM   24  F   UNL     1      -9.604   6.789  66.713  1.00  0.00    -0.159 F  
HETATM   25  F   UNL     1     -10.839   5.018  66.450  1.00  0.00    -0.324 F  
HETATM   26  C   UNL     1      -9.511   5.024  69.135  1.00  0.00    -0.196 A  
HETATM   27  C   UNL     1     -10.334   5.189  71.399  1.00  0.00    -0.273 A  
ENDBRANCH  17  18
ENDBRANCH  16  17
ENDBRANCH  15  16
ENDBRANCH  13  15
ENDBRANCH   2  13
TORSDOF 6
ENDMDL
MODEL        6
REMARK 921   NORMALIZED FREE ENERGY PREDICTED BY IDOCK:   -6.13 KCAL/MOL
REMARK 922        TOTAL FREE ENERGY PREDICTED BY IDOCK:  -11.40 KCAL/MOL
REMARK 923 INTER-LIGAND FREE ENERGY PREDICTED BY IDOCK:   -9.07 KCAL/MOL
REMARK 924 INTRA-LIGAND FREE ENERGY PREDICTED BY IDOCK:   -2.33 KCAL/MOL
REMARK 927      BINDING AFFINITY PREDICTED BY RF-SCORE:    0.00 PKD
ROOT
HETATM    1  C   UNL     1     -10.991   5.294  72.696  1.00  0.00    -0.316 C  
HETATM    2  C   UNL     1     -11.683   6.334  71.796  1.00  0.00    -0.299 C  
ENDROOT
BRANCH   2   3
HETATM    3  C   UNL     1     -10.723   7.326  71.132  1.00  0.00    -0.244 A  
HETATM    4  C   UNL     1     -10.979   6.560  67.426  1.00  0.00    -0.458 A  
HETATM    5  C   UNL     1      -9.982   8.217  71.936  1.00  0.00    -0.277 A  
HETATM    6  C   UNL     1      -9.950   7.347  66.933  1.00  0.00    -0.307 A  
HETATM    7  C   UNL     1     -11.268   6.569  68.794  1.00  0.00    -0.319 A  
HETATM    8  C   UNL     1      -9.238   8.171  67.801  1.00  0.00    -0.143 A  
HETATM    9  C   UNL     1      -9.039   9.077  71.384  1.00  0.00    -0.271 A  
HETATM   10  C   UNL     1      -8.798   9.049  70.016  1.00  0.00    -0.181 A  
HETATM   11  C   UNL     1     -10.529   7.348  69.716  1.00  0.00    -0.235 A  
HETATM   12  C   UNL     1      -9.520   8.193  69.177  1.00  0.00    -0.155 A  
ENDBRANCH   2   3
BRANCH   2  13
HETATM   13  N   UNL     1     -12.837   6.977  72.448  1.00  0.00    -0.471 NA 
HETATM   14  H   UNL     1     -12.571   7.886  72.827  1.00  0.00     0.000 HD 
BRANCH  13  15
HETATM   15  C   UNL     1     -14.016   7.106  71.598  1.00  0.00    -0.309 C  
BRANCH  15  16
HETATM   16  C   UNL     1     -14.293   8.576  71.290  1.00  0.00    -0.293 C  
BRANCH  16  17
HETATM   17  C   UNL     1     -13.499   9.470  72.245  1.00  0.00    -0.521 C  
BRANCH  17  18
HETATM   18  C   UNL     1     -12.973  10.691  71.539  1.00  0.00    -0.566 A  
HETATM   19  C   UNL     1     -12.759  13.116  71.396  1.00  0.00    -0.390 A  
HETATM   20  C   UNL     1     -13.021  14.493  71.952  1.00  0.00    -0.341 C  
HETATM   21  C   UNL     1     -13.192  11.967  72.077  1.00  0.00    -0.481 A  
HETATM   22  C   UNL     1     -11.869  11.700  69.632  1.00  0.00    -0.419 A  
HETATM   23  F   UNL     1     -13.678  14.486  73.146  1.00  0.00    -0.494 F  
HETATM   24  F   UNL     1     -11.874  15.198  72.165  1.00  0.00    -0.378 F  
HETATM   25  F   UNL     1     -13.779  15.256  71.116  1.00  0.00    -0.453 F  
HETATM   26  C   UNL     1     -12.093  12.969  70.170  1.00  0.00    -0.377 A  
HETATM   27  C   UNL     1     -12.312  10.568  70.313  1.00  0.00    -0.377 A  
ENDBRANCH  17  18
ENDBRANCH  16  17
ENDBRANCH  15  16
ENDBRANCH  13  15
ENDBRANCH   2  13
TORSDOF 6
ENDMDL
MODEL        7
REMARK 921   NORMALIZED FREE ENERGY PREDICTED BY IDOCK:   -6.13 KCAL/MOL
REMARK 922        TOTAL FREE ENERGY PREDICTED BY IDOCK:  -11.40 KCAL/MOL
REMARK 923 INTER-LIGAND FREE ENERGY PREDICTED BY IDOCK:   -9.90 KCAL/MOL
REMARK 924 INTRA-LIGAND FREE ENERGY PREDICTED BY IDOCK:   -1.50 KCAL/MOL
REMARK 927      BINDING AFFINITY PREDICTED BY RF-SCORE:    0.00 PKD
ROOT
HETATM    1  C   UNL     1      -9.910  11.662  67.611  1.00  0.00    -0.195 C  
HETATM    2  C   UNL     1     -10.914  12.813  67.427  1.00  0.00    -0.253 C  
ENDROOT
BRANCH   2   3
HETATM    3  C   UNL     1     -11.347  13.483  68.734  1.00  0.00    -0.329 A  
HETATM    4  C   UNL     1     -12.681  10.640  70.861  1.00  0.00    -0.498 A  
HETATM    5  C   UNL     1     -11.215  14.880  68.874  1.00  0.00    -0.282 A  
HETATM    6  C   UNL     1     -13.226  11.349  71.920  1.00  0.00    -0.485 A  
HETATM    7  C   UNL     1     -12.031  11.321  69.828  1.00  0.00    -0.431 A  
HETATM    8  C   UNL     1     -13.086  12.734  71.964  1.00  0.00    -0.474 A  
HETATM    9  C   UNL     1     -11.671  15.541  70.010  1.00  0.00    -0.363 A  
HETATM   10  C   UNL     1     -12.292  14.822  71.023  1.00  0.00    -0.397 A  
HETATM   11  C   UNL     1     -11.920  12.732  69.808  1.00  0.00    -0.362 A  
HETATM   12  C   UNL     1     -12.432  13.431  70.935  1.00  0.00    -0.439 A  
ENDBRANCH   2   3
BRANCH   2  13
HETATM   13  N   UNL     1     -12.041  12.453  66.548  1.00  0.00    -0.598 NA 
HETATM   14  H   UNL     1     -12.897  12.347  67.093  1.00  0.00     0.000 HD 
BRANCH  13  15
HETATM   15  C   UNL     1     -12.258  13.372  65.436  1.00  0.00    -0.452 C  
BRANCH  15  16
HETATM   16  C   UNL     1     -10.929  13.954  64.958  1.00  0.00    -0.371 C  
BRANCH  16  17
HETATM   17  C   UNL     1     -11.054  15.469  64.782  1.00  0.00    -0.421 C  
BRANCH  17  18
HETATM   18  C   UNL     1     -10.198  16.206  65.777  1.00  0.00    -0.397 A  
HETATM   19  C   UNL     1      -9.776  18.182  67.140  1.00  0.00    -0.301 A  
HETATM   20  C   UNL     1     -10.182  19.548  67.636  1.00  0.00    -0.434 C  
HETATM   21  C   UNL     1     -10.596  17.461  66.259  1.00  0.00    -0.194 A  
HETATM   22  C   UNL     1      -8.154  16.374  67.068  1.00  0.00    -0.235 A  
HETATM   23  F   UNL     1     -11.390  19.965  67.163  1.00  0.00    -0.444 F  
HETATM   24  F   UNL     1     -10.276  19.605  68.994  1.00  0.00    -0.488 F  
HETATM   25  F   UNL     1      -9.291  20.517  67.282  1.00  0.00    -0.465 F  
HETATM   26  C   UNL     1      -8.553  17.625  67.543  1.00  0.00    -0.222 A  
HETATM   27  C   UNL     1      -8.972  15.672  66.187  1.00  0.00    -0.362 A  
ENDBRANCH  17  18
ENDBRANCH  16  17
ENDBRANCH  15  16
ENDBRANCH  13  15
ENDBRANCH   2  13
TORSDOF 6
ENDMDL
MODEL        8
REMARK 921   NORMALIZED FREE ENERGY PREDICTED BY IDOCK:   -6.12 KCAL/MOL
REMARK 922        TOTAL FREE ENERGY PREDICTED BY IDOCK:  -11.39 KCAL/MOL
REMARK 923 INTER-LIGAND FREE ENERGY PREDICTED BY IDOCK:   -9.66 KCAL/MOL
REMARK 924 INTRA-LIGAND FREE ENERGY PREDICTED BY IDOCK:   -1.73 KCAL/MOL
REMARK 927      BINDING AFFINITY PREDICTED BY RF-SCORE:    0.00 PKD
ROOT
HETATM    1  C   UNL     1      -9.629  13.889  67.618  1.00  0.00    -0.215 C  
HETATM    2  C   UNL     1     -11.019  14.304  68.133  1.00  0.00    -0.246 C  
ENDROOT
BRANCH   2   3
HETATM    3  C   UNL     1     -11.639  13.320  69.129  1.00  0.00    -0.370 A  
HETATM    4  C   UNL     1     -13.379  15.523  71.680  1.00  0.00    -0.585 A  
HETATM    5  C   UNL     1     -11.442  11.936  68.950  1.00  0.00    -0.358 A  
HETATM    6  C   UNL     1     -13.730  14.579  72.633  1.00  0.00    -0.543 A  
HETATM    7  C   UNL     1     -12.725  15.123  70.511  1.00  0.00    -0.416 A  
HETATM    8  C   UNL     1     -13.463  13.232  72.398  1.00  0.00    -0.670 A  
HETATM    9  C   UNL     1     -11.915  11.010  69.874  1.00  0.00    -0.427 A  
HETATM   10  C   UNL     1     -12.578  11.451  71.013  1.00  0.00    -0.487 A  
HETATM   11  C   UNL     1     -12.385  13.771  70.263  1.00  0.00    -0.407 A  
HETATM   12  C   UNL     1     -12.811  12.816  71.225  1.00  0.00    -0.355 A  
ENDBRANCH   2   3
BRANCH   2  13
HETATM   13  N   UNL     1     -11.935  14.701  67.049  1.00  0.00    -0.426 NA 
HETATM   14  H   UNL     1     -12.551  15.452  67.361  1.00  0.00     0.000 HD 
BRANCH  13  15
HETATM   15  C   UNL     1     -11.272  15.073  65.803  1.00  0.00    -0.318 C  
BRANCH  15  16
HETATM   16  C   UNL     1     -12.050  14.535  64.603  1.00  0.00    -0.486 C  
BRANCH  16  17
HETATM   17  C   UNL     1     -12.555  13.121  64.899  1.00  0.00    -0.468 C  
BRANCH  17  18
HETATM   18  C   UNL     1     -11.501  12.090  64.595  1.00  0.00    -0.371 A  
HETATM   19  C   UNL     1     -10.105  10.226  65.315  1.00  0.00    -0.359 A  
HETATM   20  C   UNL     1      -9.675   9.236  66.369  1.00  0.00    -0.258 C  
HETATM   21  C   UNL     1     -11.129  11.152  65.567  1.00  0.00    -0.073 A  
HETATM   22  C   UNL     1      -9.834  11.174  63.094  1.00  0.00    -0.403 A  
HETATM   23  F   UNL     1     -10.382   9.333  67.531  1.00  0.00    -0.243 F  
HETATM   24  F   UNL     1      -9.812   7.944  65.959  1.00  0.00    -0.226 F  
HETATM   25  F   UNL     1      -8.367   9.382  66.717  1.00  0.00    -0.117 F  
HETATM   26  C   UNL     1      -9.464  10.244  64.067  1.00  0.00    -0.356 A  
HETATM   27  C   UNL     1     -10.846  12.094  63.360  1.00  0.00    -0.474 A  
ENDBRANCH  17  18
ENDBRANCH  16  17
ENDBRANCH  15  16
ENDBRANCH  13  15
ENDBRANCH   2  13
TORSDOF 6
ENDMDL
MODEL        9
REMARK 921   NORMALIZED FREE ENERGY PREDICTED BY IDOCK:   -6.02 KCAL/MOL
REMARK 922        TOTAL FREE ENERGY PREDICTED BY IDOCK:  -11.25 KCAL/MOL
REMARK 923 INTER-LIGAND FREE ENERGY PREDICTED BY IDOCK:   -9.65 KCAL/MOL
REMARK 924 INTRA-LIGAND FREE ENERGY PREDICTED BY IDOCK:   -1.61 KCAL/MOL
REMARK 927      BINDING AFFINITY PREDICTED BY RF-SCORE:    0.00 PKD
ROOT
HETATM    1  C   UNL     1     -10.464   8.410  67.459  1.00  0.00    -0.328 C  
HETATM    2  C   UNL     1     -10.697   9.931  67.474  1.00  0.00    -0.272 C  
ENDROOT
BRANCH   2   3
HETATM    3  C   UNL     1     -10.475  10.613  66.120  1.00  0.00    -0.260 A  
HETATM    4  C   UNL     1     -12.459  13.838  66.345  1.00  0.00    -0.404 A  
HETATM    5  C   UNL     1      -9.690   9.971  65.141  1.00  0.00    -0.380 A  
HETATM    6  C   UNL     1     -12.371  14.282  65.035  1.00  0.00    -0.434 A  
HETATM    7  C   UNL     1     -11.815  12.656  66.725  1.00  0.00    -0.440 A  
HETATM    8  C   UNL     1     -11.606  13.567  64.117  1.00  0.00    -0.415 A  
HETATM    9  C   UNL     1      -9.529  10.513  63.870  1.00  0.00    -0.338 A  
HETATM   10  C   UNL     1     -10.172  11.699  63.541  1.00  0.00    -0.474 A  
HETATM   11  C   UNL     1     -11.077  11.872  65.807  1.00  0.00    -0.367 A  
HETATM   12  C   UNL     1     -10.949  12.381  64.486  1.00  0.00    -0.355 A  
ENDBRANCH   2   3
BRANCH   2  13
HETATM   13  N   UNL     1     -10.011  10.604  68.591  1.00  0.00    -0.173 NA 
HETATM   14  H   UNL     1      -9.968  11.610  68.428  1.00  0.00     0.000 HD 
BRANCH  13  15
HETATM   15  C   UNL     1     -10.583  10.326  69.905  1.00  0.00    -0.276 C  
BRANCH  15  16
HETATM   16  C   UNL     1     -12.071  10.668  69.923  1.00  0.00    -0.372 C  
BRANCH  16  17
HETATM   17  C   UNL     1     -12.468  11.207  71.300  1.00  0.00    -0.466 C  
BRANCH  17  18
HETATM   18  C   UNL     1     -12.765  12.682  71.243  1.00  0.00    -0.354 A  
HETATM   19  C   UNL     1     -12.278  14.899  70.353  1.00  0.00    -0.393 A  
HETATM   20  C   UNL     1     -11.488  15.804  69.442  1.00  0.00    -0.355 C  
HETATM   21  C   UNL     1     -12.050  13.514  70.370  1.00  0.00    -0.415 A  
HETATM   22  C   UNL     1     -13.960  14.614  72.084  1.00  0.00    -0.591 A  
HETATM   23  F   UNL     1     -10.586  15.144  68.662  1.00  0.00    -0.216 F  
HETATM   24  F   UNL     1     -12.282  16.501  68.581  1.00  0.00    -0.071 F  
HETATM   25  F   UNL     1     -10.772  16.738  70.129  1.00  0.00    -0.294 F  
HETATM   26  C   UNL     1     -13.243  15.440  71.216  1.00  0.00    -0.585 A  
HETATM   27  C   UNL     1     -13.718  13.243  72.099  1.00  0.00    -0.619 A  
ENDBRANCH  17  18
ENDBRANCH  16  17
ENDBRANCH  15  16
ENDBRANCH  13  15
ENDBRANCH   2  13
TORSDOF 6
ENDMDL
MODEL       10
REMARK 921   NORMALIZED FREE ENERGY PREDICTED BY IDOCK:   -5.99 KCAL/MOL
REMARK 922        TOTAL FREE ENERGY PREDICTED BY IDOCK:  -11.21 KCAL/MOL
REMARK 923 INTER-LIGAND FREE ENERGY PREDICTED BY IDOCK:   -9.59 KCAL/MOL
REMARK 924 INTRA-LIGAND FREE ENERGY PREDICTED BY IDOCK:   -1.63 KCAL/MOL
REMARK 927      BINDING AFFINITY PREDICTED BY RF-SCORE:    0.00 PKD
ROOT
HETATM    1  C   UNL     1     -11.820  16.025  68.420  1.00  0.00    -0.068 C  
HETATM    2  C   UNL     1     -11.175  14.923  69.279  1.00  0.00    -0.284 C  
ENDROOT
BRANCH   2   3
HETATM    3  C   UNL     1     -12.027  14.476  70.471  1.00  0.00    -0.387 A  
HETATM    4  C   UNL     1     -12.030  10.689  70.269  1.00  0.00    -0.425 A  
HETATM    5  C   UNL     1     -12.614  15.449  71.306  1.00  0.00    -0.477 A  
HETATM    6  C   UNL     1     -12.970  10.383  71.241  1.00  0.00    -0.517 A  
HETATM    7  C   UNL     1     -11.684  12.022  70.029  1.00  0.00    -0.346 A  
HETATM    8  C   UNL     1     -13.534  11.408  71.998  1.00  0.00    -0.289 A  
HETATM    9  C   UNL     1     -13.463  15.092  72.349  1.00  0.00    -0.533 A  
HETATM   10  C   UNL     1     -13.763  13.753  72.565  1.00  0.00    -0.667 A  
HETATM   11  C   UNL     1     -12.278  13.094  70.738  1.00  0.00    -0.375 A  
HETATM   12  C   UNL     1     -13.192  12.751  71.770  1.00  0.00    -0.471 A  
ENDBRANCH   2   3
BRANCH   2  13
HETATM   13  N   UNL     1      -9.776  15.220  69.634  1.00  0.00    -0.402 NA 
HETATM   14  H   UNL     1      -9.228  14.359  69.672  1.00  0.00     0.000 HD 
BRANCH  13  15
HETATM   15  C   UNL     1      -9.127  16.198  68.768  1.00  0.00    -0.229 C  
BRANCH  15  16
HETATM   16  C   UNL     1      -8.201  15.500  67.774  1.00  0.00    -0.157 C  
BRANCH  16  17
HETATM   17  C   UNL     1      -8.862  15.440  66.395  1.00  0.00    -0.340 C  
BRANCH  17  18
HETATM   18  C   UNL     1      -9.523  14.108  66.164  1.00  0.00    -0.229 A  
HETATM   19  C   UNL     1     -11.151  12.739  64.972  1.00  0.00    -0.317 A  
HETATM   20  C   UNL     1     -12.212  12.585  63.911  1.00  0.00    -0.503 C  
HETATM   21  C   UNL     1     -10.485  13.961  65.155  1.00  0.00    -0.409 A  
HETATM   22  C   UNL     1      -9.871  11.799  66.811  1.00  0.00    -0.218 A  
HETATM   23  F   UNL     1     -12.420  13.714  63.176  1.00  0.00    -0.556 F  
HETATM   24  F   UNL     1     -11.913  11.607  63.010  1.00  0.00    -0.446 F  
HETATM   25  F   UNL     1     -13.426  12.253  64.433  1.00  0.00    -0.376 F  
HETATM   26  C   UNL     1     -10.831  11.659  65.807  1.00  0.00    -0.334 A  
HETATM   27  C   UNL     1      -9.224  13.019  66.989  1.00  0.00    -0.232 A  
ENDBRANCH  17  18
ENDBRANCH  16  17
ENDBRANCH  15  16
ENDBRANCH  13  15
ENDBRANCH   2  13
TORSDOF 6
ENDMDL
MODEL       11
REMARK 921   NORMALIZED FREE ENERGY PREDICTED BY IDOCK:   -5.98 KCAL/MOL
REMARK 922        TOTAL FREE ENERGY PREDICTED BY IDOCK:  -11.21 KCAL/MOL
REMARK 923 INTER-LIGAND FREE ENERGY PREDICTED BY IDOCK:   -9.18 KCAL/MOL
REMARK 924 INTRA-LIGAND FREE ENERGY PREDICTED BY IDOCK:   -2.03 KCAL/MOL
REMARK 927      BINDING AFFINITY PREDICTED BY RF-SCORE:    0.00 PKD
ROOT
HETATM    1  C   UNL     1      -7.834  17.134  66.115  1.00  0.00    -0.303 C  
HETATM    2  C   UNL     1      -8.462  15.983  66.921  1.00  0.00    -0.241 C  
ENDROOT
BRANCH   2   3
HETATM    3  C   UNL     1      -9.674  15.333  66.246  1.00  0.00    -0.325 A  
HETATM    4  C   UNL     1      -9.732  11.793  67.608  1.00  0.00    -0.186 A  
HETATM    5  C   UNL     1     -10.436  16.078  65.322  1.00  0.00    -0.384 A  
HETATM    6  C   UNL     1     -10.713  11.229  66.808  1.00  0.00    -0.323 A  
HETATM    7  C   UNL     1      -9.404  13.144  67.461  1.00  0.00    -0.207 A  
HETATM    8  C   UNL     1     -11.394  12.026  65.890  1.00  0.00    -0.391 A  
HETATM    9  C   UNL     1     -11.492  15.503  64.624  1.00  0.00    -0.326 A  
HETATM   10  C   UNL     1     -11.797  14.162  64.816  1.00  0.00    -0.425 A  
HETATM   11  C   UNL     1     -10.032  13.972  66.499  1.00  0.00    -0.289 A  
HETATM   12  C   UNL     1     -11.078  13.386  65.734  1.00  0.00    -0.295 A  
ENDBRANCH   2   3
BRANCH   2  13
HETATM   13  N   UNL     1      -8.692  16.333  68.334  1.00  0.00    -0.197 NA 
HETATM   14  H   UNL     1      -7.925  16.904  68.688  1.00  0.00     0.000 HD 
BRANCH  13  15
HETATM   15  C   UNL     1      -9.972  16.983  68.594  1.00  0.00    -0.294 C  
BRANCH  15  16
HETATM   16  C   UNL     1     -10.689  16.303  69.759  1.00  0.00    -0.345 C  
BRANCH  16  17
HETATM   17  C   UNL     1     -11.842  15.444  69.233  1.00  0.00    -0.365 C  
BRANCH  17  18
HETATM   18  C   UNL     1     -12.319  14.473  70.280  1.00  0.00    -0.408 A  
HETATM   19  C   UNL     1     -12.657  12.177  71.028  1.00  0.00    -0.359 A  
HETATM   20  C   UNL     1     -12.523  10.691  70.811  1.00  0.00    -0.385 C  
HETATM   21  C   UNL     1     -12.162  13.093  70.087  1.00  0.00    -0.360 A  
HETATM   22  C   UNL     1     -13.459  14.036  72.373  1.00  0.00    -0.639 A  
HETATM   23  F   UNL     1     -11.876  10.363  69.656  1.00  0.00    -0.281 F  
HETATM   24  F   UNL     1     -11.830  10.076  71.810  1.00  0.00    -0.440 F  
HETATM   25  F   UNL     1     -13.730  10.062  70.750  1.00  0.00    -0.414 F  
HETATM   26  C   UNL     1     -13.304  12.662  72.174  1.00  0.00    -0.570 A  
HETATM   27  C   UNL     1     -12.972  14.934  71.427  1.00  0.00    -0.427 A  
ENDBRANCH  17  18
ENDBRANCH  16  17
ENDBRANCH  15  16
ENDBRANCH  13  15
ENDBRANCH   2  13
TORSDOF 6
ENDMDL
MODEL       12
REMARK 921   NORMALIZED FREE ENERGY PREDICTED BY IDOCK:   -5.93 KCAL/MOL
REMARK 922        TOTAL FREE ENERGY PREDICTED BY IDOCK:  -11.14 KCAL/MOL
REMARK 923 INTER-LIGAND FREE ENERGY PREDICTED BY IDOCK:   -9.30 KCAL/MOL
REMARK 924 INTRA-LIGAND FREE ENERGY PREDICTED BY IDOCK:   -1.84 KCAL/MOL
REMARK 927      BINDING AFFINITY PREDICTED BY RF-SCORE:    0.00 PKD
ROOT
HETATM    1  C   UNL     1     -11.763  16.206  68.429  1.00  0.00    -0.126 C  
HETATM    2  C   UNL     1     -11.216  14.972  69.168  1.00  0.00    -0.281 C  
ENDROOT
BRANCH   2   3
HETATM    3  C   UNL     1     -12.053  14.541  70.375  1.00  0.00    -0.389 A  
HETATM    4  C   UNL     1     -11.853  10.753  70.366  1.00  0.00    -0.450 A  
HETATM    5  C   UNL     1     -12.697  15.521  71.158  1.00  0.00    -0.525 A  
HETATM    6  C   UNL     1     -12.784  10.447  71.346  1.00  0.00    -0.551 A  
HETATM    7  C   UNL     1     -11.576  12.089  70.060  1.00  0.00    -0.275 A  
HETATM    8  C   UNL     1     -13.407  11.477  72.048  1.00  0.00    -0.397 A  
HETATM    9  C   UNL     1     -13.534  15.173  72.212  1.00  0.00    -0.539 A  
HETATM   10  C   UNL     1     -13.766  13.832  72.494  1.00  0.00    -0.667 A  
HETATM   11  C   UNL     1     -12.232  13.162  70.711  1.00  0.00    -0.375 A  
HETATM   12  C   UNL     1     -13.136  12.824  71.754  1.00  0.00    -0.455 A  
ENDBRANCH   2   3
BRANCH   2  13
HETATM   13  N   UNL     1      -9.774  15.071  69.455  1.00  0.00    -0.403 NA 
HETATM   14  H   UNL     1      -9.342  14.146  69.431  1.00  0.00     0.000 HD 
BRANCH  13  15
HETATM   15  C   UNL     1      -9.047  15.994  68.591  1.00  0.00    -0.213 C  
BRANCH  15  16
HETATM   16  C   UNL     1      -8.358  15.236  67.459  1.00  0.00    -0.191 C  
BRANCH  16  17
HETATM   17  C   UNL     1      -9.063  15.523  66.131  1.00  0.00    -0.359 C  
BRANCH  17  18
HETATM   18  C   UNL     1     -10.073  14.454  65.808  1.00  0.00    -0.361 A  
HETATM   19  C   UNL     1     -10.804  12.133  65.945  1.00  0.00    -0.316 A  
HETATM   20  C   UNL     1     -10.605  10.719  66.433  1.00  0.00    -0.203 C  
HETATM   21  C   UNL     1      -9.900  13.150  66.291  1.00  0.00    -0.284 A  
HETATM   22  C   UNL     1     -12.071  13.741  64.636  1.00  0.00    -0.452 A  
HETATM   23  F   UNL     1      -9.508  10.563  67.227  1.00  0.00    -0.160 F  
HETATM   24  F   UNL     1     -11.660  10.266  67.166  1.00  0.00    -0.184 F  
HETATM   25  F   UNL     1     -10.452   9.832  65.410  1.00  0.00    -0.309 F  
HETATM   26  C   UNL     1     -11.892  12.443  65.117  1.00  0.00    -0.437 A  
HETATM   27  C   UNL     1     -11.162  14.740  64.979  1.00  0.00    -0.399 A  
ENDBRANCH  17  18
ENDBRANCH  16  17
ENDBRANCH  15  16
ENDBRANCH  13  15
ENDBRANCH   2  13
TORSDOF 6
ENDMDL
MODEL       13
REMARK 921   NORMALIZED FREE ENERGY PREDICTED BY IDOCK:   -5.91 KCAL/MOL
REMARK 922        TOTAL FREE ENERGY PREDICTED BY IDOCK:  -11.11 KCAL/MOL
REMARK 923 INTER-LIGAND FREE ENERGY PREDICTED BY IDOCK:   -6.94 KCAL/MOL
REMARK 924 INTRA-LIGAND FREE ENERGY PREDICTED BY IDOCK:   -4.17 KCAL/MOL
REMARK 927      BINDING AFFINITY PREDICTED BY RF-SCORE:    0.00 PKD
ROOT
HETATM    1  C   UNL     1     -12.081  10.547  69.720  1.00  0.00    -0.285 C  
HETATM    2  C   UNL     1     -11.908  12.020  69.309  1.00  0.00    -0.318 C  
ENDROOT
BRANCH   2   3
HETATM    3  C   UNL     1     -10.860  12.248  68.216  1.00  0.00    -0.254 A  
HETATM    4  C   UNL     1     -12.752  14.000  65.434  1.00  0.00    -0.499 A  
HETATM    5  C   UNL     1      -9.542  11.785  68.412  1.00  0.00    -0.191 A  
HETATM    6  C   UNL     1     -11.798  13.983  64.429  1.00  0.00    -0.453 A  
HETATM    7  C   UNL     1     -12.449  13.467  66.691  1.00  0.00    -0.263 A  
HETATM    8  C   UNL     1     -10.530  13.471  64.693  1.00  0.00    -0.439 A  
HETATM    9  C   UNL     1      -8.579  11.895  67.415  1.00  0.00    -0.164 A  
HETATM   10  C   UNL     1      -8.918  12.449  66.188  1.00  0.00     0.030 A  
HETATM   11  C   UNL     1     -11.191  12.885  66.979  1.00  0.00    -0.329 A  
HETATM   12  C   UNL     1     -10.210  12.937  65.952  1.00  0.00    -0.299 A  
ENDBRANCH   2   3
BRANCH   2  13
HETATM   13  N   UNL     1     -11.760  12.923  70.464  1.00  0.00    -0.507 NA 
HETATM   14  H   UNL     1     -10.773  13.084  70.665  1.00  0.00     0.000 HD 
BRANCH  13  15
HETATM   15  C   UNL     1     -12.466  14.194  70.332  1.00  0.00    -0.357 C  
BRANCH  15  16
HETATM   16  C   UNL     1     -11.471  15.351  70.263  1.00  0.00    -0.339 C  
BRANCH  16  17
HETATM   17  C   UNL     1     -11.625  16.094  68.934  1.00  0.00    -0.298 C  
BRANCH  17  18
HETATM   18  C   UNL     1     -10.345  16.063  68.141  1.00  0.00    -0.260 A  
HETATM   19  C   UNL     1      -7.961  15.572  68.005  1.00  0.00    -0.138 A  
HETATM   20  C   UNL     1      -6.688  15.055  68.627  1.00  0.00    -0.093 C  
HETATM   21  C   UNL     1      -9.172  15.551  68.713  1.00  0.00    -0.210 A  
HETATM   22  C   UNL     1      -9.108  16.614  66.132  1.00  0.00    -0.318 A  
HETATM   23  F   UNL     1      -6.854  14.569  69.890  1.00  0.00    -0.142 F  
HETATM   24  F   UNL     1      -6.131  14.039  67.909  1.00  0.00    -0.107 F  
HETATM   25  F   UNL     1      -5.727  16.015  68.723  1.00  0.00    -0.103 F  
HETATM   26  C   UNL     1      -7.941  16.106  66.708  1.00  0.00    -0.307 A  
HETATM   27  C   UNL     1     -10.302  16.595  66.849  1.00  0.00    -0.299 A  
ENDBRANCH  17  18
ENDBRANCH  16  17
ENDBRANCH  15  16
ENDBRANCH  13  15
ENDBRANCH   2  13
TORSDOF 6
ENDMDL
MODEL       14
REMARK 921   NORMALIZED FREE ENERGY PREDICTED BY IDOCK:   -5.91 KCAL/MOL
REMARK 922        TOTAL FREE ENERGY PREDICTED BY IDOCK:  -11.11 KCAL/MOL
REMARK 923 INTER-LIGAND FREE ENERGY PREDICTED BY IDOCK:   -9.19 KCAL/MOL
REMARK 924 INTRA-LIGAND FREE ENERGY PREDICTED BY IDOCK:   -1.92 KCAL/MOL
REMARK 927      BINDING AFFINITY PREDICTED BY RF-SCORE:    0.00 PKD
ROOT
HETATM    1  C   UNL     1     -10.225  14.831  68.713  1.00  0.00    -0.239 C  
HETATM    2  C   UNL     1     -11.760  14.920  68.770  1.00  0.00    -0.325 C  
ENDROOT
BRANCH   2   3
HETATM    3  C   UNL     1     -12.369  14.416  70.081  1.00  0.00    -0.406 A  
HETATM    4  C   UNL     1     -11.836  10.662  69.996  1.00  0.00    -0.403 A  
HETATM    5  C   UNL     1     -12.977  15.335  70.962  1.00  0.00    -0.526 A  
HETATM    6  C   UNL     1     -12.581  10.274  71.098  1.00  0.00    -0.501 A  
HETATM    7  C   UNL     1     -11.727  12.017  69.670  1.00  0.00    -0.405 A  
HETATM    8  C   UNL     1     -13.184  11.244  71.896  1.00  0.00    -0.491 A  
HETATM    9  C   UNL     1     -13.615  14.913  72.123  1.00  0.00    -0.522 A  
HETATM   10  C   UNL     1     -13.682  13.558  72.419  1.00  0.00    -0.704 A  
HETATM   11  C   UNL     1     -12.373  13.027  70.422  1.00  0.00    -0.351 A  
HETATM   12  C   UNL     1     -13.080  12.609  71.583  1.00  0.00    -0.421 A  
ENDBRANCH   2   3
BRANCH   2  13
HETATM   13  N   UNL     1     -12.410  14.367  67.568  1.00  0.00    -0.600 NA 
HETATM   14  H   UNL     1     -13.131  15.004  67.229  1.00  0.00     0.000 HD 
BRANCH  13  15
HETATM   15  C   UNL     1     -11.491  14.019  66.490  1.00  0.00    -0.357 C  
BRANCH  15  16
HETATM   16  C   UNL     1     -11.767  12.603  65.989  1.00  0.00    -0.470 C  
BRANCH  16  17
HETATM   17  C   UNL     1     -10.480  11.981  65.440  1.00  0.00    -0.313 C  
BRANCH  17  18
HETATM   18  C   UNL     1      -9.853  11.051  66.444  1.00  0.00    -0.252 A  
HETATM   19  C   UNL     1      -9.793   8.887  67.564  1.00  0.00    -0.237 A  
HETATM   20  C   UNL     1     -10.327   7.489  67.750  1.00  0.00    -0.216 C  
HETATM   21  C   UNL     1     -10.331   9.742  66.590  1.00  0.00    -0.276 A  
HETATM   22  C   UNL     1      -8.276  10.660  68.242  1.00  0.00    -0.120 A  
HETATM   23  F   UNL     1     -11.331   7.166  66.886  1.00  0.00    -0.431 F  
HETATM   24  F   UNL     1      -9.369   6.535  67.577  1.00  0.00    -0.124 F  
HETATM   25  F   UNL     1     -10.834   7.286  68.998  1.00  0.00    -0.213 F  
HETATM   26  C   UNL     1      -8.759   9.358  68.386  1.00  0.00    -0.124 A  
HETATM   27  C   UNL     1      -8.824  11.502  67.278  1.00  0.00    -0.160 A  
ENDBRANCH  17  18
ENDBRANCH  16  17
ENDBRANCH  15  16
ENDBRANCH  13  15
ENDBRANCH   2  13
TORSDOF 6
ENDMDL
MODEL       15
REMARK 921   NORMALIZED FREE ENERGY PREDICTED BY IDOCK:   -5.89 KCAL/MOL
REMARK 922        TOTAL FREE ENERGY PREDICTED BY IDOCK:  -11.08 KCAL/MOL
REMARK 923 INTER-LIGAND FREE ENERGY PREDICTED BY IDOCK:   -8.98 KCAL/MOL
REMARK 924 INTRA-LIGAND FREE ENERGY PREDICTED BY IDOCK:   -2.10 KCAL/MOL
REMARK 927      BINDING AFFINITY PREDICTED BY RF-SCORE:    0.00 PKD
ROOT
HETATM    1  C   UNL     1      -9.064   9.328  69.381  1.00  0.00    -0.152 C  
HETATM    2  C   UNL     1     -10.336   9.975  68.805  1.00  0.00    -0.198 C  
ENDROOT
BRANCH   2   3
HETATM    3  C   UNL     1     -11.382  10.347  69.859  1.00  0.00    -0.370 A  
HETATM    4  C   UNL     1     -11.883  14.082  69.422  1.00  0.00    -0.381 A  
HETATM    5  C   UNL     1     -11.884   9.350  70.721  1.00  0.00    -0.323 A  
HETATM    6  C   UNL     1     -12.674  14.363  70.524  1.00  0.00    -0.401 A  
HETATM    7  C   UNL     1     -11.480  12.767  69.170  1.00  0.00    -0.361 A  
HETATM    8  C   UNL     1     -13.095  13.324  71.351  1.00  0.00    -0.361 A  
HETATM    9  C   UNL     1     -12.772   9.658  71.746  1.00  0.00    -0.510 A  
HETATM   10  C   UNL     1     -13.162  10.975  71.948  1.00  0.00    -0.503 A  
HETATM   11  C   UNL     1     -11.840  11.693  70.020  1.00  0.00    -0.435 A  
HETATM   12  C   UNL     1     -12.702  11.997  71.108  1.00  0.00    -0.365 A  
ENDBRANCH   2   3
BRANCH   2  13
HETATM   13  N   UNL     1     -10.890   9.228  67.662  1.00  0.00    -0.467 NA 
HETATM   14  H   UNL     1     -11.657   9.749  67.235  1.00  0.00     0.000 HD 
BRANCH  13  15
HETATM   15  C   UNL     1      -9.907   8.852  66.652  1.00  0.00    -0.262 C  
BRANCH  15  16
HETATM   16  C   UNL     1      -9.933   9.841  65.487  1.00  0.00    -0.329 C  
BRANCH  16  17
HETATM   17  C   UNL     1      -9.289  11.164  65.910  1.00  0.00    -0.235 C  
BRANCH  17  18
HETATM   18  C   UNL     1     -10.264  12.305  65.794  1.00  0.00    -0.281 A  
HETATM   19  C   UNL     1     -10.743  14.692  65.934  1.00  0.00    -0.312 A  
HETATM   20  C   UNL     1     -10.291  16.111  66.167  1.00  0.00    -0.339 C  
HETATM   21  C   UNL     1      -9.831  13.626  65.980  1.00  0.00    -0.290 A  
HETATM   22  C   UNL     1     -12.532  13.105  65.499  1.00  0.00    -0.516 A  
HETATM   23  F   UNL     1      -8.952  16.229  66.395  1.00  0.00    -0.232 F  
HETATM   24  F   UNL     1     -10.558  16.926  65.108  1.00  0.00    -0.327 F  
HETATM   25  F   UNL     1     -10.901  16.683  67.242  1.00  0.00    -0.321 F  
HETATM   26  C   UNL     1     -12.097  14.418  65.688  1.00  0.00    -0.359 A  
HETATM   27  C   UNL     1     -11.619  12.055  65.556  1.00  0.00    -0.352 A  
ENDBRANCH  17  18
ENDBRANCH  16  17
ENDBRANCH  15  16
ENDBRANCH  13  15
ENDBRANCH   2  13
TORSDOF 6
ENDMDL
MODEL       16
REMARK 921   NORMALIZED FREE ENERGY PREDICTED BY IDOCK:   -5.88 KCAL/MOL
REMARK 922        TOTAL FREE ENERGY PREDICTED BY IDOCK:  -11.07 KCAL/MOL
REMARK 923 INTER-LIGAND FREE ENERGY PREDICTED BY IDOCK:   -9.47 KCAL/MOL
REMARK 924 INTRA-LIGAND FREE ENERGY PREDICTED BY IDOCK:   -1.60 KCAL/MOL
REMARK 927      BINDING AFFINITY PREDICTED BY RF-SCORE:    0.00 PKD
ROOT
HETATM    1  C   UNL     1     -11.995  12.939  66.064  1.00  0.00    -0.505 C  
HETATM    2  C   UNL     1     -10.966  12.959  67.208  1.00  0.00    -0.261 C  
ENDROOT
BRANCH   2   3
HETATM    3  C   UNL     1     -11.436  13.700  68.463  1.00  0.00    -0.347 A  
HETATM    4  C   UNL     1     -12.453  10.946  70.865  1.00  0.00    -0.507 A  
HETATM    5  C   UNL     1     -11.436  15.110  68.477  1.00  0.00    -0.335 A  
HETATM    6  C   UNL     1     -13.044  11.692  71.872  1.00  0.00    -0.490 A  
HETATM    7  C   UNL     1     -11.891  11.590  69.758  1.00  0.00    -0.429 A  
HETATM    8  C   UNL     1     -13.037  13.083  71.791  1.00  0.00    -0.469 A  
HETATM    9  C   UNL     1     -11.932  15.824  69.562  1.00  0.00    -0.326 A  
HETATM   10  C   UNL     1     -12.464  15.143  70.650  1.00  0.00    -0.442 A  
HETATM   11  C   UNL     1     -11.916  12.997  69.613  1.00  0.00    -0.367 A  
HETATM   12  C   UNL     1     -12.472  13.743  70.688  1.00  0.00    -0.429 A  
ENDBRANCH   2   3
BRANCH   2  13
HETATM   13  N   UNL     1      -9.620  13.357  66.759  1.00  0.00    -0.256 NA 
HETATM   14  H   UNL     1      -9.615  14.337  66.475  1.00  0.00     0.000 HD 
BRANCH  13  15
HETATM   15  C   UNL     1      -8.560  13.104  67.729  1.00  0.00    -0.188 C  
BRANCH  15  16
HETATM   16  C   UNL     1      -7.566  14.263  67.748  1.00  0.00    -0.175 C  
BRANCH  16  17
HETATM   17  C   UNL     1      -8.066  15.396  66.848  1.00  0.00    -0.259 C  
BRANCH  17  18
HETATM   18  C   UNL     1      -7.977  16.727  67.547  1.00  0.00    -0.189 A  
HETATM   19  C   UNL     1      -8.968  18.881  68.115  1.00  0.00    -0.346 A  
HETATM   20  C   UNL     1     -10.119  19.854  68.058  1.00  0.00    -0.440 C  
HETATM   21  C   UNL     1      -9.062  17.614  67.518  1.00  0.00    -0.239 A  
HETATM   22  C   UNL     1      -6.691  18.363  68.788  1.00  0.00    -0.267 A  
HETATM   23  F   UNL     1     -11.214  19.369  67.406  1.00  0.00    -0.564 F  
HETATM   24  F   UNL     1     -10.557  20.220  69.295  1.00  0.00    -0.454 F  
HETATM   25  F   UNL     1      -9.791  21.012  67.419  1.00  0.00    -0.614 F  
HETATM   26  C   UNL     1      -7.773  19.245  68.753  1.00  0.00    -0.397 A  
HETATM   27  C   UNL     1      -6.794  17.112  68.184  1.00  0.00    -0.176 A  
ENDBRANCH  17  18
ENDBRANCH  16  17
ENDBRANCH  15  16
ENDBRANCH  13  15
ENDBRANCH   2  13
TORSDOF 6
ENDMDL
MODEL       17
REMARK 921   NORMALIZED FREE ENERGY PREDICTED BY IDOCK:   -5.79 KCAL/MOL
REMARK 922        TOTAL FREE ENERGY PREDICTED BY IDOCK:  -10.95 KCAL/MOL
REMARK 923 INTER-LIGAND FREE ENERGY PREDICTED BY IDOCK:   -9.20 KCAL/MOL
REMARK 924 INTRA-LIGAND FREE ENERGY PREDICTED BY IDOCK:   -1.74 KCAL/MOL
REMARK 927      BINDING AFFINITY PREDICTED BY RF-SCORE:    0.00 PKD
ROOT
HETATM    1  C   UNL     1      -8.232  14.364  67.768  1.00  0.00    -0.173 C  
HETATM    2  C   UNL     1      -9.015  15.440  68.542  1.00  0.00    -0.192 C  
ENDROOT
BRANCH   2   3
HETATM    3  C   UNL     1      -8.320  16.803  68.597  1.00  0.00    -0.252 A  
HETATM    4  C   UNL     1     -10.766  19.182  66.939  1.00  0.00    -0.515 A  
HETATM    5  C   UNL     1      -7.031  16.903  69.160  1.00  0.00    -0.234 A  
HETATM    6  C   UNL     1      -9.988  20.325  66.850  1.00  0.00    -0.592 A  
HETATM    7  C   UNL     1     -10.247  18.031  67.539  1.00  0.00    -0.376 A  
HETATM    8  C   UNL     1      -8.707  20.329  67.398  1.00  0.00    -0.428 A  
HETATM    9  C   UNL     1      -6.329  18.103  69.156  1.00  0.00    -0.249 A  
HETATM   10  C   UNL     1      -6.891  19.228  68.566  1.00  0.00    -0.319 A  
HETATM   11  C   UNL     1      -8.930  17.978  68.055  1.00  0.00    -0.274 A  
HETATM   12  C   UNL     1      -8.174  19.181  68.008  1.00  0.00    -0.339 A  
ENDBRANCH   2   3
BRANCH   2  13
HETATM   13  N   UNL     1      -9.491  14.968  69.854  1.00  0.00    -0.461 NA 
HETATM   14  H   UNL     1      -8.796  15.163  70.575  1.00  0.00     0.000 HD 
BRANCH  13  15
HETATM   15  C   UNL     1     -10.794  15.492  70.249  1.00  0.00    -0.339 C  
BRANCH  15  16
HETATM   16  C   UNL     1     -11.840  15.180  69.180  1.00  0.00    -0.340 C  
BRANCH  16  17
HETATM   17  C   UNL     1     -12.281  13.718  69.290  1.00  0.00    -0.307 C  
BRANCH  17  18
HETATM   18  C   UNL     1     -11.739  12.898  68.150  1.00  0.00    -0.395 A  
HETATM   19  C   UNL     1     -11.375  12.592  65.759  1.00  0.00    -0.373 A  
HETATM   20  C   UNL     1     -11.493  13.083  64.339  1.00  0.00    -0.365 C  
HETATM   21  C   UNL     1     -11.823  13.375  66.835  1.00  0.00    -0.453 A  
HETATM   22  C   UNL     1     -10.741  10.849  67.330  1.00  0.00    -0.317 A  
HETATM   23  F   UNL     1     -12.043  14.327  64.233  1.00  0.00    -0.430 F  
HETATM   24  F   UNL     1     -10.288  13.156  63.708  1.00  0.00    -0.396 F  
HETATM   25  F   UNL     1     -12.269  12.269  63.569  1.00  0.00    -0.505 F  
HETATM   26  C   UNL     1     -10.830  11.326  66.021  1.00  0.00    -0.273 A  
HETATM   27  C   UNL     1     -11.197  11.631  68.387  1.00  0.00    -0.307 A  
ENDBRANCH  17  18
ENDBRANCH  16  17
ENDBRANCH  15  16
ENDBRANCH  13  15
ENDBRANCH   2  13
TORSDOF 6
ENDMDL
MODEL       18
REMARK 921   NORMALIZED FREE ENERGY PREDICTED BY IDOCK:   -5.76 KCAL/MOL
REMARK 922        TOTAL FREE ENERGY PREDICTED BY IDOCK:  -10.91 KCAL/MOL
REMARK 923 INTER-LIGAND FREE ENERGY PREDICTED BY IDOCK:   -8.78 KCAL/MOL
REMARK 924 INTRA-LIGAND FREE ENERGY PREDICTED BY IDOCK:   -2.12 KCAL/MOL
REMARK 927      BINDING AFFINITY PREDICTED BY RF-SCORE:    0.00 PKD
ROOT
HETATM    1  C   UNL     1      -7.015  11.479  66.840  1.00  0.00    -0.134 C  
HETATM    2  C   UNL     1      -8.528  11.628  67.084  1.00  0.00    -0.162 C  
ENDROOT
BRANCH   2   3
HETATM    3  C   UNL     1      -9.114  12.955  66.594  1.00  0.00    -0.181 A  
HETATM    4  C   UNL     1     -11.924  11.944  64.255  1.00  0.00    -0.353 A  
HETATM    5  C   UNL     1      -8.543  14.168  67.028  1.00  0.00    -0.204 A  
HETATM    6  C   UNL     1     -12.258  13.175  63.712  1.00  0.00    -0.528 A  
HETATM    7  C   UNL     1     -10.921  11.859  65.225  1.00  0.00    -0.354 A  
HETATM    8  C   UNL     1     -11.617  14.324  64.168  1.00  0.00    -0.215 A  
HETATM    9  C   UNL     1      -8.988  15.394  66.545  1.00  0.00    -0.344 A  
HETATM   10  C   UNL     1     -10.002  15.433  65.596  1.00  0.00    -0.396 A  
HETATM   11  C   UNL     1     -10.207  12.997  65.672  1.00  0.00    -0.296 A  
HETATM   12  C   UNL     1     -10.610  14.254  65.146  1.00  0.00    -0.423 A  
ENDBRANCH   2   3
BRANCH   2  13
HETATM   13  N   UNL     1      -8.922  11.282  68.461  1.00  0.00    -0.166 NA 
HETATM   14  H   UNL     1      -9.010  12.126  69.028  1.00  0.00     0.000 HD 
BRANCH  13  15
HETATM   15  C   UNL     1     -10.134  10.476  68.558  1.00  0.00    -0.173 C  
BRANCH  15  16
HETATM   16  C   UNL     1     -11.039  11.005  69.669  1.00  0.00    -0.320 C  
BRANCH  16  17
HETATM   17  C   UNL     1     -12.146  11.877  69.072  1.00  0.00    -0.245 C  
BRANCH  17  18
HETATM   18  C   UNL     1     -12.049  13.295  69.567  1.00  0.00    -0.315 A  
HETATM   19  C   UNL     1     -12.362  14.934  71.345  1.00  0.00    -0.397 A  
HETATM   20  C   UNL     1     -12.762  15.280  72.758  1.00  0.00    -0.397 C  
HETATM   21  C   UNL     1     -12.391  13.606  70.891  1.00  0.00    -0.450 A  
HETATM   22  C   UNL     1     -11.630  15.643  69.139  1.00  0.00    -0.393 A  
HETATM   23  F   UNL     1     -13.117  14.198  73.507  1.00  0.00    -0.512 F  
HETATM   24  F   UNL     1     -11.762  15.896  73.448  1.00  0.00    -0.493 F  
HETATM   25  F   UNL     1     -13.827  16.128  72.805  1.00  0.00    -0.591 F  
HETATM   26  C   UNL     1     -11.975  15.948  70.457  1.00  0.00    -0.360 A  
HETATM   27  C   UNL     1     -11.671  14.323  68.698  1.00  0.00    -0.380 A  
ENDBRANCH  17  18
ENDBRANCH  16  17
ENDBRANCH  15  16
ENDBRANCH  13  15
ENDBRANCH   2  13
TORSDOF 6
ENDMDL
MODEL       19
REMARK 921   NORMALIZED FREE ENERGY PREDICTED BY IDOCK:   -5.74 KCAL/MOL
REMARK 922        TOTAL FREE ENERGY PREDICTED BY IDOCK:  -10.89 KCAL/MOL
REMARK 923 INTER-LIGAND FREE ENERGY PREDICTED BY IDOCK:   -9.98 KCAL/MOL
REMARK 924 INTRA-LIGAND FREE ENERGY PREDICTED BY IDOCK:   -0.90 KCAL/MOL
REMARK 927      BINDING AFFINITY PREDICTED BY RF-SCORE:    0.00 PKD
ROOT
HETATM    1  C   UNL     1      -9.627  11.924  68.273  1.00  0.00    -0.201 C  
HETATM    2  C   UNL     1     -10.887  12.781  68.492  1.00  0.00    -0.253 C  
ENDROOT
BRANCH   2   3
HETATM    3  C   UNL     1     -11.762  12.321  69.661  1.00  0.00    -0.386 A  
HETATM    4  C   UNL     1     -13.144  15.532  71.133  1.00  0.00    -0.573 A  
HETATM    5  C   UNL     1     -11.854  10.946  69.960  1.00  0.00    -0.428 A  
HETATM    6  C   UNL     1     -13.746  15.046  72.283  1.00  0.00    -0.574 A  
HETATM    7  C   UNL     1     -12.521  14.649  70.246  1.00  0.00    -0.401 A  
HETATM    8  C   UNL     1     -13.758  13.674  72.525  1.00  0.00    -0.663 A  
HETATM    9  C   UNL     1     -12.569  10.489  71.062  1.00  0.00    -0.499 A  
HETATM   10  C   UNL     1     -13.190  11.400  71.905  1.00  0.00    -0.485 A  
HETATM   11  C   UNL     1     -12.462  13.255  70.487  1.00  0.00    -0.332 A  
HETATM   12  C   UNL     1     -13.140  12.775  71.641  1.00  0.00    -0.428 A  
ENDBRANCH   2   3
BRANCH   2  13
HETATM   13  N   UNL     1     -11.641  13.017  67.248  1.00  0.00    -0.335 NA 
HETATM   14  H   UNL     1     -12.561  13.405  67.459  1.00  0.00     0.000 HD 
BRANCH  13  15
HETATM   15  C   UNL     1     -10.950  13.851  66.271  1.00  0.00    -0.298 C  
BRANCH  15  16
HETATM   16  C   UNL     1     -10.677  15.238  66.851  1.00  0.00    -0.313 C  
BRANCH  16  17
HETATM   17  C   UNL     1      -9.870  16.073  65.854  1.00  0.00    -0.380 C  
BRANCH  17  18
HETATM   18  C   UNL     1      -9.658  17.474  66.361  1.00  0.00    -0.283 A  
HETATM   19  C   UNL     1      -8.377  19.063  67.695  1.00  0.00    -0.314 A  
HETATM   20  C   UNL     1      -7.208  19.384  68.591  1.00  0.00    -0.339 C  
HETATM   21  C   UNL     1      -8.551  17.774  67.167  1.00  0.00    -0.242 A  
HETATM   22  C   UNL     1     -10.426  19.761  66.589  1.00  0.00    -0.615 A  
HETATM   23  F   UNL     1      -6.371  18.328  68.799  1.00  0.00    -0.191 F  
HETATM   24  F   UNL     1      -6.426  20.383  68.094  1.00  0.00    -0.280 F  
HETATM   25  F   UNL     1      -7.598  19.796  69.830  1.00  0.00    -0.311 F  
HETATM   26  C   UNL     1      -9.324  20.054  67.395  1.00  0.00    -0.492 A  
HETATM   27  C   UNL     1     -10.592  18.476  66.079  1.00  0.00    -0.368 A  
ENDBRANCH  17  18
ENDBRANCH  16  17
ENDBRANCH  15  16
ENDBRANCH  13  15
ENDBRANCH   2  13
TORSDOF 6
ENDMDL
MODEL       20
REMARK 921   NORMALIZED FREE ENERGY PREDICTED BY IDOCK:   -5.74 KCAL/MOL
REMARK 922        TOTAL FREE ENERGY PREDICTED BY IDOCK:  -10.88 KCAL/MOL
REMARK 923 INTER-LIGAND FREE ENERGY PREDICTED BY IDOCK:   -9.28 KCAL/MOL
REMARK 924 INTRA-LIGAND FREE ENERGY PREDICTED BY IDOCK:   -1.60 KCAL/MOL
REMARK 927      BINDING AFFINITY PREDICTED BY RF-SCORE:    0.00 PKD
ROOT
HETATM    1  C   UNL     1      -9.603   7.730  69.585  1.00  0.00    -0.163 C  
HETATM    2  C   UNL     1     -10.333   8.983  69.069  1.00  0.00    -0.219 C  
ENDROOT
BRANCH   2   3
HETATM    3  C   UNL     1     -11.375   9.546  70.040  1.00  0.00    -0.204 A  
HETATM    4  C   UNL     1     -11.471  13.260  69.278  1.00  0.00    -0.345 A  
HETATM    5  C   UNL     1     -12.008   8.681  70.956  1.00  0.00    -0.278 A  
HETATM    6  C   UNL     1     -12.270  13.712  70.317  1.00  0.00    -0.423 A  
HETATM    7  C   UNL     1     -11.197  11.895  69.153  1.00  0.00    -0.314 A  
HETATM    8  C   UNL     1     -12.826  12.794  71.205  1.00  0.00    -0.355 A  
HETATM    9  C   UNL     1     -12.898   9.162  71.910  1.00  0.00    -0.466 A  
HETATM   10  C   UNL     1     -13.157  10.524  71.987  1.00  0.00    -0.511 A  
HETATM   11  C   UNL     1     -11.697  10.939  70.069  1.00  0.00    -0.427 A  
HETATM   12  C   UNL     1     -12.563  11.420  71.088  1.00  0.00    -0.490 A  
ENDBRANCH   2   3
BRANCH   2  13
HETATM   13  N   UNL     1     -10.835   8.826  67.692  1.00  0.00    -0.489 NA 
HETATM   14  H   UNL     1     -11.486   9.577  67.463  1.00  0.00     0.000 HD 
BRANCH  13  15
HETATM   15  C   UNL     1      -9.792   8.730  66.676  1.00  0.00    -0.265 C  
BRANCH  15  16
HETATM   16  C   UNL     1      -9.382  10.122  66.199  1.00  0.00    -0.217 C  
BRANCH  16  17
HETATM   17  C   UNL     1      -9.847  10.339  64.756  1.00  0.00    -0.403 C  
BRANCH  17  18
HETATM   18  C   UNL     1     -10.506  11.682  64.591  1.00  0.00    -0.354 A  
HETATM   19  C   UNL     1     -10.801  13.990  65.320  1.00  0.00    -0.352 A  
HETATM   20  C   UNL     1     -10.447  15.133  66.237  1.00  0.00    -0.307 C  
HETATM   21  C   UNL     1     -10.150  12.751  65.425  1.00  0.00    -0.274 A  
HETATM   22  C   UNL     1     -12.165  13.087  63.522  1.00  0.00    -0.580 A  
HETATM   23  F   UNL     1      -9.453  14.838  67.122  1.00  0.00    -0.206 F  
HETATM   24  F   UNL     1     -10.023  16.236  65.558  1.00  0.00    -0.337 F  
HETATM   25  F   UNL     1     -11.505  15.543  66.991  1.00  0.00    -0.302 F  
HETATM   26  C   UNL     1     -11.809  14.148  64.357  1.00  0.00    -0.447 A  
HETATM   27  C   UNL     1     -11.517  11.860  63.643  1.00  0.00    -0.551 A  
ENDBRANCH  17  18
ENDBRANCH  16  17
ENDBRANCH  15  16
ENDBRANCH  13  15
ENDBRANCH   2  13
TORSDOF 6
ENDMDL
MODEL       21
REMARK 921   NORMALIZED FREE ENERGY PREDICTED BY IDOCK:   -5.74 KCAL/MOL
REMARK 922        TOTAL FREE ENERGY PREDICTED BY IDOCK:  -10.88 KCAL/MOL
REMARK 923 INTER-LIGAND FREE ENERGY PREDICTED BY IDOCK:   -7.88 KCAL/MOL
REMARK 924 INTRA-LIGAND FREE ENERGY PREDICTED BY IDOCK:   -3.00 KCAL/MOL
REMARK 927      BINDING AFFINITY PREDICTED BY RF-SCORE:    0.00 PKD
ROOT
HETATM    1  C   UNL     1     -10.559   8.391  67.144  1.00  0.00    -0.326 C  
HETATM    2  C   UNL     1     -10.591   9.926  67.254  1.00  0.00    -0.252 C  
ENDROOT
BRANCH   2   3
HETATM    3  C   UNL     1     -10.400  10.654  65.920  1.00  0.00    -0.291 A  
HETATM    4  C   UNL     1     -12.483  13.806  66.253  1.00  0.00    -0.441 A  
HETATM    5  C   UNL     1      -9.602  10.066  64.917  1.00  0.00    -0.375 A  
HETATM    6  C   UNL     1     -12.418  14.291  64.957  1.00  0.00    -0.409 A  
HETATM    7  C   UNL     1     -11.799  12.635  66.594  1.00  0.00    -0.449 A  
HETATM    8  C   UNL     1     -11.638  13.628  64.012  1.00  0.00    -0.353 A  
HETATM    9  C   UNL     1      -9.469  10.650  63.661  1.00  0.00    -0.337 A  
HETATM   10  C   UNL     1     -10.150  11.825  63.372  1.00  0.00    -0.470 A  
HETATM   11  C   UNL     1     -11.044  11.902  65.648  1.00  0.00    -0.362 A  
HETATM   12  C   UNL     1     -10.942  12.453  64.342  1.00  0.00    -0.377 A  
ENDBRANCH   2   3
BRANCH   2  13
HETATM   13  N   UNL     1      -9.730  10.440  68.334  1.00  0.00    -0.154 NA 
HETATM   14  H   UNL     1      -9.692   9.774  69.105  1.00  0.00     0.000 HD 
BRANCH  13  15
HETATM   15  C   UNL     1      -8.383  10.806  67.910  1.00  0.00    -0.117 C  
BRANCH  15  16
HETATM   16  C   UNL     1      -8.031  12.208  68.405  1.00  0.00    -0.152 C  
BRANCH  16  17
HETATM   17  C   UNL     1      -7.910  13.167  67.217  1.00  0.00    -0.125 C  
BRANCH  17  18
HETATM   18  C   UNL     1      -8.815  14.358  67.384  1.00  0.00    -0.211 A  
HETATM   19  C   UNL     1     -10.472  15.581  68.689  1.00  0.00    -0.237 A  
HETATM   20  C   UNL     1     -11.325  15.727  69.924  1.00  0.00    -0.349 C  
HETATM   21  C   UNL     1      -9.581  14.506  68.549  1.00  0.00    -0.220 A  
HETATM   22  C   UNL     1      -9.814  16.375  66.488  1.00  0.00    -0.290 A  
HETATM   23  F   UNL     1     -11.120  14.747  70.850  1.00  0.00    -0.277 F  
HETATM   24  F   UNL     1     -11.106  16.903  70.575  1.00  0.00    -0.314 F  
HETATM   25  F   UNL     1     -12.658  15.697  69.643  1.00  0.00    -0.334 F  
HETATM   26  C   UNL     1     -10.578  16.516  67.648  1.00  0.00    -0.321 A  
HETATM   27  C   UNL     1      -8.940  15.299  66.358  1.00  0.00    -0.339 A  
ENDBRANCH  17  18
ENDBRANCH  16  17
ENDBRANCH  15  16
ENDBRANCH  13  15
ENDBRANCH   2  13
TORSDOF 6
ENDMDL
MODEL       22
REMARK 921   NORMALIZED FREE ENERGY PREDICTED BY IDOCK:   -5.72 KCAL/MOL
REMARK 922        TOTAL FREE ENERGY PREDICTED BY IDOCK:  -10.85 KCAL/MOL
REMARK 923 INTER-LIGAND FREE ENERGY PREDICTED BY IDOCK:   -8.53 KCAL/MOL
REMARK 924 INTRA-LIGAND FREE ENERGY PREDICTED BY IDOCK:   -2.33 KCAL/MOL
REMARK 927      BINDING AFFINITY PREDICTED BY RF-SCORE:    0.00 PKD
ROOT
HETATM    1  C   UNL     1      -9.617   8.508  68.519  1.00  0.00    -0.158 C  
HETATM    2  C   UNL     1     -10.087   9.895  68.992  1.00  0.00    -0.189 C  
ENDROOT
BRANCH   2   3
HETATM    3  C   UNL     1      -9.317  11.064  68.370  1.00  0.00    -0.179 A  
HETATM    4  C   UNL     1     -11.978  13.141  66.641  1.00  0.00    -0.451 A  
HETATM    5  C   UNL     1      -7.915  11.124  68.512  1.00  0.00    -0.143 A  
HETATM    6  C   UNL     1     -11.186  14.044  65.949  1.00  0.00    -0.308 A  
HETATM    7  C   UNL     1     -11.383  12.181  67.466  1.00  0.00    -0.392 A  
HETATM    8  C   UNL     1      -9.803  14.012  66.114  1.00  0.00    -0.319 A  
HETATM    9  C   UNL     1      -7.166  12.121  67.895  1.00  0.00    -0.102 A  
HETATM   10  C   UNL     1      -7.801  13.067  67.100  1.00  0.00    -0.073 A  
HETATM   11  C   UNL     1      -9.979  12.080  67.613  1.00  0.00    -0.196 A  
HETATM   12  C   UNL     1      -9.192  13.056  66.942  1.00  0.00    -0.236 A  
ENDBRANCH   2   3
BRANCH   2  13
HETATM   13  N   UNL     1     -10.214   9.987  70.458  1.00  0.00    -0.396 NA 
HETATM   14  H   UNL     1      -9.974  10.926  70.777  1.00  0.00     0.000 HD 
BRANCH  13  15
HETATM   15  C   UNL     1     -11.519   9.591  70.977  1.00  0.00    -0.349 C  
BRANCH  15  16
HETATM   16  C   UNL     1     -12.566  10.656  70.656  1.00  0.00    -0.454 C  
BRANCH  16  17
HETATM   17  C   UNL     1     -12.914  11.445  71.921  1.00  0.00    -0.466 C  
BRANCH  17  18
HETATM   18  C   UNL     1     -13.108  12.907  71.616  1.00  0.00    -0.430 A  
HETATM   19  C   UNL     1     -12.353  14.952  70.526  1.00  0.00    -0.400 A  
HETATM   20  C   UNL     1     -11.374  15.686  69.643  1.00  0.00    -0.329 C  
HETATM   21  C   UNL     1     -12.215  13.577  70.769  1.00  0.00    -0.417 A  
HETATM   22  C   UNL     1     -14.302  14.984  71.977  1.00  0.00    -0.666 A  
HETATM   23  F   UNL     1     -10.401  14.887  69.121  1.00  0.00    -0.218 F  
HETATM   24  F   UNL     1     -11.977  16.282  68.576  1.00  0.00    -0.329 F  
HETATM   25  F   UNL     1     -10.720  16.681  70.306  1.00  0.00    -0.287 F  
HETATM   26  C   UNL     1     -13.407  15.648  71.135  1.00  0.00    -0.438 A  
HETATM   27  C   UNL     1     -14.149  13.621  72.217  1.00  0.00    -0.602 A  
ENDBRANCH  17  18
ENDBRANCH  16  17
ENDBRANCH  15  16
ENDBRANCH  13  15
ENDBRANCH   2  13
TORSDOF 6
ENDMDL
MODEL       23
REMARK 921   NORMALIZED FREE ENERGY PREDICTED BY IDOCK:   -5.72 KCAL/MOL
REMARK 922        TOTAL FREE ENERGY PREDICTED BY IDOCK:  -10.85 KCAL/MOL
REMARK 923 INTER-LIGAND FREE ENERGY PREDICTED BY IDOCK:   -7.50 KCAL/MOL
REMARK 924 INTRA-LIGAND FREE ENERGY PREDICTED BY IDOCK:   -3.35 KCAL/MOL
REMARK 927      BINDING AFFINITY PREDICTED BY RF-SCORE:    0.00 PKD
ROOT
HETATM    1  C   UNL     1     -11.929  13.948  69.029  1.00  0.00    -0.402 C  
HETATM    2  C   UNL     1     -10.850  15.043  68.956  1.00  0.00    -0.242 C  
ENDROOT
BRANCH   2   3
HETATM    3  C   UNL     1     -10.721  15.706  67.582  1.00  0.00    -0.302 A  
HETATM    4  C   UNL     1     -10.067  19.363  68.350  1.00  0.00    -0.538 A  
HETATM    5  C   UNL     1     -10.885  14.927  66.418  1.00  0.00    -0.325 A  
HETATM    6  C   UNL     1     -10.166  19.911  67.081  1.00  0.00    -0.579 A  
HETATM    7  C   UNL     1     -10.212  17.983  68.527  1.00  0.00    -0.392 A  
HETATM    8  C   UNL     1     -10.369  19.075  65.985  1.00  0.00    -0.512 A  
HETATM    9  C   UNL     1     -10.860  15.502  65.152  1.00  0.00    -0.452 A  
HETATM   10  C   UNL     1     -10.694  16.874  65.021  1.00  0.00    -0.057 A  
HETATM   11  C   UNL     1     -10.477  17.109  67.446  1.00  0.00    -0.334 A  
HETATM   12  C   UNL     1     -10.512  17.687  66.148  1.00  0.00    -0.295 A  
ENDBRANCH   2   3
BRANCH   2  13
HETATM   13  N   UNL     1      -9.560  14.614  69.526  1.00  0.00    -0.419 NA 
HETATM   14  H   UNL     1      -9.705  14.145  70.421  1.00  0.00     0.000 HD 
BRANCH  13  15
HETATM   15  C   UNL     1      -8.756  13.780  68.640  1.00  0.00    -0.051 C  
BRANCH  15  16
HETATM   16  C   UNL     1      -7.330  14.319  68.549  1.00  0.00    -0.117 C  
BRANCH  16  17
HETATM   17  C   UNL     1      -7.205  15.270  67.355  1.00  0.00    -0.235 C  
BRANCH  17  18
HETATM   18  C   UNL     1      -6.918  16.677  67.807  1.00  0.00    -0.153 A  
HETATM   19  C   UNL     1      -6.606  19.038  67.284  1.00  0.00    -0.198 A  
HETATM   20  C   UNL     1      -6.584  20.172  66.290  1.00  0.00    -0.216 C  
HETATM   21  C   UNL     1      -6.931  17.732  66.884  1.00  0.00    -0.212 A  
HETATM   22  C   UNL     1      -6.265  18.229  69.550  1.00  0.00    -0.252 A  
HETATM   23  F   UNL     1      -6.923  19.796  65.023  1.00  0.00    -0.299 F  
HETATM   24  F   UNL     1      -7.445  21.174  66.621  1.00  0.00    -0.231 F  
HETATM   25  F   UNL     1      -5.356  20.752  66.188  1.00  0.00    -0.190 F  
HETATM   26  C   UNL     1      -6.276  19.276  68.626  1.00  0.00    -0.267 A  
HETATM   27  C   UNL     1      -6.581  16.936  69.139  1.00  0.00    -0.224 A  
ENDBRANCH  17  18
ENDBRANCH  16  17
ENDBRANCH  15  16
ENDBRANCH  13  15
ENDBRANCH   2  13
TORSDOF 6
ENDMDL
MODEL       24
REMARK 921   NORMALIZED FREE ENERGY PREDICTED BY IDOCK:   -5.70 KCAL/MOL
REMARK 922        TOTAL FREE ENERGY PREDICTED BY IDOCK:  -10.83 KCAL/MOL
REMARK 923 INTER-LIGAND FREE ENERGY PREDICTED BY IDOCK:   -8.94 KCAL/MOL
REMARK 924 INTRA-LIGAND FREE ENERGY PREDICTED BY IDOCK:   -1.89 KCAL/MOL
REMARK 927      BINDING AFFINITY PREDICTED BY RF-SCORE:    0.00 PKD
ROOT
HETATM    1  C   UNL     1      -9.309   8.919  71.264  1.00  0.00    -0.336 C  
HETATM    2  C   UNL     1     -10.295   9.224  70.123  1.00  0.00    -0.222 C  
ENDROOT
BRANCH   2   3
HETATM    3  C   UNL     1     -11.291  10.344  70.437  1.00  0.00    -0.417 A  
HETATM    4  C   UNL     1     -10.388  13.124  68.019  1.00  0.00    -0.240 A  
HETATM    5  C   UNL     1     -12.231  10.166  71.472  1.00  0.00    -0.473 A  
HETATM    6  C   UNL     1     -11.187  14.149  68.500  1.00  0.00    -0.285 A  
HETATM    7  C   UNL     1     -10.436  11.862  68.619  1.00  0.00    -0.231 A  
HETATM    8  C   UNL     1     -12.062  13.901  69.555  1.00  0.00    -0.393 A  
HETATM    9  C   UNL     1     -13.099  11.186  71.847  1.00  0.00    -0.513 A  
HETATM   10  C   UNL     1     -13.031  12.418  71.210  1.00  0.00    -0.297 A  
HETATM   11  C   UNL     1     -11.269  11.588  69.730  1.00  0.00    -0.237 A  
HETATM   12  C   UNL     1     -12.124  12.637  70.165  1.00  0.00    -0.368 A  
ENDBRANCH   2   3
BRANCH   2  13
HETATM   13  N   UNL     1     -10.926   8.012  69.573  1.00  0.00    -0.425 NA 
HETATM   14  H   UNL     1     -11.921   8.169  69.416  1.00  0.00     0.000 HD 
BRANCH  13  15
HETATM   15  C   UNL     1     -10.295   7.499  68.361  1.00  0.00    -0.195 C  
BRANCH  15  16
HETATM   16  C   UNL     1     -10.520   8.460  67.195  1.00  0.00    -0.380 C  
BRANCH  16  17
HETATM   17  C   UNL     1      -9.183   8.799  66.531  1.00  0.00    -0.228 C  
BRANCH  17  18
HETATM   18  C   UNL     1      -9.375   9.729  65.362  1.00  0.00    -0.311 A  
HETATM   19  C   UNL     1     -10.628  11.512  64.270  1.00  0.00    -0.405 A  
HETATM   20  C   UNL     1     -11.754  12.515  64.267  1.00  0.00    -0.382 C  
HETATM   21  C   UNL     1     -10.403  10.681  65.379  1.00  0.00    -0.303 A  
HETATM   22  C   UNL     1      -8.772  10.438  63.125  1.00  0.00    -0.203 A  
HETATM   23  F   UNL     1     -12.478  12.529  65.422  1.00  0.00    -0.497 F  
HETATM   24  F   UNL     1     -11.317  13.792  64.088  1.00  0.00    -0.380 F  
HETATM   25  F   UNL     1     -12.654  12.285  63.270  1.00  0.00    -0.599 F  
HETATM   26  C   UNL     1      -9.800  11.383  63.145  1.00  0.00    -0.413 A  
HETATM   27  C   UNL     1      -8.565   9.614  64.228  1.00  0.00    -0.207 A  
ENDBRANCH  17  18
ENDBRANCH  16  17
ENDBRANCH  15  16
ENDBRANCH  13  15
ENDBRANCH   2  13
TORSDOF 6
ENDMDL
MODEL       25
REMARK 921   NORMALIZED FREE ENERGY PREDICTED BY IDOCK:   -5.68 KCAL/MOL
REMARK 922        TOTAL FREE ENERGY PREDICTED BY IDOCK:  -10.80 KCAL/MOL
REMARK 923 INTER-LIGAND FREE ENERGY PREDICTED BY IDOCK:   -7.11 KCAL/MOL
REMARK 924 INTRA-LIGAND FREE ENERGY PREDICTED BY IDOCK:   -3.69 KCAL/MOL
REMARK 927      BINDING AFFINITY PREDICTED BY RF-SCORE:    0.00 PKD
ROOT
HETATM    1  C   UNL     1     -10.612   7.342  69.568  1.00  0.00    -0.244 C  
HETATM    2  C   UNL     1     -10.659   8.877  69.665  1.00  0.00    -0.226 C  
ENDROOT
BRANCH   2   3
HETATM    3  C   UNL     1      -9.400   9.577  69.145  1.00  0.00    -0.163 A  
HETATM    4  C   UNL     1      -9.919   9.802  65.394  1.00  0.00    -0.302 A  
HETATM    5  C   UNL     1      -8.382   9.936  70.052  1.00  0.00    -0.191 A  
HETATM    6  C   UNL     1      -8.671  10.253  64.992  1.00  0.00    -0.195 A  
HETATM    7  C   UNL     1     -10.185   9.609  66.753  1.00  0.00    -0.308 A  
HETATM    8  C   UNL     1      -7.705  10.548  65.951  1.00  0.00    -0.148 A  
HETATM    9  C   UNL     1      -7.187  10.497  69.615  1.00  0.00    -0.148 A  
HETATM   10  C   UNL     1      -6.972  10.690  68.257  1.00  0.00    -0.072 A  
HETATM   11  C   UNL     1      -9.210   9.843  67.752  1.00  0.00    -0.141 A  
HETATM   12  C   UNL     1      -7.960  10.363  67.320  1.00  0.00    -0.110 A  
ENDBRANCH   2   3
BRANCH   2  13
HETATM   13  N   UNL     1     -11.094   9.354  70.989  1.00  0.00    -0.313 NA 
HETATM   14  H   UNL     1     -10.317   9.798  71.480  1.00  0.00     0.000 HD 
BRANCH  13  15
HETATM   15  C   UNL     1     -12.252  10.241  70.962  1.00  0.00    -0.384 C  
BRANCH  15  16
HETATM   16  C   UNL     1     -12.375  10.916  69.597  1.00  0.00    -0.290 C  
BRANCH  16  17
HETATM   17  C   UNL     1     -11.941  12.381  69.697  1.00  0.00    -0.341 C  
BRANCH  17  18
HETATM   18  C   UNL     1     -11.320  12.854  68.410  1.00  0.00    -0.329 A  
HETATM   19  C   UNL     1     -11.421  13.106  65.987  1.00  0.00    -0.370 A  
HETATM   20  C   UNL     1     -12.149  12.936  64.678  1.00  0.00    -0.418 C  
HETATM   21  C   UNL     1     -12.015  12.723  67.200  1.00  0.00    -0.351 A  
HETATM   22  C   UNL     1      -9.426  13.770  67.207  1.00  0.00    -0.236 A  
HETATM   23  F   UNL     1     -13.400  12.410  64.811  1.00  0.00    -0.407 F  
HETATM   24  F   UNL     1     -12.312  14.113  64.012  1.00  0.00    -0.483 F  
HETATM   25  F   UNL     1     -11.490  12.109  63.819  1.00  0.00    -0.388 F  
HETATM   26  C   UNL     1     -10.121  13.634  66.004  1.00  0.00    -0.320 A  
HETATM   27  C   UNL     1     -10.023  13.378  68.403  1.00  0.00    -0.231 A  
ENDBRANCH  17  18
ENDBRANCH  16  17
ENDBRANCH  15  16
ENDBRANCH  13  15
ENDBRANCH   2  13
TORSDOF 6
ENDMDL
MODEL       26
REMARK 921   NORMALIZED FREE ENERGY PREDICTED BY IDOCK:   -5.67 KCAL/MOL
REMARK 922        TOTAL FREE ENERGY PREDICTED BY IDOCK:  -10.79 KCAL/MOL
REMARK 923 INTER-LIGAND FREE ENERGY PREDICTED BY IDOCK:   -9.29 KCAL/MOL
REMARK 924 INTRA-LIGAND FREE ENERGY PREDICTED BY IDOCK:   -1.50 KCAL/MOL
REMARK 927      BINDING AFFINITY PREDICTED BY RF-SCORE:    0.00 PKD
ROOT
HETATM    1  C   UNL     1     -11.070  10.464  67.588  1.00  0.00    -0.361 C  
HETATM    2  C   UNL     1     -10.509  10.679  69.004  1.00  0.00    -0.214 C  
ENDROOT
BRANCH   2   3
HETATM    3  C   UNL     1     -11.555  11.119  70.033  1.00  0.00    -0.421 A  
HETATM    4  C   UNL     1     -11.899  14.858  69.498  1.00  0.00    -0.360 A  
HETATM    5  C   UNL     1     -12.108  10.164  70.911  1.00  0.00    -0.453 A  
HETATM    6  C   UNL     1     -12.694  15.198  70.581  1.00  0.00    -0.451 A  
HETATM    7  C   UNL     1     -11.546  13.522  69.284  1.00  0.00    -0.369 A  
HETATM    8  C   UNL     1     -13.169  14.197  71.426  1.00  0.00    -0.418 A  
HETATM    9  C   UNL     1     -12.998  10.532  71.914  1.00  0.00    -0.553 A  
HETATM   10  C   UNL     1     -13.338  11.869  72.078  1.00  0.00    -0.425 A  
HETATM   11  C   UNL     1     -11.960  12.485  70.154  1.00  0.00    -0.377 A  
HETATM   12  C   UNL     1     -12.826  12.850  71.221  1.00  0.00    -0.361 A  
ENDBRANCH   2   3
BRANCH   2  13
HETATM   13  N   UNL     1      -9.288  11.504  69.017  1.00  0.00    -0.408 NA 
HETATM   14  H   UNL     1      -8.994  11.690  69.976  1.00  0.00     0.000 HD 
BRANCH  13  15
HETATM   15  C   UNL     1      -8.179  10.954  68.244  1.00  0.00    -0.127 C  
BRANCH  15  16
HETATM   16  C   UNL     1      -7.937  11.791  66.989  1.00  0.00    -0.164 C  
BRANCH  16  17
HETATM   17  C   UNL     1      -7.727  13.258  67.371  1.00  0.00    -0.148 C  
BRANCH  17  18
HETATM   18  C   UNL     1      -8.822  14.128  66.814  1.00  0.00    -0.190 A  
HETATM   19  C   UNL     1     -10.979  14.349  65.700  1.00  0.00    -0.314 A  
HETATM   20  C   UNL     1     -12.211  13.731  65.088  1.00  0.00    -0.431 C  
HETATM   21  C   UNL     1      -9.980  13.550  66.276  1.00  0.00    -0.302 A  
HETATM   22  C   UNL     1      -9.659  16.323  66.217  1.00  0.00    -0.336 A  
HETATM   23  F   UNL     1     -12.244  12.371  65.177  1.00  0.00    -0.446 F  
HETATM   24  F   UNL     1     -13.362  14.168  65.674  1.00  0.00    -0.541 F  
HETATM   25  F   UNL     1     -12.335  14.018  63.762  1.00  0.00    -0.506 F  
HETATM   26  C   UNL     1     -10.808  15.741  65.679  1.00  0.00    -0.316 A  
HETATM   27  C   UNL     1      -8.670  15.518  66.778  1.00  0.00    -0.302 A  
ENDBRANCH  17  18
ENDBRANCH  16  17
ENDBRANCH  15  16
ENDBRANCH  13  15
ENDBRANCH   2  13
TORSDOF 6
ENDMDL
MODEL       27
REMARK 921   NORMALIZED FREE ENERGY PREDICTED BY IDOCK:   -5.67 KCAL/MOL
REMARK 922        TOTAL FREE ENERGY PREDICTED BY IDOCK:  -10.78 KCAL/MOL
REMARK 923 INTER-LIGAND FREE ENERGY PREDICTED BY IDOCK:   -8.54 KCAL/MOL
REMARK 924 INTRA-LIGAND FREE ENERGY PREDICTED BY IDOCK:   -2.25 KCAL/MOL
REMARK 927      BINDING AFFINITY PREDICTED BY RF-SCORE:    0.00 PKD
ROOT
HETATM    1  C   UNL     1     -10.013  11.255  66.557  1.00  0.00    -0.247 C  
HETATM    2  C   UNL     1     -11.124  12.271  66.877  1.00  0.00    -0.290 C  
ENDROOT
BRANCH   2   3
HETATM    3  C   UNL     1     -11.679  12.166  68.301  1.00  0.00    -0.401 A  
HETATM    4  C   UNL     1     -11.891  15.757  69.504  1.00  0.00    -0.359 A  
HETATM    5  C   UNL     1     -11.946  10.895  68.849  1.00  0.00    -0.277 A  
HETATM    6  C   UNL     1     -12.201  15.559  70.841  1.00  0.00    -0.450 A  
HETATM    7  C   UNL     1     -11.751  14.658  68.651  1.00  0.00    -0.362 A  
HETATM    8  C   UNL     1     -12.411  14.265  71.313  1.00  0.00    -0.439 A  
HETATM    9  C   UNL     1     -12.371  10.747  70.165  1.00  0.00    -0.401 A  
HETATM   10  C   UNL     1     -12.517  11.868  70.972  1.00  0.00    -0.390 A  
HETATM   11  C   UNL     1     -11.899  13.326  69.108  1.00  0.00    -0.378 A  
HETATM   12  C   UNL     1     -12.278  13.153  70.467  1.00  0.00    -0.405 A  
ENDBRANCH   2   3
BRANCH   2  13
HETATM   13  N   UNL     1     -12.169  12.322  65.840  1.00  0.00    -0.600 NA 
HETATM   14  H   UNL     1     -13.056  11.981  66.212  1.00  0.00     0.000 HD 
BRANCH  13  15
HETATM   15  C   UNL     1     -12.346  13.633  65.224  1.00  0.00    -0.465 C  
BRANCH  15  16
HETATM   16  C   UNL     1     -10.995  14.220  64.820  1.00  0.00    -0.408 C  
BRANCH  16  17
HETATM   17  C   UNL     1     -11.108  15.739  64.673  1.00  0.00    -0.376 C  
BRANCH  17  18
HETATM   18  C   UNL     1     -10.359  16.450  65.769  1.00  0.00    -0.388 A  
HETATM   19  C   UNL     1      -8.766  16.395  67.613  1.00  0.00    -0.188 A  
HETATM   20  C   UNL     1      -7.785  15.647  68.480  1.00  0.00    -0.131 C  
HETATM   21  C   UNL     1      -9.424  15.757  66.551  1.00  0.00    -0.298 A  
HETATM   22  C   UNL     1      -9.976  18.439  67.099  1.00  0.00    -0.350 A  
HETATM   23  F   UNL     1      -7.609  14.346  68.111  1.00  0.00    -0.099 F  
HETATM   24  F   UNL     1      -6.542  16.206  68.467  1.00  0.00    -0.113 F  
HETATM   25  F   UNL     1      -8.165  15.612  69.788  1.00  0.00    -0.235 F  
HETATM   26  C   UNL     1      -9.049  17.743  67.877  1.00  0.00    -0.259 A  
HETATM   27  C   UNL     1     -10.630  17.792  66.053  1.00  0.00    -0.229 A  
ENDBRANCH  17  18
ENDBRANCH  16  17
ENDBRANCH  15  16
ENDBRANCH  13  15
ENDBRANCH   2  13
TORSDOF 6
ENDMDL
MODEL       28
REMARK 921   NORMALIZED FREE ENERGY PREDICTED BY IDOCK:   -5.66 KCAL/MOL
REMARK 922        TOTAL FREE ENERGY PREDICTED BY IDOCK:  -10.77 KCAL/MOL
REMARK 923 INTER-LIGAND FREE ENERGY PREDICTED BY IDOCK:   -8.54 KCAL/MOL
REMARK 924 INTRA-LIGAND FREE ENERGY PREDICTED BY IDOCK:   -2.23 KCAL/MOL
REMARK 927      BINDING AFFINITY PREDICTED BY RF-SCORE:    0.00 PKD
ROOT
HETATM    1  C   UNL     1     -12.124  13.641  66.421  1.00  0.00    -0.478 C  
HETATM    2  C   UNL     1     -11.180  13.308  67.590  1.00  0.00    -0.280 C  
ENDROOT
BRANCH   2   3
HETATM    3  C   UNL     1     -11.710  13.731  68.963  1.00  0.00    -0.372 A  
HETATM    4  C   UNL     1     -12.436  10.464  70.748  1.00  0.00    -0.461 A  
HETATM    5  C   UNL     1     -11.845  15.103  69.262  1.00  0.00    -0.347 A  
HETATM    6  C   UNL     1     -13.088  10.932  71.878  1.00  0.00    -0.537 A  
HETATM    7  C   UNL     1     -11.947  11.369  69.801  1.00  0.00    -0.422 A  
HETATM    8  C   UNL     1     -13.215  12.304  72.080  1.00  0.00    -0.508 A  
HETATM    9  C   UNL     1     -12.399  15.532  70.463  1.00  0.00    -0.461 A  
HETATM   10  C   UNL     1     -12.853  14.598  71.385  1.00  0.00    -0.400 A  
HETATM   11  C   UNL     1     -12.109  12.768  69.942  1.00  0.00    -0.329 A  
HETATM   12  C   UNL     1     -12.726  13.225  71.139  1.00  0.00    -0.404 A  
ENDBRANCH   2   3
BRANCH   2  13
HETATM   13  N   UNL     1      -9.790  13.727  67.340  1.00  0.00    -0.234 NA 
HETATM   14  H   UNL     1      -9.413  14.213  68.154  1.00  0.00     0.000 HD 
BRANCH  13  15
HETATM   15  C   UNL     1      -8.896  12.647  66.934  1.00  0.00    -0.201 C  
BRANCH  15  16
HETATM   16  C   UNL     1      -8.599  11.728  68.117  1.00  0.00    -0.160 C  
BRANCH  16  17
HETATM   17  C   UNL     1      -8.767  10.265  67.698  1.00  0.00    -0.121 C  
BRANCH  17  18
HETATM   18  C   UNL     1      -9.105   9.395  68.879  1.00  0.00    -0.140 A  
HETATM   19  C   UNL     1     -10.314   7.501  69.826  1.00  0.00    -0.221 A  
HETATM   20  C   UNL     1     -11.244   6.325  69.669  1.00  0.00    -0.437 C  
HETATM   21  C   UNL     1      -9.945   8.283  68.721  1.00  0.00    -0.193 A  
HETATM   22  C   UNL     1      -8.981   8.945  71.257  1.00  0.00    -0.312 A  
HETATM   23  F   UNL     1     -11.646   6.113  68.383  1.00  0.00    -0.359 F  
HETATM   24  F   UNL     1     -10.682   5.154  70.079  1.00  0.00    -0.359 F  
HETATM   25  F   UNL     1     -12.388   6.464  70.396  1.00  0.00    -0.399 F  
HETATM   26  C   UNL     1      -9.821   7.841  71.095  1.00  0.00    -0.187 A  
HETATM   27  C   UNL     1      -8.630   9.719  70.153  1.00  0.00    -0.214 A  
ENDBRANCH  17  18
ENDBRANCH  16  17
ENDBRANCH  15  16
ENDBRANCH  13  15
ENDBRANCH   2  13
TORSDOF 6
ENDMDL
MODEL       29
REMARK 921   NORMALIZED FREE ENERGY PREDICTED BY IDOCK:   -5.65 KCAL/MOL
REMARK 922        TOTAL FREE ENERGY PREDICTED BY IDOCK:  -10.76 KCAL/MOL
REMARK 923 INTER-LIGAND FREE ENERGY PREDICTED BY IDOCK:   -8.79 KCAL/MOL
REMARK 924 INTRA-LIGAND FREE ENERGY PREDICTED BY IDOCK:   -1.97 KCAL/MOL
REMARK 927      BINDING AFFINITY PREDICTED BY RF-SCORE:    0.00 PKD
ROOT
HETATM    1  C   UNL     1      -9.662   7.438  69.694  1.00  0.00    -0.163 C  
HETATM    2  C   UNL     1     -10.475   8.661  69.235  1.00  0.00    -0.217 C  
ENDROOT
BRANCH   2   3
HETATM    3  C   UNL     1     -11.522   9.134  70.248  1.00  0.00    -0.174 A  
HETATM    4  C   UNL     1     -11.698  12.890  69.746  1.00  0.00    -0.351 A  
HETATM    5  C   UNL     1     -12.131   8.196  71.106  1.00  0.00    -0.281 A  
HETATM    6  C   UNL     1     -12.499  13.252  70.817  1.00  0.00    -0.403 A  
HETATM    7  C   UNL     1     -11.397  11.543  69.525  1.00  0.00    -0.342 A  
HETATM    8  C   UNL     1     -13.031  12.264  71.643  1.00  0.00    -0.416 A  
HETATM    9  C   UNL     1     -13.024   8.591  72.096  1.00  0.00    -0.403 A  
HETATM   10  C   UNL     1     -13.310   9.939  72.268  1.00  0.00    -0.429 A  
HETATM   11  C   UNL     1     -11.871  10.516  70.376  1.00  0.00    -0.431 A  
HETATM   12  C   UNL     1     -12.741  10.907  71.430  1.00  0.00    -0.539 A  
ENDBRANCH   2   3
BRANCH   2  13
HETATM   13  N   UNL     1     -11.003   8.516  67.867  1.00  0.00    -0.483 NA 
HETATM   14  H   UNL     1     -11.512   9.356  67.592  1.00  0.00     0.000 HD 
BRANCH  13  15
HETATM   15  C   UNL     1      -9.999   8.179  66.864  1.00  0.00    -0.273 C  
BRANCH  15  16
HETATM   16  C   UNL     1      -9.822   9.330  65.877  1.00  0.00    -0.335 C  
BRANCH  16  17
HETATM   17  C   UNL     1      -8.811  10.340  66.426  1.00  0.00    -0.158 C  
BRANCH  17  18
HETATM   18  C   UNL     1      -9.403  11.723  66.491  1.00  0.00    -0.217 A  
HETATM   19  C   UNL     1     -11.115  13.318  65.807  1.00  0.00    -0.296 A  
HETATM   20  C   UNL     1     -12.371  13.650  65.041  1.00  0.00    -0.427 C  
HETATM   21  C   UNL     1     -10.588  12.017  65.803  1.00  0.00    -0.301 A  
HETATM   22  C   UNL     1      -9.264  14.033  67.210  1.00  0.00    -0.231 A  
HETATM   23  F   UNL     1     -12.916  12.581  64.394  1.00  0.00    -0.490 F  
HETATM   24  F   UNL     1     -13.359  14.140  65.842  1.00  0.00    -0.467 F  
HETATM   25  F   UNL     1     -12.163  14.596  64.084  1.00  0.00    -0.478 F  
HETATM   26  C   UNL     1     -10.443  14.322  66.521  1.00  0.00    -0.287 A  
HETATM   27  C   UNL     1      -8.746  12.740  67.191  1.00  0.00    -0.202 A  
ENDBRANCH  17  18
ENDBRANCH  16  17
ENDBRANCH  15  16
ENDBRANCH  13  15
ENDBRANCH   2  13
TORSDOF 6
ENDMDL
MODEL       30
REMARK 921   NORMALIZED FREE ENERGY PREDICTED BY IDOCK:   -5.65 KCAL/MOL
REMARK 922        TOTAL FREE ENERGY PREDICTED BY IDOCK:  -10.76 KCAL/MOL
REMARK 923 INTER-LIGAND FREE ENERGY PREDICTED BY IDOCK:  -10.22 KCAL/MOL
REMARK 924 INTRA-LIGAND FREE ENERGY PREDICTED BY IDOCK:   -0.54 KCAL/MOL
REMARK 927      BINDING AFFINITY PREDICTED BY RF-SCORE:    0.00 PKD
ROOT
HETATM    1  C   UNL     1     -11.842  13.010  67.217  1.00  0.00    -0.419 C  
HETATM    2  C   UNL     1     -11.063  12.420  68.406  1.00  0.00    -0.250 C  
ENDROOT
BRANCH   2   3
HETATM    3  C   UNL     1     -11.908  12.207  69.665  1.00  0.00    -0.391 A  
HETATM    4  C   UNL     1     -12.720  15.711  70.868  1.00  0.00    -0.500 A  
HETATM    5  C   UNL     1     -12.168  10.895  70.111  1.00  0.00    -0.423 A  
HETATM    6  C   UNL     1     -13.299  15.431  72.096  1.00  0.00    -0.541 A  
HETATM    7  C   UNL     1     -12.291  14.666  70.045  1.00  0.00    -0.365 A  
HETATM    8  C   UNL     1     -13.485  14.105  72.481  1.00  0.00    -0.634 A  
HETATM    9  C   UNL     1     -12.859  10.655  71.294  1.00  0.00    -0.535 A  
HETATM   10  C   UNL     1     -13.285  11.724  72.072  1.00  0.00    -0.460 A  
HETATM   11  C   UNL     1     -12.410  13.308  70.427  1.00  0.00    -0.365 A  
HETATM   12  C   UNL     1     -13.063  13.045  71.662  1.00  0.00    -0.440 A  
ENDBRANCH   2   3
BRANCH   2  13
HETATM   13  N   UNL     1      -9.792  13.121  68.661  1.00  0.00    -0.400 NA 
HETATM   14  H   UNL     1      -9.052  12.451  68.867  1.00  0.00     0.000 HD 
BRANCH  13  15
HETATM   15  C   UNL     1      -9.376  14.025  67.593  1.00  0.00    -0.203 C  
BRANCH  15  16
HETATM   16  C   UNL     1      -8.586  15.200  68.166  1.00  0.00    -0.158 C  
BRANCH  16  17
HETATM   17  C   UNL     1      -7.434  15.564  67.226  1.00  0.00    -0.258 C  
BRANCH  17  18
HETATM   18  C   UNL     1      -7.525  17.000  66.783  1.00  0.00    -0.266 A  
HETATM   19  C   UNL     1      -8.835  19.033  66.478  1.00  0.00    -0.334 A  
HETATM   20  C   UNL     1     -10.129  19.795  66.613  1.00  0.00    -0.461 C  
HETATM   21  C   UNL     1      -8.721  17.714  66.942  1.00  0.00    -0.262 A  
HETATM   22  C   UNL     1      -6.534  18.929  65.703  1.00  0.00    -0.301 A  
HETATM   23  F   UNL     1     -11.119  19.088  67.230  1.00  0.00    -0.517 F  
HETATM   24  F   UNL     1      -9.988  20.942  67.336  1.00  0.00    -0.598 F  
HETATM   25  F   UNL     1     -10.640  20.174  65.408  1.00  0.00    -0.546 F  
HETATM   26  C   UNL     1      -7.728  19.635  65.860  1.00  0.00    -0.307 A  
HETATM   27  C   UNL     1      -6.436  17.617  66.160  1.00  0.00    -0.284 A  
ENDBRANCH  17  18
ENDBRANCH  16  17
ENDBRANCH  15  16
ENDBRANCH  13  15
ENDBRANCH   2  13
TORSDOF 6
ENDMDL
MODEL       31
REMARK 921   NORMALIZED FREE ENERGY PREDICTED BY IDOCK:   -5.65 KCAL/MOL
REMARK 922        TOTAL FREE ENERGY PREDICTED BY IDOCK:  -10.75 KCAL/MOL
REMARK 923 INTER-LIGAND FREE ENERGY PREDICTED BY IDOCK:   -7.78 KCAL/MOL
REMARK 924 INTRA-LIGAND FREE ENERGY PREDICTED BY IDOCK:   -2.97 KCAL/MOL
REMARK 927      BINDING AFFINITY PREDICTED BY RF-SCORE:    0.00 PKD
ROOT
HETATM    1  C   UNL     1     -12.355  11.926  70.933  1.00  0.00    -0.400 C  
HETATM    2  C   UNL     1     -12.147  10.419  71.164  1.00  0.00    -0.386 C  
ENDROOT
BRANCH   2   3
HETATM    3  C   UNL     1     -10.844   9.868  70.575  1.00  0.00    -0.391 A  
HETATM    4  C   UNL     1     -11.101  10.593  66.861  1.00  0.00    -0.162 A  
HETATM    5  C   UNL     1      -9.912   9.236  71.424  1.00  0.00    -0.323 A  
HETATM    6  C   UNL     1     -10.000   9.895  66.389  1.00  0.00    -0.309 A  
HETATM    7  C   UNL     1     -11.371  10.623  68.232  1.00  0.00    -0.357 A  
HETATM    8  C   UNL     1      -9.149   9.263  67.293  1.00  0.00    -0.143 A  
HETATM    9  C   UNL     1      -8.756   8.649  70.922  1.00  0.00    -0.216 A  
HETATM   10  C   UNL     1      -8.517   8.659  69.553  1.00  0.00    -0.129 A  
HETATM   11  C   UNL     1     -10.563   9.944  69.175  1.00  0.00    -0.240 A  
HETATM   12  C   UNL     1      -9.406   9.289  68.673  1.00  0.00    -0.139 A  
ENDBRANCH   2   3
BRANCH   2  13
HETATM   13  N   UNL     1     -13.334   9.617  70.819  1.00  0.00    -0.603 NA 
HETATM   14  H   UNL     1     -13.215   9.181  69.904  1.00  0.00     0.000 HD 
BRANCH  13  15
HETATM   15  C   UNL     1     -13.698   8.616  71.816  1.00  0.00    -0.417 C  
BRANCH  15  16
HETATM   16  C   UNL     1     -13.423   7.210  71.286  1.00  0.00    -0.309 C  
BRANCH  16  17
HETATM   17  C   UNL     1     -12.228   6.599  72.022  1.00  0.00    -0.337 C  
BRANCH  17  18
HETATM   18  C   UNL     1     -11.281   5.930  71.061  1.00  0.00    -0.280 A  
HETATM   19  C   UNL     1     -10.503   5.560  68.781  1.00  0.00    -0.261 A  
HETATM   20  C   UNL     1     -10.585   5.845  67.302  1.00  0.00    -0.291 C  
HETATM   21  C   UNL     1     -11.340   6.223  69.692  1.00  0.00    -0.492 A  
HETATM   22  C   UNL     1      -9.530   4.313  70.626  1.00  0.00    -0.241 A  
HETATM   23  F   UNL     1     -11.511   6.791  66.977  1.00  0.00    -0.464 F  
HETATM   24  F   UNL     1      -9.404   6.290  66.788  1.00  0.00    -0.126 F  
HETATM   25  F   UNL     1     -10.915   4.740  66.576  1.00  0.00    -0.257 F  
HETATM   26  C   UNL     1      -9.595   4.605  69.262  1.00  0.00    -0.251 A  
HETATM   27  C   UNL     1     -10.372   4.970  71.518  1.00  0.00    -0.252 A  
ENDBRANCH  17  18
ENDBRANCH  16  17
ENDBRANCH  15  16
ENDBRANCH  13  15
ENDBRANCH   2  13
TORSDOF 6
ENDMDL
MODEL       32
REMARK 921   NORMALIZED FREE ENERGY PREDICTED BY IDOCK:   -5.64 KCAL/MOL
REMARK 922        TOTAL FREE ENERGY PREDICTED BY IDOCK:  -10.75 KCAL/MOL
REMARK 923 INTER-LIGAND FREE ENERGY PREDICTED BY IDOCK:   -9.70 KCAL/MOL
REMARK 924 INTRA-LIGAND FREE ENERGY PREDICTED BY IDOCK:   -1.05 KCAL/MOL
REMARK 927      BINDING AFFINITY PREDICTED BY RF-SCORE:    0.00 PKD
ROOT
HETATM    1  C   UNL     1     -11.415  11.968  67.072  1.00  0.00    -0.402 C  
HETATM    2  C   UNL     1     -10.751  11.695  68.434  1.00  0.00    -0.217 C  
ENDROOT
BRANCH   2   3
HETATM    3  C   UNL     1     -11.694  11.842  69.632  1.00  0.00    -0.413 A  
HETATM    4  C   UNL     1     -12.125  15.587  70.047  1.00  0.00    -0.391 A  
HETATM    5  C   UNL     1     -12.149  10.688  70.302  1.00  0.00    -0.423 A  
HETATM    6  C   UNL     1     -12.812  15.632  71.250  1.00  0.00    -0.550 A  
HETATM    7  C   UNL     1     -11.783  14.354  69.486  1.00  0.00    -0.362 A  
HETATM    8  C   UNL     1     -13.190  14.443  71.871  1.00  0.00    -0.444 A  
HETATM    9  C   UNL     1     -12.938  10.775  71.444  1.00  0.00    -0.535 A  
HETATM   10  C   UNL     1     -13.272  12.022  71.956  1.00  0.00    -0.481 A  
HETATM   11  C   UNL     1     -12.098  13.126  70.116  1.00  0.00    -0.392 A  
HETATM   12  C   UNL     1     -12.857  13.197  71.316  1.00  0.00    -0.384 A  
ENDBRANCH   2   3
BRANCH   2  13
HETATM   13  N   UNL     1      -9.473  12.408  68.600  1.00  0.00    -0.398 NA 
HETATM   14  H   UNL     1      -8.879  11.921  69.271  1.00  0.00     0.000 HD 
BRANCH  13  15
HETATM   15  C   UNL     1      -8.747  12.645  67.357  1.00  0.00    -0.191 C  
BRANCH  15  16
HETATM   16  C   UNL     1      -8.037  13.996  67.402  1.00  0.00    -0.199 C  
BRANCH  16  17
HETATM   17  C   UNL     1      -8.978  15.098  66.907  1.00  0.00    -0.277 C  
BRANCH  17  18
HETATM   18  C   UNL     1      -8.650  16.422  67.544  1.00  0.00    -0.185 A  
HETATM   19  C   UNL     1      -9.247  18.736  68.026  1.00  0.00    -0.334 A  
HETATM   20  C   UNL     1     -10.215  19.888  67.939  1.00  0.00    -0.434 C  
HETATM   21  C   UNL     1      -9.568  17.480  67.488  1.00  0.00    -0.265 A  
HETATM   22  C   UNL     1      -7.079  17.864  68.694  1.00  0.00    -0.266 A  
HETATM   23  F   UNL     1     -11.390  19.571  67.323  1.00  0.00    -0.543 F  
HETATM   24  F   UNL     1     -10.560  20.376  69.163  1.00  0.00    -0.470 F  
HETATM   25  F   UNL     1      -9.707  20.945  67.245  1.00  0.00    -0.594 F  
HETATM   26  C   UNL     1      -7.995  18.916  68.632  1.00  0.00    -0.381 A  
HETATM   27  C   UNL     1      -7.405  16.625  68.148  1.00  0.00    -0.172 A  
ENDBRANCH  17  18
ENDBRANCH  16  17
ENDBRANCH  15  16
ENDBRANCH  13  15
ENDBRANCH   2  13
TORSDOF 6
ENDMDL
MODEL       33
REMARK 921   NORMALIZED FREE ENERGY PREDICTED BY IDOCK:   -5.62 KCAL/MOL
REMARK 922        TOTAL FREE ENERGY PREDICTED BY IDOCK:  -10.72 KCAL/MOL
REMARK 923 INTER-LIGAND FREE ENERGY PREDICTED BY IDOCK:   -9.79 KCAL/MOL
REMARK 924 INTRA-LIGAND FREE ENERGY PREDICTED BY IDOCK:   -0.92 KCAL/MOL
REMARK 927      BINDING AFFINITY PREDICTED BY RF-SCORE:    0.00 PKD
ROOT
HETATM    1  C   UNL     1     -10.030  14.925  68.932  1.00  0.00    -0.233 C  
HETATM    2  C   UNL     1     -11.489  15.371  69.136  1.00  0.00    -0.333 C  
ENDROOT
BRANCH   2   3
HETATM    3  C   UNL     1     -12.142  14.820  70.406  1.00  0.00    -0.381 A  
HETATM    4  C   UNL     1     -12.065  11.055  69.957  1.00  0.00    -0.441 A  
HETATM    5  C   UNL     1     -12.627  15.716  71.381  1.00  0.00    -0.519 A  
HETATM    6  C   UNL     1     -12.842  10.654  71.032  1.00  0.00    -0.496 A  
HETATM    7  C   UNL     1     -11.797  12.413  69.757  1.00  0.00    -0.387 A  
HETATM    8  C   UNL     1     -13.317  11.608  71.930  1.00  0.00    -0.403 A  
HETATM    9  C   UNL     1     -13.301  15.264  72.511  1.00  0.00    -0.553 A  
HETATM   10  C   UNL     1     -13.528  13.904  72.679  1.00  0.00    -0.652 A  
HETATM   11  C   UNL     1     -12.311  13.415  70.615  1.00  0.00    -0.423 A  
HETATM   12  C   UNL     1     -13.052  12.975  71.745  1.00  0.00    -0.469 A  
ENDBRANCH   2   3
BRANCH   2  13
HETATM   13  N   UNL     1     -12.314  15.199  67.927  1.00  0.00    -0.312 NA 
HETATM   14  H   UNL     1     -12.753  16.083  67.667  1.00  0.00     0.000 HD 
BRANCH  13  15
HETATM   15  C   UNL     1     -11.603  14.631  66.786  1.00  0.00    -0.360 C  
BRANCH  15  16
HETATM   16  C   UNL     1     -12.387  13.459  66.199  1.00  0.00    -0.440 C  
BRANCH  16  17
HETATM   17  C   UNL     1     -12.064  13.307  64.710  1.00  0.00    -0.456 C  
BRANCH  17  18
HETATM   18  C   UNL     1     -11.120  12.158  64.472  1.00  0.00    -0.375 A  
HETATM   19  C   UNL     1      -9.938  10.193  65.301  1.00  0.00    -0.381 A  
HETATM   20  C   UNL     1      -9.630   9.214  66.405  1.00  0.00    -0.245 C  
HETATM   21  C   UNL     1     -10.862  11.232  65.493  1.00  0.00    -0.244 A  
HETATM   22  C   UNL     1      -9.538  11.005  63.045  1.00  0.00    -0.386 A  
HETATM   23  F   UNL     1     -10.339   9.438  67.549  1.00  0.00    -0.237 F  
HETATM   24  F   UNL     1      -9.896   7.925  66.052  1.00  0.00    -0.226 F  
HETATM   25  F   UNL     1      -8.319   9.238  66.772  1.00  0.00    -0.117 F  
HETATM   26  C   UNL     1      -9.281  10.087  64.066  1.00  0.00    -0.318 A  
HETATM   27  C   UNL     1     -10.450  12.037  63.251  1.00  0.00    -0.403 A  
ENDBRANCH  17  18
ENDBRANCH  16  17
ENDBRANCH  15  16
ENDBRANCH  13  15
ENDBRANCH   2  13
TORSDOF 6
ENDMDL
MODEL       34
REMARK 921   NORMALIZED FREE ENERGY PREDICTED BY IDOCK:   -5.61 KCAL/MOL
REMARK 922        TOTAL FREE ENERGY PREDICTED BY IDOCK:  -10.70 KCAL/MOL
REMARK 923 INTER-LIGAND FREE ENERGY PREDICTED BY IDOCK:   -9.40 KCAL/MOL
REMARK 924 INTRA-LIGAND FREE ENERGY PREDICTED BY IDOCK:   -1.30 KCAL/MOL
REMARK 927      BINDING AFFINITY PREDICTED BY RF-SCORE:    0.00 PKD
ROOT
HETATM    1  C   UNL     1     -12.469  13.494  66.094  1.00  0.00    -0.424 C  
HETATM    2  C   UNL     1     -11.470  13.033  67.171  1.00  0.00    -0.331 C  
ENDROOT
BRANCH   2   3
HETATM    3  C   UNL     1     -11.771  13.569  68.574  1.00  0.00    -0.392 A  
HETATM    4  C   UNL     1     -12.605  10.479  70.609  1.00  0.00    -0.457 A  
HETATM    5  C   UNL     1     -11.719  14.957  68.812  1.00  0.00    -0.353 A  
HETATM    6  C   UNL     1     -13.053  11.062  71.785  1.00  0.00    -0.554 A  
HETATM    7  C   UNL     1     -12.149  11.284  69.562  1.00  0.00    -0.386 A  
HETATM    8  C   UNL     1     -13.006  12.447  71.926  1.00  0.00    -0.407 A  
HETATM    9  C   UNL     1     -12.065  15.495  70.048  1.00  0.00    -0.391 A  
HETATM   10  C   UNL     1     -12.494  14.655  71.068  1.00  0.00    -0.399 A  
HETATM   11  C   UNL     1     -12.141  12.697  69.646  1.00  0.00    -0.277 A  
HETATM   12  C   UNL     1     -12.546  13.268  70.883  1.00  0.00    -0.386 A  
ENDBRANCH   2   3
BRANCH   2  13
HETATM   13  N   UNL     1     -10.066  13.209  66.761  1.00  0.00    -0.248 NA 
HETATM   14  H   UNL     1      -9.633  12.304  66.578  1.00  0.00     0.000 HD 
BRANCH  13  15
HETATM   15  C   UNL     1      -9.875  14.103  65.624  1.00  0.00    -0.249 C  
BRANCH  15  16
HETATM   16  C   UNL     1      -9.346  15.457  66.092  1.00  0.00    -0.367 C  
BRANCH  16  17
HETATM   17  C   UNL     1     -10.355  16.558  65.755  1.00  0.00    -0.359 C  
BRANCH  17  18
HETATM   18  C   UNL     1      -9.891  17.897  66.261  1.00  0.00    -0.307 A  
HETATM   19  C   UNL     1      -8.363  19.223  67.622  1.00  0.00    -0.325 A  
HETATM   20  C   UNL     1      -7.177  19.321  68.549  1.00  0.00    -0.314 C  
HETATM   21  C   UNL     1      -8.768  17.986  67.097  1.00  0.00    -0.247 A  
HETATM   22  C   UNL     1     -10.208  20.292  66.456  1.00  0.00    -0.477 A  
HETATM   23  F   UNL     1      -6.566  18.125  68.786  1.00  0.00    -0.201 F  
HETATM   24  F   UNL     1      -6.204  20.145  68.069  1.00  0.00    -0.237 F  
HETATM   25  F   UNL     1      -7.513  19.814  69.775  1.00  0.00    -0.343 F  
HETATM   26  C   UNL     1      -9.092  20.375  67.291  1.00  0.00    -0.500 A  
HETATM   27  C   UNL     1     -10.605  19.057  65.948  1.00  0.00    -0.466 A  
ENDBRANCH  17  18
ENDBRANCH  16  17
ENDBRANCH  15  16
ENDBRANCH  13  15
ENDBRANCH   2  13
TORSDOF 6
ENDMDL
MODEL       35
REMARK 921   NORMALIZED FREE ENERGY PREDICTED BY IDOCK:   -5.60 KCAL/MOL
REMARK 922        TOTAL FREE ENERGY PREDICTED BY IDOCK:  -10.69 KCAL/MOL
REMARK 923 INTER-LIGAND FREE ENERGY PREDICTED BY IDOCK:   -6.89 KCAL/MOL
REMARK 924 INTRA-LIGAND FREE ENERGY PREDICTED BY IDOCK:   -3.81 KCAL/MOL
REMARK 927      BINDING AFFINITY PREDICTED BY RF-SCORE:    0.00 PKD
ROOT
HETATM    1  C   UNL     1     -10.758  19.487  67.206  1.00  0.00    -0.604 C  
HETATM    2  C   UNL     1     -10.288  18.185  66.534  1.00  0.00    -0.386 C  
ENDROOT
BRANCH   2   3
HETATM    3  C   UNL     1     -10.431  16.939  67.413  1.00  0.00    -0.310 A  
HETATM    4  C   UNL     1     -11.464  14.195  65.007  1.00  0.00    -0.352 A  
HETATM    5  C   UNL     1     -10.209  17.040  68.802  1.00  0.00    -0.317 A  
HETATM    6  C   UNL     1     -11.763  13.176  65.897  1.00  0.00    -0.427 A  
HETATM    7  C   UNL     1     -10.993  15.422  65.484  1.00  0.00    -0.350 A  
HETATM    8  C   UNL     1     -11.553  13.370  67.260  1.00  0.00    -0.400 A  
HETATM    9  C   UNL     1     -10.408  15.956  69.649  1.00  0.00    -0.299 A  
HETATM   10  C   UNL     1     -10.857  14.749  69.129  1.00  0.00    -0.267 A  
HETATM   11  C   UNL     1     -10.823  15.676  66.866  1.00  0.00    -0.282 A  
HETATM   12  C   UNL     1     -11.076  14.596  67.754  1.00  0.00    -0.306 A  
ENDBRANCH   2   3
BRANCH   2  13
HETATM   13  N   UNL     1      -8.962  18.313  65.904  1.00  0.00    -0.460 NA 
HETATM   14  H   UNL     1      -9.058  18.583  64.925  1.00  0.00     0.000 HD 
BRANCH  13  15
HETATM   15  C   UNL     1      -8.049  19.218  66.594  1.00  0.00    -0.289 C  
BRANCH  15  16
HETATM   16  C   UNL     1      -6.823  18.459  67.097  1.00  0.00    -0.207 C  
BRANCH  16  17
HETATM   17  C   UNL     1      -6.780  17.062  66.471  1.00  0.00    -0.267 C  
BRANCH  17  18
HETATM   18  C   UNL     1      -6.821  15.990  67.528  1.00  0.00    -0.205 A  
HETATM   19  C   UNL     1      -7.426  13.731  68.217  1.00  0.00    -0.120 A  
HETATM   20  C   UNL     1      -8.003  12.373  67.907  1.00  0.00    -0.155 C  
HETATM   21  C   UNL     1      -7.328  14.719  67.224  1.00  0.00    -0.147 A  
HETATM   22  C   UNL     1      -6.489  15.294  69.825  1.00  0.00    -0.169 A  
HETATM   23  F   UNL     1      -8.379  12.222  66.605  1.00  0.00    -0.176 F  
HETATM   24  F   UNL     1      -7.125  11.362  68.158  1.00  0.00    -0.067 F  
HETATM   25  F   UNL     1      -9.113  12.096  68.647  1.00  0.00    -0.177 F  
HETATM   26  C   UNL     1      -6.998  14.031  69.519  1.00  0.00    -0.007 A  
HETATM   27  C   UNL     1      -6.405  16.269  68.833  1.00  0.00    -0.139 A  
ENDBRANCH  17  18
ENDBRANCH  16  17
ENDBRANCH  15  16
ENDBRANCH  13  15
ENDBRANCH   2  13
TORSDOF 6
ENDMDL
MODEL       36
REMARK 921   NORMALIZED FREE ENERGY PREDICTED BY IDOCK:   -5.60 KCAL/MOL
REMARK 922        TOTAL FREE ENERGY PREDICTED BY IDOCK:  -10.68 KCAL/MOL
REMARK 923 INTER-LIGAND FREE ENERGY PREDICTED BY IDOCK:   -8.98 KCAL/MOL
REMARK 924 INTRA-LIGAND FREE ENERGY PREDICTED BY IDOCK:   -1.71 KCAL/MOL
REMARK 927      BINDING AFFINITY PREDICTED BY RF-SCORE:    0.00 PKD
ROOT
HETATM    1  C   UNL     1     -11.344  11.103  67.449  1.00  0.00    -0.329 C  
HETATM    2  C   UNL     1     -10.771  11.075  68.877  1.00  0.00    -0.211 C  
ENDROOT
BRANCH   2   3
HETATM    3  C   UNL     1     -11.749  11.553  69.954  1.00  0.00    -0.420 A  
HETATM    4  C   UNL     1     -11.932  15.310  69.470  1.00  0.00    -0.356 A  
HETATM    5  C   UNL     1     -12.310  10.616  70.847  1.00  0.00    -0.502 A  
HETATM    6  C   UNL     1     -12.662  15.675  70.591  1.00  0.00    -0.443 A  
HETATM    7  C   UNL     1     -11.655  13.961  69.228  1.00  0.00    -0.358 A  
HETATM    8  C   UNL     1     -13.147  14.689  71.446  1.00  0.00    -0.414 A  
HETATM    9  C   UNL     1     -13.136  11.015  71.892  1.00  0.00    -0.525 A  
HETATM   10  C   UNL     1     -13.402  12.364  72.083  1.00  0.00    -0.508 A  
HETATM   11  C   UNL     1     -12.081  12.936  70.106  1.00  0.00    -0.373 A  
HETATM   12  C   UNL     1     -12.880  13.330  71.213  1.00  0.00    -0.398 A  
ENDBRANCH   2   3
BRANCH   2  13
HETATM   13  N   UNL     1      -9.440  11.698  68.971  1.00  0.00    -0.410 NA 
HETATM   14  H   UNL     1      -9.070  11.606  69.918  1.00  0.00     0.000 HD 
BRANCH  13  15
HETATM   15  C   UNL     1      -8.471  11.206  67.997  1.00  0.00    -0.135 C  
BRANCH  15  16
HETATM   16  C   UNL     1      -8.071  12.319  67.032  1.00  0.00    -0.141 C  
BRANCH  16  17
HETATM   17  C   UNL     1      -8.154  13.677  67.736  1.00  0.00    -0.173 C  
BRANCH  17  18
HETATM   18  C   UNL     1      -9.000  14.645  66.954  1.00  0.00    -0.275 A  
HETATM   19  C   UNL     1      -9.834  16.909  66.602  1.00  0.00    -0.295 A  
HETATM   20  C   UNL     1      -9.869  18.370  66.976  1.00  0.00    -0.326 C  
HETATM   21  C   UNL     1      -9.003  16.008  67.285  1.00  0.00    -0.211 A  
HETATM   22  C   UNL     1     -10.653  15.074  65.235  1.00  0.00    -0.418 A  
HETATM   23  F   UNL     1      -9.022  18.695  67.994  1.00  0.00    -0.285 F  
HETATM   24  F   UNL     1      -9.529  19.184  65.938  1.00  0.00    -0.332 F  
HETATM   25  F   UNL     1     -11.105  18.775  67.379  1.00  0.00    -0.480 F  
HETATM   26  C   UNL     1     -10.656  16.429  65.571  1.00  0.00    -0.346 A  
HETATM   27  C   UNL     1      -9.831  14.188  65.927  1.00  0.00    -0.312 A  
ENDBRANCH  17  18
ENDBRANCH  16  17
ENDBRANCH  15  16
ENDBRANCH  13  15
ENDBRANCH   2  13
TORSDOF 6
ENDMDL
MODEL       37
REMARK 921   NORMALIZED FREE ENERGY PREDICTED BY IDOCK:   -5.59 KCAL/MOL
REMARK 922        TOTAL FREE ENERGY PREDICTED BY IDOCK:  -10.68 KCAL/MOL
REMARK 923 INTER-LIGAND FREE ENERGY PREDICTED BY IDOCK:   -9.26 KCAL/MOL
REMARK 924 INTRA-LIGAND FREE ENERGY PREDICTED BY IDOCK:   -1.42 KCAL/MOL
REMARK 927      BINDING AFFINITY PREDICTED BY RF-SCORE:    0.00 PKD
ROOT
HETATM    1  C   UNL     1      -7.700   9.781  70.161  1.00  0.00    -0.188 C  
HETATM    2  C   UNL     1      -9.186   9.906  69.784  1.00  0.00    -0.227 C  
ENDROOT
BRANCH   2   3
HETATM    3  C   UNL     1     -10.024   8.667  70.115  1.00  0.00    -0.193 A  
HETATM    4  C   UNL     1     -13.099  10.040  71.860  1.00  0.00    -0.563 A  
HETATM    5  C   UNL     1      -9.535   7.389  69.777  1.00  0.00    -0.159 A  
HETATM    6  C   UNL     1     -13.690   8.864  72.297  1.00  0.00    -0.527 A  
HETATM    7  C   UNL     1     -11.917   9.991  71.115  1.00  0.00    -0.484 A  
HETATM    8  C   UNL     1     -13.120   7.640  71.953  1.00  0.00    -0.292 A  
HETATM    9  C   UNL     1     -10.221   6.232  70.133  1.00  0.00    -0.237 A  
HETATM   10  C   UNL     1     -11.403   6.328  70.856  1.00  0.00    -0.389 A  
HETATM   11  C   UNL     1     -11.278   8.769  70.796  1.00  0.00    -0.309 A  
HETATM   12  C   UNL     1     -11.936   7.576  71.201  1.00  0.00    -0.334 A  
ENDBRANCH   2   3
BRANCH   2  13
HETATM   13  N   UNL     1      -9.388  10.404  68.412  1.00  0.00    -0.145 NA 
HETATM   14  H   UNL     1     -10.034   9.798  67.906  1.00  0.00     0.000 HD 
BRANCH  13  15
HETATM   15  C   UNL     1      -9.826  11.794  68.332  1.00  0.00    -0.199 C  
BRANCH  15  16
HETATM   16  C   UNL     1     -11.351  11.873  68.309  1.00  0.00    -0.335 C  
BRANCH  16  17
HETATM   17  C   UNL     1     -11.796  13.277  67.893  1.00  0.00    -0.388 C  
BRANCH  17  18
HETATM   18  C   UNL     1     -11.781  14.223  69.065  1.00  0.00    -0.352 A  
HETATM   19  C   UNL     1     -12.452  14.767  71.344  1.00  0.00    -0.401 A  
HETATM   20  C   UNL     1     -13.156  14.406  72.628  1.00  0.00    -0.476 C  
HETATM   21  C   UNL     1     -12.409  13.868  70.267  1.00  0.00    -0.413 A  
HETATM   22  C   UNL     1     -11.217  16.381  70.011  1.00  0.00    -0.266 A  
HETATM   23  F   UNL     1     -13.699  13.155  72.623  1.00  0.00    -0.617 F  
HETATM   24  F   UNL     1     -12.326  14.443  73.708  1.00  0.00    -0.472 F  
HETATM   25  F   UNL     1     -14.182  15.254  72.916  1.00  0.00    -0.488 F  
HETATM   26  C   UNL     1     -11.847  16.025  71.205  1.00  0.00    -0.502 A  
HETATM   27  C   UNL     1     -11.189  15.484  68.946  1.00  0.00    -0.306 A  
ENDBRANCH  17  18
ENDBRANCH  16  17
ENDBRANCH  15  16
ENDBRANCH  13  15
ENDBRANCH   2  13
TORSDOF 6
ENDMDL
MODEL       38
REMARK 921   NORMALIZED FREE ENERGY PREDICTED BY IDOCK:   -5.58 KCAL/MOL
REMARK 922        TOTAL FREE ENERGY PREDICTED BY IDOCK:  -10.67 KCAL/MOL
REMARK 923 INTER-LIGAND FREE ENERGY PREDICTED BY IDOCK:   -7.15 KCAL/MOL
REMARK 924 INTRA-LIGAND FREE ENERGY PREDICTED BY IDOCK:   -3.51 KCAL/MOL
REMARK 927      BINDING AFFINITY PREDICTED BY RF-SCORE:    0.00 PKD
ROOT
HETATM    1  C   UNL     1      -9.205  10.567  62.502  1.00  0.00    -0.321 C  
HETATM    2  C   UNL     1      -9.986  11.350  63.573  1.00  0.00    -0.388 C  
ENDROOT
BRANCH   2   3
HETATM    3  C   UNL     1      -9.691  10.911  65.010  1.00  0.00    -0.319 A  
HETATM    4  C   UNL     1      -8.548  14.080  66.753  1.00  0.00    -0.081 A  
HETATM    5  C   UNL     1      -9.850   9.557  65.368  1.00  0.00    -0.248 A  
HETATM    6  C   UNL     1      -8.117  13.562  67.965  1.00  0.00    -0.156 A  
HETATM    7  C   UNL     1      -9.099  13.231  65.789  1.00  0.00     0.449 A  
HETATM    8  C   UNL     1      -8.273  12.203  68.226  1.00  0.00    -0.168 A  
HETATM    9  C   UNL     1      -9.514   9.098  66.638  1.00  0.00    -0.242 A  
HETATM   10  C   UNL     1      -8.990   9.981  67.573  1.00  0.00    -0.141 A  
HETATM   11  C   UNL     1      -9.220  11.836  65.995  1.00  0.00    -0.202 A  
HETATM   12  C   UNL     1      -8.829  11.339  67.268  1.00  0.00    -0.150 A  
ENDBRANCH   2   3
BRANCH   2  13
HETATM   13  N   UNL     1     -11.425  11.451  63.271  1.00  0.00    -0.852 NA 
HETATM   14  H   UNL     1     -11.933  10.674  63.695  1.00  0.00     0.000 HD 
BRANCH  13  15
HETATM   15  C   UNL     1     -12.034  12.722  63.649  1.00  0.00    -0.539 C  
BRANCH  15  16
HETATM   16  C   UNL     1     -12.639  12.629  65.048  1.00  0.00    -0.504 C  
BRANCH  16  17
HETATM   17  C   UNL     1     -12.566  13.992  65.742  1.00  0.00    -0.512 C  
BRANCH  17  18
HETATM   18  C   UNL     1     -12.088  13.855  67.162  1.00  0.00    -0.422 A  
HETATM   19  C   UNL     1     -11.701  12.474  69.134  1.00  0.00    -0.375 A  
HETATM   20  C   UNL     1     -11.731  11.135  69.826  1.00  0.00    -0.345 C  
HETATM   21  C   UNL     1     -12.088  12.602  67.791  1.00  0.00    -0.157 A  
HETATM   22  C   UNL     1     -11.297  14.869  69.216  1.00  0.00    -0.315 A  
HETATM   23  F   UNL     1     -12.140  10.112  69.023  1.00  0.00    -0.114 F  
HETATM   24  F   UNL     1     -10.510  10.765  70.304  1.00  0.00    -0.221 F  
HETATM   25  F   UNL     1     -12.571  11.122  70.899  1.00  0.00    -0.395 F  
HETATM   26  C   UNL     1     -11.302  13.620  69.839  1.00  0.00    -0.124 A  
HETATM   27  C   UNL     1     -11.692  14.985  67.885  1.00  0.00    -0.310 A  
ENDBRANCH  17  18
ENDBRANCH  16  17
ENDBRANCH  15  16
ENDBRANCH  13  15
ENDBRANCH   2  13
TORSDOF 6
ENDMDL
MODEL       39
REMARK 921   NORMALIZED FREE ENERGY PREDICTED BY IDOCK:   -5.58 KCAL/MOL
REMARK 922        TOTAL FREE ENERGY PREDICTED BY IDOCK:  -10.66 KCAL/MOL
REMARK 923 INTER-LIGAND FREE ENERGY PREDICTED BY IDOCK:   -9.41 KCAL/MOL
REMARK 924 INTRA-LIGAND FREE ENERGY PREDICTED BY IDOCK:   -1.26 KCAL/MOL
REMARK 927      BINDING AFFINITY PREDICTED BY RF-SCORE:    0.00 PKD
ROOT
HETATM    1  C   UNL     1     -12.250  13.209  64.394  1.00  0.00    -0.462 C  
HETATM    2  C   UNL     1     -12.221  13.392  65.922  1.00  0.00    -0.450 C  
ENDROOT
BRANCH   2   3
HETATM    3  C   UNL     1     -11.204  14.427  66.410  1.00  0.00    -0.345 A  
HETATM    4  C   UNL     1     -12.161  15.066  70.025  1.00  0.00    -0.382 A  
HETATM    5  C   UNL     1     -10.231  14.920  65.516  1.00  0.00    -0.401 A  
HETATM    6  C   UNL     1     -11.336  16.140  70.320  1.00  0.00    -0.363 A  
HETATM    7  C   UNL     1     -12.105  14.471  68.760  1.00  0.00    -0.256 A  
HETATM    8  C   UNL     1     -10.428  16.593  69.365  1.00  0.00    -0.320 A  
HETATM    9  C   UNL     1      -9.341  15.920  65.891  1.00  0.00    -0.353 A  
HETATM   10  C   UNL     1      -9.419  16.469  67.164  1.00  0.00    -0.246 A  
HETATM   11  C   UNL     1     -11.237  14.940  67.745  1.00  0.00    -0.329 A  
HETATM   12  C   UNL     1     -10.358  16.002  68.092  1.00  0.00    -0.260 A  
ENDBRANCH   2   3
BRANCH   2  13
HETATM   13  N   UNL     1     -12.155  12.113  66.650  1.00  0.00    -0.578 NA 
HETATM   14  H   UNL     1     -12.964  11.533  66.423  1.00  0.00     0.000 HD 
BRANCH  13  15
HETATM   15  C   UNL     1     -10.920  11.364  66.447  1.00  0.00    -0.260 C  
BRANCH  15  16
HETATM   16  C   UNL     1     -10.690  10.390  67.601  1.00  0.00    -0.335 C  
BRANCH  16  17
HETATM   17  C   UNL     1     -10.380  11.164  68.885  1.00  0.00    -0.220 C  
BRANCH  17  18
HETATM   18  C   UNL     1     -11.200  10.654  70.040  1.00  0.00    -0.382 A  
HETATM   19  C   UNL     1     -11.733   8.883  71.628  1.00  0.00    -0.411 A  
HETATM   20  C   UNL     1     -11.477   7.512  72.202  1.00  0.00    -0.291 C  
HETATM   21  C   UNL     1     -10.936   9.392  70.591  1.00  0.00    -0.352 A  
HETATM   22  C   UNL     1     -13.059  10.919  71.571  1.00  0.00    -0.503 A  
HETATM   23  F   UNL     1     -10.418   6.869  71.633  1.00  0.00    -0.208 F  
HETATM   24  F   UNL     1     -11.216   7.545  73.538  1.00  0.00    -0.395 F  
HETATM   25  F   UNL     1     -12.542   6.676  72.049  1.00  0.00    -0.366 F  
HETATM   26  C   UNL     1     -12.795   9.660  72.114  1.00  0.00    -0.460 A  
HETATM   27  C   UNL     1     -12.266  11.410  70.537  1.00  0.00    -0.478 A  
ENDBRANCH  17  18
ENDBRANCH  16  17
ENDBRANCH  15  16
ENDBRANCH  13  15
ENDBRANCH   2  13
TORSDOF 6
ENDMDL
MODEL       40
REMARK 921   NORMALIZED FREE ENERGY PREDICTED BY IDOCK:   -5.58 KCAL/MOL
REMARK 922        TOTAL FREE ENERGY PREDICTED BY IDOCK:  -10.66 KCAL/MOL
REMARK 923 INTER-LIGAND FREE ENERGY PREDICTED BY IDOCK:   -8.92 KCAL/MOL
REMARK 924 INTRA-LIGAND FREE ENERGY PREDICTED BY IDOCK:   -1.74 KCAL/MOL
REMARK 927      BINDING AFFINITY PREDICTED BY RF-SCORE:    0.00 PKD
ROOT
HETATM    1  C   UNL     1      -9.112   9.667  69.421  1.00  0.00    -0.194 C  
HETATM    2  C   UNL     1     -10.426  10.198  68.819  1.00  0.00    -0.204 C  
ENDROOT
BRANCH   2   3
HETATM    3  C   UNL     1     -11.433  10.700  69.857  1.00  0.00    -0.393 A  
HETATM    4  C   UNL     1     -11.769  14.409  69.135  1.00  0.00    -0.354 A  
HETATM    5  C   UNL     1     -11.963   9.798  70.803  1.00  0.00    -0.382 A  
HETATM    6  C   UNL     1     -12.525  14.812  70.225  1.00  0.00    -0.393 A  
HETATM    7  C   UNL     1     -11.433  13.060  68.981  1.00  0.00    -0.353 A  
HETATM    8  C   UNL     1     -12.977  13.862  71.138  1.00  0.00    -0.388 A  
HETATM    9  C   UNL     1     -12.816  10.226  71.815  1.00  0.00    -0.565 A  
HETATM   10  C   UNL     1     -13.140  11.573  71.918  1.00  0.00    -0.492 A  
HETATM   11  C   UNL     1     -11.825  12.075  69.919  1.00  0.00    -0.405 A  
HETATM   12  C   UNL     1     -12.651  12.503  70.993  1.00  0.00    -0.350 A  
ENDBRANCH   2   3
BRANCH   2  13
HETATM   13  N   UNL     1     -11.011   9.280  67.826  1.00  0.00    -0.493 NA 
HETATM   14  H   UNL     1     -11.929   9.614  67.532  1.00  0.00     0.000 HD 
BRANCH  13  15
HETATM   15  C   UNL     1     -10.166   9.028  66.664  1.00  0.00    -0.263 C  
BRANCH  15  16
HETATM   16  C   UNL     1      -9.755   7.558  66.611  1.00  0.00    -0.273 C  
BRANCH  16  17
HETATM   17  C   UNL     1     -10.846   6.687  67.239  1.00  0.00    -0.456 C  
BRANCH  17  18
HETATM   18  C   UNL     1     -10.451   6.229  68.617  1.00  0.00    -0.274 A  
HETATM   19  C   UNL     1     -10.932   6.059  71.001  1.00  0.00    -0.350 A  
HETATM   20  C   UNL     1     -11.842   6.303  72.179  1.00  0.00    -0.315 C  
HETATM   21  C   UNL     1     -11.316   6.428  69.703  1.00  0.00    -0.479 A  
HETATM   22  C   UNL     1      -8.809   5.271  70.119  1.00  0.00    -0.144 A  
HETATM   23  F   UNL     1     -13.032   6.878  71.842  1.00  0.00    -0.369 F  
HETATM   24  F   UNL     1     -12.160   5.155  72.841  1.00  0.00    -0.359 F  
HETATM   25  F   UNL     1     -11.283   7.127  73.108  1.00  0.00    -0.308 F  
HETATM   26  C   UNL     1      -9.672   5.476  71.198  1.00  0.00    -0.226 A  
HETATM   27  C   UNL     1      -9.198   5.650  68.837  1.00  0.00    -0.136 A  
ENDBRANCH  17  18
ENDBRANCH  16  17
ENDBRANCH  15  16
ENDBRANCH  13  15
ENDBRANCH   2  13
TORSDOF 6
ENDMDL
MODEL       41
REMARK 921   NORMALIZED FREE ENERGY PREDICTED BY IDOCK:   -5.57 KCAL/MOL
REMARK 922        TOTAL FREE ENERGY PREDICTED BY IDOCK:  -10.66 KCAL/MOL
REMARK 923 INTER-LIGAND FREE ENERGY PREDICTED BY IDOCK:   -8.95 KCAL/MOL
REMARK 924 INTRA-LIGAND FREE ENERGY PREDICTED BY IDOCK:   -1.71 KCAL/MOL
REMARK 927      BINDING AFFINITY PREDICTED BY RF-SCORE:    0.00 PKD
ROOT
HETATM    1  C   UNL     1     -11.601  13.324  67.387  1.00  0.00    -0.396 C  
HETATM    2  C   UNL     1     -10.896  12.445  68.434  1.00  0.00    -0.238 C  
ENDROOT
BRANCH   2   3
HETATM    3  C   UNL     1     -11.776  12.063  69.628  1.00  0.00    -0.405 A  
HETATM    4  C   UNL     1     -12.933  15.381  71.055  1.00  0.00    -0.556 A  
HETATM    5  C   UNL     1     -11.945  10.702  69.957  1.00  0.00    -0.408 A  
HETATM    6  C   UNL     1     -13.542  14.956  72.225  1.00  0.00    -0.538 A  
HETATM    7  C   UNL     1     -12.381  14.444  70.176  1.00  0.00    -0.406 A  
HETATM    8  C   UNL     1     -13.633  13.593  72.496  1.00  0.00    -0.675 A  
HETATM    9  C   UNL     1     -12.667  10.312  71.081  1.00  0.00    -0.502 A  
HETATM   10  C   UNL     1     -13.216  11.277  71.915  1.00  0.00    -0.491 A  
HETATM   11  C   UNL     1     -12.403  13.055  70.446  1.00  0.00    -0.351 A  
HETATM   12  C   UNL     1     -13.087  12.640  71.621  1.00  0.00    -0.421 A  
ENDBRANCH   2   3
BRANCH   2  13
HETATM   13  N   UNL     1      -9.573  12.966  68.821  1.00  0.00    -0.412 NA 
HETATM   14  H   UNL     1      -9.474  12.967  69.836  1.00  0.00     0.000 HD 
BRANCH  13  15
HETATM   15  C   UNL     1      -8.447  12.275  68.202  1.00  0.00    -0.176 C  
BRANCH  15  16
HETATM   16  C   UNL     1      -8.890  10.922  67.648  1.00  0.00    -0.133 C  
BRANCH  16  17
HETATM   17  C   UNL     1      -7.982   9.814  68.187  1.00  0.00    -0.100 C  
BRANCH  17  18
HETATM   18  C   UNL     1      -8.656   9.045  69.292  1.00  0.00    -0.136 A  
HETATM   19  C   UNL     1     -10.187   7.289  70.008  1.00  0.00    -0.206 A  
HETATM   20  C   UNL     1     -11.130   6.156  69.688  1.00  0.00    -0.419 C  
HETATM   21  C   UNL     1      -9.507   7.972  68.989  1.00  0.00    -0.151 A  
HETATM   22  C   UNL     1      -9.148   8.752  71.646  1.00  0.00    -0.314 A  
HETATM   23  F   UNL     1     -11.220   5.878  68.356  1.00  0.00    -0.351 F  
HETATM   24  F   UNL     1     -10.766   4.987  70.285  1.00  0.00    -0.327 F  
HETATM   25  F   UNL     1     -12.404   6.406  70.101  1.00  0.00    -0.392 F  
HETATM   26  C   UNL     1      -9.997   7.687  71.340  1.00  0.00    -0.203 A  
HETATM   27  C   UNL     1      -8.485   9.429  70.625  1.00  0.00    -0.239 A  
ENDBRANCH  17  18
ENDBRANCH  16  17
ENDBRANCH  15  16
ENDBRANCH  13  15
ENDBRANCH   2  13
TORSDOF 6
ENDMDL
MODEL       42
REMARK 921   NORMALIZED FREE ENERGY PREDICTED BY IDOCK:   -5.57 KCAL/MOL
REMARK 922        TOTAL FREE ENERGY PREDICTED BY IDOCK:  -10.65 KCAL/MOL
REMARK 923 INTER-LIGAND FREE ENERGY PREDICTED BY IDOCK:   -8.50 KCAL/MOL
REMARK 924 INTRA-LIGAND FREE ENERGY PREDICTED BY IDOCK:   -2.15 KCAL/MOL
REMARK 927      BINDING AFFINITY PREDICTED BY RF-SCORE:    0.00 PKD
ROOT
HETATM    1  C   UNL     1      -9.054  12.026  66.349  1.00  0.00    -0.193 C  
HETATM    2  C   UNL     1     -10.211  11.075  65.994  1.00  0.00    -0.252 C  
ENDROOT
BRANCH   2   3
HETATM    3  C   UNL     1     -10.297   9.832  66.884  1.00  0.00    -0.301 A  
HETATM    4  C   UNL     1     -11.792  11.094  70.134  1.00  0.00    -0.449 A  
HETATM    5  C   UNL     1      -9.826   8.596  66.396  1.00  0.00    -0.341 A  
HETATM    6  C   UNL     1     -11.648   9.971  70.933  1.00  0.00    -0.463 A  
HETATM    7  C   UNL     1     -11.387  11.054  68.796  1.00  0.00    -0.349 A  
HETATM    8  C   UNL     1     -11.136   8.798  70.384  1.00  0.00    -0.261 A  
HETATM    9  C   UNL     1      -9.807   7.460  67.198  1.00  0.00    -0.253 A  
HETATM   10  C   UNL     1     -10.238   7.539  68.516  1.00  0.00    -0.216 A  
HETATM   11  C   UNL     1     -10.809   9.899  68.218  1.00  0.00    -0.275 A  
HETATM   12  C   UNL     1     -10.729   8.742  69.040  1.00  0.00    -0.134 A  
ENDBRANCH   2   3
BRANCH   2  13
HETATM   13  N   UNL     1     -10.281  10.774  64.553  1.00  0.00    -0.350 NA 
HETATM   14  H   UNL     1     -10.756   9.884  64.399  1.00  0.00     0.000 HD 
BRANCH  13  15
HETATM   15  C   UNL     1     -10.894  11.824  63.746  1.00  0.00    -0.424 C  
BRANCH  15  16
HETATM   16  C   UNL     1     -12.224  12.260  64.358  1.00  0.00    -0.488 C  
BRANCH  16  17
HETATM   17  C   UNL     1     -12.381  13.778  64.240  1.00  0.00    -0.384 C  
BRANCH  17  18
HETATM   18  C   UNL     1     -11.621  14.490  65.327  1.00  0.00    -0.359 A  
HETATM   19  C   UNL     1     -11.317  15.023  67.687  1.00  0.00    -0.342 A  
HETATM   20  C   UNL     1     -11.721  14.868  69.131  1.00  0.00    -0.309 C  
HETATM   21  C   UNL     1     -11.980  14.317  66.671  1.00  0.00    -0.454 A  
HETATM   22  C   UNL     1      -9.914  16.072  66.002  1.00  0.00    -0.365 A  
HETATM   23  F   UNL     1     -12.745  13.987  69.322  1.00  0.00    -0.286 F  
HETATM   24  F   UNL     1     -10.700  14.424  69.916  1.00  0.00    -0.207 F  
HETATM   25  F   UNL     1     -12.135  16.042  69.685  1.00  0.00    -0.330 F  
HETATM   26  C   UNL     1     -10.278  15.899  67.339  1.00  0.00    -0.270 A  
HETATM   27  C   UNL     1     -10.586  15.373  65.003  1.00  0.00    -0.445 A  
ENDBRANCH  17  18
ENDBRANCH  16  17
ENDBRANCH  15  16
ENDBRANCH  13  15
ENDBRANCH   2  13
TORSDOF 6
ENDMDL
MODEL       43
REMARK 921   NORMALIZED FREE ENERGY PREDICTED BY IDOCK:   -5.56 KCAL/MOL
REMARK 922        TOTAL FREE ENERGY PREDICTED BY IDOCK:  -10.64 KCAL/MOL
REMARK 923 INTER-LIGAND FREE ENERGY PREDICTED BY IDOCK:   -9.07 KCAL/MOL
REMARK 924 INTRA-LIGAND FREE ENERGY PREDICTED BY IDOCK:   -1.57 KCAL/MOL
REMARK 927      BINDING AFFINITY PREDICTED BY RF-SCORE:    0.00 PKD
ROOT
HETATM    1  C   UNL     1      -8.136  10.546  65.484  1.00  0.00    -0.155 C  
HETATM    2  C   UNL     1      -9.662  10.366  65.399  1.00  0.00    -0.265 C  
ENDROOT
BRANCH   2   3
HETATM    3  C   UNL     1     -10.418  11.621  64.952  1.00  0.00    -0.339 A  
HETATM    4  C   UNL     1      -9.462  14.262  67.501  1.00  0.00    -0.209 A  
HETATM    5  C   UNL     1     -11.260  11.558  63.823  1.00  0.00    -0.456 A  
HETATM    6  C   UNL     1     -10.330  15.283  67.147  1.00  0.00    -0.265 A  
HETATM    7  C   UNL     1      -9.453  13.070  66.771  1.00  0.00    -0.250 A  
HETATM    8  C   UNL     1     -11.160  15.127  66.039  1.00  0.00    -0.312 A  
HETATM    9  C   UNL     1     -12.029  12.649  63.430  1.00  0.00    -0.613 A  
HETATM   10  C   UNL     1     -11.991  13.822  64.173  1.00  0.00    -0.473 A  
HETATM   11  C   UNL     1     -10.323  12.852  65.676  1.00  0.00    -0.295 A  
HETATM   12  C   UNL     1     -11.158  13.936  65.294  1.00  0.00    -0.318 A  
ENDBRANCH   2   3
BRANCH   2  13
HETATM   13  N   UNL     1     -10.231   9.733  66.603  1.00  0.00    -0.233 NA 
HETATM   14  H   UNL     1     -10.555   8.790  66.389  1.00  0.00     0.000 HD 
BRANCH  13  15
HETATM   15  C   UNL     1      -9.337   9.715  67.755  1.00  0.00    -0.127 C  
BRANCH  15  16
HETATM   16  C   UNL     1     -10.065  10.211  69.003  1.00  0.00    -0.216 C  
BRANCH  16  17
HETATM   17  C   UNL     1     -11.453  10.734  68.626  1.00  0.00    -0.365 C  
BRANCH  17  18
HETATM   18  C   UNL     1     -12.078  11.494  69.765  1.00  0.00    -0.374 A  
HETATM   19  C   UNL     1     -12.488  13.602  70.920  1.00  0.00    -0.448 A  
HETATM   20  C   UNL     1     -12.337  15.099  71.014  1.00  0.00    -0.347 C  
HETATM   21  C   UNL     1     -11.962  12.890  69.831  1.00  0.00    -0.377 A  
HETATM   22  C   UNL     1     -13.265  11.508  71.878  1.00  0.00    -0.479 A  
HETATM   23  F   UNL     1     -11.678  15.651  69.955  1.00  0.00    -0.267 F  
HETATM   24  F   UNL     1     -13.536  15.743  71.080  1.00  0.00    -0.548 F  
HETATM   25  F   UNL     1     -11.645  15.485  72.122  1.00  0.00    -0.414 F  
HETATM   26  C   UNL     1     -13.143  12.897  71.940  1.00  0.00    -0.474 A  
HETATM   27  C   UNL     1     -12.730  10.811  70.796  1.00  0.00    -0.451 A  
ENDBRANCH  17  18
ENDBRANCH  16  17
ENDBRANCH  15  16
ENDBRANCH  13  15
ENDBRANCH   2  13
TORSDOF 6
ENDMDL
MODEL       44
REMARK 921   NORMALIZED FREE ENERGY PREDICTED BY IDOCK:   -5.53 KCAL/MOL
REMARK 922        TOTAL FREE ENERGY PREDICTED BY IDOCK:  -10.59 KCAL/MOL
REMARK 923 INTER-LIGAND FREE ENERGY PREDICTED BY IDOCK:   -8.43 KCAL/MOL
REMARK 924 INTRA-LIGAND FREE ENERGY PREDICTED BY IDOCK:   -2.16 KCAL/MOL
REMARK 927      BINDING AFFINITY PREDICTED BY RF-SCORE:    0.00 PKD
ROOT
HETATM    1  C   UNL     1      -6.782  10.836  66.242  1.00  0.00    -0.134 C  
HETATM    2  C   UNL     1      -8.263  10.730  66.645  1.00  0.00    -0.140 C  
ENDROOT
BRANCH   2   3
HETATM    3  C   UNL     1      -9.040  12.044  66.532  1.00  0.00    -0.202 A  
HETATM    4  C   UNL     1     -11.401  11.503  63.613  1.00  0.00    -0.412 A  
HETATM    5  C   UNL     1      -8.743  13.104  67.414  1.00  0.00    -0.206 A  
HETATM    6  C   UNL     1     -11.908  12.783  63.456  1.00  0.00    -0.618 A  
HETATM    7  C   UNL     1     -10.488  11.236  64.637  1.00  0.00    -0.387 A  
HETATM    8  C   UNL     1     -11.533  13.786  64.347  1.00  0.00    -0.392 A  
HETATM    9  C   UNL     1      -9.364  14.343  67.294  1.00  0.00    -0.211 A  
HETATM   10  C   UNL     1     -10.281  14.558  66.273  1.00  0.00    -0.306 A  
HETATM   11  C   UNL     1     -10.038  12.242  65.526  1.00  0.00    -0.279 A  
HETATM   12  C   UNL     1     -10.620  13.531  65.383  1.00  0.00    -0.313 A  
ENDBRANCH   2   3
BRANCH   2  13
HETATM   13  N   UNL     1      -8.457  10.040  67.933  1.00  0.00    -0.117 NA 
HETATM   14  H   UNL     1      -8.587  10.719  68.684  1.00  0.00     0.000 HD 
BRANCH  13  15
HETATM   15  C   UNL     1      -9.541   9.063  67.938  1.00  0.00    -0.147 C  
BRANCH  15  16
HETATM   16  C   UNL     1     -10.592   9.437  68.981  1.00  0.00    -0.233 C  
BRANCH  16  17
HETATM   17  C   UNL     1     -11.476  10.569  68.451  1.00  0.00    -0.285 C  
BRANCH  17  18
HETATM   18  C   UNL     1     -11.983  11.436  69.572  1.00  0.00    -0.409 A  
HETATM   19  C   UNL     1     -12.290  13.645  70.557  1.00  0.00    -0.425 A  
HETATM   20  C   UNL     1     -12.145  15.145  70.491  1.00  0.00    -0.343 C  
HETATM   21  C   UNL     1     -11.875  12.831  69.491  1.00  0.00    -0.379 A  
HETATM   22  C   UNL     1     -12.940  11.653  71.788  1.00  0.00    -0.483 A  
HETATM   23  F   UNL     1     -11.608  15.592  69.320  1.00  0.00    -0.275 F  
HETATM   24  F   UNL     1     -13.337  15.792  70.622  1.00  0.00    -0.511 F  
HETATM   25  F   UNL     1     -11.343  15.634  71.477  1.00  0.00    -0.363 F  
HETATM   26  C   UNL     1     -12.826  13.042  71.704  1.00  0.00    -0.376 A  
HETATM   27  C   UNL     1     -12.516  10.856  70.727  1.00  0.00    -0.489 A  
ENDBRANCH  17  18
ENDBRANCH  16  17
ENDBRANCH  15  16
ENDBRANCH  13  15
ENDBRANCH   2  13
TORSDOF 6
ENDMDL
MODEL       45
REMARK 921   NORMALIZED FREE ENERGY PREDICTED BY IDOCK:   -5.52 KCAL/MOL
REMARK 922        TOTAL FREE ENERGY PREDICTED BY IDOCK:  -10.59 KCAL/MOL
REMARK 923 INTER-LIGAND FREE ENERGY PREDICTED BY IDOCK:   -8.71 KCAL/MOL
REMARK 924 INTRA-LIGAND FREE ENERGY PREDICTED BY IDOCK:   -1.88 KCAL/MOL
REMARK 927      BINDING AFFINITY PREDICTED BY RF-SCORE:    0.00 PKD
ROOT
HETATM    1  C   UNL     1     -12.399  13.121  66.574  1.00  0.00    -0.252 C  
HETATM    2  C   UNL     1     -11.293  12.971  67.634  1.00  0.00    -0.300 C  
ENDROOT
BRANCH   2   3
HETATM    3  C   UNL     1     -11.285  14.078  68.693  1.00  0.00    -0.294 A  
HETATM    4  C   UNL     1     -13.062  12.550  71.676  1.00  0.00    -0.414 A  
HETATM    5  C   UNL     1     -10.713  15.329  68.384  1.00  0.00    -0.250 A  
HETATM    6  C   UNL     1     -13.188  13.662  72.493  1.00  0.00    -0.578 A  
HETATM    7  C   UNL     1     -12.410  12.661  70.444  1.00  0.00    -0.315 A  
HETATM    8  C   UNL     1     -12.628  14.875  72.096  1.00  0.00    -0.403 A  
HETATM    9  C   UNL     1     -10.758  16.389  69.284  1.00  0.00    -0.325 A  
HETATM   10  C   UNL     1     -11.398  16.228  70.506  1.00  0.00    -0.318 A  
HETATM   11  C   UNL     1     -11.880  13.889  69.980  1.00  0.00    -0.384 A  
HETATM   12  C   UNL     1     -11.967  15.000  70.863  1.00  0.00    -0.374 A  
ENDBRANCH   2   3
BRANCH   2  13
HETATM   13  N   UNL     1      -9.968  12.710  67.046  1.00  0.00    -0.217 NA 
HETATM   14  H   UNL     1      -9.292  13.403  67.369  1.00  0.00     0.000 HD 
BRANCH  13  15
HETATM   15  C   UNL     1      -9.461  11.361  67.273  1.00  0.00    -0.167 C  
BRANCH  15  16
HETATM   16  C   UNL     1     -10.244  10.679  68.394  1.00  0.00    -0.191 C  
BRANCH  16  17
HETATM   17  C   UNL     1      -9.285  10.213  69.493  1.00  0.00    -0.223 C  
BRANCH  17  18
HETATM   18  C   UNL     1     -10.010   9.422  70.549  1.00  0.00    -0.328 A  
HETATM   19  C   UNL     1     -12.093   8.746  71.619  1.00  0.00    -0.401 A  
HETATM   20  C   UNL     1     -13.598   8.782  71.704  1.00  0.00    -0.383 C  
HETATM   21  C   UNL     1     -11.410   9.432  70.603  1.00  0.00    -0.352 A  
HETATM   22  C   UNL     1      -9.958   8.022  72.526  1.00  0.00    -0.338 A  
HETATM   23  F   UNL     1     -14.186   9.508  70.711  1.00  0.00    -0.269 F  
HETATM   24  F   UNL     1     -14.156   7.540  71.635  1.00  0.00    -0.419 F  
HETATM   25  F   UNL     1     -14.042   9.325  72.872  1.00  0.00    -0.424 F  
HETATM   26  C   UNL     1     -11.353   8.038  72.578  1.00  0.00    -0.469 A  
HETATM   27  C   UNL     1      -9.291   8.714  71.517  1.00  0.00    -0.319 A  
ENDBRANCH  17  18
ENDBRANCH  16  17
ENDBRANCH  15  16
ENDBRANCH  13  15
ENDBRANCH   2  13
TORSDOF 6
ENDMDL
MODEL       46
REMARK 921   NORMALIZED FREE ENERGY PREDICTED BY IDOCK:   -5.52 KCAL/MOL
REMARK 922        TOTAL FREE ENERGY PREDICTED BY IDOCK:  -10.58 KCAL/MOL
REMARK 923 INTER-LIGAND FREE ENERGY PREDICTED BY IDOCK:   -9.63 KCAL/MOL
REMARK 924 INTRA-LIGAND FREE ENERGY PREDICTED BY IDOCK:   -0.96 KCAL/MOL
REMARK 927      BINDING AFFINITY PREDICTED BY RF-SCORE:    0.00 PKD
ROOT
HETATM    1  C   UNL     1     -12.210  11.166  69.723  1.00  0.00    -0.369 C  
HETATM    2  C   UNL     1     -11.830  12.209  68.657  1.00  0.00    -0.306 C  
ENDROOT
BRANCH   2   3
HETATM    3  C   UNL     1     -11.173  11.617  67.406  1.00  0.00    -0.358 A  
HETATM    4  C   UNL     1     -12.336  13.856  64.574  1.00  0.00    -0.408 A  
HETATM    5  C   UNL     1     -10.375  10.460  67.524  1.00  0.00    -0.268 A  
HETATM    6  C   UNL     1     -11.872  13.143  63.480  1.00  0.00    -0.539 A  
HETATM    7  C   UNL     1     -12.085  13.388  65.868  1.00  0.00    -0.486 A  
HETATM    8  C   UNL     1     -11.123  11.985  63.681  1.00  0.00    -0.525 A  
HETATM    9  C   UNL     1      -9.828   9.841  66.405  1.00  0.00    -0.298 A  
HETATM   10  C   UNL     1     -10.086  10.351  65.140  1.00  0.00    -0.379 A  
HETATM   11  C   UNL     1     -11.379  12.186  66.110  1.00  0.00    -0.414 A  
HETATM   12  C   UNL     1     -10.860  11.507  64.975  1.00  0.00    -0.336 A  
ENDBRANCH   2   3
BRANCH   2  13
HETATM   13  N   UNL     1     -11.099  13.359  69.218  1.00  0.00    -0.403 NA 
HETATM   14  H   UNL     1     -10.293  13.586  68.636  1.00  0.00     0.000 HD 
BRANCH  13  15
HETATM   15  C   UNL     1     -11.918  14.547  69.437  1.00  0.00    -0.322 C  
BRANCH  15  16
HETATM   16  C   UNL     1     -11.062  15.809  69.355  1.00  0.00    -0.314 C  
BRANCH  16  17
HETATM   17  C   UNL     1     -10.908  16.243  67.895  1.00  0.00    -0.330 C  
BRANCH  17  18
HETATM   18  C   UNL     1     -10.181  17.557  67.791  1.00  0.00    -0.349 A  
HETATM   19  C   UNL     1      -8.284  18.970  68.381  1.00  0.00    -0.382 A  
HETATM   20  C   UNL     1      -6.967  19.174  69.086  1.00  0.00    -0.326 C  
HETATM   21  C   UNL     1      -8.941  17.730  68.421  1.00  0.00    -0.281 A  
HETATM   22  C   UNL     1     -10.114  19.865  67.056  1.00  0.00    -0.578 A  
HETATM   23  F   UNL     1      -6.506  18.057  69.719  1.00  0.00    -0.245 F  
HETATM   24  F   UNL     1      -5.972  19.555  68.237  1.00  0.00    -0.215 F  
HETATM   25  F   UNL     1      -7.032  20.141  70.043  1.00  0.00    -0.354 F  
HETATM   26  C   UNL     1      -8.881  20.034  67.689  1.00  0.00    -0.407 A  
HETATM   27  C   UNL     1     -10.761  18.633  67.111  1.00  0.00    -0.433 A  
ENDBRANCH  17  18
ENDBRANCH  16  17
ENDBRANCH  15  16
ENDBRANCH  13  15
ENDBRANCH   2  13
TORSDOF 6
ENDMDL
MODEL       47
REMARK 921   NORMALIZED FREE ENERGY PREDICTED BY IDOCK:   -5.52 KCAL/MOL
REMARK 922        TOTAL FREE ENERGY PREDICTED BY IDOCK:  -10.58 KCAL/MOL
REMARK 923 INTER-LIGAND FREE ENERGY PREDICTED BY IDOCK:   -7.20 KCAL/MOL
REMARK 924 INTRA-LIGAND FREE ENERGY PREDICTED BY IDOCK:   -3.38 KCAL/MOL
REMARK 927      BINDING AFFINITY PREDICTED BY RF-SCORE:    0.00 PKD
ROOT
HETATM    1  C   UNL     1     -10.706  13.531  68.671  1.00  0.00    -0.271 C  
HETATM    2  C   UNL     1     -11.392  12.154  68.618  1.00  0.00    -0.280 C  
ENDROOT
BRANCH   2   3
HETATM    3  C   UNL     1     -10.664  11.060  69.404  1.00  0.00    -0.247 A  
HETATM    4  C   UNL     1     -13.341   9.544  71.623  1.00  0.00    -0.485 A  
HETATM    5  C   UNL     1      -9.282  10.864  69.203  1.00  0.00    -0.077 A  
HETATM    6  C   UNL     1     -12.569   8.721  72.427  1.00  0.00    -0.430 A  
HETATM    7  C   UNL     1     -12.738  10.289  70.605  1.00  0.00    -0.382 A  
HETATM    8  C   UNL     1     -11.201   8.613  72.187  1.00  0.00    -0.438 A  
HETATM    9  C   UNL     1      -8.564   9.940  69.953  1.00  0.00    -0.216 A  
HETATM   10  C   UNL     1      -9.208   9.205  70.941  1.00  0.00    -0.326 A  
HETATM   11  C   UNL     1     -11.343  10.252  70.370  1.00  0.00    -0.410 A  
HETATM   12  C   UNL     1     -10.582   9.353  71.166  1.00  0.00    -0.403 A  
ENDBRANCH   2   3
BRANCH   2  13
HETATM   13  N   UNL     1     -11.761  11.751  67.250  1.00  0.00    -0.597 NA 
HETATM   14  H   UNL     1     -12.710  12.056  67.033  1.00  0.00     0.000 HD 
BRANCH  13  15
HETATM   15  C   UNL     1     -10.834  12.202  66.217  1.00  0.00    -0.282 C  
BRANCH  15  16
HETATM   16  C   UNL     1      -9.876  11.076  65.831  1.00  0.00    -0.278 C  
BRANCH  16  17
HETATM   17  C   UNL     1     -10.631   9.745  65.772  1.00  0.00     0.228 C  
BRANCH  17  18
HETATM   18  C   UNL     1      -9.877   8.659  66.492  1.00  0.00    -0.348 A  
HETATM   19  C   UNL     1      -9.821   6.880  68.158  1.00  0.00    -0.145 A  
HETATM   20  C   UNL     1     -10.508   6.035  69.202  1.00  0.00    -0.257 C  
HETATM   21  C   UNL     1     -10.529   7.855  67.438  1.00  0.00    -0.360 A  
HETATM   22  C   UNL     1      -7.799   7.507  66.966  1.00  0.00    -0.116 A  
HETATM   23  F   UNL     1     -11.837   6.307  69.339  1.00  0.00    -0.472 F  
HETATM   24  F   UNL     1     -10.429   4.702  68.931  1.00  0.00    -0.178 F  
HETATM   25  F   UNL     1      -9.967   6.198  70.442  1.00  0.00    -0.184 F  
HETATM   26  C   UNL     1      -8.451   6.712  67.910  1.00  0.00    -0.119 A  
HETATM   27  C   UNL     1      -8.510   8.478  66.264  1.00  0.00    -0.130 A  
ENDBRANCH  17  18
ENDBRANCH  16  17
ENDBRANCH  15  16
ENDBRANCH  13  15
ENDBRANCH   2  13
TORSDOF 6
ENDMDL
MODEL       48
REMARK 921   NORMALIZED FREE ENERGY PREDICTED BY IDOCK:   -5.52 KCAL/MOL
REMARK 922        TOTAL FREE ENERGY PREDICTED BY IDOCK:  -10.58 KCAL/MOL
REMARK 923 INTER-LIGAND FREE ENERGY PREDICTED BY IDOCK:   -8.45 KCAL/MOL
REMARK 924 INTRA-LIGAND FREE ENERGY PREDICTED BY IDOCK:   -2.13 KCAL/MOL
REMARK 927      BINDING AFFINITY PREDICTED BY RF-SCORE:    0.00 PKD
ROOT
HETATM    1  C   UNL     1      -9.451  14.158  68.018  1.00  0.00    -0.213 C  
HETATM    2  C   UNL     1     -10.989  14.132  68.001  1.00  0.00    -0.255 C  
ENDROOT
BRANCH   2   3
HETATM    3  C   UNL     1     -11.611  13.161  69.009  1.00  0.00    -0.360 A  
HETATM    4  C   UNL     1     -13.169  15.399  71.646  1.00  0.00    -0.563 A  
HETATM    5  C   UNL     1     -11.474  11.772  68.809  1.00  0.00    -0.350 A  
HETATM    6  C   UNL     1     -13.523  14.458  72.601  1.00  0.00    -0.605 A  
HETATM    7  C   UNL     1     -12.575  14.987  70.449  1.00  0.00    -0.399 A  
HETATM    8  C   UNL     1     -13.317  13.105  72.341  1.00  0.00    -0.591 A  
HETATM    9  C   UNL     1     -11.950  10.855  69.740  1.00  0.00    -0.423 A  
HETATM   10  C   UNL     1     -12.553  11.307  70.906  1.00  0.00    -0.467 A  
HETATM   11  C   UNL     1     -12.297  13.627  70.175  1.00  0.00    -0.372 A  
HETATM   12  C   UNL     1     -12.725  12.677  71.142  1.00  0.00    -0.347 A  
ENDBRANCH   2   3
BRANCH   2  13
HETATM   13  N   UNL     1     -11.544  14.006  66.642  1.00  0.00    -0.363 NA 
HETATM   14  H   UNL     1     -11.886  14.909  66.313  1.00  0.00     0.000 HD 
BRANCH  13  15
HETATM   15  C   UNL     1     -10.628  13.423  65.667  1.00  0.00    -0.282 C  
BRANCH  15  16
HETATM   16  C   UNL     1     -11.138  12.060  65.205  1.00  0.00    -0.369 C  
BRANCH  16  17
HETATM   17  C   UNL     1      -9.957  11.152  64.851  1.00  0.00    -0.331 C  
BRANCH  17  18
HETATM   18  C   UNL     1      -9.505  10.355  66.045  1.00  0.00    -0.232 A  
HETATM   19  C   UNL     1      -9.775   8.435  67.523  1.00  0.00    -0.209 A  
HETATM   20  C   UNL     1     -10.486   7.161  67.905  1.00  0.00    -0.212 C  
HETATM   21  C   UNL     1     -10.149   9.154  66.377  1.00  0.00    -0.345 A  
HETATM   22  C   UNL     1      -8.092  10.121  67.999  1.00  0.00    -0.112 A  
HETATM   23  F   UNL     1     -11.472   6.801  67.035  1.00  0.00    -0.464 F  
HETATM   24  F   UNL     1      -9.644   6.091  67.973  1.00  0.00    -0.117 F  
HETATM   25  F   UNL     1     -11.082   7.243  69.127  1.00  0.00    -0.206 F  
HETATM   26  C   UNL     1      -8.738   8.928  68.328  1.00  0.00    -0.134 A  
HETATM   27  C   UNL     1      -8.478  10.831  66.865  1.00  0.00    -0.131 A  
ENDBRANCH  17  18
ENDBRANCH  16  17
ENDBRANCH  15  16
ENDBRANCH  13  15
ENDBRANCH   2  13
TORSDOF 6
ENDMDL
MODEL       49
REMARK 921   NORMALIZED FREE ENERGY PREDICTED BY IDOCK:   -5.49 KCAL/MOL
REMARK 922        TOTAL FREE ENERGY PREDICTED BY IDOCK:  -10.54 KCAL/MOL
REMARK 923 INTER-LIGAND FREE ENERGY PREDICTED BY IDOCK:   -9.18 KCAL/MOL
REMARK 924 INTRA-LIGAND FREE ENERGY PREDICTED BY IDOCK:   -1.36 KCAL/MOL
REMARK 927      BINDING AFFINITY PREDICTED BY RF-SCORE:    0.00 PKD
ROOT
HETATM    1  C   UNL     1      -8.811  10.651  66.133  1.00  0.00    -0.179 C  
HETATM    2  C   UNL     1     -10.328  10.679  65.878  1.00  0.00    -0.224 C  
ENDROOT
BRANCH   2   3
HETATM    3  C   UNL     1     -10.817  11.931  65.142  1.00  0.00    -0.350 A  
HETATM    4  C   UNL     1      -8.934  14.789  66.777  1.00  0.00    -0.292 A  
HETATM    5  C   UNL     1     -11.791  11.804  64.131  1.00  0.00    -0.350 A  
HETATM    6  C   UNL     1      -9.574  15.876  66.203  1.00  0.00    -0.365 A  
HETATM    7  C   UNL     1      -9.305  13.490  66.414  1.00  0.00    -0.191 A  
HETATM    8  C   UNL     1     -10.557  15.664  65.238  1.00  0.00    -0.448 A  
HETATM    9  C   UNL     1     -12.325  12.920  63.494  1.00  0.00    -0.521 A  
HETATM   10  C   UNL     1     -11.913  14.191  63.872  1.00  0.00    -0.278 A  
HETATM   11  C   UNL     1     -10.338  13.235  65.481  1.00  0.00    -0.298 A  
HETATM   12  C   UNL     1     -10.936  14.366  64.861  1.00  0.00    -0.416 A  
ENDBRANCH   2   3
BRANCH   2  13
HETATM   13  N   UNL     1     -11.117  10.357  67.080  1.00  0.00    -0.215 NA 
HETATM   14  H   UNL     1     -11.797   9.626  66.873  1.00  0.00     0.000 HD 
BRANCH  13  15
HETATM   15  C   UNL     1     -10.319   9.995  68.247  1.00  0.00    -0.193 C  
BRANCH  15  16
HETATM   16  C   UNL     1     -10.412  11.082  69.316  1.00  0.00    -0.210 C  
BRANCH  16  17
HETATM   17  C   UNL     1     -11.877  11.463  69.547  1.00  0.00    -0.426 C  
BRANCH  17  18
HETATM   18  C   UNL     1     -12.023  12.942  69.790  1.00  0.00    -0.365 A  
HETATM   19  C   UNL     1     -12.534  14.791  71.294  1.00  0.00    -0.391 A  
HETATM   20  C   UNL     1     -12.905  15.309  72.661  1.00  0.00    -0.389 C  
HETATM   21  C   UNL     1     -12.336  13.420  71.070  1.00  0.00    -0.401 A  
HETATM   22  C   UNL     1     -12.087  15.211  68.942  1.00  0.00    -0.227 A  
HETATM   23  F   UNL     1     -13.001  14.334  73.609  1.00  0.00    -0.527 F  
HETATM   24  F   UNL     1     -12.002  16.207  73.144  1.00  0.00    -0.509 F  
HETATM   25  F   UNL     1     -14.108  15.950  72.666  1.00  0.00    -0.615 F  
HETATM   26  C   UNL     1     -12.403  15.682  70.218  1.00  0.00    -0.402 A  
HETATM   27  C   UNL     1     -11.902  13.847  68.731  1.00  0.00    -0.396 A  
ENDBRANCH  17  18
ENDBRANCH  16  17
ENDBRANCH  15  16
ENDBRANCH  13  15
ENDBRANCH   2  13
TORSDOF 6
ENDMDL
MODEL       50
REMARK 921   NORMALIZED FREE ENERGY PREDICTED BY IDOCK:   -5.48 KCAL/MOL
REMARK 922        TOTAL FREE ENERGY PREDICTED BY IDOCK:  -10.53 KCAL/MOL
REMARK 923 INTER-LIGAND FREE ENERGY PREDICTED BY IDOCK:   -8.80 KCAL/MOL
REMARK 924 INTRA-LIGAND FREE ENERGY PREDICTED BY IDOCK:   -1.74 KCAL/MOL
REMARK 927      BINDING AFFINITY PREDICTED BY RF-SCORE:    0.00 PKD
ROOT
HETATM    1  C   UNL     1     -10.330   8.136  66.891  1.00  0.00    -0.401 C  
HETATM    2  C   UNL     1      -9.527   9.446  66.810  1.00  0.00    -0.165 C  
ENDROOT
BRANCH   2   3
HETATM    3  C   UNL     1      -9.916  10.347  65.634  1.00  0.00    -0.337 A  
HETATM    4  C   UNL     1     -12.019  13.090  67.196  1.00  0.00    -0.389 A  
HETATM    5  C   UNL     1      -9.495  10.009  64.332  1.00  0.00    -0.349 A  
HETATM    6  C   UNL     1     -12.487  13.730  66.059  1.00  0.00    -0.491 A  
HETATM    7  C   UNL     1     -11.148  12.003  67.075  1.00  0.00    -0.351 A  
HETATM    8  C   UNL     1     -12.052  13.308  64.805  1.00  0.00    -0.456 A  
HETATM    9  C   UNL     1      -9.893  10.751  63.225  1.00  0.00    -0.394 A  
HETATM   10  C   UNL     1     -10.743  11.836  63.393  1.00  0.00    -0.468 A  
HETATM   11  C   UNL     1     -10.731  11.508  65.816  1.00  0.00    -0.325 A  
HETATM   12  C   UNL     1     -11.175  12.220  64.669  1.00  0.00    -0.363 A  
ENDBRANCH   2   3
BRANCH   2  13
HETATM   13  N   UNL     1      -8.074   9.236  66.935  1.00  0.00    -0.108 NA 
HETATM   14  H   UNL     1      -7.629   9.273  66.018  1.00  0.00     0.000 HD 
BRANCH  13  15
HETATM   15  C   UNL     1      -7.409  10.148  67.860  1.00  0.00    -0.087 C  
BRANCH  15  16
HETATM   16  C   UNL     1      -8.286  10.398  69.086  1.00  0.00    -0.157 C  
BRANCH  16  17
HETATM   17  C   UNL     1      -8.091   9.274  70.107  1.00  0.00    -0.152 C  
BRANCH  17  18
HETATM   18  C   UNL     1      -9.360   9.005  70.870  1.00  0.00    -0.326 A  
HETATM   19  C   UNL     1     -11.684   9.557  71.360  1.00  0.00    -0.465 A  
HETATM   20  C   UNL     1     -12.917  10.389  71.111  1.00  0.00    -0.412 C  
HETATM   21  C   UNL     1     -10.513   9.759  70.612  1.00  0.00    -0.358 A  
HETATM   22  C   UNL     1     -10.543   7.822  72.623  1.00  0.00    -0.377 A  
HETATM   23  F   UNL     1     -12.770  11.301  70.109  1.00  0.00    -0.296 F  
HETATM   24  F   UNL     1     -13.998   9.633  70.768  1.00  0.00    -0.336 F  
HETATM   25  F   UNL     1     -13.294  11.103  72.209  1.00  0.00    -0.582 F  
HETATM   26  C   UNL     1     -11.688   8.579  72.365  1.00  0.00    -0.429 A  
HETATM   27  C   UNL     1      -9.385   8.038  71.880  1.00  0.00    -0.225 A  
ENDBRANCH  17  18
ENDBRANCH  16  17
ENDBRANCH  15  16
ENDBRANCH  13  15
ENDBRANCH   2  13
TORSDOF 6
ENDMDL
MODEL       51
REMARK 921   NORMALIZED FREE ENERGY PREDICTED BY IDOCK:   -5.48 KCAL/MOL
REMARK 922        TOTAL FREE ENERGY PREDICTED BY IDOCK:  -10.53 KCAL/MOL
REMARK 923 INTER-LIGAND FREE ENERGY PREDICTED BY IDOCK:   -9.41 KCAL/MOL
REMARK 924 INTRA-LIGAND FREE ENERGY PREDICTED BY IDOCK:   -1.12 KCAL/MOL
REMARK 927      BINDING AFFINITY PREDICTED BY RF-SCORE:    0.00 PKD
ROOT
HETATM    1  C   UNL     1     -10.566  14.462  64.660  1.00  0.00    -0.331 C  
HETATM    2  C   UNL     1     -10.818  15.345  65.895  1.00  0.00    -0.325 C  
ENDROOT
BRANCH   2   3
HETATM    3  C   UNL     1      -9.551  15.970  66.487  1.00  0.00    -0.283 A  
HETATM    4  C   UNL     1     -10.292  19.689  66.598  1.00  0.00    -0.598 A  
HETATM    5  C   UNL     1      -8.456  15.143  66.813  1.00  0.00    -0.272 A  
HETATM    6  C   UNL     1      -9.046  20.186  66.947  1.00  0.00    -0.469 A  
HETATM    7  C   UNL     1     -10.483  18.309  66.477  1.00  0.00    -0.378 A  
HETATM    8  C   UNL     1      -8.003  19.301  67.214  1.00  0.00    -0.285 A  
HETATM    9  C   UNL     1      -7.258  15.676  67.275  1.00  0.00    -0.252 A  
HETATM   10  C   UNL     1      -7.118  17.052  67.399  1.00  0.00    -0.183 A  
HETATM   11  C   UNL     1      -9.433  17.382  66.684  1.00  0.00    -0.285 A  
HETATM   12  C   UNL     1      -8.182  17.912  67.102  1.00  0.00    -0.228 A  
ENDBRANCH   2   3
BRANCH   2  13
HETATM   13  N   UNL     1     -11.677  14.693  66.899  1.00  0.00    -0.372 NA 
HETATM   14  H   UNL     1     -12.479  15.284  67.117  1.00  0.00     0.000 HD 
BRANCH  13  15
HETATM   15  C   UNL     1     -12.119  13.351  66.535  1.00  0.00    -0.388 C  
BRANCH  15  16
HETATM   16  C   UNL     1     -11.505  12.314  67.473  1.00  0.00    -0.414 C  
BRANCH  16  17
HETATM   17  C   UNL     1     -10.960  13.002  68.728  1.00  0.00    -0.295 C  
BRANCH  17  18
HETATM   18  C   UNL     1     -11.743  12.604  69.951  1.00  0.00    -0.320 A  
HETATM   19  C   UNL     1     -12.700  10.868  71.370  1.00  0.00    -0.539 A  
HETATM   20  C   UNL     1     -12.925   9.412  71.694  1.00  0.00    -0.391 C  
HETATM   21  C   UNL     1     -11.921  11.250  70.266  1.00  0.00    -0.466 A  
HETATM   22  C   UNL     1     -13.112  13.213  71.855  1.00  0.00    -0.482 A  
HETATM   23  F   UNL     1     -12.294   8.557  70.840  1.00  0.00    -0.283 F  
HETATM   24  F   UNL     1     -12.486   9.080  72.941  1.00  0.00    -0.360 F  
HETATM   25  F   UNL     1     -14.243   9.068  71.658  1.00  0.00    -0.409 F  
HETATM   26  C   UNL     1     -13.290  11.863  72.163  1.00  0.00    -0.361 A  
HETATM   27  C   UNL     1     -12.345  13.579  70.752  1.00  0.00    -0.440 A  
ENDBRANCH  17  18
ENDBRANCH  16  17
ENDBRANCH  15  16
ENDBRANCH  13  15
ENDBRANCH   2  13
TORSDOF 6
ENDMDL
MODEL       52
REMARK 921   NORMALIZED FREE ENERGY PREDICTED BY IDOCK:   -5.48 KCAL/MOL
REMARK 922        TOTAL FREE ENERGY PREDICTED BY IDOCK:  -10.52 KCAL/MOL
REMARK 923 INTER-LIGAND FREE ENERGY PREDICTED BY IDOCK:   -7.11 KCAL/MOL
REMARK 924 INTRA-LIGAND FREE ENERGY PREDICTED BY IDOCK:   -3.42 KCAL/MOL
REMARK 927      BINDING AFFINITY PREDICTED BY RF-SCORE:    0.00 PKD
ROOT
HETATM    1  C   UNL     1     -11.395  15.675  67.828  1.00  0.00    -0.261 C  
HETATM    2  C   UNL     1     -11.749  14.184  67.691  1.00  0.00    -0.387 C  
ENDROOT
BRANCH   2   3
HETATM    3  C   UNL     1     -10.540  13.245  67.737  1.00  0.00    -0.249 A  
HETATM    4  C   UNL     1     -11.595  10.452  70.076  1.00  0.00    -0.378 A  
HETATM    5  C   UNL     1      -9.378  13.575  67.009  1.00  0.00    -0.247 A  
HETATM    6  C   UNL     1     -10.395   9.772  70.216  1.00  0.00    -0.348 A  
HETATM    7  C   UNL     1     -11.668  11.570  69.240  1.00  0.00    -0.397 A  
HETATM    8  C   UNL     1      -9.281  10.186  69.491  1.00  0.00    -0.223 A  
HETATM    9  C   UNL     1      -8.229  12.796  67.086  1.00  0.00    -0.146 A  
HETATM   10  C   UNL     1      -8.206  11.681  67.914  1.00  0.00    -0.141 A  
HETATM   11  C   UNL     1     -10.543  12.056  68.532  1.00  0.00    -0.252 A  
HETATM   12  C   UNL     1      -9.341  11.306  68.644  1.00  0.00    -0.167 A  
ENDBRANCH   2   3
BRANCH   2  13
HETATM   13  N   UNL     1     -12.663  13.914  66.567  1.00  0.00    -0.420 NA 
HETATM   14  H   UNL     1     -13.633  14.029  66.862  1.00  0.00     0.000 HD 
BRANCH  13  15
HETATM   15  C   UNL     1     -12.398  14.704  65.370  1.00  0.00    -0.195 C  
BRANCH  15  16
HETATM   16  C   UNL     1     -12.011  13.794  64.205  1.00  0.00    -0.481 C  
BRANCH  16  17
HETATM   17  C   UNL     1     -12.210  12.328  64.598  1.00  0.00    -0.454 C  
BRANCH  17  18
HETATM   18  C   UNL     1     -10.975  11.515  64.313  1.00  0.00    -0.406 A  
HETATM   19  C   UNL     1      -9.414   9.755  64.953  1.00  0.00    -0.331 A  
HETATM   20  C   UNL     1      -8.981   8.663  65.898  1.00  0.00    -0.200 C  
HETATM   21  C   UNL     1     -10.595  10.479  65.177  1.00  0.00    -0.121 A  
HETATM   22  C   UNL     1      -8.996  11.105  62.976  1.00  0.00    -0.234 A  
HETATM   23  F   UNL     1      -9.845   8.460  66.933  1.00  0.00    -0.214 F  
HETATM   24  F   UNL     1      -8.856   7.455  65.280  1.00  0.00    -0.113 F  
HETATM   25  F   UNL     1      -7.772   8.917  66.470  1.00  0.00    -0.094 F  
HETATM   26  C   UNL     1      -8.620  10.077  63.842  1.00  0.00    -0.196 A  
HETATM   27  C   UNL     1     -10.166  11.822  63.214  1.00  0.00    -0.452 A  
ENDBRANCH  17  18
ENDBRANCH  16  17
ENDBRANCH  15  16
ENDBRANCH  13  15
ENDBRANCH   2  13
TORSDOF 6
ENDMDL
MODEL       53
REMARK 921   NORMALIZED FREE ENERGY PREDICTED BY IDOCK:   -5.45 KCAL/MOL
REMARK 922        TOTAL FREE ENERGY PREDICTED BY IDOCK:  -10.49 KCAL/MOL
REMARK 923 INTER-LIGAND FREE ENERGY PREDICTED BY IDOCK:   -9.48 KCAL/MOL
REMARK 924 INTRA-LIGAND FREE ENERGY PREDICTED BY IDOCK:   -1.02 KCAL/MOL
REMARK 927      BINDING AFFINITY PREDICTED BY RF-SCORE:    0.00 PKD
ROOT
HETATM    1  C   UNL     1     -11.520  13.778  69.198  1.00  0.00    -0.346 C  
HETATM    2  C   UNL     1     -11.901  12.370  68.707  1.00  0.00    -0.311 C  
ENDROOT
BRANCH   2   3
HETATM    3  C   UNL     1     -11.054  11.245  69.310  1.00  0.00    -0.314 A  
HETATM    4  C   UNL     1     -13.320   9.628  71.886  1.00  0.00    -0.526 A  
HETATM    5  C   UNL     1      -9.728  11.063  68.868  1.00  0.00    -0.184 A  
HETATM    6  C   UNL     1     -12.425   8.773  72.511  1.00  0.00    -0.368 A  
HETATM    7  C   UNL     1     -12.896  10.418  70.813  1.00  0.00    -0.450 A  
HETATM    8  C   UNL     1     -11.119   8.681  72.037  1.00  0.00    -0.437 A  
HETATM    9  C   UNL     1      -8.896  10.109  69.445  1.00  0.00    -0.197 A  
HETATM   10  C   UNL     1      -9.365   9.331  70.496  1.00  0.00    -0.316 A  
HETATM   11  C   UNL     1     -11.562  10.395  70.342  1.00  0.00    -0.423 A  
HETATM   12  C   UNL     1     -10.680   9.466  70.958  1.00  0.00    -0.407 A  
ENDBRANCH   2   3
BRANCH   2  13
HETATM   13  N   UNL     1     -12.029  12.291  67.241  1.00  0.00    -0.559 NA 
HETATM   14  H   UNL     1     -12.899  11.823  66.985  1.00  0.00     0.000 HD 
BRANCH  13  15
HETATM   15  C   UNL     1     -11.920  13.573  66.555  1.00  0.00    -0.413 C  
BRANCH  15  16
HETATM   16  C   UNL     1     -10.545  13.717  65.906  1.00  0.00    -0.289 C  
BRANCH  16  17
HETATM   17  C   UNL     1     -10.383  15.125  65.328  1.00  0.00    -0.425 C  
BRANCH  17  18
HETATM   18  C   UNL     1      -9.779  16.063  66.338  1.00  0.00    -0.307 A  
HETATM   19  C   UNL     1      -9.646  18.281  67.341  1.00  0.00    -0.284 A  
HETATM   20  C   UNL     1     -10.118  19.710  67.437  1.00  0.00    -0.410 C  
HETATM   21  C   UNL     1     -10.243  17.381  66.445  1.00  0.00    -0.339 A  
HETATM   22  C   UNL     1      -8.117  16.525  68.040  1.00  0.00    -0.168 A  
HETATM   23  F   UNL     1     -11.156  20.001  66.603  1.00  0.00    -0.517 F  
HETATM   24  F   UNL     1     -10.545  20.037  68.689  1.00  0.00    -0.540 F  
HETATM   25  F   UNL     1      -9.136  20.604  67.132  1.00  0.00    -0.456 F  
HETATM   26  C   UNL     1      -8.581  17.839  68.140  1.00  0.00    -0.262 A  
HETATM   27  C   UNL     1      -8.712  15.645  67.140  1.00  0.00    -0.233 A  
ENDBRANCH  17  18
ENDBRANCH  16  17
ENDBRANCH  15  16
ENDBRANCH  13  15
ENDBRANCH   2  13
TORSDOF 6
ENDMDL
MODEL       54
REMARK 921   NORMALIZED FREE ENERGY PREDICTED BY IDOCK:   -5.45 KCAL/MOL
REMARK 922        TOTAL FREE ENERGY PREDICTED BY IDOCK:  -10.49 KCAL/MOL
REMARK 923 INTER-LIGAND FREE ENERGY PREDICTED BY IDOCK:   -9.41 KCAL/MOL
REMARK 924 INTRA-LIGAND FREE ENERGY PREDICTED BY IDOCK:   -1.08 KCAL/MOL
REMARK 927      BINDING AFFINITY PREDICTED BY RF-SCORE:    0.00 PKD
ROOT
HETATM    1  C   UNL     1     -11.930  11.178  68.925  1.00  0.00    -0.367 C  
HETATM    2  C   UNL     1     -11.291  12.454  68.350  1.00  0.00    -0.285 C  
ENDROOT
BRANCH   2   3
HETATM    3  C   UNL     1     -11.573  12.681  66.862  1.00  0.00    -0.438 A  
HETATM    4  C   UNL     1      -9.601   9.964  65.096  1.00  0.00    -0.367 A  
HETATM    5  C   UNL     1     -12.395  13.757  66.468  1.00  0.00    -0.432 A  
HETATM    6  C   UNL     1      -9.747  10.361  63.776  1.00  0.00    -0.351 A  
HETATM    7  C   UNL     1     -10.222  10.692  66.116  1.00  0.00    -0.308 A  
HETATM    8  C   UNL     1     -10.545  11.462  63.474  1.00  0.00    -0.468 A  
HETATM    9  C   UNL     1     -12.611  14.051  65.126  1.00  0.00    -0.453 A  
HETATM   10  C   UNL     1     -11.991  13.289  64.145  1.00  0.00    -0.505 A  
HETATM   11  C   UNL     1     -10.993  11.850  65.852  1.00  0.00    -0.354 A  
HETATM   12  C   UNL     1     -11.178  12.200  64.488  1.00  0.00    -0.385 A  
ENDBRANCH   2   3
BRANCH   2  13
HETATM   13  N   UNL     1      -9.868  12.592  68.707  1.00  0.00    -0.421 NA 
HETATM   14  H   UNL     1      -9.298  11.959  68.146  1.00  0.00     0.000 HD 
BRANCH  13  15
HETATM   15  C   UNL     1      -9.352  13.954  68.618  1.00  0.00    -0.106 C  
BRANCH  15  16
HETATM   16  C   UNL     1      -8.409  14.091  67.424  1.00  0.00    -0.207 C  
BRANCH  16  17
HETATM   17  C   UNL     1      -8.814  15.298  66.574  1.00  0.00    -0.335 C  
BRANCH  17  18
HETATM   18  C   UNL     1      -8.555  16.590  67.302  1.00  0.00    -0.202 A  
HETATM   19  C   UNL     1      -9.234  18.859  67.879  1.00  0.00    -0.339 A  
HETATM   20  C   UNL     1     -10.225  19.993  67.802  1.00  0.00    -0.409 C  
HETATM   21  C   UNL     1      -9.494  17.629  67.254  1.00  0.00    -0.257 A  
HETATM   22  C   UNL     1      -7.085  17.998  68.617  1.00  0.00    -0.269 A  
HETATM   23  F   UNL     1     -11.356  19.687  67.105  1.00  0.00    -0.523 F  
HETATM   24  F   UNL     1     -10.648  20.402  69.031  1.00  0.00    -0.493 F  
HETATM   25  F   UNL     1      -9.706  21.099  67.199  1.00  0.00    -0.583 F  
HETATM   26  C   UNL     1      -8.023  19.031  68.564  1.00  0.00    -0.381 A  
HETATM   27  C   UNL     1      -7.351  16.785  67.986  1.00  0.00    -0.167 A  
ENDBRANCH  17  18
ENDBRANCH  16  17
ENDBRANCH  15  16
ENDBRANCH  13  15
ENDBRANCH   2  13
TORSDOF 6
ENDMDL
MODEL       55
REMARK 921   NORMALIZED FREE ENERGY PREDICTED BY IDOCK:   -5.44 KCAL/MOL
REMARK 922        TOTAL FREE ENERGY PREDICTED BY IDOCK:  -10.48 KCAL/MOL
REMARK 923 INTER-LIGAND FREE ENERGY PREDICTED BY IDOCK:   -8.80 KCAL/MOL
REMARK 924 INTRA-LIGAND FREE ENERGY PREDICTED BY IDOCK:   -1.68 KCAL/MOL
REMARK 927      BINDING AFFINITY PREDICTED BY RF-SCORE:    0.00 PKD
ROOT
HETATM    1  C   UNL     1     -10.540  16.948  68.226  1.00  0.00    -0.363 C  
HETATM    2  C   UNL     1     -10.113  15.511  68.574  1.00  0.00    -0.211 C  
ENDROOT
BRANCH   2   3
HETATM    3  C   UNL     1     -10.620  14.450  67.592  1.00  0.00    -0.260 A  
HETATM    4  C   UNL     1      -7.773  11.957  67.334  1.00  0.00    -0.158 A  
HETATM    5  C   UNL     1     -11.894  14.600  67.007  1.00  0.00    -0.358 A  
HETATM    6  C   UNL     1      -8.226  11.161  66.293  1.00  0.00    -0.153 A  
HETATM    7  C   UNL     1      -8.561  13.017  67.794  1.00  0.00    -0.189 A  
HETATM    8  C   UNL     1      -9.483  11.400  65.742  1.00  0.00    -0.256 A  
HETATM    9  C   UNL     1     -12.361  13.707  66.048  1.00  0.00    -0.493 A  
HETATM   10  C   UNL     1     -11.553  12.656  65.634  1.00  0.00    -0.418 A  
HETATM   11  C   UNL     1      -9.817  13.327  67.220  1.00  0.00    -0.233 A  
HETATM   12  C   UNL     1     -10.287  12.458  66.198  1.00  0.00    -0.271 A  
ENDBRANCH   2   3
BRANCH   2  13
HETATM   13  N   UNL     1     -10.355  15.169  69.987  1.00  0.00    -0.468 NA 
HETATM   14  H   UNL     1      -9.543  15.410  70.555  1.00  0.00     0.000 HD 
BRANCH  13  15
HETATM   15  C   UNL     1     -11.564  15.757  70.552  1.00  0.00    -0.375 C  
BRANCH  15  16
HETATM   16  C   UNL     1     -12.754  14.817  70.363  1.00  0.00    -0.368 C  
BRANCH  16  17
HETATM   17  C   UNL     1     -12.813  13.811  71.515  1.00  0.00    -0.445 C  
BRANCH  17  18
HETATM   18  C   UNL     1     -12.514  12.416  71.036  1.00  0.00    -0.353 A  
HETATM   19  C   UNL     1     -12.699  10.002  71.325  1.00  0.00    -0.500 A  
HETATM   20  C   UNL     1     -13.211   8.805  72.086  1.00  0.00    -0.414 C  
HETATM   21  C   UNL     1     -13.021  11.307  71.728  1.00  0.00    -0.519 A  
HETATM   22  C   UNL     1     -11.365  10.922  69.513  1.00  0.00    -0.351 A  
HETATM   23  F   UNL     1     -14.003   9.129  73.147  1.00  0.00    -0.365 F  
HETATM   24  F   UNL     1     -13.958   7.971  71.308  1.00  0.00    -0.354 F  
HETATM   25  F   UNL     1     -12.205   8.040  72.594  1.00  0.00    -0.358 F  
HETATM   26  C   UNL     1     -11.869   9.821  70.209  1.00  0.00    -0.208 A  
HETATM   27  C   UNL     1     -11.685  12.212  69.929  1.00  0.00    -0.361 A  
ENDBRANCH  17  18
ENDBRANCH  16  17
ENDBRANCH  15  16
ENDBRANCH  13  15
ENDBRANCH   2  13
TORSDOF 6
ENDMDL
MODEL       56
REMARK 921   NORMALIZED FREE ENERGY PREDICTED BY IDOCK:   -5.44 KCAL/MOL
REMARK 922        TOTAL FREE ENERGY PREDICTED BY IDOCK:  -10.47 KCAL/MOL
REMARK 923 INTER-LIGAND FREE ENERGY PREDICTED BY IDOCK:   -9.47 KCAL/MOL
REMARK 924 INTRA-LIGAND FREE ENERGY PREDICTED BY IDOCK:   -1.00 KCAL/MOL
REMARK 927      BINDING AFFINITY PREDICTED BY RF-SCORE:    0.00 PKD
ROOT
HETATM    1  C   UNL     1     -10.381   7.843  67.929  1.00  0.00    -0.281 C  
HETATM    2  C   UNL     1     -10.540   9.327  67.555  1.00  0.00    -0.262 C  
ENDROOT
BRANCH   2   3
HETATM    3  C   UNL     1     -10.023   9.681  66.158  1.00  0.00    -0.346 A  
HETATM    4  C   UNL     1     -12.107  12.669  65.102  1.00  0.00    -0.508 A  
HETATM    5  C   UNL     1      -9.005   8.896  65.576  1.00  0.00    -0.246 A  
HETATM    6  C   UNL     1     -11.722  12.791  63.776  1.00  0.00    -0.562 A  
HETATM    7  C   UNL     1     -11.534  11.678  65.905  1.00  0.00    -0.189 A  
HETATM    8  C   UNL     1     -10.736  11.949  63.266  1.00  0.00    -0.415 A  
HETATM    9  C   UNL     1      -8.563   9.129  64.278  1.00  0.00    -0.197 A  
HETATM   10  C   UNL     1      -9.146  10.138  63.522  1.00  0.00    -0.302 A  
HETATM   11  C   UNL     1     -10.573  10.766  65.406  1.00  0.00    -0.224 A  
HETATM   12  C   UNL     1     -10.149  10.952  64.062  1.00  0.00    -0.419 A  
ENDBRANCH   2   3
BRANCH   2  13
HETATM   13  N   UNL     1     -10.059  10.238  68.609  1.00  0.00    -0.166 NA 
HETATM   14  H   UNL     1     -10.377  11.190  68.428  1.00  0.00     0.000 HD 
BRANCH  13  15
HETATM   15  C   UNL     1     -10.414   9.833  69.965  1.00  0.00    -0.270 C  
BRANCH  15  16
HETATM   16  C   UNL     1     -11.562  10.690  70.495  1.00  0.00    -0.444 C  
BRANCH  16  17
HETATM   17  C   UNL     1     -12.137  11.550  69.367  1.00  0.00    -0.345 C  
BRANCH  17  18
HETATM   18  C   UNL     1     -12.079  13.013  69.713  1.00  0.00    -0.325 A  
HETATM   19  C   UNL     1     -12.397  14.813  71.327  1.00  0.00    -0.390 A  
HETATM   20  C   UNL     1     -12.763  15.287  72.711  1.00  0.00    -0.397 C  
HETATM   21  C   UNL     1     -12.389  13.445  71.010  1.00  0.00    -0.401 A  
HETATM   22  C   UNL     1     -11.765  15.319  69.036  1.00  0.00    -0.368 A  
HETATM   23  F   UNL     1     -13.051  14.275  73.579  1.00  0.00    -0.554 F  
HETATM   24  F   UNL     1     -11.766  16.005  73.299  1.00  0.00    -0.506 F  
HETATM   25  F   UNL     1     -13.858  16.097  72.712  1.00  0.00    -0.591 F  
HETATM   26  C   UNL     1     -12.079  15.744  70.328  1.00  0.00    -0.371 A  
HETATM   27  C   UNL     1     -11.770  13.960  68.731  1.00  0.00    -0.392 A  
ENDBRANCH  17  18
ENDBRANCH  16  17
ENDBRANCH  15  16
ENDBRANCH  13  15
ENDBRANCH   2  13
TORSDOF 6
ENDMDL
MODEL       57
REMARK 921   NORMALIZED FREE ENERGY PREDICTED BY IDOCK:   -5.42 KCAL/MOL
REMARK 922        TOTAL FREE ENERGY PREDICTED BY IDOCK:  -10.45 KCAL/MOL
REMARK 923 INTER-LIGAND FREE ENERGY PREDICTED BY IDOCK:   -9.50 KCAL/MOL
REMARK 924 INTRA-LIGAND FREE ENERGY PREDICTED BY IDOCK:   -0.94 KCAL/MOL
REMARK 927      BINDING AFFINITY PREDICTED BY RF-SCORE:    0.00 PKD
ROOT
HETATM    1  C   UNL     1     -11.881  14.063  67.613  1.00  0.00    -0.430 C  
HETATM    2  C   UNL     1     -11.262  13.015  68.555  1.00  0.00    -0.274 C  
ENDROOT
BRANCH   2   3
HETATM    3  C   UNL     1     -12.016  12.838  69.877  1.00  0.00    -0.368 A  
HETATM    4  C   UNL     1     -11.816   9.118  70.591  1.00  0.00    -0.222 A  
HETATM    5  C   UNL     1     -12.607  13.959  70.494  1.00  0.00    -0.382 A  
HETATM    6  C   UNL     1     -12.678   9.020  71.672  1.00  0.00    -0.421 A  
HETATM    7  C   UNL     1     -11.561  10.366  70.014  1.00  0.00    -0.378 A  
HETATM    8  C   UNL     1     -13.253  10.174  72.199  1.00  0.00    -0.463 A  
HETATM    9  C   UNL     1     -13.371  13.832  71.649  1.00  0.00    -0.430 A  
HETATM   10  C   UNL     1     -13.582  12.575  72.201  1.00  0.00    -0.458 A  
HETATM   11  C   UNL     1     -12.172  11.552  70.485  1.00  0.00    -0.469 A  
HETATM   12  C   UNL     1     -13.003  11.434  71.632  1.00  0.00    -0.523 A  
ENDBRANCH   2   3
BRANCH   2  13
HETATM   13  N   UNL     1      -9.808  13.186  68.725  1.00  0.00    -0.420 NA 
HETATM   14  H   UNL     1      -9.472  12.616  69.501  1.00  0.00     0.000 HD 
BRANCH  13  15
HETATM   15  C   UNL     1      -9.025  12.922  67.523  1.00  0.00    -0.193 C  
BRANCH  15  16
HETATM   16  C   UNL     1      -8.007  14.037  67.294  1.00  0.00    -0.157 C  
BRANCH  16  17
HETATM   17  C   UNL     1      -8.681  15.227  66.604  1.00  0.00    -0.327 C  
BRANCH  17  18
HETATM   18  C   UNL     1      -8.432  16.506  67.358  1.00  0.00    -0.194 A  
HETATM   19  C   UNL     1      -9.158  18.735  68.026  1.00  0.00    -0.328 A  
HETATM   20  C   UNL     1     -10.186  19.839  68.022  1.00  0.00    -0.451 C  
HETATM   21  C   UNL     1      -9.405  17.515  67.377  1.00  0.00    -0.249 A  
HETATM   22  C   UNL     1      -6.955  17.924  68.653  1.00  0.00    -0.252 A  
HETATM   23  F   UNL     1     -11.335  19.515  67.361  1.00  0.00    -0.534 F  
HETATM   24  F   UNL     1     -10.571  20.200  69.277  1.00  0.00    -0.432 F  
HETATM   25  F   UNL     1      -9.727  20.976  67.429  1.00  0.00    -0.607 F  
HETATM   26  C   UNL     1      -7.925  18.928  68.666  1.00  0.00    -0.381 A  
HETATM   27  C   UNL     1      -7.208  16.721  67.998  1.00  0.00    -0.163 A  
ENDBRANCH  17  18
ENDBRANCH  16  17
ENDBRANCH  15  16
ENDBRANCH  13  15
ENDBRANCH   2  13
TORSDOF 6
ENDMDL
MODEL       58
REMARK 921   NORMALIZED FREE ENERGY PREDICTED BY IDOCK:   -5.42 KCAL/MOL
REMARK 922        TOTAL FREE ENERGY PREDICTED BY IDOCK:  -10.45 KCAL/MOL
REMARK 923 INTER-LIGAND FREE ENERGY PREDICTED BY IDOCK:   -7.45 KCAL/MOL
REMARK 924 INTRA-LIGAND FREE ENERGY PREDICTED BY IDOCK:   -2.99 KCAL/MOL
REMARK 927      BINDING AFFINITY PREDICTED BY RF-SCORE:    0.00 PKD
ROOT
HETATM    1  C   UNL     1     -14.315   6.723  71.590  1.00  0.00    -0.284 C  
HETATM    2  C   UNL     1     -12.957   7.446  71.630  1.00  0.00    -0.366 C  
ENDROOT
BRANCH   2   3
HETATM    3  C   UNL     1     -11.747   6.507  71.658  1.00  0.00    -0.374 A  
HETATM    4  C   UNL     1     -10.841   6.018  68.007  1.00  0.00    -0.374 A  
HETATM    5  C   UNL     1     -11.271   6.026  72.895  1.00  0.00    -0.265 A  
HETATM    6  C   UNL     1      -9.888   5.017  68.114  1.00  0.00    -0.203 A  
HETATM    7  C   UNL     1     -11.433   6.541  69.160  1.00  0.00    -0.245 A  
HETATM    8  C   UNL     1      -9.500   4.569  69.375  1.00  0.00    -0.244 A  
HETATM    9  C   UNL     1     -10.229   5.108  72.963  1.00  0.00    -0.217 A  
HETATM   10  C   UNL     1      -9.654   4.629  71.793  1.00  0.00    -0.216 A  
HETATM   11  C   UNL     1     -11.108   6.071  70.455  1.00  0.00    -0.399 A  
HETATM   12  C   UNL     1     -10.084   5.089  70.542  1.00  0.00    -0.323 A  
ENDBRANCH   2   3
BRANCH   2  13
HETATM   13  N   UNL     1     -12.903   8.506  72.651  1.00  0.00    -0.608 NA 
HETATM   14  H   UNL     1     -11.941   8.662  72.952  1.00  0.00     0.000 HD 
BRANCH  13  15
HETATM   15  C   UNL     1     -13.519   9.766  72.248  1.00  0.00    -0.349 C  
BRANCH  15  16
HETATM   16  C   UNL     1     -13.246  10.044  70.771  1.00  0.00    -0.270 C  
BRANCH  16  17
HETATM   17  C   UNL     1     -12.057  10.998  70.630  1.00  0.00    -0.471 C  
BRANCH  17  18
HETATM   18  C   UNL     1     -10.884  10.314  69.978  1.00  0.00    -0.364 A  
HETATM   19  C   UNL     1      -9.726   9.578  67.964  1.00  0.00    -0.168 A  
HETATM   20  C   UNL     1      -9.629   9.490  66.461  1.00  0.00    -0.201 C  
HETATM   21  C   UNL     1     -10.783  10.264  68.581  1.00  0.00    -0.255 A  
HETATM   22  C   UNL     1      -8.857   8.999  70.158  1.00  0.00    -0.196 A  
HETATM   23  F   UNL     1     -10.632  10.144  65.809  1.00  0.00    -0.279 F  
HETATM   24  F   UNL     1      -8.469  10.018  65.980  1.00  0.00    -0.123 F  
HETATM   25  F   UNL     1      -9.670   8.205  66.010  1.00  0.00    -0.265 F  
HETATM   26  C   UNL     1      -8.762   8.949  68.766  1.00  0.00    -0.137 A  
HETATM   27  C   UNL     1      -9.916   9.676  70.759  1.00  0.00    -0.260 A  
ENDBRANCH  17  18
ENDBRANCH  16  17
ENDBRANCH  15  16
ENDBRANCH  13  15
ENDBRANCH   2  13
TORSDOF 6
ENDMDL
MODEL       59
REMARK 921   NORMALIZED FREE ENERGY PREDICTED BY IDOCK:   -5.42 KCAL/MOL
REMARK 922        TOTAL FREE ENERGY PREDICTED BY IDOCK:  -10.44 KCAL/MOL
REMARK 923 INTER-LIGAND FREE ENERGY PREDICTED BY IDOCK:   -8.75 KCAL/MOL
REMARK 924 INTRA-LIGAND FREE ENERGY PREDICTED BY IDOCK:   -1.69 KCAL/MOL
REMARK 927      BINDING AFFINITY PREDICTED BY RF-SCORE:    0.00 PKD
ROOT
HETATM    1  C   UNL     1     -12.280  12.643  65.398  1.00  0.00    -0.517 C  
HETATM    2  C   UNL     1     -11.415  12.247  66.607  1.00  0.00    -0.373 C  
ENDROOT
BRANCH   2   3
HETATM    3  C   UNL     1     -11.561  13.179  67.815  1.00  0.00    -0.379 A  
HETATM    4  C   UNL     1     -12.640  10.898  70.647  1.00  0.00    -0.435 A  
HETATM    5  C   UNL     1     -11.327  14.560  67.657  1.00  0.00    -0.354 A  
HETATM    6  C   UNL     1     -12.940  11.832  71.625  1.00  0.00    -0.467 A  
HETATM    7  C   UNL     1     -12.154  11.320  69.406  1.00  0.00    -0.384 A  
HETATM    8  C   UNL     1     -12.717  13.184  71.376  1.00  0.00    -0.390 A  
HETATM    9  C   UNL     1     -11.528  15.453  68.704  1.00  0.00    -0.357 A  
HETATM   10  C   UNL     1     -11.993  14.988  69.927  1.00  0.00    -0.374 A  
HETATM   11  C   UNL     1     -11.969  12.688  69.095  1.00  0.00    -0.293 A  
HETATM   12  C   UNL     1     -12.225  13.622  70.135  1.00  0.00    -0.413 A  
ENDBRANCH   2   3
BRANCH   2  13
HETATM   13  N   UNL     1     -10.014  11.972  66.242  1.00  0.00    -0.221 NA 
HETATM   14  H   UNL     1      -9.506  11.593  67.042  1.00  0.00     0.000 HD 
BRANCH  13  15
HETATM   15  C   UNL     1      -9.851  11.106  65.080  1.00  0.00    -0.266 C  
BRANCH  15  16
HETATM   16  C   UNL     1      -9.756   9.644  65.512  1.00  0.00    -0.372 C  
BRANCH  16  17
HETATM   17  C   UNL     1      -9.321   9.559  66.977  1.00  0.00    -0.183 C  
BRANCH  17  18
HETATM   18  C   UNL     1     -10.039   8.448  67.696  1.00  0.00    -0.268 A  
HETATM   19  C   UNL     1     -10.861   7.461  69.768  1.00  0.00    -0.246 A  
HETATM   20  C   UNL     1     -11.057   7.517  71.262  1.00  0.00    -0.246 C  
HETATM   21  C   UNL     1     -10.247   8.519  69.080  1.00  0.00    -0.218 A  
HETATM   22  C   UNL     1     -11.073   6.257  67.668  1.00  0.00    -0.368 A  
HETATM   23  F   UNL     1     -10.606   8.671  71.831  1.00  0.00    -0.304 F  
HETATM   24  F   UNL     1     -12.367   7.414  71.622  1.00  0.00    -0.303 F  
HETATM   25  F   UNL     1     -10.411   6.507  71.910  1.00  0.00    -0.206 F  
HETATM   26  C   UNL     1     -11.275   6.331  69.047  1.00  0.00    -0.415 A  
HETATM   27  C   UNL     1     -10.454   7.309  66.998  1.00  0.00    -0.398 A  
ENDBRANCH  17  18
ENDBRANCH  16  17
ENDBRANCH  15  16
ENDBRANCH  13  15
ENDBRANCH   2  13
TORSDOF 6
ENDMDL
MODEL       60
REMARK 921   NORMALIZED FREE ENERGY PREDICTED BY IDOCK:   -5.41 KCAL/MOL
REMARK 922        TOTAL FREE ENERGY PREDICTED BY IDOCK:  -10.44 KCAL/MOL
REMARK 923 INTER-LIGAND FREE ENERGY PREDICTED BY IDOCK:   -9.05 KCAL/MOL
REMARK 924 INTRA-LIGAND FREE ENERGY PREDICTED BY IDOCK:   -1.38 KCAL/MOL
REMARK 927      BINDING AFFINITY PREDICTED BY RF-SCORE:    0.00 PKD
ROOT
HETATM    1  C   UNL     1      -9.608  11.717  68.138  1.00  0.00    -0.190 C  
HETATM    2  C   UNL     1     -10.959  11.268  67.552  1.00  0.00    -0.265 C  
ENDROOT
BRANCH   2   3
HETATM    3  C   UNL     1     -11.178  11.680  66.094  1.00  0.00    -0.314 A  
HETATM    4  C   UNL     1      -8.908   9.381  64.107  1.00  0.00    -0.216 A  
HETATM    5  C   UNL     1     -12.059  12.741  65.797  1.00  0.00    -0.505 A  
HETATM    6  C   UNL     1      -9.013   9.947  62.846  1.00  0.00    -0.271 A  
HETATM    7  C   UNL     1      -9.637   9.914  65.174  1.00  0.00    -0.367 A  
HETATM    8  C   UNL     1      -9.878  11.021  62.645  1.00  0.00    -0.179 A  
HETATM    9  C   UNL     1     -12.225  13.203  64.496  1.00  0.00    -0.466 A  
HETATM   10  C   UNL     1     -11.495  12.630  63.463  1.00  0.00    -0.557 A  
HETATM   11  C   UNL     1     -10.481  11.041  65.021  1.00  0.00    -0.344 A  
HETATM   12  C   UNL     1     -10.620  11.564  63.707  1.00  0.00    -0.465 A  
ENDBRANCH   2   3
BRANCH   2  13
HETATM   13  N   UNL     1     -12.098  11.586  68.432  1.00  0.00    -0.560 NA 
HETATM   14  H   UNL     1     -12.536  10.729  68.771  1.00  0.00     0.000 HD 
BRANCH  13  15
HETATM   15  C   UNL     1     -11.771  12.466  69.549  1.00  0.00    -0.322 C  
BRANCH  15  16
HETATM   16  C   UNL     1     -12.072  13.920  69.189  1.00  0.00    -0.377 C  
BRANCH  16  17
HETATM   17  C   UNL     1     -10.972  14.833  69.738  1.00  0.00    -0.261 C  
BRANCH  17  18
HETATM   18  C   UNL     1     -10.450  15.759  68.672  1.00  0.00    -0.231 A  
HETATM   19  C   UNL     1      -9.795  17.996  67.958  1.00  0.00    -0.324 A  
HETATM   20  C   UNL     1      -9.583  19.460  68.252  1.00  0.00    -0.378 C  
HETATM   21  C   UNL     1     -10.224  17.112  68.960  1.00  0.00    -0.315 A  
HETATM   22  C   UNL     1      -9.804  16.155  66.370  1.00  0.00    -0.304 A  
HETATM   23  F   UNL     1      -9.827  19.798  69.550  1.00  0.00    -0.457 F  
HETATM   24  F   UNL     1      -8.308  19.866  67.997  1.00  0.00    -0.328 F  
HETATM   25  F   UNL     1     -10.388  20.264  67.502  1.00  0.00    -0.523 F  
HETATM   26  C   UNL     1      -9.584  17.503  66.661  1.00  0.00    -0.290 A  
HETATM   27  C   UNL     1     -10.238  15.290  67.371  1.00  0.00    -0.243 A  
ENDBRANCH  17  18
ENDBRANCH  16  17
ENDBRANCH  15  16
ENDBRANCH  13  15
ENDBRANCH   2  13
TORSDOF 6
ENDMDL
MODEL       61
REMARK 921   NORMALIZED FREE ENERGY PREDICTED BY IDOCK:   -5.39 KCAL/MOL
REMARK 922        TOTAL FREE ENERGY PREDICTED BY IDOCK:  -10.41 KCAL/MOL
REMARK 923 INTER-LIGAND FREE ENERGY PREDICTED BY IDOCK:   -9.20 KCAL/MOL
REMARK 924 INTRA-LIGAND FREE ENERGY PREDICTED BY IDOCK:   -1.20 KCAL/MOL
REMARK 927      BINDING AFFINITY PREDICTED BY RF-SCORE:    0.00 PKD
ROOT
HETATM    1  C   UNL     1     -11.934  10.947  69.673  1.00  0.00    -0.414 C  
HETATM    2  C   UNL     1     -11.658  12.046  68.632  1.00  0.00    -0.319 C  
ENDROOT
BRANCH   2   3
HETATM    3  C   UNL     1     -11.075  11.528  67.314  1.00  0.00    -0.351 A  
HETATM    4  C   UNL     1     -12.697  13.685  64.648  1.00  0.00    -0.198 A  
HETATM    5  C   UNL     1     -10.171  10.446  67.332  1.00  0.00    -0.259 A  
HETATM    6  C   UNL     1     -12.279  13.028  63.501  1.00  0.00    -0.580 A  
HETATM    7  C   UNL     1     -12.283  13.227  65.903  1.00  0.00    -0.497 A  
HETATM    8  C   UNL     1     -11.416  11.939  63.608  1.00  0.00    -0.551 A  
HETATM    9  C   UNL     1      -9.682   9.889  66.155  1.00  0.00    -0.297 A  
HETATM   10  C   UNL     1     -10.104  10.388  64.930  1.00  0.00    -0.382 A  
HETATM   11  C   UNL     1     -11.454  12.090  66.054  1.00  0.00    -0.399 A  
HETATM   12  C   UNL     1     -10.989  11.472  64.862  1.00  0.00    -0.319 A  
ENDBRANCH   2   3
BRANCH   2  13
HETATM   13  N   UNL     1     -10.920  13.192  69.192  1.00  0.00    -0.404 NA 
HETATM   14  H   UNL     1     -10.149  13.453  68.578  1.00  0.00     0.000 HD 
BRANCH  13  15
HETATM   15  C   UNL     1     -11.749  14.356  69.490  1.00  0.00    -0.313 C  
BRANCH  15  16
HETATM   16  C   UNL     1     -11.102  15.626  68.941  1.00  0.00    -0.290 C  
BRANCH  16  17
HETATM   17  C   UNL     1      -9.641  15.353  68.576  1.00  0.00    -0.201 C  
BRANCH  17  18
HETATM   18  C   UNL     1      -9.053  16.494  67.789  1.00  0.00    -0.204 A  
HETATM   19  C   UNL     1      -9.274  18.719  66.816  1.00  0.00    -0.321 A  
HETATM   20  C   UNL     1     -10.073  19.975  66.578  1.00  0.00    -0.482 C  
HETATM   21  C   UNL     1      -9.788  17.673  67.598  1.00  0.00    -0.294 A  
HETATM   22  C   UNL     1      -7.268  17.403  66.426  1.00  0.00    -0.333 A  
HETATM   23  F   UNL     1     -11.287  19.979  67.200  1.00  0.00    -0.371 F  
HETATM   24  F   UNL     1      -9.431  21.095  67.013  1.00  0.00    -0.461 F  
HETATM   25  F   UNL     1     -10.334  20.184  65.257  1.00  0.00    -0.467 F  
HETATM   26  C   UNL     1      -8.005  18.573  66.236  1.00  0.00    -0.273 A  
HETATM   27  C   UNL     1      -7.793  16.369  67.197  1.00  0.00    -0.223 A  
ENDBRANCH  17  18
ENDBRANCH  16  17
ENDBRANCH  15  16
ENDBRANCH  13  15
ENDBRANCH   2  13
TORSDOF 6
ENDMDL
MODEL       62
REMARK 921   NORMALIZED FREE ENERGY PREDICTED BY IDOCK:   -5.39 KCAL/MOL
REMARK 922        TOTAL FREE ENERGY PREDICTED BY IDOCK:  -10.40 KCAL/MOL
REMARK 923 INTER-LIGAND FREE ENERGY PREDICTED BY IDOCK:   -8.77 KCAL/MOL
REMARK 924 INTRA-LIGAND FREE ENERGY PREDICTED BY IDOCK:   -1.63 KCAL/MOL
REMARK 927      BINDING AFFINITY PREDICTED BY RF-SCORE:    0.00 PKD
ROOT
HETATM    1  C   UNL     1     -12.779  13.663  65.740  1.00  0.00    -0.470 C  
HETATM    2  C   UNL     1     -11.528  13.469  66.615  1.00  0.00    -0.339 C  
ENDROOT
BRANCH   2   3
HETATM    3  C   UNL     1     -11.237  14.639  67.560  1.00  0.00    -0.343 A  
HETATM    4  C   UNL     1     -12.486  13.458  70.942  1.00  0.00    -0.439 A  
HETATM    5  C   UNL     1     -10.656  15.817  67.048  1.00  0.00    -0.316 A  
HETATM    6  C   UNL     1     -12.373  14.628  71.677  1.00  0.00    -0.416 A  
HETATM    7  C   UNL     1     -12.085  13.435  69.602  1.00  0.00    -0.349 A  
HETATM    8  C   UNL     1     -11.823  15.762  71.084  1.00  0.00    -0.471 A  
HETATM    9  C   UNL     1     -10.451  16.933  67.851  1.00  0.00    -0.344 A  
HETATM   10  C   UNL     1     -10.846  16.905  69.183  1.00  0.00    -0.237 A  
HETATM   11  C   UNL     1     -11.577  14.583  68.949  1.00  0.00    -0.341 A  
HETATM   12  C   UNL     1     -11.413  15.752  69.740  1.00  0.00    -0.350 A  
ENDBRANCH   2   3
BRANCH   2  13
HETATM   13  N   UNL     1     -10.353  13.029  65.843  1.00  0.00    -0.283 NA 
HETATM   14  H   UNL     1      -9.608  13.724  65.903  1.00  0.00     0.000 HD 
BRANCH  13  15
HETATM   15  C   UNL     1      -9.848  11.711  66.210  1.00  0.00    -0.219 C  
BRANCH  15  16
HETATM   16  C   UNL     1     -10.388  11.294  67.577  1.00  0.00    -0.224 C  
BRANCH  16  17
HETATM   17  C   UNL     1      -9.228  10.959  68.518  1.00  0.00    -0.181 C  
BRANCH  17  18
HETATM   18  C   UNL     1      -9.687  10.098  69.665  1.00  0.00    -0.250 A  
HETATM   19  C   UNL     1     -11.472   9.302  71.121  1.00  0.00    -0.403 A  
HETATM   20  C   UNL     1     -12.925   9.279  71.527  1.00  0.00    -0.359 C  
HETATM   21  C   UNL     1     -11.043  10.055  70.017  1.00  0.00    -0.350 A  
HETATM   22  C   UNL     1      -9.173   8.620  71.514  1.00  0.00    -0.316 A  
HETATM   23  F   UNL     1     -13.731  10.024  70.718  1.00  0.00    -0.414 F  
HETATM   24  F   UNL     1     -13.450   8.022  71.517  1.00  0.00    -0.328 F  
HETATM   25  F   UNL     1     -13.121   9.757  72.787  1.00  0.00    -0.362 F  
HETATM   26  C   UNL     1     -10.525   8.583  71.864  1.00  0.00    -0.387 A  
HETATM   27  C   UNL     1      -8.758   9.378  70.422  1.00  0.00    -0.278 A  
ENDBRANCH  17  18
ENDBRANCH  16  17
ENDBRANCH  15  16
ENDBRANCH  13  15
ENDBRANCH   2  13
TORSDOF 6
ENDMDL
MODEL       63
REMARK 921   NORMALIZED FREE ENERGY PREDICTED BY IDOCK:   -5.38 KCAL/MOL
REMARK 922        TOTAL FREE ENERGY PREDICTED BY IDOCK:  -10.39 KCAL/MOL
REMARK 923 INTER-LIGAND FREE ENERGY PREDICTED BY IDOCK:   -6.87 KCAL/MOL
REMARK 924 INTRA-LIGAND FREE ENERGY PREDICTED BY IDOCK:   -3.52 KCAL/MOL
REMARK 927      BINDING AFFINITY PREDICTED BY RF-SCORE:    0.00 PKD
ROOT
HETATM    1  C   UNL     1      -8.997   7.982  66.697  1.00  0.00    -0.179 C  
HETATM    2  C   UNL     1      -8.581   9.206  65.862  1.00  0.00    -0.151 C  
ENDROOT
BRANCH   2   3
HETATM    3  C   UNL     1      -8.457  10.502  66.667  1.00  0.00    -0.129 A  
HETATM    4  C   UNL     1     -11.910  11.036  68.144  1.00  0.00    -0.195 A  
HETATM    5  C   UNL     1      -7.230  11.196  66.680  1.00  0.00    -0.144 A  
HETATM    6  C   UNL     1     -11.765  12.307  68.676  1.00  0.00    -0.377 A  
HETATM    7  C   UNL     1     -10.827  10.416  67.514  1.00  0.00    -0.358 A  
HETATM    8  C   UNL     1     -10.527  12.942  68.613  1.00  0.00    -0.231 A  
HETATM    9  C   UNL     1      -7.095  12.419  67.329  1.00  0.00    -0.128 A  
HETATM   10  C   UNL     1      -8.193  12.988  67.960  1.00  0.00    -0.161 A  
HETATM   11  C   UNL     1      -9.569  11.053  67.379  1.00  0.00    -0.180 A  
HETATM   12  C   UNL     1      -9.428  12.330  67.987  1.00  0.00    -0.206 A  
ENDBRANCH   2   3
BRANCH   2  13
HETATM   13  N   UNL     1      -9.374   9.352  64.628  1.00  0.00    -0.433 NA 
HETATM   14  H   UNL     1     -10.274   9.788  64.833  1.00  0.00     0.000 HD 
BRANCH  13  15
HETATM   15  C   UNL     1      -8.695  10.069  63.555  1.00  0.00    -0.222 C  
BRANCH  15  16
HETATM   16  C   UNL     1      -9.286  11.468  63.389  1.00  0.00    -0.191 C  
BRANCH  16  17
HETATM   17  C   UNL     1     -10.809  11.414  63.542  1.00  0.00    -0.430 C  
BRANCH  17  18
HETATM   18  C   UNL     1     -11.318  12.579  64.347  1.00  0.00    -0.395 A  
HETATM   19  C   UNL     1     -10.893  14.654  65.555  1.00  0.00    -0.352 A  
HETATM   20  C   UNL     1      -9.947  15.731  66.024  1.00  0.00    -0.332 C  
HETATM   21  C   UNL     1     -10.440  13.594  64.753  1.00  0.00    -0.436 A  
HETATM   22  C   UNL     1     -13.120  13.683  65.532  1.00  0.00    -0.162 A  
HETATM   23  F   UNL     1      -8.668  15.569  65.580  1.00  0.00    -0.225 F  
HETATM   24  F   UNL     1     -10.326  16.974  65.616  1.00  0.00    -0.331 F  
HETATM   25  F   UNL     1      -9.862  15.794  67.383  1.00  0.00    -0.225 F  
HETATM   26  C   UNL     1     -12.242  14.690  65.937  1.00  0.00    -0.165 A  
HETATM   27  C   UNL     1     -12.657  12.632  64.744  1.00  0.00    -0.530 A  
ENDBRANCH  17  18
ENDBRANCH  16  17
ENDBRANCH  15  16
ENDBRANCH  13  15
ENDBRANCH   2  13
TORSDOF 6
ENDMDL
MODEL       64
REMARK 921   NORMALIZED FREE ENERGY PREDICTED BY IDOCK:   -5.37 KCAL/MOL
REMARK 922        TOTAL FREE ENERGY PREDICTED BY IDOCK:  -10.38 KCAL/MOL
REMARK 923 INTER-LIGAND FREE ENERGY PREDICTED BY IDOCK:   -8.65 KCAL/MOL
REMARK 924 INTRA-LIGAND FREE ENERGY PREDICTED BY IDOCK:   -1.73 KCAL/MOL
REMARK 927      BINDING AFFINITY PREDICTED BY RF-SCORE:    0.00 PKD
ROOT
HETATM    1  C   UNL     1     -11.761  13.187  67.294  1.00  0.00    -0.425 C  
HETATM    2  C   UNL     1     -11.013  12.554  68.481  1.00  0.00    -0.249 C  
ENDROOT
BRANCH   2   3
HETATM    3  C   UNL     1     -11.908  12.214  69.677  1.00  0.00    -0.391 A  
HETATM    4  C   UNL     1     -12.876  15.584  71.124  1.00  0.00    -0.551 A  
HETATM    5  C   UNL     1     -12.150  10.863  70.000  1.00  0.00    -0.433 A  
HETATM    6  C   UNL     1     -13.502  15.187  72.295  1.00  0.00    -0.539 A  
HETATM    7  C   UNL     1     -12.379  14.622  70.239  1.00  0.00    -0.406 A  
HETATM    8  C   UNL     1     -13.666  13.829  72.561  1.00  0.00    -0.667 A  
HETATM    9  C   UNL     1     -12.887  10.508  71.125  1.00  0.00    -0.513 A  
HETATM   10  C   UNL     1     -13.379  11.497  71.967  1.00  0.00    -0.397 A  
HETATM   11  C   UNL     1     -12.476  13.235  70.502  1.00  0.00    -0.332 A  
HETATM   12  C   UNL     1     -13.177  12.852  71.678  1.00  0.00    -0.416 A  
ENDBRANCH   2   3
BRANCH   2  13
HETATM   13  N   UNL     1      -9.793  13.294  68.849  1.00  0.00    -0.426 NA 
HETATM   14  H   UNL     1      -9.681  13.312  69.862  1.00  0.00     0.000 HD 
BRANCH  13  15
HETATM   15  C   UNL     1      -8.575  12.806  68.211  1.00  0.00    -0.166 C  
BRANCH  15  16
HETATM   16  C   UNL     1      -8.693  11.314  67.906  1.00  0.00    -0.138 C  
BRANCH  16  17
HETATM   17  C   UNL     1      -8.111  10.496  69.062  1.00  0.00    -0.143 C  
BRANCH  17  18
HETATM   18  C   UNL     1      -9.050   9.395  69.478  1.00  0.00    -0.169 A  
HETATM   19  C   UNL     1     -10.041   8.018  71.229  1.00  0.00    -0.222 A  
HETATM   20  C   UNL     1     -10.195   7.652  72.684  1.00  0.00    -0.265 C  
HETATM   21  C   UNL     1      -9.214   9.081  70.835  1.00  0.00    -0.320 A  
HETATM   22  C   UNL     1     -10.554   7.588  68.893  1.00  0.00    -0.184 A  
HETATM   23  F   UNL     1      -9.486   8.454  73.528  1.00  0.00    -0.289 F  
HETATM   24  F   UNL     1     -11.489   7.722  73.107  1.00  0.00    -0.425 F  
HETATM   25  F   UNL     1      -9.784   6.381  72.948  1.00  0.00    -0.156 F  
HETATM   26  C   UNL     1     -10.711   7.277  70.245  1.00  0.00    -0.252 A  
HETATM   27  C   UNL     1      -9.724   8.640  68.514  1.00  0.00    -0.174 A  
ENDBRANCH  17  18
ENDBRANCH  16  17
ENDBRANCH  15  16
ENDBRANCH  13  15
ENDBRANCH   2  13
TORSDOF 6
ENDMDL
MODEL       65
REMARK 921   NORMALIZED FREE ENERGY PREDICTED BY IDOCK:   -5.33 KCAL/MOL
REMARK 922        TOTAL FREE ENERGY PREDICTED BY IDOCK:  -10.33 KCAL/MOL
REMARK 923 INTER-LIGAND FREE ENERGY PREDICTED BY IDOCK:   -9.07 KCAL/MOL
REMARK 924 INTRA-LIGAND FREE ENERGY PREDICTED BY IDOCK:   -1.26 KCAL/MOL
REMARK 927      BINDING AFFINITY PREDICTED BY RF-SCORE:    0.00 PKD
ROOT
HETATM    1  C   UNL     1     -14.087   7.006  71.581  1.00  0.00    -0.404 C  
HETATM    2  C   UNL     1     -12.646   7.500  71.364  1.00  0.00    -0.351 C  
ENDROOT
BRANCH   2   3
HETATM    3  C   UNL     1     -11.598   6.384  71.334  1.00  0.00    -0.368 A  
HETATM    4  C   UNL     1     -10.746   5.980  67.660  1.00  0.00    -0.377 A  
HETATM    5  C   UNL     1     -11.213   5.762  72.539  1.00  0.00    -0.347 A  
HETATM    6  C   UNL     1      -9.962   4.838  67.705  1.00  0.00    -0.178 A  
HETATM    7  C   UNL     1     -11.261   6.520  68.843  1.00  0.00    -0.341 A  
HETATM    8  C   UNL     1      -9.660   4.260  68.936  1.00  0.00    -0.227 A  
HETATM    9  C   UNL     1     -10.328   4.689  72.551  1.00  0.00    -0.259 A  
HETATM   10  C   UNL     1      -9.825   4.198  71.353  1.00  0.00    -0.254 A  
HETATM   11  C   UNL     1     -11.024   5.927  70.106  1.00  0.00    -0.412 A  
HETATM   12  C   UNL     1     -10.166   4.793  70.132  1.00  0.00    -0.259 A  
ENDBRANCH   2   3
BRANCH   2  13
HETATM   13  N   UNL     1     -12.287   8.622  72.248  1.00  0.00    -0.379 NA 
HETATM   14  H   UNL     1     -11.316   8.898  72.097  1.00  0.00     0.000 HD 
BRANCH  13  15
HETATM   15  C   UNL     1     -13.166   9.782  72.142  1.00  0.00    -0.436 C  
BRANCH  15  16
HETATM   16  C   UNL     1     -13.138  10.344  70.722  1.00  0.00    -0.362 C  
BRANCH  16  17
HETATM   17  C   UNL     1     -11.850  11.143  70.501  1.00  0.00    -0.448 C  
BRANCH  17  18
HETATM   18  C   UNL     1     -11.454  11.147  69.049  1.00  0.00    -0.364 A  
HETATM   19  C   UNL     1     -11.534  12.184  66.844  1.00  0.00    -0.414 A  
HETATM   20  C   UNL     1     -11.985  13.296  65.931  1.00  0.00    -0.419 C  
HETATM   21  C   UNL     1     -11.848  12.201  68.212  1.00  0.00    -0.361 A  
HETATM   22  C   UNL     1     -10.411  10.052  67.156  1.00  0.00    -0.300 A  
HETATM   23  F   UNL     1     -12.681  14.280  66.568  1.00  0.00    -0.467 F  
HETATM   24  F   UNL     1     -10.943  13.921  65.313  1.00  0.00    -0.298 F  
HETATM   25  F   UNL     1     -12.800  12.853  64.933  1.00  0.00    -0.512 F  
HETATM   26  C   UNL     1     -10.809  11.101  66.326  1.00  0.00    -0.266 A  
HETATM   27  C   UNL     1     -10.736  10.075  68.510  1.00  0.00    -0.264 A  
ENDBRANCH  17  18
ENDBRANCH  16  17
ENDBRANCH  15  16
ENDBRANCH  13  15
ENDBRANCH   2  13
TORSDOF 6
ENDMDL
MODEL       66
REMARK 921   NORMALIZED FREE ENERGY PREDICTED BY IDOCK:   -5.33 KCAL/MOL
REMARK 922        TOTAL FREE ENERGY PREDICTED BY IDOCK:  -10.33 KCAL/MOL
REMARK 923 INTER-LIGAND FREE ENERGY PREDICTED BY IDOCK:   -7.25 KCAL/MOL
REMARK 924 INTRA-LIGAND FREE ENERGY PREDICTED BY IDOCK:   -3.08 KCAL/MOL
REMARK 927      BINDING AFFINITY PREDICTED BY RF-SCORE:    0.00 PKD
ROOT
HETATM    1  C   UNL     1      -8.685   7.574  71.334  1.00  0.00    -0.129 C  
HETATM    2  C   UNL     1      -9.929   8.231  70.711  1.00  0.00    -0.190 C  
ENDROOT
BRANCH   2   3
HETATM    3  C   UNL     1      -9.833   8.450  69.199  1.00  0.00    -0.183 A  
HETATM    4  C   UNL     1      -7.673  11.545  68.824  1.00  0.00    -0.124 A  
HETATM    5  C   UNL     1     -10.516   7.578  68.327  1.00  0.00    -0.223 A  
HETATM    6  C   UNL     1      -7.804  11.784  67.465  1.00  0.00    -0.148 A  
HETATM    7  C   UNL     1      -8.302  10.438  69.401  1.00  0.00    -0.152 A  
HETATM    8  C   UNL     1      -8.531  10.893  66.678  1.00  0.00    -0.151 A  
HETATM    9  C   UNL     1     -10.525   7.787  66.952  1.00  0.00    -0.388 A  
HETATM   10  C   UNL     1      -9.870   8.889  66.418  1.00  0.00    -0.353 A  
HETATM   11  C   UNL     1      -9.097   9.544  68.644  1.00  0.00    -0.132 A  
HETATM   12  C   UNL     1      -9.165   9.775  67.244  1.00  0.00    -0.153 A  
ENDBRANCH   2   3
BRANCH   2  13
HETATM   13  N   UNL     1     -10.378   9.423  71.452  1.00  0.00    -0.310 NA 
HETATM   14  H   UNL     1      -9.743  10.205  71.286  1.00  0.00     0.000 HD 
BRANCH  13  15
HETATM   15  C   UNL     1     -11.755   9.821  71.180  1.00  0.00    -0.385 C  
BRANCH  15  16
HETATM   16  C   UNL     1     -11.794  11.212  70.549  1.00  0.00    -0.448 C  
BRANCH  16  17
HETATM   17  C   UNL     1     -12.140  11.102  69.062  1.00  0.00    -0.315 C  
BRANCH  17  18
HETATM   18  C   UNL     1     -11.619  12.286  68.292  1.00  0.00    -0.385 A  
HETATM   19  C   UNL     1     -11.260  13.429  66.169  1.00  0.00    -0.311 A  
HETATM   20  C   UNL     1     -11.415  13.496  64.670  1.00  0.00    -0.358 C  
HETATM   21  C   UNL     1     -11.794  12.359  66.903  1.00  0.00    -0.377 A  
HETATM   22  C   UNL     1     -10.379  14.367  68.230  1.00  0.00    -0.239 A  
HETATM   23  F   UNL     1     -12.120  12.454  64.145  1.00  0.00    -0.412 F  
HETATM   24  F   UNL     1     -12.061  14.623  64.261  1.00  0.00    -0.448 F  
HETATM   25  F   UNL     1     -10.217  13.496  64.022  1.00  0.00    -0.412 F  
HETATM   26  C   UNL     1     -10.554  14.433  66.847  1.00  0.00    -0.278 A  
HETATM   27  C   UNL     1     -10.907  13.296  68.947  1.00  0.00    -0.245 A  
ENDBRANCH  17  18
ENDBRANCH  16  17
ENDBRANCH  15  16
ENDBRANCH  13  15
ENDBRANCH   2  13
TORSDOF 6
ENDMDL
MODEL       67
REMARK 921   NORMALIZED FREE ENERGY PREDICTED BY IDOCK:   -5.30 KCAL/MOL
REMARK 922        TOTAL FREE ENERGY PREDICTED BY IDOCK:  -10.29 KCAL/MOL
REMARK 923 INTER-LIGAND FREE ENERGY PREDICTED BY IDOCK:   -7.90 KCAL/MOL
REMARK 924 INTRA-LIGAND FREE ENERGY PREDICTED BY IDOCK:   -2.39 KCAL/MOL
REMARK 927      BINDING AFFINITY PREDICTED BY RF-SCORE:    0.00 PKD
ROOT
HETATM    1  C   UNL     1      -9.849   6.558  72.398  1.00  0.00    -0.169 C  
HETATM    2  C   UNL     1     -11.053   6.962  71.530  1.00  0.00    -0.244 C  
ENDROOT
BRANCH   2   3
HETATM    3  C   UNL     1     -10.720   7.163  70.048  1.00  0.00    -0.268 A  
HETATM    4  C   UNL     1      -8.297  10.081  70.009  1.00  0.00    -0.137 A  
HETATM    5  C   UNL     1     -11.333   6.340  69.082  1.00  0.00    -0.358 A  
HETATM    6  C   UNL     1      -8.209  10.320  68.646  1.00  0.00    -0.116 A  
HETATM    7  C   UNL     1      -9.087   9.029  70.482  1.00  0.00    -0.259 A  
HETATM    8  C   UNL     1      -8.879   9.483  67.757  1.00  0.00    -0.119 A  
HETATM    9  C   UNL     1     -11.124   6.540  67.721  1.00  0.00    -0.366 A  
HETATM   10  C   UNL     1     -10.315   7.585  67.295  1.00  0.00    -0.366 A  
HETATM   11  C   UNL     1      -9.828   8.194  69.613  1.00  0.00    -0.184 A  
HETATM   12  C   UNL     1      -9.672   8.419  68.219  1.00  0.00    -0.170 A  
ENDBRANCH   2   3
BRANCH   2  13
HETATM   13  N   UNL     1     -11.833   8.068  72.113  1.00  0.00    -0.327 NA 
HETATM   14  H   UNL     1     -11.325   8.948  72.022  1.00  0.00     0.000 HD 
BRANCH  13  15
HETATM   15  C   UNL     1     -13.184   8.203  71.578  1.00  0.00    -0.284 C  
BRANCH  15  16
HETATM   16  C   UNL     1     -13.434   9.637  71.114  1.00  0.00    -0.292 C  
BRANCH  16  17
HETATM   17  C   UNL     1     -12.178  10.484  71.334  1.00  0.00    -0.429 C  
BRANCH  17  18
HETATM   18  C   UNL     1     -12.120  11.635  70.366  1.00  0.00    -0.462 A  
HETATM   19  C   UNL     1     -11.723  12.478  68.113  1.00  0.00    -0.400 A  
HETATM   20  C   UNL     1     -11.385  12.241  66.663  1.00  0.00    -0.343 C  
HETATM   21  C   UNL     1     -11.838  11.406  69.012  1.00  0.00    -0.415 A  
HETATM   22  C   UNL     1     -12.191  14.018  69.934  1.00  0.00    -0.399 A  
HETATM   23  F   UNL     1     -11.233  10.924  66.343  1.00  0.00    -0.271 F  
HETATM   24  F   UNL     1     -12.341  12.719  65.818  1.00  0.00    -0.474 F  
HETATM   25  F   UNL     1     -10.223  12.848  66.293  1.00  0.00    -0.254 F  
HETATM   26  C   UNL     1     -11.905  13.785  68.587  1.00  0.00    -0.409 A  
HETATM   27  C   UNL     1     -12.294  12.947  70.818  1.00  0.00    -0.385 A  
ENDBRANCH  17  18
ENDBRANCH  16  17
ENDBRANCH  15  16
ENDBRANCH  13  15
ENDBRANCH   2  13
TORSDOF 6
ENDMDL
MODEL       68
REMARK 921   NORMALIZED FREE ENERGY PREDICTED BY IDOCK:   -5.29 KCAL/MOL
REMARK 922        TOTAL FREE ENERGY PREDICTED BY IDOCK:  -10.27 KCAL/MOL
REMARK 923 INTER-LIGAND FREE ENERGY PREDICTED BY IDOCK:   -6.47 KCAL/MOL
REMARK 924 INTRA-LIGAND FREE ENERGY PREDICTED BY IDOCK:   -3.81 KCAL/MOL
REMARK 927      BINDING AFFINITY PREDICTED BY RF-SCORE:    0.00 PKD
ROOT
HETATM    1  C   UNL     1     -14.217   6.895  71.651  1.00  0.00    -0.352 C  
HETATM    2  C   UNL     1     -12.798   7.456  71.449  1.00  0.00    -0.365 C  
ENDROOT
BRANCH   2   3
HETATM    3  C   UNL     1     -11.693   6.397  71.498  1.00  0.00    -0.369 A  
HETATM    4  C   UNL     1     -10.686   5.908  67.874  1.00  0.00    -0.336 A  
HETATM    5  C   UNL     1     -11.320   5.840  72.739  1.00  0.00    -0.328 A  
HETATM    6  C   UNL     1      -9.845   4.812  67.989  1.00  0.00    -0.185 A  
HETATM    7  C   UNL     1     -11.271   6.461  69.017  1.00  0.00    -0.402 A  
HETATM    8  C   UNL     1      -9.559   4.295  69.251  1.00  0.00    -0.261 A  
HETATM    9  C   UNL     1     -10.381   4.818  72.822  1.00  0.00    -0.244 A  
HETATM   10  C   UNL     1      -9.809   4.312  71.662  1.00  0.00    -0.257 A  
HETATM   11  C   UNL     1     -11.050   5.927  70.309  1.00  0.00    -0.368 A  
HETATM   12  C   UNL     1     -10.136   4.844  70.408  1.00  0.00    -0.316 A  
ENDBRANCH   2   3
BRANCH   2  13
HETATM   13  N   UNL     1     -12.524   8.634  72.290  1.00  0.00    -0.389 NA 
HETATM   14  H   UNL     1     -11.719   8.461  72.892  1.00  0.00     0.000 HD 
BRANCH  13  15
HETATM   15  C   UNL     1     -12.346   9.878  71.548  1.00  0.00    -0.412 C  
BRANCH  15  16
HETATM   16  C   UNL     1     -11.629   9.613  70.226  1.00  0.00    -0.255 C  
BRANCH  16  17
HETATM   17  C   UNL     1     -10.201  10.163  70.286  1.00  0.00    -0.180 C  
BRANCH  17  18
HETATM   18  C   UNL     1      -9.204   9.065  70.544  1.00  0.00    -0.261 A  
HETATM   19  C   UNL     1      -7.905   7.722  72.109  1.00  0.00    -0.122 A  
HETATM   20  C   UNL     1      -7.523   7.350  73.520  1.00  0.00    -0.095 C  
HETATM   21  C   UNL     1      -8.877   8.702  71.858  1.00  0.00    -0.275 A  
HETATM   22  C   UNL     1      -7.595   7.456  69.713  1.00  0.00    -0.095 A  
HETATM   23  F   UNL     1      -8.217   8.034  74.473  1.00  0.00    -0.239 F  
HETATM   24  F   UNL     1      -7.729   6.030  73.788  1.00  0.00    -0.094 F  
HETATM   25  F   UNL     1      -6.206   7.584  73.782  1.00  0.00    -0.065 F  
HETATM   26  C   UNL     1      -7.270   7.100  71.024  1.00  0.00    -0.074 A  
HETATM   27  C   UNL     1      -8.555   8.437  69.477  1.00  0.00    -0.129 A  
ENDBRANCH  17  18
ENDBRANCH  16  17
ENDBRANCH  15  16
ENDBRANCH  13  15
ENDBRANCH   2  13
TORSDOF 6
ENDMDL
MODEL       69
REMARK 921   NORMALIZED FREE ENERGY PREDICTED BY IDOCK:   -5.28 KCAL/MOL
REMARK 922        TOTAL FREE ENERGY PREDICTED BY IDOCK:  -10.26 KCAL/MOL
REMARK 923 INTER-LIGAND FREE ENERGY PREDICTED BY IDOCK:   -8.22 KCAL/MOL
REMARK 924 INTRA-LIGAND FREE ENERGY PREDICTED BY IDOCK:   -2.04 KCAL/MOL
REMARK 927      BINDING AFFINITY PREDICTED BY RF-SCORE:    0.00 PKD
ROOT
HETATM    1  C   UNL     1     -11.907   6.517  70.228  1.00  0.00    -0.361 C  
HETATM    2  C   UNL     1     -11.914   7.647  71.272  1.00  0.00    -0.306 C  
ENDROOT
BRANCH   2   3
HETATM    3  C   UNL     1     -10.577   7.841  71.995  1.00  0.00    -0.279 A  
HETATM    4  C   UNL     1      -8.462   9.835  69.558  1.00  0.00    -0.176 A  
HETATM    5  C   UNL     1     -10.392   7.277  73.274  1.00  0.00    -0.389 A  
HETATM    6  C   UNL     1      -7.231   9.790  70.195  1.00  0.00    -0.146 A  
HETATM    7  C   UNL     1      -9.575   9.232  70.151  1.00  0.00    -0.254 A  
HETATM    8  C   UNL     1      -7.124   9.177  71.441  1.00  0.00    -0.025 A  
HETATM    9  C   UNL     1      -9.169   7.357  73.932  1.00  0.00    -0.312 A  
HETATM   10  C   UNL     1      -8.095   7.983  73.314  1.00  0.00    -0.240 A  
HETATM   11  C   UNL     1      -9.493   8.550  71.389  1.00  0.00    -0.279 A  
HETATM   12  C   UNL     1      -8.235   8.571  72.051  1.00  0.00    -0.192 A  
ENDBRANCH   2   3
BRANCH   2  13
HETATM   13  N   UNL     1     -13.071   7.578  72.182  1.00  0.00    -0.510 NA 
HETATM   14  H   UNL     1     -12.809   7.122  73.056  1.00  0.00     0.000 HD 
BRANCH  13  15
HETATM   15  C   UNL     1     -13.706   8.864  72.450  1.00  0.00    -0.454 C  
BRANCH  15  16
HETATM   16  C   UNL     1     -13.535   9.803  71.258  1.00  0.00    -0.362 C  
BRANCH  16  17
HETATM   17  C   UNL     1     -12.970  11.146  71.726  1.00  0.00    -0.526 C  
BRANCH  17  18
HETATM   18  C   UNL     1     -12.469  11.962  70.565  1.00  0.00    -0.301 A  
HETATM   19  C   UNL     1     -11.507  12.076  68.327  1.00  0.00    -0.361 A  
HETATM   20  C   UNL     1     -11.004  11.399  67.077  1.00  0.00    -0.292 C  
HETATM   21  C   UNL     1     -12.032  11.329  69.393  1.00  0.00    -0.410 A  
HETATM   22  C   UNL     1     -11.871  14.108  69.610  1.00  0.00    -0.379 A  
HETATM   23  F   UNL     1     -11.134  10.042  67.099  1.00  0.00    -0.321 F  
HETATM   24  F   UNL     1     -11.658  11.815  65.957  1.00  0.00    -0.387 F  
HETATM   25  F   UNL     1      -9.683  11.641  66.849  1.00  0.00    -0.190 F  
HETATM   26  C   UNL     1     -11.435  13.472  68.447  1.00  0.00    -0.346 A  
HETATM   27  C   UNL     1     -12.382  13.354  70.664  1.00  0.00    -0.423 A  
ENDBRANCH  17  18
ENDBRANCH  16  17
ENDBRANCH  15  16
ENDBRANCH  13  15
ENDBRANCH   2  13
TORSDOF 6
ENDMDL
MODEL       70
REMARK 921   NORMALIZED FREE ENERGY PREDICTED BY IDOCK:   -5.27 KCAL/MOL
REMARK 922        TOTAL FREE ENERGY PREDICTED BY IDOCK:  -10.25 KCAL/MOL
REMARK 923 INTER-LIGAND FREE ENERGY PREDICTED BY IDOCK:   -8.68 KCAL/MOL
REMARK 924 INTRA-LIGAND FREE ENERGY PREDICTED BY IDOCK:   -1.57 KCAL/MOL
REMARK 927      BINDING AFFINITY PREDICTED BY RF-SCORE:    0.00 PKD
ROOT
HETATM    1  C   UNL     1      -8.798   7.973  71.976  1.00  0.00    -0.209 C  
HETATM    2  C   UNL     1     -10.255   7.873  71.491  1.00  0.00    -0.190 C  
ENDROOT
BRANCH   2   3
HETATM    3  C   UNL     1     -10.400   7.665  69.981  1.00  0.00    -0.223 A  
HETATM    4  C   UNL     1      -9.609  11.055  68.475  1.00  0.00    -0.187 A  
HETATM    5  C   UNL     1     -10.790   6.402  69.489  1.00  0.00    -0.381 A  
HETATM    6  C   UNL     1      -9.956  10.832  67.151  1.00  0.00    -0.230 A  
HETATM    7  C   UNL     1      -9.715  10.018  69.407  1.00  0.00    -0.240 A  
HETATM    8  C   UNL     1     -10.371   9.563  66.754  1.00  0.00    -0.298 A  
HETATM    9  C   UNL     1     -11.015   6.189  68.133  1.00  0.00    -0.398 A  
HETATM   10  C   UNL     1     -10.878   7.243  67.239  1.00  0.00    -0.354 A  
HETATM   11  C   UNL     1     -10.188   8.732  69.052  1.00  0.00    -0.218 A  
HETATM   12  C   UNL     1     -10.478   8.511  67.678  1.00  0.00    -0.308 A  
ENDBRANCH   2   3
BRANCH   2  13
HETATM   13  N   UNL     1     -11.110   8.950  72.022  1.00  0.00    -0.371 NA 
HETATM   14  H   UNL     1     -11.073   9.766  71.411  1.00  0.00     0.000 HD 
BRANCH  13  15
HETATM   15  C   UNL     1     -12.494   8.558  72.265  1.00  0.00    -0.387 C  
BRANCH  15  16
HETATM   16  C   UNL     1     -13.431   9.745  72.046  1.00  0.00    -0.498 C  
BRANCH  16  17
HETATM   17  C   UNL     1     -13.030  10.501  70.776  1.00  0.00    -0.413 C  
BRANCH  17  18
HETATM   18  C   UNL     1     -12.903  11.978  71.038  1.00  0.00    -0.279 A  
HETATM   19  C   UNL     1     -11.966  14.150  70.451  1.00  0.00    -0.400 A  
HETATM   20  C   UNL     1     -11.119  15.017  69.553  1.00  0.00    -0.277 C  
HETATM   21  C   UNL     1     -12.140  12.784  70.181  1.00  0.00    -0.370 A  
HETATM   22  C   UNL     1     -13.339  13.905  72.441  1.00  0.00    -0.629 A  
HETATM   23  F   UNL     1     -10.587  14.348  68.490  1.00  0.00    -0.228 F  
HETATM   24  F   UNL     1     -11.816  16.060  69.022  1.00  0.00    -0.356 F  
HETATM   25  F   UNL     1     -10.061  15.570  70.209  1.00  0.00    -0.305 F  
HETATM   26  C   UNL     1     -12.576  14.703  71.586  1.00  0.00    -0.403 A  
HETATM   27  C   UNL     1     -13.497  12.548  72.168  1.00  0.00    -0.523 A  
ENDBRANCH  17  18
ENDBRANCH  16  17
ENDBRANCH  15  16
ENDBRANCH  13  15
ENDBRANCH   2  13
TORSDOF 6
ENDMDL
MODEL       71
REMARK 921   NORMALIZED FREE ENERGY PREDICTED BY IDOCK:   -5.27 KCAL/MOL
REMARK 922        TOTAL FREE ENERGY PREDICTED BY IDOCK:  -10.25 KCAL/MOL
REMARK 923 INTER-LIGAND FREE ENERGY PREDICTED BY IDOCK:   -8.53 KCAL/MOL
REMARK 924 INTRA-LIGAND FREE ENERGY PREDICTED BY IDOCK:   -1.72 KCAL/MOL
REMARK 927      BINDING AFFINITY PREDICTED BY RF-SCORE:    0.00 PKD
ROOT
HETATM    1  C   UNL     1      -8.711   9.213  67.368  1.00  0.00    -0.118 C  
HETATM    2  C   UNL     1     -10.105   9.428  66.751  1.00  0.00    -0.256 C  
ENDROOT
BRANCH   2   3
HETATM    3  C   UNL     1     -10.834  10.672  67.267  1.00  0.00    -0.345 A  
HETATM    4  C   UNL     1     -11.322  12.831  64.188  1.00  0.00    -0.442 A  
HETATM    5  C   UNL     1     -11.125  10.784  68.642  1.00  0.00    -0.312 A  
HETATM    6  C   UNL     1     -11.795  13.998  64.768  1.00  0.00    -0.415 A  
HETATM    7  C   UNL     1     -11.036  11.721  64.988  1.00  0.00    -0.343 A  
HETATM    8  C   UNL     1     -12.019  14.041  66.142  1.00  0.00    -0.440 A  
HETATM    9  C   UNL     1     -11.710  11.931  69.168  1.00  0.00    -0.380 A  
HETATM   10  C   UNL     1     -11.997  13.003  68.333  1.00  0.00    -0.309 A  
HETATM   11  C   UNL     1     -11.196  11.746  66.394  1.00  0.00    -0.382 A  
HETATM   12  C   UNL     1     -11.740  12.931  66.958  1.00  0.00    -0.447 A  
ENDBRANCH   2   3
BRANCH   2  13
HETATM   13  N   UNL     1     -10.933   8.209  66.770  1.00  0.00    -0.241 NA 
HETATM   14  H   UNL     1     -11.322   8.029  65.844  1.00  0.00     0.000 HD 
BRANCH  13  15
HETATM   15  C   UNL     1     -10.250   7.022  67.273  1.00  0.00    -0.234 C  
BRANCH  15  16
HETATM   16  C   UNL     1     -11.133   6.284  68.277  1.00  0.00    -0.364 C  
BRANCH  16  17
HETATM   17  C   UNL     1     -10.291   5.806  69.463  1.00  0.00    -0.333 C  
BRANCH  17  18
HETATM   18  C   UNL     1     -10.631   6.568  70.716  1.00  0.00    -0.278 A  
HETATM   19  C   UNL     1     -11.906   8.315  71.840  1.00  0.00    -0.380 A  
HETATM   20  C   UNL     1     -12.948   9.406  71.813  1.00  0.00    -0.402 C  
HETATM   21  C   UNL     1     -11.623   7.558  70.693  1.00  0.00    -0.272 A  
HETATM   22  C   UNL     1     -10.201   7.072  73.046  1.00  0.00    -0.264 A  
HETATM   23  F   UNL     1     -13.564   9.545  70.605  1.00  0.00    -0.241 F  
HETATM   24  F   UNL     1     -13.946   9.198  72.717  1.00  0.00    -0.471 F  
HETATM   25  F   UNL     1     -12.428  10.631  72.106  1.00  0.00    -0.387 F  
HETATM   26  C   UNL     1     -11.188   8.060  73.017  1.00  0.00    -0.279 A  
HETATM   27  C   UNL     1      -9.924   6.334  71.899  1.00  0.00    -0.193 A  
ENDBRANCH  17  18
ENDBRANCH  16  17
ENDBRANCH  15  16
ENDBRANCH  13  15
ENDBRANCH   2  13
TORSDOF 6
ENDMDL
MODEL       72
REMARK 921   NORMALIZED FREE ENERGY PREDICTED BY IDOCK:   -5.25 KCAL/MOL
REMARK 922        TOTAL FREE ENERGY PREDICTED BY IDOCK:  -10.22 KCAL/MOL
REMARK 923 INTER-LIGAND FREE ENERGY PREDICTED BY IDOCK:   -8.87 KCAL/MOL
REMARK 924 INTRA-LIGAND FREE ENERGY PREDICTED BY IDOCK:   -1.35 KCAL/MOL
REMARK 927      BINDING AFFINITY PREDICTED BY RF-SCORE:    0.00 PKD
ROOT
HETATM    1  C   UNL     1     -10.777  16.077  68.082  1.00  0.00    -0.311 C  
HETATM    2  C   UNL     1     -10.392  14.587  68.089  1.00  0.00    -0.232 C  
ENDROOT
BRANCH   2   3
HETATM    3  C   UNL     1     -11.036  13.768  66.966  1.00  0.00    -0.313 A  
HETATM    4  C   UNL     1      -8.555  10.981  66.282  1.00  0.00    -0.167 A  
HETATM    5  C   UNL     1     -12.276  14.176  66.433  1.00  0.00    -0.473 A  
HETATM    6  C   UNL     1      -9.109  10.422  65.141  1.00  0.00    -0.232 A  
HETATM    7  C   UNL     1      -9.192  12.055  66.912  1.00  0.00    -0.197 A  
HETATM    8  C   UNL     1     -10.320  10.911  64.654  1.00  0.00    -0.407 A  
HETATM    9  C   UNL     1     -12.857  13.512  65.358  1.00  0.00    -0.420 A  
HETATM   10  C   UNL     1     -12.199  12.437  64.775  1.00  0.00    -0.493 A  
HETATM   11  C   UNL     1     -10.393  12.616  66.414  1.00  0.00    -0.264 A  
HETATM   12  C   UNL     1     -10.973  11.986  65.280  1.00  0.00    -0.356 A  
ENDBRANCH   2   3
BRANCH   2  13
HETATM   13  N   UNL     1     -10.524  13.968  69.420  1.00  0.00    -0.439 NA 
HETATM   14  H   UNL     1      -9.746  14.244  70.019  1.00  0.00     0.000 HD 
BRANCH  13  15
HETATM   15  C   UNL     1     -11.796  14.230  70.085  1.00  0.00    -0.312 C  
BRANCH  15  16
HETATM   16  C   UNL     1     -12.367  12.941  70.672  1.00  0.00    -0.385 C  
BRANCH  16  17
HETATM   17  C   UNL     1     -11.910  11.739  69.841  1.00  0.00    -0.423 C  
BRANCH  17  18
HETATM   18  C   UNL     1     -12.051  10.456  70.614  1.00  0.00    -0.443 A  
HETATM   19  C   UNL     1     -11.445   8.118  70.950  1.00  0.00    -0.288 A  
HETATM   20  C   UNL     1     -10.641   6.901  70.566  1.00  0.00    -0.220 C  
HETATM   21  C   UNL     1     -11.278   9.337  70.274  1.00  0.00    -0.267 A  
HETATM   22  C   UNL     1     -13.162   9.150  72.326  1.00  0.00    -0.528 A  
HETATM   23  F   UNL     1      -9.762   7.124  69.548  1.00  0.00    -0.157 F  
HETATM   24  F   UNL     1      -9.896   6.419  71.600  1.00  0.00    -0.170 F  
HETATM   25  F   UNL     1     -11.426   5.866  70.157  1.00  0.00    -0.421 F  
HETATM   26  C   UNL     1     -12.392   8.037  71.981  1.00  0.00    -0.366 A  
HETATM   27  C   UNL     1     -12.993  10.351  71.642  1.00  0.00    -0.581 A  
ENDBRANCH  17  18
ENDBRANCH  16  17
ENDBRANCH  15  16
ENDBRANCH  13  15
ENDBRANCH   2  13
TORSDOF 6
ENDMDL
MODEL       73
REMARK 921   NORMALIZED FREE ENERGY PREDICTED BY IDOCK:   -5.19 KCAL/MOL
REMARK 922        TOTAL FREE ENERGY PREDICTED BY IDOCK:  -10.14 KCAL/MOL
REMARK 923 INTER-LIGAND FREE ENERGY PREDICTED BY IDOCK:   -6.32 KCAL/MOL
REMARK 924 INTRA-LIGAND FREE ENERGY PREDICTED BY IDOCK:   -3.82 KCAL/MOL
REMARK 927      BINDING AFFINITY PREDICTED BY RF-SCORE:    0.00 PKD
ROOT
HETATM    1  C   UNL     1      -9.335   9.882  63.189  1.00  0.00    -0.217 C  
HETATM    2  C   UNL     1      -9.168  11.040  64.189  1.00  0.00    -0.151 C  
ENDROOT
BRANCH   2   3
HETATM    3  C   UNL     1      -9.302  10.625  65.657  1.00  0.00    -0.239 A  
HETATM    4  C   UNL     1      -7.235  13.177  67.556  1.00  0.00    -0.156 A  
HETATM    5  C   UNL     1     -10.056   9.481  65.988  1.00  0.00    -0.319 A  
HETATM    6  C   UNL     1      -7.244  12.618  68.824  1.00  0.00    -0.083 A  
HETATM    7  C   UNL     1      -7.933  12.556  66.516  1.00  0.00     0.332 A  
HETATM    8  C   UNL     1      -7.984  11.461  69.060  1.00  0.00    -0.026 A  
HETATM    9  C   UNL     1     -10.136   9.020  67.298  1.00  0.00    -0.297 A  
HETATM   10  C   UNL     1      -9.443   9.679  68.304  1.00  0.00    -0.145 A  
HETATM   11  C   UNL     1      -8.647  11.348  66.704  1.00  0.00    -0.170 A  
HETATM   12  C   UNL     1      -8.693  10.829  68.026  1.00  0.00    -0.132 A  
ENDBRANCH   2   3
BRANCH   2  13
HETATM   13  N   UNL     1      -9.974  12.222  63.835  1.00  0.00    -0.566 NA 
HETATM   14  H   UNL     1      -9.507  12.766  63.109  1.00  0.00     0.000 HD 
BRANCH  13  15
HETATM   15  C   UNL     1     -11.346  11.922  63.441  1.00  0.00    -0.374 C  
BRANCH  15  16
HETATM   16  C   UNL     1     -12.334  12.597  64.390  1.00  0.00    -0.523 C  
BRANCH  16  17
HETATM   17  C   UNL     1     -11.712  13.868  64.975  1.00  0.00    -0.365 C  
BRANCH  17  18
HETATM   18  C   UNL     1     -11.555  13.761  66.468  1.00  0.00    -0.386 A  
HETATM   19  C   UNL     1     -10.675  14.641  68.565  1.00  0.00    -0.248 A  
HETATM   20  C   UNL     1      -9.918  15.696  69.332  1.00  0.00    -0.279 C  
HETATM   21  C   UNL     1     -10.879  14.761  67.181  1.00  0.00    -0.311 A  
HETATM   22  C   UNL     1     -11.846  12.512  68.524  1.00  0.00    -0.341 A  
HETATM   23  F   UNL     1      -9.496  16.738  68.561  1.00  0.00    -0.214 F  
HETATM   24  F   UNL     1     -10.662  16.252  70.330  1.00  0.00    -0.300 F  
HETATM   25  F   UNL     1      -8.799  15.202  69.932  1.00  0.00    -0.200 F  
HETATM   26  C   UNL     1     -11.169  13.509  69.229  1.00  0.00    -0.285 A  
HETATM   27  C   UNL     1     -12.034  12.638  67.150  1.00  0.00    -0.326 A  
ENDBRANCH  17  18
ENDBRANCH  16  17
ENDBRANCH  15  16
ENDBRANCH  13  15
ENDBRANCH   2  13
TORSDOF 6
ENDMDL
MODEL       74
REMARK 921   NORMALIZED FREE ENERGY PREDICTED BY IDOCK:   -5.19 KCAL/MOL
REMARK 922        TOTAL FREE ENERGY PREDICTED BY IDOCK:  -10.14 KCAL/MOL
REMARK 923 INTER-LIGAND FREE ENERGY PREDICTED BY IDOCK:   -6.11 KCAL/MOL
REMARK 924 INTRA-LIGAND FREE ENERGY PREDICTED BY IDOCK:   -4.03 KCAL/MOL
REMARK 927      BINDING AFFINITY PREDICTED BY RF-SCORE:    0.00 PKD
ROOT
HETATM    1  C   UNL     1      -9.826   3.195  71.438  1.00  0.00    -0.178 C  
HETATM    2  C   UNL     1     -10.100   4.684  71.161  1.00  0.00    -0.173 C  
ENDROOT
BRANCH   2   3
HETATM    3  C   UNL     1      -9.038   5.365  70.292  1.00  0.00    -0.166 A  
HETATM    4  C   UNL     1     -11.018   7.112  67.569  1.00  0.00    -0.261 A  
HETATM    5  C   UNL     1      -7.674   5.206  70.612  1.00  0.00    -0.079 A  
HETATM    6  C   UNL     1      -9.992   7.522  66.732  1.00  0.00    -0.307 A  
HETATM    7  C   UNL     1     -10.721   6.436  68.756  1.00  0.00    -0.339 A  
HETATM    8  C   UNL     1      -8.669   7.291  67.102  1.00  0.00    -0.121 A  
HETATM    9  C   UNL     1      -6.674   5.736  69.805  1.00  0.00    -0.052 A  
HETATM   10  C   UNL     1      -7.014   6.420  68.644  1.00  0.00    -0.080 A  
HETATM   11  C   UNL     1      -9.392   6.131  69.137  1.00  0.00    -0.132 A  
HETATM   12  C   UNL     1      -8.356   6.616  68.294  1.00  0.00    -0.117 A  
ENDBRANCH   2   3
BRANCH   2  13
HETATM   13  N   UNL     1     -10.438   5.440  72.379  1.00  0.00    -0.209 NA 
HETATM   14  H   UNL     1      -9.678   6.073  72.628  1.00  0.00     0.000 HD 
BRANCH  13  15
HETATM   15  C   UNL     1     -11.702   6.167  72.308  1.00  0.00    -0.302 C  
BRANCH  15  16
HETATM   16  C   UNL     1     -11.500   7.628  72.704  1.00  0.00    -0.403 C  
BRANCH  16  17
HETATM   17  C   UNL     1     -10.007   7.968  72.706  1.00  0.00    -0.364 C  
BRANCH  17  18
HETATM   18  C   UNL     1      -9.643   8.832  71.529  1.00  0.00    -0.354 A  
HETATM   19  C   UNL     1     -10.320  10.227  69.647  1.00  0.00    -0.281 A  
HETATM   20  C   UNL     1     -11.396  10.884  68.819  1.00  0.00    -0.292 C  
HETATM   21  C   UNL     1     -10.645   9.468  70.782  1.00  0.00    -0.387 A  
HETATM   22  C   UNL     1      -7.972   9.723  70.018  1.00  0.00    -0.196 A  
HETATM   23  F   UNL     1     -12.657  10.679  69.296  1.00  0.00    -0.309 F  
HETATM   24  F   UNL     1     -11.245  12.236  68.744  1.00  0.00    -0.228 F  
HETATM   25  F   UNL     1     -11.409  10.437  67.533  1.00  0.00    -0.371 F  
HETATM   26  C   UNL     1      -8.974  10.351  69.275  1.00  0.00    -0.176 A  
HETATM   27  C   UNL     1      -8.308   8.965  71.137  1.00  0.00    -0.232 A  
ENDBRANCH  17  18
ENDBRANCH  16  17
ENDBRANCH  15  16
ENDBRANCH  13  15
ENDBRANCH   2  13
TORSDOF 6
ENDMDL
MODEL       75
REMARK 921   NORMALIZED FREE ENERGY PREDICTED BY IDOCK:   -5.19 KCAL/MOL
REMARK 922        TOTAL FREE ENERGY PREDICTED BY IDOCK:  -10.13 KCAL/MOL
REMARK 923 INTER-LIGAND FREE ENERGY PREDICTED BY IDOCK:   -8.46 KCAL/MOL
REMARK 924 INTRA-LIGAND FREE ENERGY PREDICTED BY IDOCK:   -1.68 KCAL/MOL
REMARK 927      BINDING AFFINITY PREDICTED BY RF-SCORE:    0.00 PKD
ROOT
HETATM    1  C   UNL     1      -7.979   8.283  69.811  1.00  0.00    -0.106 C  
HETATM    2  C   UNL     1      -9.316   8.675  69.157  1.00  0.00    -0.153 C  
ENDROOT
BRANCH   2   3
HETATM    3  C   UNL     1     -10.551   8.315  69.989  1.00  0.00    -0.235 A  
HETATM    4  C   UNL     1     -12.174  11.652  70.774  1.00  0.00    -0.443 A  
HETATM    5  C   UNL     1     -10.806   6.964  70.301  1.00  0.00    -0.294 A  
HETATM    6  C   UNL     1     -13.145  11.255  71.679  1.00  0.00    -0.513 A  
HETATM    7  C   UNL     1     -11.339  10.698  70.184  1.00  0.00    -0.402 A  
HETATM    8  C   UNL     1     -13.307   9.901  71.964  1.00  0.00    -0.532 A  
HETATM    9  C   UNL     1     -11.867   6.597  71.122  1.00  0.00    -0.414 A  
HETATM   10  C   UNL     1     -12.684   7.577  71.670  1.00  0.00    -0.385 A  
HETATM   11  C   UNL     1     -11.435   9.319  70.493  1.00  0.00    -0.296 A  
HETATM   12  C   UNL     1     -12.479   8.931  71.376  1.00  0.00    -0.357 A  
ENDBRANCH   2   3
BRANCH   2  13
HETATM   13  N   UNL     1      -9.410   8.252  67.749  1.00  0.00    -0.137 NA 
HETATM   14  H   UNL     1      -9.609   7.253  67.691  1.00  0.00     0.000 HD 
BRANCH  13  15
HETATM   15  C   UNL     1     -10.371   9.008  66.953  1.00  0.00    -0.254 C  
BRANCH  15  16
HETATM   16  C   UNL     1      -9.739   9.456  65.637  1.00  0.00    -0.336 C  
BRANCH  16  17
HETATM   17  C   UNL     1      -9.179  10.874  65.780  1.00  0.00    -0.224 C  
BRANCH  17  18
HETATM   18  C   UNL     1     -10.286  11.886  65.913  1.00  0.00    -0.270 A  
HETATM   19  C   UNL     1     -11.361  13.683  67.159  1.00  0.00    -0.340 A  
HETATM   20  C   UNL     1     -11.404  14.621  68.339  1.00  0.00    -0.292 C  
HETATM   21  C   UNL     1     -10.303  12.777  66.994  1.00  0.00    -0.240 A  
HETATM   22  C   UNL     1     -12.387  12.810  65.136  1.00  0.00    -0.555 A  
HETATM   23  F   UNL     1     -10.332  14.502  69.173  1.00  0.00    -0.226 F  
HETATM   24  F   UNL     1     -11.437  15.931  67.966  1.00  0.00    -0.343 F  
HETATM   25  F   UNL     1     -12.503  14.428  69.120  1.00  0.00    -0.314 F  
HETATM   26  C   UNL     1     -12.401  13.693  66.218  1.00  0.00    -0.464 A  
HETATM   27  C   UNL     1     -11.335  11.909  64.989  1.00  0.00    -0.333 A  
ENDBRANCH  17  18
ENDBRANCH  16  17
ENDBRANCH  15  16
ENDBRANCH  13  15
ENDBRANCH   2  13
TORSDOF 6
ENDMDL
MODEL       76
REMARK 921   NORMALIZED FREE ENERGY PREDICTED BY IDOCK:   -5.18 KCAL/MOL
REMARK 922        TOTAL FREE ENERGY PREDICTED BY IDOCK:  -10.13 KCAL/MOL
REMARK 923 INTER-LIGAND FREE ENERGY PREDICTED BY IDOCK:   -8.93 KCAL/MOL
REMARK 924 INTRA-LIGAND FREE ENERGY PREDICTED BY IDOCK:   -1.20 KCAL/MOL
REMARK 927      BINDING AFFINITY PREDICTED BY RF-SCORE:    0.00 PKD
ROOT
HETATM    1  C   UNL     1     -10.836   5.847  71.409  1.00  0.00    -0.332 C  
HETATM    2  C   UNL     1     -11.658   6.277  70.181  1.00  0.00    -0.315 C  
ENDROOT
BRANCH   2   3
HETATM    3  C   UNL     1     -10.811   6.699  68.976  1.00  0.00    -0.324 A  
HETATM    4  C   UNL     1      -8.928   9.768  70.167  1.00  0.00    -0.235 A  
HETATM    5  C   UNL     1     -10.905   5.969  67.773  1.00  0.00    -0.380 A  
HETATM    6  C   UNL     1      -8.357  10.193  68.978  1.00  0.00    -0.138 A  
HETATM    7  C   UNL     1      -9.705   8.607  70.191  1.00  0.00    -0.182 A  
HETATM    8  C   UNL     1      -8.530   9.435  67.823  1.00  0.00    -0.116 A  
HETATM    9  C   UNL     1     -10.219   6.364  66.630  1.00  0.00    -0.216 A  
HETATM   10  C   UNL     1      -9.441   7.515  66.657  1.00  0.00    -0.246 A  
HETATM   11  C   UNL     1      -9.953   7.842  69.026  1.00  0.00    -0.182 A  
HETATM   12  C   UNL     1      -9.305   8.263  67.833  1.00  0.00    -0.150 A  
ENDBRANCH   2   3
BRANCH   2  13
HETATM   13  N   UNL     1     -12.726   7.236  70.515  1.00  0.00    -0.528 NA 
HETATM   14  H   UNL     1     -13.605   6.954  70.080  1.00  0.00     0.000 HD 
BRANCH  13  15
HETATM   15  C   UNL     1     -12.914   7.457  71.944  1.00  0.00    -0.258 C  
BRANCH  15  16
HETATM   16  C   UNL     1     -12.427   8.850  72.338  1.00  0.00    -0.405 C  
BRANCH  16  17
HETATM   17  C   UNL     1     -13.532   9.880  72.088  1.00  0.00    -0.454 C  
BRANCH  17  18
HETATM   18  C   UNL     1     -12.987  11.110  71.412  1.00  0.00    -0.506 A  
HETATM   19  C   UNL     1     -12.777  13.537  71.300  1.00  0.00    -0.432 A  
HETATM   20  C   UNL     1     -13.063  14.908  71.860  1.00  0.00    -0.338 C  
HETATM   21  C   UNL     1     -13.229  12.380  71.955  1.00  0.00    -0.514 A  
HETATM   22  C   UNL     1     -11.822  12.141  69.555  1.00  0.00    -0.386 A  
HETATM   23  F   UNL     1     -13.761  14.886  73.031  1.00  0.00    -0.507 F  
HETATM   24  F   UNL     1     -11.928  15.615  72.119  1.00  0.00    -0.367 F  
HETATM   25  F   UNL     1     -13.796  15.676  71.007  1.00  0.00    -0.553 F  
HETATM   26  C   UNL     1     -12.069  13.404  70.097  1.00  0.00    -0.415 A  
HETATM   27  C   UNL     1     -12.284  11.002  70.209  1.00  0.00    -0.447 A  
ENDBRANCH  17  18
ENDBRANCH  16  17
ENDBRANCH  15  16
ENDBRANCH  13  15
ENDBRANCH   2  13
TORSDOF 6
ENDMDL
MODEL       77
REMARK 921   NORMALIZED FREE ENERGY PREDICTED BY IDOCK:   -5.16 KCAL/MOL
REMARK 922        TOTAL FREE ENERGY PREDICTED BY IDOCK:  -10.10 KCAL/MOL
REMARK 923 INTER-LIGAND FREE ENERGY PREDICTED BY IDOCK:   -9.78 KCAL/MOL
REMARK 924 INTRA-LIGAND FREE ENERGY PREDICTED BY IDOCK:   -0.32 KCAL/MOL
REMARK 927      BINDING AFFINITY PREDICTED BY RF-SCORE:    0.00 PKD
ROOT
HETATM    1  C   UNL     1     -10.720  12.677  68.759  1.00  0.00    -0.240 C  
HETATM    2  C   UNL     1     -11.995  13.122  68.020  1.00  0.00    -0.304 C  
ENDROOT
BRANCH   2   3
HETATM    3  C   UNL     1     -11.904  13.020  66.495  1.00  0.00    -0.464 A  
HETATM    4  C   UNL     1      -9.862   9.885  65.873  1.00  0.00    -0.342 A  
HETATM    5  C   UNL     1     -12.501  14.018  65.697  1.00  0.00    -0.531 A  
HETATM    6  C   UNL     1      -9.660   9.981  64.505  1.00  0.00    -0.346 A  
HETATM    7  C   UNL     1     -10.624  10.853  66.534  1.00  0.00    -0.295 A  
HETATM    8  C   UNL     1     -10.253  11.022  63.793  1.00  0.00    -0.425 A  
HETATM    9  C   UNL     1     -12.372  14.012  64.312  1.00  0.00    -0.393 A  
HETATM   10  C   UNL     1     -11.623  13.019  63.694  1.00  0.00    -0.507 A  
HETATM   11  C   UNL     1     -11.194  11.957  65.855  1.00  0.00    -0.373 A  
HETATM   12  C   UNL     1     -11.024  11.999  64.444  1.00  0.00    -0.385 A  
ENDBRANCH   2   3
BRANCH   2  13
HETATM   13  N   UNL     1     -12.508  14.419  68.495  1.00  0.00    -0.545 NA 
HETATM   14  H   UNL     1     -13.528  14.409  68.525  1.00  0.00     0.000 HD 
BRANCH  13  15
HETATM   15  C   UNL     1     -11.966  14.850  69.779  1.00  0.00    -0.323 C  
BRANCH  15  16
HETATM   16  C   UNL     1     -11.217  16.172  69.626  1.00  0.00    -0.331 C  
BRANCH  16  17
HETATM   17  C   UNL     1     -11.032  16.500  68.142  1.00  0.00    -0.336 C  
BRANCH  17  18
HETATM   18  C   UNL     1     -10.228  17.759  67.957  1.00  0.00    -0.377 A  
HETATM   19  C   UNL     1      -8.205  19.050  68.386  1.00  0.00    -0.382 A  
HETATM   20  C   UNL     1      -6.832  19.177  68.997  1.00  0.00    -0.328 C  
HETATM   21  C   UNL     1      -8.939  17.859  68.500  1.00  0.00    -0.291 A  
HETATM   22  C   UNL     1     -10.056  20.041  67.163  1.00  0.00    -0.587 A  
HETATM   23  F   UNL     1      -6.405  18.045  69.625  1.00  0.00    -0.242 F  
HETATM   24  F   UNL     1      -5.873  19.473  68.075  1.00  0.00    -0.203 F  
HETATM   25  F   UNL     1      -6.768  20.166  69.932  1.00  0.00    -0.377 F  
HETATM   26  C   UNL     1      -8.775  20.138  67.709  1.00  0.00    -0.332 A  
HETATM   27  C   UNL     1     -10.779  18.857  67.291  1.00  0.00    -0.523 A  
ENDBRANCH  17  18
ENDBRANCH  16  17
ENDBRANCH  15  16
ENDBRANCH  13  15
ENDBRANCH   2  13
TORSDOF 6
ENDMDL
MODEL       78
REMARK 921   NORMALIZED FREE ENERGY PREDICTED BY IDOCK:   -5.15 KCAL/MOL
REMARK 922        TOTAL FREE ENERGY PREDICTED BY IDOCK:  -10.08 KCAL/MOL
REMARK 923 INTER-LIGAND FREE ENERGY PREDICTED BY IDOCK:   -9.07 KCAL/MOL
REMARK 924 INTRA-LIGAND FREE ENERGY PREDICTED BY IDOCK:   -1.01 KCAL/MOL
REMARK 927      BINDING AFFINITY PREDICTED BY RF-SCORE:    0.00 PKD
ROOT
HETATM    1  C   UNL     1     -10.353  16.310  69.719  1.00  0.00    -0.219 C  
HETATM    2  C   UNL     1     -10.306  16.246  68.182  1.00  0.00    -0.277 C  
ENDROOT
BRANCH   2   3
HETATM    3  C   UNL     1      -9.919  17.567  67.511  1.00  0.00    -0.315 A  
HETATM    4  C   UNL     1      -6.268  17.128  66.583  1.00  0.00    -0.250 A  
HETATM    5  C   UNL     1     -10.877  18.597  67.405  1.00  0.00    -0.381 A  
HETATM    6  C   UNL     1      -5.953  18.415  66.176  1.00  0.00    -0.213 A  
HETATM    7  C   UNL     1      -7.571  16.825  66.990  1.00  0.00    -0.235 A  
HETATM    8  C   UNL     1      -6.950  19.387  66.137  1.00  0.00    -0.264 A  
HETATM    9  C   UNL     1     -10.547  19.842  66.879  1.00  0.00    -0.588 A  
HETATM   10  C   UNL     1      -9.245  20.093  66.468  1.00  0.00    -0.440 A  
HETATM   11  C   UNL     1      -8.596  17.801  67.020  1.00  0.00    -0.248 A  
HETATM   12  C   UNL     1      -8.264  19.096  66.539  1.00  0.00    -0.315 A  
ENDBRANCH   2   3
BRANCH   2  13
HETATM   13  N   UNL     1     -11.504  15.617  67.599  1.00  0.00    -0.235 NA 
HETATM   14  H   UNL     1     -12.052  16.306  67.085  1.00  0.00     0.000 HD 
BRANCH  13  15
HETATM   15  C   UNL     1     -11.229  14.456  66.759  1.00  0.00    -0.337 C  
BRANCH  15  16
HETATM   16  C   UNL     1     -11.866  13.203  67.355  1.00  0.00    -0.412 C  
BRANCH  16  17
HETATM   17  C   UNL     1     -10.942  12.599  68.416  1.00  0.00    -0.284 C  
BRANCH  17  18
HETATM   18  C   UNL     1     -11.701  12.259  69.670  1.00  0.00    -0.386 A  
HETATM   19  C   UNL     1     -12.636  10.590  71.182  1.00  0.00    -0.520 A  
HETATM   20  C   UNL     1     -12.861   9.151  71.573  1.00  0.00    -0.347 C  
HETATM   21  C   UNL     1     -11.879  10.920  70.047  1.00  0.00    -0.428 A  
HETATM   22  C   UNL     1     -13.026  12.957  71.575  1.00  0.00    -0.388 A  
HETATM   23  F   UNL     1     -12.253   8.256  70.743  1.00  0.00    -0.270 F  
HETATM   24  F   UNL     1     -12.398   8.870  72.823  1.00  0.00    -0.411 F  
HETATM   25  F   UNL     1     -14.181   8.813  71.579  1.00  0.00    -0.425 F  
HETATM   26  C   UNL     1     -13.205  11.622  71.943  1.00  0.00    -0.475 A  
HETATM   27  C   UNL     1     -12.281  13.271  70.441  1.00  0.00    -0.404 A  
ENDBRANCH  17  18
ENDBRANCH  16  17
ENDBRANCH  15  16
ENDBRANCH  13  15
ENDBRANCH   2  13
TORSDOF 6
ENDMDL
MODEL       79
REMARK 921   NORMALIZED FREE ENERGY PREDICTED BY IDOCK:   -5.14 KCAL/MOL
REMARK 922        TOTAL FREE ENERGY PREDICTED BY IDOCK:  -10.08 KCAL/MOL
REMARK 923 INTER-LIGAND FREE ENERGY PREDICTED BY IDOCK:   -8.35 KCAL/MOL
REMARK 924 INTRA-LIGAND FREE ENERGY PREDICTED BY IDOCK:   -1.73 KCAL/MOL
REMARK 927      BINDING AFFINITY PREDICTED BY RF-SCORE:    0.00 PKD
ROOT
HETATM    1  C   UNL     1     -10.523   9.670  70.407  1.00  0.00    -0.352 C  
HETATM    2  C   UNL     1     -11.452   9.553  69.186  1.00  0.00     0.246 C  
ENDROOT
BRANCH   2   3
HETATM    3  C   UNL     1     -10.729   9.224  67.877  1.00  0.00    -0.248 A  
HETATM    4  C   UNL     1     -10.217   5.467  67.997  1.00  0.00    -0.233 A  
HETATM    5  C   UNL     1     -10.397  10.265  66.987  1.00  0.00    -0.299 A  
HETATM    6  C   UNL     1      -9.394   5.288  66.896  1.00  0.00    -0.127 A  
HETATM    7  C   UNL     1     -10.691   6.744  68.312  1.00  0.00    -0.290 A  
HETATM    8  C   UNL     1      -9.079   6.378  66.088  1.00  0.00    -0.150 A  
HETATM    9  C   UNL     1      -9.668  10.023  65.828  1.00  0.00    -0.321 A  
HETATM   10  C   UNL     1      -9.233   8.735  65.543  1.00  0.00    -0.202 A  
HETATM   11  C   UNL     1     -10.346   7.885  67.548  1.00  0.00    -0.329 A  
HETATM   12  C   UNL     1      -9.553   7.666  66.390  1.00  0.00    -0.223 A  
ENDBRANCH   2   3
BRANCH   2  13
HETATM   13  N   UNL     1     -12.391  10.684  69.072  1.00  0.00    -0.779 NA 
HETATM   14  H   UNL     1     -13.354  10.346  69.063  1.00  0.00     0.000 HD 
BRANCH  13  15
HETATM   15  C   UNL     1     -12.223  11.713  70.092  1.00  0.00    -0.288 C  
BRANCH  15  16
HETATM   16  C   UNL     1     -11.331  12.839  69.573  1.00  0.00    -0.223 C  
BRANCH  16  17
HETATM   17  C   UNL     1     -12.157  13.817  68.733  1.00  0.00    -0.344 C  
BRANCH  17  18
HETATM   18  C   UNL     1     -11.575  13.979  67.354  1.00  0.00    -0.397 A  
HETATM   19  C   UNL     1     -11.558  13.387  64.990  1.00  0.00    -0.339 A  
HETATM   20  C   UNL     1     -12.130  12.621  63.823  1.00  0.00    -0.522 C  
HETATM   21  C   UNL     1     -12.130  13.290  66.267  1.00  0.00    -0.472 A  
HETATM   22  C   UNL     1      -9.870  14.885  65.890  1.00  0.00    -0.362 A  
HETATM   23  F   UNL     1     -13.227  11.877  64.141  1.00  0.00    -0.505 F  
HETATM   24  F   UNL     1     -12.518  13.436  62.802  1.00  0.00    -0.462 F  
HETATM   25  F   UNL     1     -11.234  11.747  63.284  1.00  0.00    -0.429 F  
HETATM   26  C   UNL     1     -10.425  14.194  64.811  1.00  0.00    -0.432 A  
HETATM   27  C   UNL     1     -10.442  14.774  67.155  1.00  0.00    -0.265 A  
ENDBRANCH  17  18
ENDBRANCH  16  17
ENDBRANCH  15  16
ENDBRANCH  13  15
ENDBRANCH   2  13
TORSDOF 6
ENDMDL
MODEL       80
REMARK 921   NORMALIZED FREE ENERGY PREDICTED BY IDOCK:   -5.14 KCAL/MOL
REMARK 922        TOTAL FREE ENERGY PREDICTED BY IDOCK:  -10.07 KCAL/MOL
REMARK 923 INTER-LIGAND FREE ENERGY PREDICTED BY IDOCK:   -8.74 KCAL/MOL
REMARK 924 INTRA-LIGAND FREE ENERGY PREDICTED BY IDOCK:   -1.33 KCAL/MOL
REMARK 927      BINDING AFFINITY PREDICTED BY RF-SCORE:    0.00 PKD
ROOT
HETATM    1  C   UNL     1      -9.818  11.551  68.542  1.00  0.00    -0.198 C  
HETATM    2  C   UNL     1     -11.084  11.069  67.812  1.00  0.00    -0.295 C  
ENDROOT
BRANCH   2   3
HETATM    3  C   UNL     1     -11.306  11.721  66.444  1.00  0.00    -0.361 A  
HETATM    4  C   UNL     1      -9.151   9.698  64.066  1.00  0.00    -0.246 A  
HETATM    5  C   UNL     1     -12.149  12.847  66.341  1.00  0.00    -0.400 A  
HETATM    6  C   UNL     1      -9.251  10.466  62.917  1.00  0.00    -0.319 A  
HETATM    7  C   UNL     1      -9.846  10.076  65.220  1.00  0.00    -0.388 A  
HETATM    8  C   UNL     1     -10.077  11.588  62.910  1.00  0.00    -0.221 A  
HETATM    9  C   UNL     1     -12.315  13.521  65.136  1.00  0.00    -0.488 A  
HETATM   10  C   UNL     1     -11.621  13.099  64.010  1.00  0.00    -0.481 A  
HETATM   11  C   UNL     1     -10.648  11.241  65.268  1.00  0.00    -0.323 A  
HETATM   12  C   UNL     1     -10.784  11.977  64.060  1.00  0.00    -0.426 A  
ENDBRANCH   2   3
BRANCH   2  13
HETATM   13  N   UNL     1     -12.280  11.082  68.672  1.00  0.00    -0.771 NA 
HETATM   14  H   UNL     1     -12.820  10.226  68.542  1.00  0.00     0.000 HD 
BRANCH  13  15
HETATM   15  C   UNL     1     -12.004  11.299  70.088  1.00  0.00    -0.369 C  
BRANCH  15  16
HETATM   16  C   UNL     1     -12.463  10.098  70.912  1.00  0.00    -0.455 C  
BRANCH  16  17
HETATM   17  C   UNL     1     -11.258   9.434  71.584  1.00  0.00    -0.431 C  
BRANCH  17  18
HETATM   18  C   UNL     1     -11.001   8.066  71.012  1.00  0.00    -0.263 A  
HETATM   19  C   UNL     1     -10.558   6.632  69.090  1.00  0.00    -0.280 A  
HETATM   20  C   UNL     1     -10.312   6.454  67.613  1.00  0.00    -0.197 C  
HETATM   21  C   UNL     1     -10.740   7.909  69.644  1.00  0.00    -0.218 A  
HETATM   22  C   UNL     1     -10.887   5.662  71.294  1.00  0.00    -0.289 A  
HETATM   23  F   UNL     1     -10.268   7.627  66.920  1.00  0.00    -0.269 F  
HETATM   24  F   UNL     1      -9.131   5.826  67.352  1.00  0.00    -0.115 F  
HETATM   25  F   UNL     1     -11.276   5.704  67.011  1.00  0.00    -0.278 F  
HETATM   26  C   UNL     1     -10.631   5.511  69.930  1.00  0.00    -0.387 A  
HETATM   27  C   UNL     1     -11.074   6.934  71.830  1.00  0.00    -0.275 A  
ENDBRANCH  17  18
ENDBRANCH  16  17
ENDBRANCH  15  16
ENDBRANCH  13  15
ENDBRANCH   2  13
TORSDOF 6
ENDMDL
MODEL       81
REMARK 921   NORMALIZED FREE ENERGY PREDICTED BY IDOCK:   -5.12 KCAL/MOL
REMARK 922        TOTAL FREE ENERGY PREDICTED BY IDOCK:  -10.04 KCAL/MOL
REMARK 923 INTER-LIGAND FREE ENERGY PREDICTED BY IDOCK:   -6.96 KCAL/MOL
REMARK 924 INTRA-LIGAND FREE ENERGY PREDICTED BY IDOCK:   -3.08 KCAL/MOL
REMARK 927      BINDING AFFINITY PREDICTED BY RF-SCORE:    0.00 PKD
ROOT
HETATM    1  C   UNL     1     -11.169  15.866  67.983  1.00  0.00    -0.319 C  
HETATM    2  C   UNL     1     -10.515  14.474  68.052  1.00  0.00    -0.236 C  
ENDROOT
BRANCH   2   3
HETATM    3  C   UNL     1     -10.915  13.537  66.909  1.00  0.00    -0.296 A  
HETATM    4  C   UNL     1      -8.024  11.097  66.628  1.00  0.00    -0.159 A  
HETATM    5  C   UNL     1     -12.131  13.752  66.229  1.00  0.00    -0.484 A  
HETATM    6  C   UNL     1      -8.368  10.428  65.464  1.00  0.00    -0.168 A  
HETATM    7  C   UNL     1      -8.865  12.093  67.134  1.00  0.00    -0.191 A  
HETATM    8  C   UNL     1      -9.571  10.728  64.829  1.00  0.00    -0.314 A  
HETATM    9  C   UNL     1     -12.495  12.977  65.133  1.00  0.00    -0.552 A  
HETATM   10  C   UNL     1     -11.639  11.984  64.676  1.00  0.00    -0.364 A  
HETATM   11  C   UNL     1     -10.066  12.466  66.485  1.00  0.00    -0.246 A  
HETATM   12  C   UNL     1     -10.428  11.724  65.329  1.00  0.00    -0.320 A  
ENDBRANCH   2   3
BRANCH   2  13
HETATM   13  N   UNL     1     -10.623  13.857  69.386  1.00  0.00    -0.444 NA 
HETATM   14  H   UNL     1     -10.139  14.426  70.081  1.00  0.00     0.000 HD 
BRANCH  13  15
HETATM   15  C   UNL     1     -11.989  13.582  69.816  1.00  0.00    -0.340 C  
BRANCH  15  16
HETATM   16  C   UNL     1     -12.093  12.173  70.396  1.00  0.00    -0.395 C  
BRANCH  16  17
HETATM   17  C   UNL     1     -12.169  11.145  69.263  1.00  0.00    -0.295 C  
BRANCH  17  18
HETATM   18  C   UNL     1     -11.032  10.161  69.343  1.00  0.00    -0.285 A  
HETATM   19  C   UNL     1      -9.737   8.351  68.349  1.00  0.00    -0.168 A  
HETATM   20  C   UNL     1      -9.456   7.411  67.204  1.00  0.00    -0.149 C  
HETATM   21  C   UNL     1     -10.755   9.313  68.262  1.00  0.00    -0.195 A  
HETATM   22  C   UNL     1      -9.259   9.103  70.610  1.00  0.00    -0.310 A  
HETATM   23  F   UNL     1     -10.259   7.614  66.120  1.00  0.00    -0.190 F  
HETATM   24  F   UNL     1      -8.178   7.515  66.742  1.00  0.00    -0.113 F  
HETATM   25  F   UNL     1      -9.623   6.104  67.549  1.00  0.00    -0.115 F  
HETATM   26  C   UNL     1      -8.990   8.257  69.533  1.00  0.00    -0.150 A  
HETATM   27  C   UNL     1     -10.278  10.047  70.515  1.00  0.00    -0.160 A  
ENDBRANCH  17  18
ENDBRANCH  16  17
ENDBRANCH  15  16
ENDBRANCH  13  15
ENDBRANCH   2  13
TORSDOF 6
ENDMDL
MODEL       82
REMARK 921   NORMALIZED FREE ENERGY PREDICTED BY IDOCK:   -5.11 KCAL/MOL
REMARK 922        TOTAL FREE ENERGY PREDICTED BY IDOCK:  -10.04 KCAL/MOL
REMARK 923 INTER-LIGAND FREE ENERGY PREDICTED BY IDOCK:   -7.04 KCAL/MOL
REMARK 924 INTRA-LIGAND FREE ENERGY PREDICTED BY IDOCK:   -3.00 KCAL/MOL
REMARK 927      BINDING AFFINITY PREDICTED BY RF-SCORE:    0.00 PKD
ROOT
HETATM    1  C   UNL     1     -10.814  12.304  69.187  1.00  0.00    -0.149 C  
HETATM    2  C   UNL     1     -11.803  11.134  69.051  1.00  0.00    -0.348 C  
ENDROOT
BRANCH   2   3
HETATM    3  C   UNL     1     -11.989  10.317  70.334  1.00  0.00    -0.391 A  
HETATM    4  C   UNL     1      -8.521   9.007  71.135  1.00  0.00    -0.234 A  
HETATM    5  C   UNL     1     -13.276  10.192  70.896  1.00  0.00    -0.360 A  
HETATM    6  C   UNL     1      -8.813   8.132  72.170  1.00  0.00    -0.238 A  
HETATM    7  C   UNL     1      -9.544   9.756  70.547  1.00  0.00    -0.166 A  
HETATM    8  C   UNL     1     -10.120   8.037  72.642  1.00  0.00    -0.370 A  
HETATM    9  C   UNL     1     -13.506   9.393  72.011  1.00  0.00    -0.522 A  
HETATM   10  C   UNL     1     -12.456   8.682  72.577  1.00  0.00    -0.372 A  
HETATM   11  C   UNL     1     -10.894   9.643  70.960  1.00  0.00    -0.412 A  
HETATM   12  C   UNL     1     -11.157   8.787  72.063  1.00  0.00    -0.441 A  
ENDBRANCH   2   3
BRANCH   2  13
HETATM   13  N   UNL     1     -11.551  10.307  67.858  1.00  0.00    -0.670 NA 
HETATM   14  H   UNL     1     -12.336  10.369  67.210  1.00  0.00     0.000 HD 
BRANCH  13  15
HETATM   15  C   UNL     1     -10.299  10.604  67.171  1.00  0.00    -0.228 C  
BRANCH  15  16
HETATM   16  C   UNL     1      -9.455   9.339  67.028  1.00  0.00    -0.205 C  
BRANCH  16  17
HETATM   17  C   UNL     1     -10.364   8.110  66.948  1.00  0.00    -0.401 C  
BRANCH  17  18
HETATM   18  C   UNL     1     -10.068   7.140  68.061  1.00  0.00    -0.201 A  
HETATM   19  C   UNL     1      -8.470   5.792  69.315  1.00  0.00    -0.108 A  
HETATM   20  C   UNL     1      -7.057   5.333  69.575  1.00  0.00    -0.060 C  
HETATM   21  C   UNL     1      -8.749   6.742  68.319  1.00  0.00    -0.123 A  
HETATM   22  C   UNL     1     -10.846   5.650  69.806  1.00  0.00    -0.370 A  
HETATM   23  F   UNL     1      -6.129   5.938  68.779  1.00  0.00    -0.020 F  
HETATM   24  F   UNL     1      -6.657   5.571  70.855  1.00  0.00    -0.036 F  
HETATM   25  F   UNL     1      -6.899   3.995  69.376  1.00  0.00    -0.041 F  
HETATM   26  C   UNL     1      -9.531   5.253  70.057  1.00  0.00    -0.216 A  
HETATM   27  C   UNL     1     -11.111   6.586  68.809  1.00  0.00    -0.357 A  
ENDBRANCH  17  18
ENDBRANCH  16  17
ENDBRANCH  15  16
ENDBRANCH  13  15
ENDBRANCH   2  13
TORSDOF 6
ENDMDL
MODEL       83
REMARK 921   NORMALIZED FREE ENERGY PREDICTED BY IDOCK:   -5.11 KCAL/MOL
REMARK 922        TOTAL FREE ENERGY PREDICTED BY IDOCK:  -10.03 KCAL/MOL
REMARK 923 INTER-LIGAND FREE ENERGY PREDICTED BY IDOCK:   -7.65 KCAL/MOL
REMARK 924 INTRA-LIGAND FREE ENERGY PREDICTED BY IDOCK:   -2.38 KCAL/MOL
REMARK 927      BINDING AFFINITY PREDICTED BY RF-SCORE:    0.00 PKD
ROOT
HETATM    1  C   UNL     1     -10.470   9.135  67.772  1.00  0.00    -0.306 C  
HETATM    2  C   UNL     1     -10.807  10.562  68.239  1.00  0.00    -0.248 C  
ENDROOT
BRANCH   2   3
HETATM    3  C   UNL     1     -11.272  11.496  67.118  1.00  0.00    -0.365 A  
HETATM    4  C   UNL     1      -9.570  10.160  64.003  1.00  0.00    -0.320 A  
HETATM    5  C   UNL     1     -12.124  12.577  67.425  1.00  0.00    -0.121 A  
HETATM    6  C   UNL     1      -9.877  11.163  63.096  1.00  0.00    -0.403 A  
HETATM    7  C   UNL     1     -10.049  10.236  65.314  1.00  0.00    -0.359 A  
HETATM    8  C   UNL     1     -10.694  12.219  63.490  1.00  0.00    -0.497 A  
HETATM    9  C   UNL     1     -12.505  13.498  66.455  1.00  0.00    -0.349 A  
HETATM   10  C   UNL     1     -12.022  13.372  65.159  1.00  0.00    -0.406 A  
HETATM   11  C   UNL     1     -10.833  11.324  65.768  1.00  0.00    -0.257 A  
HETATM   12  C   UNL     1     -11.185  12.307  64.803  1.00  0.00    -0.364 A  
ENDBRANCH   2   3
BRANCH   2  13
HETATM   13  N   UNL     1      -9.759  11.146  69.095  1.00  0.00    -0.407 NA 
HETATM   14  H   UNL     1      -9.780  10.721  70.023  1.00  0.00     0.000 HD 
BRANCH  13  15
HETATM   15  C   UNL     1      -8.413  11.076  68.535  1.00  0.00    -0.153 C  
BRANCH  15  16
HETATM   16  C   UNL     1      -7.753  12.453  68.560  1.00  0.00    -0.120 C  
BRANCH  16  17
HETATM   17  C   UNL     1      -7.944  13.148  67.209  1.00  0.00    -0.140 C  
BRANCH  17  18
HETATM   18  C   UNL     1      -8.838  14.352  67.337  1.00  0.00    -0.211 A  
HETATM   19  C   UNL     1     -10.457  15.650  68.618  1.00  0.00    -0.231 A  
HETATM   20  C   UNL     1     -11.278  15.864  69.864  1.00  0.00    -0.348 C  
HETATM   21  C   UNL     1      -9.575  14.564  68.511  1.00  0.00    -0.220 A  
HETATM   22  C   UNL     1      -9.850  16.327  66.364  1.00  0.00    -0.310 A  
HETATM   23  F   UNL     1     -11.055  14.932  70.834  1.00  0.00    -0.300 F  
HETATM   24  F   UNL     1     -11.038  17.071  70.449  1.00  0.00    -0.254 F  
HETATM   25  F   UNL     1     -12.618  15.828  69.619  1.00  0.00    -0.334 F  
HETATM   26  C   UNL     1     -10.585  16.531  67.534  1.00  0.00    -0.313 A  
HETATM   27  C   UNL     1      -8.985  15.240  66.267  1.00  0.00    -0.314 A  
ENDBRANCH  17  18
ENDBRANCH  16  17
ENDBRANCH  15  16
ENDBRANCH  13  15
ENDBRANCH   2  13
TORSDOF 6
ENDMDL
MODEL       84
REMARK 921   NORMALIZED FREE ENERGY PREDICTED BY IDOCK:   -5.10 KCAL/MOL
REMARK 922        TOTAL FREE ENERGY PREDICTED BY IDOCK:  -10.01 KCAL/MOL
REMARK 923 INTER-LIGAND FREE ENERGY PREDICTED BY IDOCK:   -8.18 KCAL/MOL
REMARK 924 INTRA-LIGAND FREE ENERGY PREDICTED BY IDOCK:   -1.84 KCAL/MOL
REMARK 927      BINDING AFFINITY PREDICTED BY RF-SCORE:    0.00 PKD
ROOT
HETATM    1  C   UNL     1     -14.401   9.212  71.386  1.00  0.00    -0.071 C  
HETATM    2  C   UNL     1     -13.100   9.864  71.888  1.00  0.00    -0.459 C  
ENDROOT
BRANCH   2   3
HETATM    3  C   UNL     1     -12.543  10.948  70.961  1.00  0.00    -0.517 A  
HETATM    4  C   UNL     1     -13.706  14.210  72.508  1.00  0.00    -0.626 A  
HETATM    5  C   UNL     1     -11.812  10.572  69.815  1.00  0.00    -0.329 A  
HETATM    6  C   UNL     1     -13.340  15.106  71.516  1.00  0.00    -0.533 A  
HETATM    7  C   UNL     1     -13.421  12.849  72.357  1.00  0.00    -0.573 A  
HETATM    8  C   UNL     1     -12.654  14.647  70.394  1.00  0.00    -0.399 A  
HETATM    9  C   UNL     1     -11.360  11.517  68.901  1.00  0.00    -0.331 A  
HETATM   10  C   UNL     1     -11.648  12.861  69.100  1.00  0.00    -0.375 A  
HETATM   11  C   UNL     1     -12.778  12.337  71.205  1.00  0.00    -0.340 A  
HETATM   12  C   UNL     1     -12.357  13.284  70.231  1.00  0.00    -0.334 A  
ENDBRANCH   2   3
BRANCH   2  13
HETATM   13  N   UNL     1     -12.092   8.876  72.312  1.00  0.00    -0.349 NA 
HETATM   14  H   UNL     1     -11.857   9.009  73.296  1.00  0.00     0.000 HD 
BRANCH  13  15
HETATM   15  C   UNL     1     -12.463   7.488  72.061  1.00  0.00    -0.257 C  
BRANCH  15  16
HETATM   16  C   UNL     1     -11.314   6.742  71.386  1.00  0.00    -0.322 C  
BRANCH  16  17
HETATM   17  C   UNL     1      -9.984   7.424  71.713  1.00  0.00    -0.192 C  
BRANCH  17  18
HETATM   18  C   UNL     1      -9.428   8.140  70.511  1.00  0.00    -0.168 A  
HETATM   19  C   UNL     1      -9.422   8.529  68.105  1.00  0.00    -0.152 A  
HETATM   20  C   UNL     1      -9.980   8.262  66.729  1.00  0.00    -0.285 C  
HETATM   21  C   UNL     1      -9.972   7.912  69.240  1.00  0.00    -0.190 A  
HETATM   22  C   UNL     1      -7.781   9.619  69.527  1.00  0.00    -0.109 A  
HETATM   23  F   UNL     1     -11.043   7.408  66.726  1.00  0.00    -0.428 F  
HETATM   24  F   UNL     1     -10.414   9.396  66.111  1.00  0.00    -0.316 F  
HETATM   25  F   UNL     1      -9.059   7.709  65.891  1.00  0.00    -0.188 F  
HETATM   26  C   UNL     1      -8.324   9.387  68.262  1.00  0.00    -0.119 A  
HETATM   27  C   UNL     1      -8.329   8.995  70.644  1.00  0.00    -0.214 A  
ENDBRANCH  17  18
ENDBRANCH  16  17
ENDBRANCH  15  16
ENDBRANCH  13  15
ENDBRANCH   2  13
TORSDOF 6
ENDMDL
MODEL       85
REMARK 921   NORMALIZED FREE ENERGY PREDICTED BY IDOCK:   -5.08 KCAL/MOL
REMARK 922        TOTAL FREE ENERGY PREDICTED BY IDOCK:   -9.99 KCAL/MOL
REMARK 923 INTER-LIGAND FREE ENERGY PREDICTED BY IDOCK:   -8.30 KCAL/MOL
REMARK 924 INTRA-LIGAND FREE ENERGY PREDICTED BY IDOCK:   -1.70 KCAL/MOL
REMARK 927      BINDING AFFINITY PREDICTED BY RF-SCORE:    0.00 PKD
ROOT
HETATM    1  C   UNL     1     -10.496   7.423  66.970  1.00  0.00    -0.404 C  
HETATM    2  C   UNL     1      -9.771   8.600  67.648  1.00  0.00    -0.159 C  
ENDROOT
BRANCH   2   3
HETATM    3  C   UNL     1     -10.581   9.280  68.756  1.00  0.00    -0.220 A  
HETATM    4  C   UNL     1      -9.973   7.139  71.827  1.00  0.00    -0.186 A  
HETATM    5  C   UNL     1     -11.342  10.428  68.453  1.00  0.00    -0.292 A  
HETATM    6  C   UNL     1     -10.885   7.698  72.710  1.00  0.00    -0.416 A  
HETATM    7  C   UNL     1      -9.836   7.668  70.540  1.00  0.00    -0.183 A  
HETATM    8  C   UNL     1     -11.629   8.808  72.319  1.00  0.00    -0.391 A  
HETATM    9  C   UNL     1     -12.157  11.030  69.406  1.00  0.00    -0.389 A  
HETATM   10  C   UNL     1     -12.248  10.483  70.679  1.00  0.00    -0.446 A  
HETATM   11  C   UNL     1     -10.617   8.759  70.087  1.00  0.00    -0.237 A  
HETATM   12  C   UNL     1     -11.498   9.353  71.031  1.00  0.00    -0.403 A  
ENDBRANCH   2   3
BRANCH   2  13
HETATM   13  N   UNL     1      -9.185   9.544  66.681  1.00  0.00    -0.147 NA 
HETATM   14  H   UNL     1      -9.910  10.147  66.290  1.00  0.00     0.000 HD 
BRANCH  13  15
HETATM   15  C   UNL     1      -8.087  10.346  67.209  1.00  0.00    -0.114 C  
BRANCH  15  16
HETATM   16  C   UNL     1      -7.940  11.641  66.412  1.00  0.00     0.005 C  
BRANCH  16  17
HETATM   17  C   UNL     1      -8.508  12.816  67.214  1.00  0.00    -0.194 C  
BRANCH  17  18
HETATM   18  C   UNL     1      -9.913  13.141  66.784  1.00  0.00    -0.250 A  
HETATM   19  C   UNL     1     -11.690  13.019  65.120  1.00  0.00    -0.379 A  
HETATM   20  C   UNL     1     -12.211  12.545  63.786  1.00  0.00    -0.525 C  
HETATM   21  C   UNL     1     -10.403  12.671  65.557  1.00  0.00    -0.305 A  
HETATM   22  C   UNL     1     -12.004  14.306  67.157  1.00  0.00    -0.449 A  
HETATM   23  F   UNL     1     -11.331  11.760  63.102  1.00  0.00    -0.407 F  
HETATM   24  F   UNL     1     -13.352  11.809  63.901  1.00  0.00    -0.500 F  
HETATM   25  F   UNL     1     -12.515  13.576  62.949  1.00  0.00    -0.521 F  
HETATM   26  C   UNL     1     -12.487  13.838  65.933  1.00  0.00    -0.512 A  
HETATM   27  C   UNL     1     -10.722  13.961  67.576  1.00  0.00    -0.271 A  
ENDBRANCH  17  18
ENDBRANCH  16  17
ENDBRANCH  15  16
ENDBRANCH  13  15
ENDBRANCH   2  13
TORSDOF 6
ENDMDL
MODEL       86
REMARK 921   NORMALIZED FREE ENERGY PREDICTED BY IDOCK:   -5.08 KCAL/MOL
REMARK 922        TOTAL FREE ENERGY PREDICTED BY IDOCK:   -9.99 KCAL/MOL
REMARK 923 INTER-LIGAND FREE ENERGY PREDICTED BY IDOCK:   -8.13 KCAL/MOL
REMARK 924 INTRA-LIGAND FREE ENERGY PREDICTED BY IDOCK:   -1.86 KCAL/MOL
REMARK 927      BINDING AFFINITY PREDICTED BY RF-SCORE:    0.00 PKD
ROOT
HETATM    1  C   UNL     1      -7.331   8.496  67.227  1.00  0.00    -0.088 C  
HETATM    2  C   UNL     1      -8.144   8.992  68.436  1.00  0.00    -0.108 C  
ENDROOT
BRANCH   2   3
HETATM    3  C   UNL     1      -9.327   8.093  68.807  1.00  0.00    -0.143 A  
HETATM    4  C   UNL     1      -9.858   8.706  72.513  1.00  0.00    -0.268 A  
HETATM    5  C   UNL     1      -9.912   7.273  67.820  1.00  0.00    -0.205 A  
HETATM    6  C   UNL     1     -10.792   7.723  72.801  1.00  0.00    -0.438 A  
HETATM    7  C   UNL     1      -9.394   8.863  71.203  1.00  0.00    -0.326 A  
HETATM    8  C   UNL     1     -11.292   6.926  71.774  1.00  0.00    -0.295 A  
HETATM    9  C   UNL     1     -10.933   6.381  68.130  1.00  0.00    -0.393 A  
HETATM   10  C   UNL     1     -11.377   6.272  69.441  1.00  0.00    -0.448 A  
HETATM   11  C   UNL     1      -9.834   8.034  70.144  1.00  0.00    -0.184 A  
HETATM   12  C   UNL     1     -10.838   7.076  70.453  1.00  0.00    -0.283 A  
ENDBRANCH   2   3
BRANCH   2  13
HETATM   13  N   UNL     1      -8.494  10.420  68.344  1.00  0.00    -0.119 NA 
HETATM   14  H   UNL     1      -7.677  11.000  68.535  1.00  0.00     0.000 HD 
BRANCH  13  15
HETATM   15  C   UNL     1      -9.109  10.810  67.079  1.00  0.00    -0.144 C  
BRANCH  15  16
HETATM   16  C   UNL     1     -10.632  10.807  67.203  1.00  0.00    -0.306 C  
BRANCH  16  17
HETATM   17  C   UNL     1     -11.130  12.209  67.567  1.00  0.00    -0.328 C  
BRANCH  17  18
HETATM   18  C   UNL     1     -11.764  12.224  68.932  1.00  0.00    -0.380 A  
HETATM   19  C   UNL     1     -12.631  13.468  70.841  1.00  0.00    -0.414 A  
HETATM   20  C   UNL     1     -12.956  14.775  71.520  1.00  0.00    -0.336 C  
HETATM   21  C   UNL     1     -12.094  13.441  69.544  1.00  0.00    -0.334 A  
HETATM   22  C   UNL     1     -12.519  11.041  70.908  1.00  0.00    -0.509 A  
HETATM   23  F   UNL     1     -12.698  15.871  70.750  1.00  0.00    -0.462 F  
HETATM   24  F   UNL     1     -14.269  14.870  71.870  1.00  0.00    -0.429 F  
HETATM   25  F   UNL     1     -12.248  14.955  72.670  1.00  0.00    -0.380 F  
HETATM   26  C   UNL     1     -12.843  12.256  71.515  1.00  0.00    -0.384 A  
HETATM   27  C   UNL     1     -11.979  11.028  69.624  1.00  0.00    -0.424 A  
ENDBRANCH  17  18
ENDBRANCH  16  17
ENDBRANCH  15  16
ENDBRANCH  13  15
ENDBRANCH   2  13
TORSDOF 6
ENDMDL
MODEL       87
REMARK 921   NORMALIZED FREE ENERGY PREDICTED BY IDOCK:   -5.08 KCAL/MOL
REMARK 922        TOTAL FREE ENERGY PREDICTED BY IDOCK:   -9.99 KCAL/MOL
REMARK 923 INTER-LIGAND FREE ENERGY PREDICTED BY IDOCK:   -8.46 KCAL/MOL
REMARK 924 INTRA-LIGAND FREE ENERGY PREDICTED BY IDOCK:   -1.52 KCAL/MOL
REMARK 927      BINDING AFFINITY PREDICTED BY RF-SCORE:    0.00 PKD
ROOT
HETATM    1  C   UNL     1      -8.494   8.327  71.841  1.00  0.00    -0.214 C  
HETATM    2  C   UNL     1      -9.977   8.126  71.483  1.00  0.00    -0.182 C  
ENDROOT
BRANCH   2   3
HETATM    3  C   UNL     1     -10.218   7.663  70.043  1.00  0.00    -0.213 A  
HETATM    4  C   UNL     1      -8.900  10.502  67.901  1.00  0.00    -0.133 A  
HETATM    5  C   UNL     1     -10.845   6.422  69.810  1.00  0.00    -0.373 A  
HETATM    6  C   UNL     1      -9.334  10.098  66.648  1.00  0.00    -0.195 A  
HETATM    7  C   UNL     1      -9.150   9.699  69.018  1.00  0.00    -0.148 A  
HETATM    8  C   UNL     1      -9.983   8.873  66.508  1.00  0.00    -0.358 A  
HETATM    9  C   UNL     1     -11.159   5.999  68.522  1.00  0.00    -0.279 A  
HETATM   10  C   UNL     1     -10.874   6.820  67.439  1.00  0.00    -0.417 A  
HETATM   11  C   UNL     1      -9.857   8.477  68.923  1.00  0.00    -0.181 A  
HETATM   12  C   UNL     1     -10.237   8.054  67.621  1.00  0.00    -0.291 A  
ENDBRANCH   2   3
BRANCH   2  13
HETATM   13  N   UNL     1     -10.821   9.265  71.885  1.00  0.00    -0.299 NA 
HETATM   14  H   UNL     1     -10.708  10.039  71.231  1.00  0.00     0.000 HD 
BRANCH  13  15
HETATM   15  C   UNL     1     -12.234   8.941  72.049  1.00  0.00    -0.377 C  
BRANCH  15  16
HETATM   16  C   UNL     1     -13.107  10.088  71.546  1.00  0.00    -0.531 C  
BRANCH  16  17
HETATM   17  C   UNL     1     -12.652  10.518  70.149  1.00  0.00    -0.246 C  
BRANCH  17  18
HETATM   18  C   UNL     1     -12.336  11.989  70.107  1.00  0.00    -0.230 A  
HETATM   19  C   UNL     1     -12.351  14.180  71.175  1.00  0.00    -0.447 A  
HETATM   20  C   UNL     1     -12.649  15.062  72.362  1.00  0.00    -0.342 C  
HETATM   21  C   UNL     1     -12.585  12.798  71.225  1.00  0.00    -0.347 A  
HETATM   22  C   UNL     1     -11.597  13.942  68.878  1.00  0.00    -0.353 A  
HETATM   23  F   UNL     1     -13.132  14.382  73.442  1.00  0.00    -0.589 F  
HETATM   24  F   UNL     1     -11.549  15.730  72.808  1.00  0.00    -0.499 F  
HETATM   25  F   UNL     1     -13.579  16.017  72.081  1.00  0.00    -0.511 F  
HETATM   26  C   UNL     1     -11.851  14.744  69.992  1.00  0.00    -0.362 A  
HETATM   27  C   UNL     1     -11.843  12.572  68.936  1.00  0.00    -0.346 A  
ENDBRANCH  17  18
ENDBRANCH  16  17
ENDBRANCH  15  16
ENDBRANCH  13  15
ENDBRANCH   2  13
TORSDOF 6
ENDMDL
MODEL       88
REMARK 921   NORMALIZED FREE ENERGY PREDICTED BY IDOCK:   -5.07 KCAL/MOL
REMARK 922        TOTAL FREE ENERGY PREDICTED BY IDOCK:   -9.98 KCAL/MOL
REMARK 923 INTER-LIGAND FREE ENERGY PREDICTED BY IDOCK:   -9.24 KCAL/MOL
REMARK 924 INTRA-LIGAND FREE ENERGY PREDICTED BY IDOCK:   -0.73 KCAL/MOL
REMARK 927      BINDING AFFINITY PREDICTED BY RF-SCORE:    0.00 PKD
ROOT
HETATM    1  C   UNL     1     -10.278  13.743  65.721  1.00  0.00    -0.322 C  
HETATM    2  C   UNL     1     -11.557  13.775  66.577  1.00  0.00    -0.365 C  
ENDROOT
BRANCH   2   3
HETATM    3  C   UNL     1     -11.474  14.704  67.792  1.00  0.00    -0.359 A  
HETATM    4  C   UNL     1      -9.996  17.921  66.431  1.00  0.00    -0.358 A  
HETATM    5  C   UNL     1     -11.886  14.231  69.055  1.00  0.00    -0.370 A  
HETATM    6  C   UNL     1      -9.772  18.616  67.609  1.00  0.00    -0.330 A  
HETATM    7  C   UNL     1     -10.585  16.653  66.471  1.00  0.00    -0.203 A  
HETATM    8  C   UNL     1     -10.173  18.060  68.822  1.00  0.00    -0.362 A  
HETATM    9  C   UNL     1     -11.751  15.009  70.200  1.00  0.00    -0.340 A  
HETATM   10  C   UNL     1     -11.179  16.271  70.111  1.00  0.00    -0.340 A  
HETATM   11  C   UNL     1     -10.952  16.031  67.688  1.00  0.00    -0.284 A  
HETATM   12  C   UNL     1     -10.769  16.790  68.876  1.00  0.00    -0.333 A  
ENDBRANCH   2   3
BRANCH   2  13
HETATM   13  N   UNL     1     -12.065  12.430  66.897  1.00  0.00    -0.547 NA 
HETATM   14  H   UNL     1     -12.927  12.244  66.383  1.00  0.00     0.000 HD 
BRANCH  13  15
HETATM   15  C   UNL     1     -11.103  11.354  66.682  1.00  0.00    -0.271 C  
BRANCH  15  16
HETATM   16  C   UNL     1     -11.160  10.350  67.832  1.00  0.00    -0.363 C  
BRANCH  16  17
HETATM   17  C   UNL     1     -10.764  11.034  69.144  1.00  0.00    -0.274 C  
BRANCH  17  18
HETATM   18  C   UNL     1     -11.472  10.412  70.318  1.00  0.00    -0.406 A  
HETATM   19  C   UNL     1     -11.744   8.554  71.873  1.00  0.00    -0.409 A  
HETATM   20  C   UNL     1     -11.321   7.203  72.393  1.00  0.00    -0.274 C  
HETATM   21  C   UNL     1     -11.053   9.171  70.818  1.00  0.00    -0.336 A  
HETATM   22  C   UNL     1     -13.273  10.442  71.938  1.00  0.00    -0.535 A  
HETATM   23  F   UNL     1     -10.229   6.689  71.759  1.00  0.00    -0.191 F  
HETATM   24  F   UNL     1     -11.001   7.229  73.718  1.00  0.00    -0.392 F  
HETATM   25  F   UNL     1     -12.300   6.265  72.263  1.00  0.00    -0.355 F  
HETATM   26  C   UNL     1     -12.855   9.204  72.431  1.00  0.00    -0.438 A  
HETATM   27  C   UNL     1     -12.585  11.039  70.885  1.00  0.00    -0.488 A  
ENDBRANCH  17  18
ENDBRANCH  16  17
ENDBRANCH  15  16
ENDBRANCH  13  15
ENDBRANCH   2  13
TORSDOF 6
ENDMDL
MODEL       89
REMARK 921   NORMALIZED FREE ENERGY PREDICTED BY IDOCK:   -5.06 KCAL/MOL
REMARK 922        TOTAL FREE ENERGY PREDICTED BY IDOCK:   -9.96 KCAL/MOL
REMARK 923 INTER-LIGAND FREE ENERGY PREDICTED BY IDOCK:   -6.58 KCAL/MOL
REMARK 924 INTRA-LIGAND FREE ENERGY PREDICTED BY IDOCK:   -3.38 KCAL/MOL
REMARK 927      BINDING AFFINITY PREDICTED BY RF-SCORE:    0.00 PKD
ROOT
HETATM    1  C   UNL     1      -8.679  10.770  66.312  1.00  0.00    -0.175 C  
HETATM    2  C   UNL     1     -10.068  10.199  66.648  1.00  0.00    -0.223 C  
ENDROOT
BRANCH   2   3
HETATM    3  C   UNL     1     -10.424  10.251  68.137  1.00  0.00    -0.224 A  
HETATM    4  C   UNL     1      -7.621   8.356  69.851  1.00  0.00    -0.076 A  
HETATM    5  C   UNL     1     -11.612  10.893  68.543  1.00  0.00    -0.360 A  
HETATM    6  C   UNL     1      -8.119   8.279  71.142  1.00  0.00    -0.124 A  
HETATM    7  C   UNL     1      -8.346   9.029  68.863  1.00  0.00    -0.125 A  
HETATM    8  C   UNL     1      -9.322   8.908  71.453  1.00  0.00    -0.338 A  
HETATM    9  C   UNL     1     -12.017  10.893  69.874  1.00  0.00    -0.430 A  
HETATM   10  C   UNL     1     -11.255  10.229  70.826  1.00  0.00    -0.373 A  
HETATM   11  C   UNL     1      -9.600   9.630  69.128  1.00  0.00    -0.176 A  
HETATM   12  C   UNL     1     -10.060   9.591  70.472  1.00  0.00    -0.347 A  
ENDBRANCH   2   3
BRANCH   2  13
HETATM   13  N   UNL     1     -10.309   8.883  66.031  1.00  0.00    -0.235 NA 
HETATM   14  H   UNL     1     -10.825   8.989  65.157  1.00  0.00     0.000 HD 
BRANCH  13  15
HETATM   15  C   UNL     1      -9.106   8.086  65.817  1.00  0.00    -0.055 C  
BRANCH  15  16
HETATM   16  C   UNL     1      -9.290   6.678  66.379  1.00  0.00    -0.175 C  
BRANCH  16  17
HETATM   17  C   UNL     1     -10.709   6.518  66.933  1.00  0.00    -0.403 C  
BRANCH  17  18
HETATM   18  C   UNL     1     -10.685   6.094  68.377  1.00  0.00    -0.361 A  
HETATM   19  C   UNL     1     -11.574   6.268  70.641  1.00  0.00    -0.350 A  
HETATM   20  C   UNL     1     -12.560   6.846  71.624  1.00  0.00    -0.367 C  
HETATM   21  C   UNL     1     -11.625   6.610  69.281  1.00  0.00    -0.147 A  
HETATM   22  C   UNL     1      -9.637   4.872  70.188  1.00  0.00    -0.263 A  
HETATM   23  F   UNL     1     -13.474   7.683  71.056  1.00  0.00    -0.297 F  
HETATM   24  F   UNL     1     -13.285   5.886  72.264  1.00  0.00    -0.177 F  
HETATM   25  F   UNL     1     -11.954   7.572  72.605  1.00  0.00    -0.300 F  
HETATM   26  C   UNL     1     -10.573   5.391  71.084  1.00  0.00    -0.276 A  
HETATM   27  C   UNL     1      -9.692   5.226  68.842  1.00  0.00    -0.207 A  
ENDBRANCH  17  18
ENDBRANCH  16  17
ENDBRANCH  15  16
ENDBRANCH  13  15
ENDBRANCH   2  13
TORSDOF 6
ENDMDL
MODEL       90
REMARK 921   NORMALIZED FREE ENERGY PREDICTED BY IDOCK:   -5.06 KCAL/MOL
REMARK 922        TOTAL FREE ENERGY PREDICTED BY IDOCK:   -9.96 KCAL/MOL
REMARK 923 INTER-LIGAND FREE ENERGY PREDICTED BY IDOCK:   -8.47 KCAL/MOL
REMARK 924 INTRA-LIGAND FREE ENERGY PREDICTED BY IDOCK:   -1.49 KCAL/MOL
REMARK 927      BINDING AFFINITY PREDICTED BY RF-SCORE:    0.00 PKD
ROOT
HETATM    1  C   UNL     1      -7.956   8.881  66.770  1.00  0.00    -0.107 C  
HETATM    2  C   UNL     1      -9.196   8.852  65.859  1.00  0.00    -0.229 C  
ENDROOT
BRANCH   2   3
HETATM    3  C   UNL     1      -9.996  10.158  65.847  1.00  0.00    -0.334 A  
HETATM    4  C   UNL     1     -10.907  10.746  69.482  1.00  0.00    -0.288 A  
HETATM    5  C   UNL     1     -10.246  10.807  64.621  1.00  0.00    -0.419 A  
HETATM    6  C   UNL     1     -11.782  11.813  69.355  1.00  0.00    -0.405 A  
HETATM    7  C   UNL     1     -10.286  10.215  68.347  1.00  0.00    -0.210 A  
HETATM    8  C   UNL     1     -12.006  12.373  68.100  1.00  0.00    -0.272 A  
HETATM    9  C   UNL     1     -11.037  11.949  64.553  1.00  0.00    -0.381 A  
HETATM   10  C   UNL     1     -11.618  12.455  65.709  1.00  0.00    -0.449 A  
HETATM   11  C   UNL     1     -10.533  10.720  67.048  1.00  0.00    -0.297 A  
HETATM   12  C   UNL     1     -11.386  11.853  66.952  1.00  0.00    -0.392 A  
ENDBRANCH   2   3
BRANCH   2  13
HETATM   13  N   UNL     1     -10.028   7.653  66.063  1.00  0.00    -0.376 NA 
HETATM   14  H   UNL     1      -9.969   7.037  65.252  1.00  0.00     0.000 HD 
BRANCH  13  15
HETATM   15  C   UNL     1      -9.733   6.914  67.286  1.00  0.00    -0.146 C  
BRANCH  15  16
HETATM   16  C   UNL     1     -11.026   6.513  67.993  1.00  0.00    -0.368 C  
BRANCH  16  17
HETATM   17  C   UNL     1     -10.707   5.674  69.232  1.00  0.00    -0.350 C  
BRANCH  17  18
HETATM   18  C   UNL     1     -10.954   6.452  70.497  1.00  0.00    -0.364 A  
HETATM   19  C   UNL     1     -12.254   8.098  71.740  1.00  0.00    -0.358 A  
HETATM   20  C   UNL     1     -13.410   9.062  71.831  1.00  0.00    -0.417 C  
HETATM   21  C   UNL     1     -12.049   7.323  70.588  1.00  0.00    -0.226 A  
HETATM   22  C   UNL     1     -10.261   7.114  72.723  1.00  0.00    -0.243 A  
HETATM   23  F   UNL     1     -14.203   9.073  70.722  1.00  0.00    -0.253 F  
HETATM   24  F   UNL     1     -14.239   8.788  72.876  1.00  0.00    -0.443 F  
HETATM   25  F   UNL     1     -13.002  10.350  72.006  1.00  0.00    -0.485 F  
HETATM   26  C   UNL     1     -11.351   7.982  72.807  1.00  0.00    -0.439 A  
HETATM   27  C   UNL     1     -10.064   6.356  71.571  1.00  0.00    -0.215 A  
ENDBRANCH  17  18
ENDBRANCH  16  17
ENDBRANCH  15  16
ENDBRANCH  13  15
ENDBRANCH   2  13
TORSDOF 6
ENDMDL
MODEL       91
REMARK 921   NORMALIZED FREE ENERGY PREDICTED BY IDOCK:   -5.05 KCAL/MOL
REMARK 922        TOTAL FREE ENERGY PREDICTED BY IDOCK:   -9.95 KCAL/MOL
REMARK 923 INTER-LIGAND FREE ENERGY PREDICTED BY IDOCK:   -6.45 KCAL/MOL
REMARK 924 INTRA-LIGAND FREE ENERGY PREDICTED BY IDOCK:   -3.50 KCAL/MOL
REMARK 927      BINDING AFFINITY PREDICTED BY RF-SCORE:    0.00 PKD
ROOT
HETATM    1  C   UNL     1      -7.296  11.044  66.628  1.00  0.00    -0.143 C  
HETATM    2  C   UNL     1      -7.751  11.442  68.043  1.00  0.00    -0.114 C  
ENDROOT
BRANCH   2   3
HETATM    3  C   UNL     1      -9.265  11.628  68.185  1.00  0.00    -0.184 A  
HETATM    4  C   UNL     1     -10.189  14.044  65.412  1.00  0.00    -0.368 A  
HETATM    5  C   UNL     1      -9.950  10.966  69.225  1.00  0.00    -0.137 A  
HETATM    6  C   UNL     1     -11.511  14.309  65.736  1.00  0.00    -0.335 A  
HETATM    7  C   UNL     1      -9.450  13.142  66.183  1.00  0.00    -0.156 A  
HETATM    8  C   UNL     1     -12.103  13.641  66.805  1.00  0.00    -0.445 A  
HETATM    9  C   UNL     1     -11.308  11.170  69.443  1.00  0.00    -0.352 A  
HETATM   10  C   UNL     1     -12.009  12.061  68.640  1.00  0.00    -0.290 A  
HETATM   11  C   UNL     1     -10.000  12.489  67.312  1.00  0.00    -0.211 A  
HETATM   12  C   UNL     1     -11.374  12.729  67.586  1.00  0.00    -0.359 A  
ENDBRANCH   2   3
BRANCH   2  13
HETATM   13  N   UNL     1      -6.966  12.555  68.605  1.00  0.00    -0.087 NA 
HETATM   14  H   UNL     1      -6.263  12.201  69.254  1.00  0.00     0.000 HD 
BRANCH  13  15
HETATM   15  C   UNL     1      -6.346  13.421  67.608  1.00  0.00    -0.155 C  
BRANCH  15  16
HETATM   16  C   UNL     1      -6.789  14.869  67.810  1.00  0.00    -0.193 C  
BRANCH  16  17
HETATM   17  C   UNL     1      -7.427  15.033  69.192  1.00  0.00    -0.169 C  
BRANCH  17  18
HETATM   18  C   UNL     1      -8.825  15.580  69.086  1.00  0.00    -0.253 A  
HETATM   19  C   UNL     1     -11.142  15.606  69.842  1.00  0.00    -0.323 A  
HETATM   20  C   UNL     1     -12.227  15.119  70.770  1.00  0.00    -0.340 C  
HETATM   21  C   UNL     1      -9.822  15.148  69.971  1.00  0.00     0.003 A  
HETATM   22  C   UNL     1     -10.459  16.951  67.937  1.00  0.00    -0.344 A  
HETATM   23  F   UNL     1     -11.787  14.239  71.713  1.00  0.00    -0.355 F  
HETATM   24  F   UNL     1     -12.822  16.133  71.458  1.00  0.00    -0.499 F  
HETATM   25  F   UNL     1     -13.231  14.479  70.107  1.00  0.00    -0.291 F  
HETATM   26  C   UNL     1     -11.450  16.515  68.819  1.00  0.00    -0.143 A  
HETATM   27  C   UNL     1      -9.155  16.482  68.069  1.00  0.00    -0.209 A  
ENDBRANCH  17  18
ENDBRANCH  16  17
ENDBRANCH  15  16
ENDBRANCH  13  15
ENDBRANCH   2  13
TORSDOF 6
ENDMDL
MODEL       92
REMARK 921   NORMALIZED FREE ENERGY PREDICTED BY IDOCK:   -5.03 KCAL/MOL
REMARK 922        TOTAL FREE ENERGY PREDICTED BY IDOCK:   -9.93 KCAL/MOL
REMARK 923 INTER-LIGAND FREE ENERGY PREDICTED BY IDOCK:   -7.39 KCAL/MOL
REMARK 924 INTRA-LIGAND FREE ENERGY PREDICTED BY IDOCK:   -2.54 KCAL/MOL
REMARK 927      BINDING AFFINITY PREDICTED BY RF-SCORE:    0.00 PKD
ROOT
HETATM    1  C   UNL     1     -10.543   8.308  67.275  1.00  0.00    -0.335 C  
HETATM    2  C   UNL     1     -10.622   9.843  67.362  1.00  0.00    -0.277 C  
ENDROOT
BRANCH   2   3
HETATM    3  C   UNL     1     -10.498  10.554  66.011  1.00  0.00    -0.226 A  
HETATM    4  C   UNL     1     -12.488  13.755  66.439  1.00  0.00    -0.404 A  
HETATM    5  C   UNL     1      -9.777   9.940  64.967  1.00  0.00    -0.359 A  
HETATM    6  C   UNL     1     -12.493  14.227  65.136  1.00  0.00    -0.423 A  
HETATM    7  C   UNL     1     -11.810  12.572  66.749  1.00  0.00    -0.416 A  
HETATM    8  C   UNL     1     -11.786  13.538  64.152  1.00  0.00    -0.483 A  
HETATM    9  C   UNL     1      -9.708  10.509  63.700  1.00  0.00    -0.375 A  
HETATM   10  C   UNL     1     -10.380  11.696  63.441  1.00  0.00    -0.482 A  
HETATM   11  C   UNL     1     -11.130  11.814  65.766  1.00  0.00    -0.351 A  
HETATM   12  C   UNL     1     -11.097  12.351  64.451  1.00  0.00    -0.381 A  
ENDBRANCH   2   3
BRANCH   2  13
HETATM   13  N   UNL     1      -9.745  10.403  68.405  1.00  0.00    -0.154 NA 
HETATM   14  H   UNL     1      -9.993  10.023  69.319  1.00  0.00     0.000 HD 
BRANCH  13  15
HETATM   15  C   UNL     1      -8.319  10.230  68.153  1.00  0.00    -0.118 C  
BRANCH  15  16
HETATM   16  C   UNL     1      -7.573  11.543  68.381  1.00  0.00    -0.125 C  
BRANCH  16  17
HETATM   17  C   UNL     1      -7.795  12.484  67.194  1.00  0.00    -0.123 C  
BRANCH  17  18
HETATM   18  C   UNL     1      -8.143  13.874  67.657  1.00  0.00    -0.183 A  
HETATM   19  C   UNL     1      -9.139  16.055  67.219  1.00  0.00    -0.217 A  
HETATM   20  C   UNL     1      -9.883  17.001  66.310  1.00  0.00    -0.294 C  
HETATM   21  C   UNL     1      -8.863  14.738  66.821  1.00  0.00    -0.281 A  
HETATM   22  C   UNL     1      -7.980  15.635  69.313  1.00  0.00    -0.237 A  
HETATM   23  F   UNL     1     -10.253  16.442  65.123  1.00  0.00    -0.310 F  
HETATM   24  F   UNL     1     -11.032  17.471  66.872  1.00  0.00    -0.234 F  
HETATM   25  F   UNL     1      -9.147  18.101  65.989  1.00  0.00    -0.267 F  
HETATM   26  C   UNL     1      -8.694  16.493  68.475  1.00  0.00    -0.228 A  
HETATM   27  C   UNL     1      -7.704  14.333  68.903  1.00  0.00    -0.112 A  
ENDBRANCH  17  18
ENDBRANCH  16  17
ENDBRANCH  15  16
ENDBRANCH  13  15
ENDBRANCH   2  13
TORSDOF 6
ENDMDL
MODEL       93
REMARK 921   NORMALIZED FREE ENERGY PREDICTED BY IDOCK:   -5.03 KCAL/MOL
REMARK 922        TOTAL FREE ENERGY PREDICTED BY IDOCK:   -9.92 KCAL/MOL
REMARK 923 INTER-LIGAND FREE ENERGY PREDICTED BY IDOCK:   -7.24 KCAL/MOL
REMARK 924 INTRA-LIGAND FREE ENERGY PREDICTED BY IDOCK:   -2.69 KCAL/MOL
REMARK 927      BINDING AFFINITY PREDICTED BY RF-SCORE:    0.00 PKD
ROOT
HETATM    1  C   UNL     1      -8.645   8.851  66.032  1.00  0.00    -0.162 C  
HETATM    2  C   UNL     1      -8.414  10.256  66.616  1.00  0.00    -0.124 C  
ENDROOT
BRANCH   2   3
HETATM    3  C   UNL     1      -9.701  11.038  66.896  1.00  0.00    -0.215 A  
HETATM    4  C   UNL     1     -11.231  11.605  63.472  1.00  0.00    -0.462 A  
HETATM    5  C   UNL     1     -10.022  11.391  68.223  1.00  0.00    -0.203 A  
HETATM    6  C   UNL     1     -12.260  12.475  63.795  1.00  0.00    -0.615 A  
HETATM    7  C   UNL     1     -10.406  11.097  64.480  1.00  0.00    -0.400 A  
HETATM    8  C   UNL     1     -12.488  12.806  65.129  1.00  0.00    -0.565 A  
HETATM    9  C   UNL     1     -11.136  12.171  68.516  1.00  0.00    -0.295 A  
HETATM   10  C   UNL     1     -11.941  12.638  67.484  1.00  0.00    -0.314 A  
HETATM   11  C   UNL     1     -10.570  11.456  65.840  1.00  0.00    -0.317 A  
HETATM   12  C   UNL     1     -11.669  12.300  66.153  1.00  0.00    -0.440 A  
ENDBRANCH   2   3
BRANCH   2  13
HETATM   13  N   UNL     1      -7.406  11.028  65.868  1.00  0.00    -0.349 NA 
HETATM   14  H   UNL     1      -7.821  11.880  65.489  1.00  0.00     0.000 HD 
BRANCH  13  15
HETATM   15  C   UNL     1      -6.200  11.343  66.626  1.00  0.00    -0.137 C  
BRANCH  15  16
HETATM   16  C   UNL     1      -6.555  12.107  67.900  1.00  0.00    -0.085 C  
BRANCH  16  17
HETATM   17  C   UNL     1      -6.373  13.611  67.675  1.00  0.00    -0.149 C  
BRANCH  17  18
HETATM   18  C   UNL     1      -7.658  14.357  67.915  1.00  0.00    -0.158 A  
HETATM   19  C   UNL     1      -9.641  15.477  67.044  1.00  0.00    -0.233 A  
HETATM   20  C   UNL     1     -10.502  15.909  65.884  1.00  0.00    -0.359 C  
HETATM   21  C   UNL     1      -8.472  14.728  66.836  1.00  0.00    -0.230 A  
HETATM   22  C   UNL     1      -9.186  15.470  69.431  1.00  0.00    -0.280 A  
HETATM   23  F   UNL     1     -10.041  15.488  64.672  1.00  0.00    -0.273 F  
HETATM   24  F   UNL     1     -11.779  15.442  65.977  1.00  0.00    -0.190 F  
HETATM   25  F   UNL     1     -10.607  17.264  65.790  1.00  0.00    -0.362 F  
HETATM   26  C   UNL     1      -9.991  15.841  68.352  1.00  0.00    -0.217 A  
HETATM   27  C   UNL     1      -8.024  14.735  69.211  1.00  0.00    -0.103 A  
ENDBRANCH  17  18
ENDBRANCH  16  17
ENDBRANCH  15  16
ENDBRANCH  13  15
ENDBRANCH   2  13
TORSDOF 6
ENDMDL
MODEL       94
REMARK 921   NORMALIZED FREE ENERGY PREDICTED BY IDOCK:   -5.01 KCAL/MOL
REMARK 922        TOTAL FREE ENERGY PREDICTED BY IDOCK:   -9.90 KCAL/MOL
REMARK 923 INTER-LIGAND FREE ENERGY PREDICTED BY IDOCK:   -6.43 KCAL/MOL
REMARK 924 INTRA-LIGAND FREE ENERGY PREDICTED BY IDOCK:   -3.47 KCAL/MOL
REMARK 927      BINDING AFFINITY PREDICTED BY RF-SCORE:    0.00 PKD
ROOT
HETATM    1  C   UNL     1     -11.678  14.591  67.303  1.00  0.00    -0.429 C  
HETATM    2  C   UNL     1     -12.105  13.114  67.231  1.00  0.00    -0.274 C  
ENDROOT
BRANCH   2   3
HETATM    3  C   UNL     1     -11.322  12.189  68.168  1.00  0.00    -0.349 A  
HETATM    4  C   UNL     1      -7.681  12.874  67.354  1.00  0.00    -0.160 A  
HETATM    5  C   UNL     1     -12.023  11.328  69.036  1.00  0.00    -0.393 A  
HETATM    6  C   UNL     1      -7.065  11.871  68.085  1.00  0.00    -0.081 A  
HETATM    7  C   UNL     1      -9.072  13.014  67.398  1.00  0.00    -0.201 A  
HETATM    8  C   UNL     1      -7.835  11.034  68.890  1.00  0.00    -0.138 A  
HETATM    9  C   UNL     1     -11.357  10.413  69.844  1.00  0.00    -0.370 A  
HETATM   10  C   UNL     1      -9.972  10.321  69.783  1.00  0.00    -0.222 A  
HETATM   11  C   UNL     1      -9.892  12.147  68.158  1.00  0.00    -0.207 A  
HETATM   12  C   UNL     1      -9.232  11.166  68.947  1.00  0.00    -0.106 A  
ENDBRANCH   2   3
BRANCH   2  13
HETATM   13  N   UNL     1     -12.196  12.612  65.848  1.00  0.00    -0.597 NA 
HETATM   14  H   UNL     1     -13.172  12.524  65.566  1.00  0.00     0.000 HD 
BRANCH  13  15
HETATM   15  C   UNL     1     -11.453  13.399  64.869  1.00  0.00    -0.325 C  
BRANCH  15  16
HETATM   16  C   UNL     1     -10.352  12.554  64.231  1.00  0.00    -0.396 C  
BRANCH  16  17
HETATM   17  C   UNL     1     -10.735  11.072  64.279  1.00  0.00    -0.348 C  
BRANCH  17  18
HETATM   18  C   UNL     1      -9.621  10.240  64.855  1.00  0.00    -0.365 A  
HETATM   19  C   UNL     1      -8.855   8.538  66.423  1.00  0.00    -0.178 A  
HETATM   20  C   UNL     1      -9.138   7.525  67.504  1.00  0.00    -0.125 C  
HETATM   21  C   UNL     1      -9.894   9.277  65.836  1.00  0.00    -0.335 A  
HETATM   22  C   UNL     1      -7.260   9.724  65.025  1.00  0.00    -0.127 A  
HETATM   23  F   UNL     1     -10.461   7.406  67.812  1.00  0.00    -0.226 F  
HETATM   24  F   UNL     1      -8.722   6.271  67.168  1.00  0.00    -0.111 F  
HETATM   25  F   UNL     1      -8.511   7.825  68.676  1.00  0.00    -0.124 F  
HETATM   26  C   UNL     1      -7.537   8.768  66.005  1.00  0.00    -0.093 A  
HETATM   27  C   UNL     1      -8.299  10.457  64.457  1.00  0.00    -0.146 A  
ENDBRANCH  17  18
ENDBRANCH  16  17
ENDBRANCH  15  16
ENDBRANCH  13  15
ENDBRANCH   2  13
TORSDOF 6
ENDMDL
MODEL       95
REMARK 921   NORMALIZED FREE ENERGY PREDICTED BY IDOCK:   -4.99 KCAL/MOL
REMARK 922        TOTAL FREE ENERGY PREDICTED BY IDOCK:   -9.87 KCAL/MOL
REMARK 923 INTER-LIGAND FREE ENERGY PREDICTED BY IDOCK:   -9.09 KCAL/MOL
REMARK 924 INTRA-LIGAND FREE ENERGY PREDICTED BY IDOCK:   -0.78 KCAL/MOL
REMARK 927      BINDING AFFINITY PREDICTED BY RF-SCORE:    0.00 PKD
ROOT
HETATM    1  C   UNL     1     -11.033  14.783  66.118  1.00  0.00    -0.332 C  
HETATM    2  C   UNL     1     -11.303  15.609  67.388  1.00  0.00    -0.163 C  
ENDROOT
BRANCH   2   3
HETATM    3  C   UNL     1     -10.061  16.293  67.967  1.00  0.00    -0.245 A  
HETATM    4  C   UNL     1     -10.384  19.916  66.891  1.00  0.00    -0.596 A  
HETATM    5  C   UNL     1      -9.117  15.527  68.682  1.00  0.00    -0.202 A  
HETATM    6  C   UNL     1      -9.146  20.406  67.274  1.00  0.00    -0.500 A  
HETATM    7  C   UNL     1     -10.713  18.581  67.142  1.00  0.00    -0.396 A  
HETATM    8  C   UNL     1      -8.253  19.572  67.943  1.00  0.00    -0.345 A  
HETATM    9  C   UNL     1      -7.935  16.089  69.154  1.00  0.00    -0.238 A  
HETATM   10  C   UNL     1      -7.658  17.426  68.899  1.00  0.00    -0.224 A  
HETATM   11  C   UNL     1      -9.810  17.687  67.767  1.00  0.00    -0.292 A  
HETATM   12  C   UNL     1      -8.572  18.229  68.206  1.00  0.00    -0.299 A  
ENDBRANCH   2   3
BRANCH   2  13
HETATM   13  N   UNL     1     -12.092  14.874  68.391  1.00  0.00    -0.573 NA 
HETATM   14  H   UNL     1     -13.066  15.178  68.370  1.00  0.00     0.000 HD 
BRANCH  13  15
HETATM   15  C   UNL     1     -12.011  13.422  68.279  1.00  0.00    -0.317 C  
BRANCH  15  16
HETATM   16  C   UNL     1     -11.676  12.799  69.633  1.00  0.00    -0.372 C  
BRANCH  16  17
HETATM   17  C   UNL     1     -11.180  11.364  69.441  1.00  0.00    -0.333 C  
BRANCH  17  18
HETATM   18  C   UNL     1     -11.649  10.471  70.559  1.00  0.00    -0.441 A  
HETATM   19  C   UNL     1     -11.306   8.528  71.990  1.00  0.00    -0.425 A  
HETATM   20  C   UNL     1     -10.469   7.355  72.435  1.00  0.00    -0.233 C  
HETATM   21  C   UNL     1     -10.852   9.402  70.990  1.00  0.00    -0.406 A  
HETATM   22  C   UNL     1     -13.363   9.812  72.139  1.00  0.00    -0.527 A  
HETATM   23  F   UNL     1      -9.269   7.263  71.793  1.00  0.00    -0.141 F  
HETATM   24  F   UNL     1     -10.175   7.395  73.765  1.00  0.00    -0.339 F  
HETATM   25  F   UNL     1     -11.092   6.161  72.226  1.00  0.00    -0.256 F  
HETATM   26  C   UNL     1     -12.568   8.746  72.562  1.00  0.00    -0.375 A  
HETATM   27  C   UNL     1     -12.906  10.667  71.139  1.00  0.00    -0.518 A  
ENDBRANCH  17  18
ENDBRANCH  16  17
ENDBRANCH  15  16
ENDBRANCH  13  15
ENDBRANCH   2  13
TORSDOF 6
ENDMDL
MODEL       96
REMARK 921   NORMALIZED FREE ENERGY PREDICTED BY IDOCK:   -4.98 KCAL/MOL
REMARK 922        TOTAL FREE ENERGY PREDICTED BY IDOCK:   -9.86 KCAL/MOL
REMARK 923 INTER-LIGAND FREE ENERGY PREDICTED BY IDOCK:   -5.68 KCAL/MOL
REMARK 924 INTRA-LIGAND FREE ENERGY PREDICTED BY IDOCK:   -4.18 KCAL/MOL
REMARK 927      BINDING AFFINITY PREDICTED BY RF-SCORE:    0.00 PKD
ROOT
HETATM    1  C   UNL     1     -11.806  11.976  68.553  1.00  0.00    -0.369 C  
HETATM    2  C   UNL     1     -10.645  10.967  68.603  1.00  0.00    -0.196 C  
ENDROOT
BRANCH   2   3
HETATM    3  C   UNL     1     -10.883   9.782  69.543  1.00  0.00    -0.264 A  
HETATM    4  C   UNL     1     -10.345   6.722  67.368  1.00  0.00    -0.286 A  
HETATM    5  C   UNL     1     -11.250  10.023  70.883  1.00  0.00    -0.415 A  
HETATM    6  C   UNL     1     -10.771   5.721  68.227  1.00  0.00    -0.285 A  
HETATM    7  C   UNL     1     -10.342   8.053  67.796  1.00  0.00    -0.294 A  
HETATM    8  C   UNL     1     -11.156   6.048  69.526  1.00  0.00    -0.468 A  
HETATM    9  C   UNL     1     -11.557   8.979  71.750  1.00  0.00    -0.444 A  
HETATM   10  C   UNL     1     -11.527   7.670  71.289  1.00  0.00    -0.293 A  
HETATM   11  C   UNL     1     -10.781   8.430  69.087  1.00  0.00    -0.123 A  
HETATM   12  C   UNL     1     -11.154   7.381  69.970  1.00  0.00    -0.238 A  
ENDBRANCH   2   3
BRANCH   2  13
HETATM   13  N   UNL     1      -9.334  11.614  68.791  1.00  0.00    -0.382 NA 
HETATM   14  H   UNL     1      -8.939  11.360  69.696  1.00  0.00     0.000 HD 
BRANCH  13  15
HETATM   15  C   UNL     1      -8.373  11.351  67.725  1.00  0.00    -0.127 C  
BRANCH  15  16
HETATM   16  C   UNL     1      -7.437  10.209  68.120  1.00  0.00    -0.083 C  
BRANCH  16  17
HETATM   17  C   UNL     1      -7.205  10.223  69.633  1.00  0.00    -0.140 C  
BRANCH  17  18
HETATM   18  C   UNL     1      -7.475   8.871  70.238  1.00  0.00    -0.074 A  
HETATM   19  C   UNL     1      -8.097   7.508  72.161  1.00  0.00    -0.115 A  
HETATM   20  C   UNL     1      -8.521   7.386  73.603  1.00  0.00    -0.161 C  
HETATM   21  C   UNL     1      -7.901   8.766  71.570  1.00  0.00    -0.147 A  
HETATM   22  C   UNL     1      -7.451   6.454  70.069  1.00  0.00    -0.091 A  
HETATM   23  F   UNL     1      -8.702   8.587  74.225  1.00  0.00    -0.236 F  
HETATM   24  F   UNL     1      -9.698   6.715  73.748  1.00  0.00    -0.166 F  
HETATM   25  F   UNL     1      -7.611   6.712  74.359  1.00  0.00    -0.097 F  
HETATM   26  C   UNL     1      -7.872   6.354  71.396  1.00  0.00    -0.104 A  
HETATM   27  C   UNL     1      -7.251   7.708  69.496  1.00  0.00    -0.080 A  
ENDBRANCH  17  18
ENDBRANCH  16  17
ENDBRANCH  15  16
ENDBRANCH  13  15
ENDBRANCH   2  13
TORSDOF 6
ENDMDL
MODEL       97
REMARK 921   NORMALIZED FREE ENERGY PREDICTED BY IDOCK:   -4.96 KCAL/MOL
REMARK 922        TOTAL FREE ENERGY PREDICTED BY IDOCK:   -9.82 KCAL/MOL
REMARK 923 INTER-LIGAND FREE ENERGY PREDICTED BY IDOCK:   -8.62 KCAL/MOL
REMARK 924 INTRA-LIGAND FREE ENERGY PREDICTED BY IDOCK:   -1.21 KCAL/MOL
REMARK 927      BINDING AFFINITY PREDICTED BY RF-SCORE:    0.00 PKD
ROOT
HETATM    1  C   UNL     1     -12.603  12.901  65.079  1.00  0.00    -0.538 C  
HETATM    2  C   UNL     1     -11.685  12.576  66.271  1.00  0.00    -0.404 C  
ENDROOT
BRANCH   2   3
HETATM    3  C   UNL     1     -11.705  13.629  67.383  1.00  0.00    -0.416 A  
HETATM    4  C   UNL     1     -10.403  16.783  65.727  1.00  0.00    -0.322 A  
HETATM    5  C   UNL     1     -12.125  13.261  68.678  1.00  0.00    -0.257 A  
HETATM    6  C   UNL     1     -10.265  17.611  66.831  1.00  0.00    -0.334 A  
HETATM    7  C   UNL     1     -10.907  15.489  65.886  1.00  0.00    -0.317 A  
HETATM    8  C   UNL     1     -10.667  17.157  68.085  1.00  0.00    -0.366 A  
HETATM    9  C   UNL     1     -12.080  14.161  69.737  1.00  0.00    -0.409 A  
HETATM   10  C   UNL     1     -11.592  15.445  69.530  1.00  0.00    -0.346 A  
HETATM   11  C   UNL     1     -11.271  14.972  67.153  1.00  0.00    -0.336 A  
HETATM   12  C   UNL     1     -11.178  15.860  68.258  1.00  0.00    -0.354 A  
ENDBRANCH   2   3
BRANCH   2  13
HETATM   13  N   UNL     1     -10.327  12.183  65.856  1.00  0.00    -0.247 NA 
HETATM   14  H   UNL     1      -9.664  12.342  66.615  1.00  0.00     0.000 HD 
BRANCH  13  15
HETATM   15  C   UNL     1     -10.218  10.814  65.363  1.00  0.00    -0.276 C  
BRANCH  15  16
HETATM   16  C   UNL     1     -10.179   9.829  66.530  1.00  0.00    -0.289 C  
BRANCH  16  17
HETATM   17  C   UNL     1      -9.249  10.353  67.627  1.00  0.00    -0.157 C  
BRANCH  17  18
HETATM   18  C   UNL     1      -9.705   9.903  68.989  1.00  0.00    -0.195 A  
HETATM   19  C   UNL     1     -11.452   9.745  70.682  1.00  0.00    -0.397 A  
HETATM   20  C   UNL     1     -12.869   9.993  71.135  1.00  0.00    -0.385 C  
HETATM   21  C   UNL     1     -11.032  10.106  69.392  1.00  0.00    -0.285 A  
HETATM   22  C   UNL     1      -9.204   8.958  71.163  1.00  0.00    -0.324 A  
HETATM   23  F   UNL     1     -13.658  10.562  70.180  1.00  0.00    -0.168 F  
HETATM   24  F   UNL     1     -13.507   8.848  71.507  1.00  0.00    -0.344 F  
HETATM   25  F   UNL     1     -12.934  10.824  72.213  1.00  0.00    -0.535 F  
HETATM   26  C   UNL     1     -10.525   9.166  71.562  1.00  0.00    -0.422 A  
HETATM   27  C   UNL     1      -8.797   9.329  69.884  1.00  0.00    -0.196 A  
ENDBRANCH  17  18
ENDBRANCH  16  17
ENDBRANCH  15  16
ENDBRANCH  13  15
ENDBRANCH   2  13
TORSDOF 6
ENDMDL
MODEL       98
REMARK 921   NORMALIZED FREE ENERGY PREDICTED BY IDOCK:   -4.95 KCAL/MOL
REMARK 922        TOTAL FREE ENERGY PREDICTED BY IDOCK:   -9.81 KCAL/MOL
REMARK 923 INTER-LIGAND FREE ENERGY PREDICTED BY IDOCK:   -6.50 KCAL/MOL
REMARK 924 INTRA-LIGAND FREE ENERGY PREDICTED BY IDOCK:   -3.31 KCAL/MOL
REMARK 927      BINDING AFFINITY PREDICTED BY RF-SCORE:    0.00 PKD
ROOT
HETATM    1  C   UNL     1     -11.078  13.474  68.424  1.00  0.00    -0.298 C  
HETATM    2  C   UNL     1     -11.881  12.169  68.286  1.00  0.00    -0.301 C  
ENDROOT
BRANCH   2   3
HETATM    3  C   UNL     1     -11.589  11.135  69.377  1.00  0.00    -0.388 A  
HETATM    4  C   UNL     1      -7.842  10.582  69.182  1.00  0.00    -0.138 A  
HETATM    5  C   UNL     1     -12.653  10.614  70.142  1.00  0.00    -0.283 A  
HETATM    6  C   UNL     1      -7.698   9.507  70.044  1.00  0.00    -0.146 A  
HETATM    7  C   UNL     1      -9.103  11.149  68.979  1.00  0.00    -0.036 A  
HETATM    8  C   UNL     1      -8.809   9.025  70.733  1.00  0.00    -0.281 A  
HETATM    9  C   UNL     1     -12.446   9.613  71.085  1.00  0.00    -0.421 A  
HETATM   10  C   UNL     1     -11.172   9.092  71.269  1.00  0.00    -0.407 A  
HETATM   11  C   UNL     1     -10.265  10.651  69.617  1.00  0.00    -0.156 A  
HETATM   12  C   UNL     1     -10.082   9.588  70.543  1.00  0.00    -0.347 A  
ENDBRANCH   2   3
BRANCH   2  13
HETATM   13  N   UNL     1     -11.840  11.614  66.922  1.00  0.00    -0.547 NA 
HETATM   14  H   UNL     1     -12.748  11.718  66.468  1.00  0.00     0.000 HD 
BRANCH  13  15
HETATM   15  C   UNL     1     -10.784  12.163  66.078  1.00  0.00    -0.273 C  
BRANCH  15  16
HETATM   16  C   UNL     1      -9.787  11.072  65.693  1.00  0.00    -0.287 C  
BRANCH  16  17
HETATM   17  C   UNL     1     -10.498   9.719  65.610  1.00  0.00     0.134 C  
BRANCH  17  18
HETATM   18  C   UNL     1      -9.743   8.659  66.366  1.00  0.00    -0.333 A  
HETATM   19  C   UNL     1      -9.709   6.873  68.026  1.00  0.00    -0.138 A  
HETATM   20  C   UNL     1     -10.418   5.995  69.026  1.00  0.00    -0.256 C  
HETATM   21  C   UNL     1     -10.414   7.824  67.271  1.00  0.00    -0.392 A  
HETATM   22  C   UNL     1      -7.650   7.589  66.952  1.00  0.00    -0.102 A  
HETATM   23  F   UNL     1     -11.763   6.213  69.089  1.00  0.00    -0.456 F  
HETATM   24  F   UNL     1     -10.270   4.668  68.755  1.00  0.00    -0.225 F  
HETATM   25  F   UNL     1      -9.955   6.171  70.295  1.00  0.00    -0.185 F  
HETATM   26  C   UNL     1      -8.321   6.762  67.855  1.00  0.00    -0.120 A  
HETATM   27  C   UNL     1      -8.359   8.534  66.215  1.00  0.00    -0.118 A  
ENDBRANCH  17  18
ENDBRANCH  16  17
ENDBRANCH  15  16
ENDBRANCH  13  15
ENDBRANCH   2  13
TORSDOF 6
ENDMDL
MODEL       99
REMARK 921   NORMALIZED FREE ENERGY PREDICTED BY IDOCK:   -4.94 KCAL/MOL
REMARK 922        TOTAL FREE ENERGY PREDICTED BY IDOCK:   -9.80 KCAL/MOL
REMARK 923 INTER-LIGAND FREE ENERGY PREDICTED BY IDOCK:   -8.24 KCAL/MOL
REMARK 924 INTRA-LIGAND FREE ENERGY PREDICTED BY IDOCK:   -1.57 KCAL/MOL
REMARK 927      BINDING AFFINITY PREDICTED BY RF-SCORE:    0.00 PKD
ROOT
HETATM    1  C   UNL     1     -11.938   6.617  70.447  1.00  0.00    -0.342 C  
HETATM    2  C   UNL     1     -11.843   7.764  71.469  1.00  0.00    -0.293 C  
ENDROOT
BRANCH   2   3
HETATM    3  C   UNL     1     -10.467   7.906  72.126  1.00  0.00    -0.308 A  
HETATM    4  C   UNL     1      -8.437   9.934  69.646  1.00  0.00    -0.198 A  
HETATM    5  C   UNL     1     -10.228   7.297  73.375  1.00  0.00    -0.394 A  
HETATM    6  C   UNL     1      -7.176   9.842  70.214  1.00  0.00    -0.160 A  
HETATM    7  C   UNL     1      -9.531   9.335  70.277  1.00  0.00    -0.277 A  
HETATM    8  C   UNL     1      -7.018   9.187  71.433  1.00  0.00    -0.031 A  
HETATM    9  C   UNL     1      -8.972   7.329  73.970  1.00  0.00    -0.268 A  
HETATM   10  C   UNL     1      -7.916   7.953  73.316  1.00  0.00    -0.209 A  
HETATM   11  C   UNL     1      -9.400   8.611  71.487  1.00  0.00    -0.319 A  
HETATM   12  C   UNL     1      -8.109   8.585  72.081  1.00  0.00    -0.162 A  
ENDBRANCH   2   3
BRANCH   2  13
HETATM   13  N   UNL     1     -12.959   7.765  72.432  1.00  0.00    -0.516 NA 
HETATM   14  H   UNL     1     -12.605   7.680  73.385  1.00  0.00     0.000 HD 
BRANCH  13  15
HETATM   15  C   UNL     1     -13.851   8.914  72.321  1.00  0.00    -0.474 C  
BRANCH  15  16
HETATM   16  C   UNL     1     -13.440   9.797  71.145  1.00  0.00    -0.304 C  
BRANCH  16  17
HETATM   17  C   UNL     1     -12.918  11.142  71.657  1.00  0.00    -0.548 C  
BRANCH  17  18
HETATM   18  C   UNL     1     -12.345  11.967  70.536  1.00  0.00    -0.369 A  
HETATM   19  C   UNL     1     -11.701  14.138  69.631  1.00  0.00    -0.372 A  
HETATM   20  C   UNL     1     -11.553  15.631  69.778  1.00  0.00    -0.352 C  
HETATM   21  C   UNL     1     -12.178  13.351  70.691  1.00  0.00    -0.427 A  
HETATM   22  C   UNL     1     -11.542  12.140  68.256  1.00  0.00    -0.382 A  
HETATM   23  F   UNL     1     -11.901  16.097  71.012  1.00  0.00    -0.385 F  
HETATM   24  F   UNL     1     -10.274  16.053  69.571  1.00  0.00    -0.215 F  
HETATM   25  F   UNL     1     -12.322  16.322  68.891  1.00  0.00    -0.200 F  
HETATM   26  C   UNL     1     -11.382  13.518  68.414  1.00  0.00    -0.327 A  
HETATM   27  C   UNL     1     -12.025  11.371  69.312  1.00  0.00    -0.400 A  
ENDBRANCH  17  18
ENDBRANCH  16  17
ENDBRANCH  15  16
ENDBRANCH  13  15
ENDBRANCH   2  13
TORSDOF 6
ENDMDL
MODEL      100
REMARK 921   NORMALIZED FREE ENERGY PREDICTED BY IDOCK:   -4.94 KCAL/MOL
REMARK 922        TOTAL FREE ENERGY PREDICTED BY IDOCK:   -9.80 KCAL/MOL
REMARK 923 INTER-LIGAND FREE ENERGY PREDICTED BY IDOCK:   -7.29 KCAL/MOL
REMARK 924 INTRA-LIGAND FREE ENERGY PREDICTED BY IDOCK:   -2.51 KCAL/MOL
REMARK 927      BINDING AFFINITY PREDICTED BY RF-SCORE:    0.00 PKD
ROOT
HETATM    1  C   UNL     1      -6.912  16.257  69.198  1.00  0.00    -0.206 C  
HETATM    2  C   UNL     1      -6.804  16.212  67.664  1.00  0.00    -0.152 C  
ENDROOT
BRANCH   2   3
HETATM    3  C   UNL     1      -8.117  16.511  66.934  1.00  0.00    -0.254 A  
HETATM    4  C   UNL     1      -8.739  20.198  67.574  1.00  0.00    -0.415 A  
HETATM    5  C   UNL     1      -8.790  15.470  66.263  1.00  0.00    -0.338 A  
HETATM    6  C   UNL     1     -10.020  20.332  67.062  1.00  0.00    -0.601 A  
HETATM    7  C   UNL     1      -8.088  18.962  67.508  1.00  0.00    -0.280 A  
HETATM    8  C   UNL     1     -10.633  19.241  66.449  1.00  0.00    -0.542 A  
HETATM    9  C   UNL     1     -10.026  15.676  65.658  1.00  0.00    -0.388 A  
HETATM   10  C   UNL     1     -10.627  16.926  65.730  1.00  0.00    -0.238 A  
HETATM   11  C   UNL     1      -8.701  17.817  66.946  1.00  0.00    -0.262 A  
HETATM   12  C   UNL     1      -9.989  17.995  66.372  1.00  0.00    -0.362 A  
ENDBRANCH   2   3
BRANCH   2  13
HETATM   13  N   UNL     1      -6.120  15.002  67.174  1.00  0.00    -0.175 NA 
HETATM   14  H   UNL     1      -5.154  15.216  66.925  1.00  0.00     0.000 HD 
BRANCH  13  15
HETATM   15  C   UNL     1      -6.169  13.868  68.091  1.00  0.00    -0.128 C  
BRANCH  15  16
HETATM   16  C   UNL     1      -6.996  12.732  67.490  1.00  0.00    -0.149 C  
BRANCH  16  17
HETATM   17  C   UNL     1      -7.971  12.185  68.536  1.00  0.00    -0.119 C  
BRANCH  17  18
HETATM   18  C   UNL     1      -9.367  12.695  68.299  1.00  0.00    -0.195 A  
HETATM   19  C   UNL     1     -11.113  14.341  68.731  1.00  0.00    -0.276 A  
HETATM   20  C   UNL     1     -11.589  15.605  69.400  1.00  0.00    -0.370 C  
HETATM   21  C   UNL     1      -9.794  13.888  68.897  1.00  0.00    -0.041 A  
HETATM   22  C   UNL     1     -11.575  12.398  67.345  1.00  0.00    -0.433 A  
HETATM   23  F   UNL     1     -10.626  16.235  70.132  1.00  0.00    -0.292 F  
HETATM   24  F   UNL     1     -12.040  16.531  68.508  1.00  0.00    -0.130 F  
HETATM   25  F   UNL     1     -12.622  15.382  70.261  1.00  0.00    -0.365 F  
HETATM   26  C   UNL     1     -11.997  13.586  67.946  1.00  0.00    -0.372 A  
HETATM   27  C   UNL     1     -10.267  11.955  67.525  1.00  0.00    -0.212 A  
ENDBRANCH  17  18
ENDBRANCH  16  17
ENDBRANCH  15  16
ENDBRANCH  13  15
ENDBRANCH   2  13
TORSDOF 6
ENDMDL
MODEL      101
REMARK 921   NORMALIZED FREE ENERGY PREDICTED BY IDOCK:   -4.93 KCAL/MOL
REMARK 922        TOTAL FREE ENERGY PREDICTED BY IDOCK:   -9.78 KCAL/MOL
REMARK 923 INTER-LIGAND FREE ENERGY PREDICTED BY IDOCK:   -8.03 KCAL/MOL
REMARK 924 INTRA-LIGAND FREE ENERGY PREDICTED BY IDOCK:   -1.75 KCAL/MOL
REMARK 927      BINDING AFFINITY PREDICTED BY RF-SCORE:    0.00 PKD
ROOT
HETATM    1  C   UNL     1     -10.661   9.185  68.074  1.00  0.00    -0.253 C  
HETATM    2  C   UNL     1     -10.558  10.690  67.769  1.00  0.00    -0.236 C  
ENDROOT
BRANCH   2   3
HETATM    3  C   UNL     1     -10.302  11.016  66.295  1.00  0.00    -0.304 A  
HETATM    4  C   UNL     1     -12.797  13.754  65.480  1.00  0.00    -0.464 A  
HETATM    5  C   UNL     1      -9.319  10.295  65.586  1.00  0.00    -0.241 A  
HETATM    6  C   UNL     1     -12.638  13.842  64.106  1.00  0.00    -0.159 A  
HETATM    7  C   UNL     1     -12.015  12.859  66.216  1.00  0.00    -0.472 A  
HETATM    8  C   UNL     1     -11.670  13.064  63.475  1.00  0.00    -0.532 A  
HETATM    9  C   UNL     1      -9.110  10.498  64.226  1.00  0.00    -0.256 A  
HETATM   10  C   UNL     1      -9.896  11.413  63.538  1.00  0.00    -0.404 A  
HETATM   11  C   UNL     1     -11.062  12.010  65.603  1.00  0.00    -0.361 A  
HETATM   12  C   UNL     1     -10.874  12.164  64.202  1.00  0.00    -0.410 A  
ENDBRANCH   2   3
BRANCH   2  13
HETATM   13  N   UNL     1      -9.658  11.401  68.694  1.00  0.00    -0.261 NA 
HETATM   14  H   UNL     1      -9.277  10.755  69.387  1.00  0.00     0.000 HD 
BRANCH  13  15
HETATM   15  C   UNL     1      -8.581  12.139  68.043  1.00  0.00    -0.175 C  
BRANCH  15  16
HETATM   16  C   UNL     1      -8.793  13.643  68.201  1.00  0.00    -0.189 C  
BRANCH  16  17
HETATM   17  C   UNL     1      -8.095  14.393  67.063  1.00  0.00    -0.095 C  
BRANCH  17  18
HETATM   18  C   UNL     1      -8.871  15.619  66.661  1.00  0.00    -0.327 A  
HETATM   19  C   UNL     1      -9.512  17.935  67.068  1.00  0.00    -0.272 A  
HETATM   20  C   UNL     1      -9.411  19.204  67.877  1.00  0.00    -0.320 C  
HETATM   21  C   UNL     1      -8.748  16.805  67.398  1.00  0.00    -0.202 A  
HETATM   22  C   UNL     1     -10.518  16.687  65.241  1.00  0.00    -0.195 A  
HETATM   23  F   UNL     1      -8.517  19.129  68.904  1.00  0.00    -0.375 F  
HETATM   24  F   UNL     1      -9.025  20.274  67.127  1.00  0.00    -0.384 F  
HETATM   25  F   UNL     1     -10.599  19.555  68.445  1.00  0.00    -0.470 F  
HETATM   26  C   UNL     1     -10.395  17.865  65.981  1.00  0.00    -0.318 A  
HETATM   27  C   UNL     1      -9.761  15.569  65.584  1.00  0.00    -0.355 A  
ENDBRANCH  17  18
ENDBRANCH  16  17
ENDBRANCH  15  16
ENDBRANCH  13  15
ENDBRANCH   2  13
TORSDOF 6
ENDMDL
MODEL      102
REMARK 921   NORMALIZED FREE ENERGY PREDICTED BY IDOCK:   -4.90 KCAL/MOL
REMARK 922        TOTAL FREE ENERGY PREDICTED BY IDOCK:   -9.75 KCAL/MOL
REMARK 923 INTER-LIGAND FREE ENERGY PREDICTED BY IDOCK:   -9.17 KCAL/MOL
REMARK 924 INTRA-LIGAND FREE ENERGY PREDICTED BY IDOCK:   -0.58 KCAL/MOL
REMARK 927      BINDING AFFINITY PREDICTED BY RF-SCORE:    0.00 PKD
ROOT
HETATM    1  C   UNL     1     -11.034  10.173  68.187  1.00  0.00    -0.313 C  
HETATM    2  C   UNL     1     -10.772  10.763  69.584  1.00  0.00    -0.211 C  
ENDROOT
BRANCH   2   3
HETATM    3  C   UNL     1     -11.430   9.985  70.727  1.00  0.00    -0.438 A  
HETATM    4  C   UNL     1      -8.578   8.065  72.331  1.00  0.00    -0.220 A  
HETATM    5  C   UNL     1     -12.822  10.089  70.927  1.00  0.00    -0.408 A  
HETATM    6  C   UNL     1      -9.281   7.250  73.205  1.00  0.00    -0.201 A  
HETATM    7  C   UNL     1      -9.264   8.991  71.538  1.00  0.00    -0.260 A  
HETATM    8  C   UNL     1     -10.663   7.388  73.314  1.00  0.00    -0.441 A  
HETATM    9  C   UNL     1     -13.474   9.336  71.898  1.00  0.00    -0.497 A  
HETATM   10  C   UNL     1     -12.750   8.443  72.678  1.00  0.00    -0.197 A  
HETATM   11  C   UNL     1     -10.673   9.120  71.579  1.00  0.00    -0.437 A  
HETATM   12  C   UNL     1     -11.364   8.317  72.527  1.00  0.00    -0.455 A  
ENDBRANCH   2   3
BRANCH   2  13
HETATM   13  N   UNL     1     -11.014  12.216  69.646  1.00  0.00    -0.466 NA 
HETATM   14  H   UNL     1     -10.555  12.618  70.463  1.00  0.00     0.000 HD 
BRANCH  13  15
HETATM   15  C   UNL     1     -10.633  12.943  68.440  1.00  0.00    -0.253 C  
BRANCH  15  16
HETATM   16  C   UNL     1     -11.814  13.754  67.910  1.00  0.00    -0.413 C  
BRANCH  16  17
HETATM   17  C   UNL     1     -11.849  15.129  68.583  1.00  0.00    -0.329 C  
BRANCH  17  18
HETATM   18  C   UNL     1     -10.992  16.120  67.842  1.00  0.00    -0.318 A  
HETATM   19  C   UNL     1      -9.913  18.303  67.727  1.00  0.00    -0.343 A  
HETATM   20  C   UNL     1      -9.582  19.640  68.342  1.00  0.00    -0.379 C  
HETATM   21  C   UNL     1     -10.660  17.348  68.432  1.00  0.00    -0.355 A  
HETATM   22  C   UNL     1      -9.814  16.785  65.831  1.00  0.00    -0.276 A  
HETATM   23  F   UNL     1     -10.057  19.791  69.611  1.00  0.00    -0.478 F  
HETATM   24  F   UNL     1      -8.240  19.862  68.420  1.00  0.00    -0.351 F  
HETATM   25  F   UNL     1     -10.093  20.682  67.629  1.00  0.00    -0.551 F  
HETATM   26  C   UNL     1      -9.490  18.008  66.422  1.00  0.00    -0.280 A  
HETATM   27  C   UNL     1     -10.565  15.849  66.539  1.00  0.00    -0.297 A  
ENDBRANCH  17  18
ENDBRANCH  16  17
ENDBRANCH  15  16
ENDBRANCH  13  15
ENDBRANCH   2  13
TORSDOF 6
ENDMDL
MODEL      103
REMARK 921   NORMALIZED FREE ENERGY PREDICTED BY IDOCK:   -4.90 KCAL/MOL
REMARK 922        TOTAL FREE ENERGY PREDICTED BY IDOCK:   -9.74 KCAL/MOL
REMARK 923 INTER-LIGAND FREE ENERGY PREDICTED BY IDOCK:   -5.71 KCAL/MOL
REMARK 924 INTRA-LIGAND FREE ENERGY PREDICTED BY IDOCK:   -4.03 KCAL/MOL
REMARK 927      BINDING AFFINITY PREDICTED BY RF-SCORE:    0.00 PKD
ROOT
HETATM    1  C   UNL     1     -10.416  12.397  68.818  1.00  0.00    -0.179 C  
HETATM    2  C   UNL     1      -9.991  10.986  68.373  1.00  0.00    -0.186 C  
ENDROOT
BRANCH   2   3
HETATM    3  C   UNL     1      -9.305  10.164  69.467  1.00  0.00    -0.230 A  
HETATM    4  C   UNL     1     -12.162   8.729  71.508  1.00  0.00    -0.382 A  
HETATM    5  C   UNL     1      -7.897  10.126  69.526  1.00  0.00    -0.165 A  
HETATM    6  C   UNL     1     -11.464   8.180  72.572  1.00  0.00    -0.470 A  
HETATM    7  C   UNL     1     -11.468   9.351  70.466  1.00  0.00    -0.317 A  
HETATM    8  C   UNL     1     -10.071   8.218  72.573  1.00  0.00    -0.376 A  
HETATM    9  C   UNL     1      -7.231   9.461  70.550  1.00  0.00    -0.126 A  
HETATM   10  C   UNL     1      -7.961   8.838  71.555  1.00  0.00    -0.160 A  
HETATM   11  C   UNL     1     -10.057   9.461  70.461  1.00  0.00    -0.335 A  
HETATM   12  C   UNL     1      -9.361   8.836  71.531  1.00  0.00    -0.337 A  
ENDBRANCH   2   3
BRANCH   2  13
HETATM   13  N   UNL     1      -9.263  10.986  67.092  1.00  0.00    -0.152 NA 
HETATM   14  H   UNL     1      -8.306  10.661  67.227  1.00  0.00     0.000 HD 
BRANCH  13  15
HETATM   15  C   UNL     1      -9.912  10.226  66.028  1.00  0.00    -0.245 C  
BRANCH  15  16
HETATM   16  C   UNL     1     -10.532   8.947  66.588  1.00  0.00    -0.231 C  
BRANCH  16  17
HETATM   17  C   UNL     1      -9.488   7.826  66.609  1.00  0.00    -0.263 C  
BRANCH  17  18
HETATM   18  C   UNL     1      -9.605   6.997  67.860  1.00  0.00    -0.133 A  
HETATM   19  C   UNL     1      -8.549   5.783  69.691  1.00  0.00    -0.116 A  
HETATM   20  C   UNL     1      -7.313   5.330  70.427  1.00  0.00    -0.063 C  
HETATM   21  C   UNL     1      -8.454   6.606  68.558  1.00  0.00    -0.122 A  
HETATM   22  C   UNL     1     -10.965   5.752  69.432  1.00  0.00    -0.352 A  
HETATM   23  F   UNL     1      -6.152   5.812  69.897  1.00  0.00    -0.021 F  
HETATM   24  F   UNL     1      -7.311   5.717  71.734  1.00  0.00    -0.081 F  
HETATM   25  F   UNL     1      -7.180   3.974  70.439  1.00  0.00    -0.039 F  
HETATM   26  C   UNL     1      -9.816   5.363  70.122  1.00  0.00    -0.273 A  
HETATM   27  C   UNL     1     -10.858   6.562  68.304  1.00  0.00    -0.359 A  
ENDBRANCH  17  18
ENDBRANCH  16  17
ENDBRANCH  15  16
ENDBRANCH  13  15
ENDBRANCH   2  13
TORSDOF 6
ENDMDL
MODEL      104
REMARK 921   NORMALIZED FREE ENERGY PREDICTED BY IDOCK:   -4.89 KCAL/MOL
REMARK 922        TOTAL FREE ENERGY PREDICTED BY IDOCK:   -9.74 KCAL/MOL
REMARK 923 INTER-LIGAND FREE ENERGY PREDICTED BY IDOCK:   -6.57 KCAL/MOL
REMARK 924 INTRA-LIGAND FREE ENERGY PREDICTED BY IDOCK:   -3.17 KCAL/MOL
REMARK 927      BINDING AFFINITY PREDICTED BY RF-SCORE:    0.00 PKD
ROOT
HETATM    1  C   UNL     1      -9.265   3.937  68.650  1.00  0.00    -0.211 C  
HETATM    2  C   UNL     1      -8.878   5.324  69.193  1.00  0.00    -0.099 C  
ENDROOT
BRANCH   2   3
HETATM    3  C   UNL     1      -9.965   5.992  70.041  1.00  0.00    -0.227 A  
HETATM    4  C   UNL     1      -8.318   6.573  73.408  1.00  0.00    -0.124 A  
HETATM    5  C   UNL     1     -11.242   6.210  69.484  1.00  0.00    -0.482 A  
HETATM    6  C   UNL     1      -9.410   6.983  74.157  1.00  0.00    -0.276 A  
HETATM    7  C   UNL     1      -8.476   6.278  72.050  1.00  0.00    -0.123 A  
HETATM    8  C   UNL     1     -10.649   7.137  73.539  1.00  0.00    -0.416 A  
HETATM    9  C   UNL     1     -12.282   6.737  70.242  1.00  0.00    -0.098 A  
HETATM   10  C   UNL     1     -12.076   7.034  71.583  1.00  0.00    -0.384 A  
HETATM   11  C   UNL     1      -9.731   6.366  71.401  1.00  0.00    -0.187 A  
HETATM   12  C   UNL     1     -10.821   6.849  72.175  1.00  0.00    -0.256 A  
ENDBRANCH   2   3
BRANCH   2  13
HETATM   13  N   UNL     1      -8.314   6.207  68.156  1.00  0.00    -0.114 NA 
HETATM   14  H   UNL     1      -9.029   6.844  67.805  1.00  0.00     0.000 HD 
BRANCH  13  15
HETATM   15  C   UNL     1      -7.130   6.951  68.574  1.00  0.00    -0.082 C  
BRANCH  15  16
HETATM   16  C   UNL     1      -7.362   8.453  68.421  1.00  0.00    -0.094 C  
BRANCH  16  17
HETATM   17  C   UNL     1      -8.042   9.008  69.676  1.00  0.00    -0.103 C  
BRANCH  17  18
HETATM   18  C   UNL     1      -9.321   9.722  69.333  1.00  0.00    -0.212 A  
HETATM   19  C   UNL     1     -11.534  10.513  69.981  1.00  0.00    -0.393 A  
HETATM   20  C   UNL     1     -12.620  10.678  71.015  1.00  0.00    -0.416 C  
HETATM   21  C   UNL     1     -10.313   9.902  70.307  1.00  0.00    -0.339 A  
HETATM   22  C   UNL     1     -10.758  10.780  67.694  1.00  0.00    -0.305 A  
HETATM   23  F   UNL     1     -12.280  10.204  72.247  1.00  0.00    -0.320 F  
HETATM   24  F   UNL     1     -12.969  11.982  71.203  1.00  0.00    -0.418 F  
HETATM   25  F   UNL     1     -13.768  10.030  70.673  1.00  0.00    -0.396 F  
HETATM   26  C   UNL     1     -11.745  10.953  68.666  1.00  0.00    -0.334 A  
HETATM   27  C   UNL     1      -9.554  10.164  68.027  1.00  0.00    -0.160 A  
ENDBRANCH  17  18
ENDBRANCH  16  17
ENDBRANCH  15  16
ENDBRANCH  13  15
ENDBRANCH   2  13
TORSDOF 6
ENDMDL
MODEL      105
REMARK 921   NORMALIZED FREE ENERGY PREDICTED BY IDOCK:   -4.89 KCAL/MOL
REMARK 922        TOTAL FREE ENERGY PREDICTED BY IDOCK:   -9.73 KCAL/MOL
REMARK 923 INTER-LIGAND FREE ENERGY PREDICTED BY IDOCK:   -8.58 KCAL/MOL
REMARK 924 INTRA-LIGAND FREE ENERGY PREDICTED BY IDOCK:   -1.15 KCAL/MOL
REMARK 927      BINDING AFFINITY PREDICTED BY RF-SCORE:    0.00 PKD
ROOT
HETATM    1  C   UNL     1     -11.884  15.767  68.991  1.00  0.00    -0.367 C  
HETATM    2  C   UNL     1     -10.801  14.692  68.786  1.00  0.00    -0.255 C  
ENDROOT
BRANCH   2   3
HETATM    3  C   UNL     1     -11.255  13.271  69.133  1.00  0.00    -0.305 A  
HETATM    4  C   UNL     1     -13.423  13.693  72.216  1.00  0.00    -0.652 A  
HETATM    5  C   UNL     1     -10.805  12.189  68.348  1.00  0.00    -0.255 A  
HETATM    6  C   UNL     1     -13.619  12.368  72.572  1.00  0.00    -0.076 A  
HETATM    7  C   UNL     1     -12.681  14.005  71.073  1.00  0.00    -0.431 A  
HETATM    8  C   UNL     1     -13.107  11.356  71.763  1.00  0.00    -0.523 A  
HETATM    9  C   UNL     1     -11.124  10.875  68.675  1.00  0.00    -0.305 A  
HETATM   10  C   UNL     1     -11.881  10.612  69.809  1.00  0.00    -0.377 A  
HETATM   11  C   UNL     1     -12.096  13.006  70.259  1.00  0.00    -0.388 A  
HETATM   12  C   UNL     1     -12.363  11.655  70.610  1.00  0.00    -0.437 A  
ENDBRANCH   2   3
BRANCH   2  13
HETATM   13  N   UNL     1      -9.508  15.061  69.389  1.00  0.00    -0.385 NA 
HETATM   14  H   UNL     1      -8.925  14.233  69.514  1.00  0.00     0.000 HD 
BRANCH  13  15
HETATM   15  C   UNL     1      -8.776  16.093  68.663  1.00  0.00    -0.214 C  
BRANCH  15  16
HETATM   16  C   UNL     1      -8.276  15.552  67.325  1.00  0.00    -0.224 C  
BRANCH  16  17
HETATM   17  C   UNL     1      -9.053  16.199  66.176  1.00  0.00    -0.382 C  
BRANCH  17  18
HETATM   18  C   UNL     1     -10.008  15.220  65.545  1.00  0.00    -0.383 A  
HETATM   19  C   UNL     1     -10.549  12.944  64.862  1.00  0.00    -0.342 A  
HETATM   20  C   UNL     1     -10.200  11.479  64.779  1.00  0.00    -0.281 C  
HETATM   21  C   UNL     1      -9.693  13.855  65.501  1.00  0.00    -0.119 A  
HETATM   22  C   UNL     1     -12.051  14.776  64.321  1.00  0.00    -0.415 A  
HETATM   23  F   UNL     1      -9.022  11.161  65.389  1.00  0.00    -0.192 F  
HETATM   24  F   UNL     1     -11.143  10.683  65.358  1.00  0.00    -0.138 F  
HETATM   25  F   UNL     1     -10.081  11.042  63.494  1.00  0.00    -0.296 F  
HETATM   26  C   UNL     1     -11.732  13.417  64.276  1.00  0.00    -0.455 A  
HETATM   27  C   UNL     1     -11.190  15.672  64.950  1.00  0.00    -0.376 A  
ENDBRANCH  17  18
ENDBRANCH  16  17
ENDBRANCH  15  16
ENDBRANCH  13  15
ENDBRANCH   2  13
TORSDOF 6
ENDMDL
MODEL      106
REMARK 921   NORMALIZED FREE ENERGY PREDICTED BY IDOCK:   -4.89 KCAL/MOL
REMARK 922        TOTAL FREE ENERGY PREDICTED BY IDOCK:   -9.73 KCAL/MOL
REMARK 923 INTER-LIGAND FREE ENERGY PREDICTED BY IDOCK:   -8.09 KCAL/MOL
REMARK 924 INTRA-LIGAND FREE ENERGY PREDICTED BY IDOCK:   -1.63 KCAL/MOL
REMARK 927      BINDING AFFINITY PREDICTED BY RF-SCORE:    0.00 PKD
ROOT
HETATM    1  C   UNL     1     -10.557  16.742  68.369  1.00  0.00    -0.354 C  
HETATM    2  C   UNL     1      -9.670  15.697  69.067  1.00  0.00    -0.241 C  
ENDROOT
BRANCH   2   3
HETATM    3  C   UNL     1      -9.320  14.488  68.195  1.00  0.00    -0.197 A  
HETATM    4  C   UNL     1     -12.480  13.802  66.212  1.00  0.00    -0.441 A  
HETATM    5  C   UNL     1      -8.043  13.900  68.305  1.00  0.00    -0.150 A  
HETATM    6  C   UNL     1     -12.148  12.596  65.615  1.00  0.00    -0.502 A  
HETATM    7  C   UNL     1     -11.552  14.452  67.032  1.00  0.00    -0.402 A  
HETATM    8  C   UNL     1     -10.876  12.061  65.806  1.00  0.00    -0.329 A  
HETATM    9  C   UNL     1      -7.710  12.751  67.595  1.00  0.00    -0.162 A  
HETATM   10  C   UNL     1      -8.656  12.149  66.775  1.00  0.00    -0.163 A  
HETATM   11  C   UNL     1     -10.271  13.911  67.296  1.00  0.00    -0.249 A  
HETATM   12  C   UNL     1      -9.932  12.705  66.623  1.00  0.00    -0.247 A  
ENDBRANCH   2   3
BRANCH   2  13
HETATM   13  N   UNL     1     -10.161  15.334  70.408  1.00  0.00    -0.453 NA 
HETATM   14  H   UNL     1      -9.547  15.716  71.127  1.00  0.00     0.000 HD 
BRANCH  13  15
HETATM   15  C   UNL     1     -11.545  15.714  70.668  1.00  0.00    -0.367 C  
BRANCH  15  16
HETATM   16  C   UNL     1     -12.332  14.524  71.214  1.00  0.00    -0.418 C  
BRANCH  16  17
HETATM   17  C   UNL     1     -12.588  13.509  70.097  1.00  0.00    -0.178 C  
BRANCH  17  18
HETATM   18  C   UNL     1     -12.354  12.101  70.576  1.00  0.00    -0.358 A  
HETATM   19  C   UNL     1     -11.242   9.946  70.324  1.00  0.00    -0.364 A  
HETATM   20  C   UNL     1     -10.269   9.046  69.605  1.00  0.00    -0.206 C  
HETATM   21  C   UNL     1     -11.424  11.279  69.923  1.00  0.00    -0.373 A  
HETATM   22  C   UNL     1     -12.921  10.265  72.051  1.00  0.00    -0.503 A  
HETATM   23  F   UNL     1      -9.607   9.659  68.583  1.00  0.00    -0.144 F  
HETATM   24  F   UNL     1      -9.302   8.554  70.430  1.00  0.00    -0.150 F  
HETATM   25  F   UNL     1     -10.876   7.958  69.052  1.00  0.00    -0.218 F  
HETATM   26  C   UNL     1     -11.997   9.449  71.396  1.00  0.00    -0.446 A  
HETATM   27  C   UNL     1     -13.100  11.583  71.639  1.00  0.00    -0.478 A  
ENDBRANCH  17  18
ENDBRANCH  16  17
ENDBRANCH  15  16
ENDBRANCH  13  15
ENDBRANCH   2  13
TORSDOF 6
ENDMDL
MODEL      107
REMARK 921   NORMALIZED FREE ENERGY PREDICTED BY IDOCK:   -4.87 KCAL/MOL
REMARK 922        TOTAL FREE ENERGY PREDICTED BY IDOCK:   -9.71 KCAL/MOL
REMARK 923 INTER-LIGAND FREE ENERGY PREDICTED BY IDOCK:   -6.63 KCAL/MOL
REMARK 924 INTRA-LIGAND FREE ENERGY PREDICTED BY IDOCK:   -3.08 KCAL/MOL
REMARK 927      BINDING AFFINITY PREDICTED BY RF-SCORE:    0.00 PKD
ROOT
HETATM    1  C   UNL     1     -11.199   8.155  72.572  1.00  0.00    -0.459 C  
HETATM    2  C   UNL     1     -11.548   8.163  71.073  1.00  0.00    -0.279 C  
ENDROOT
BRANCH   2   3
HETATM    3  C   UNL     1     -10.343   8.360  70.149  1.00  0.00    -0.214 A  
HETATM    4  C   UNL     1     -10.778   5.731  67.449  1.00  0.00    -0.332 A  
HETATM    5  C   UNL     1      -9.386   9.348  70.459  1.00  0.00    -0.319 A  
HETATM    6  C   UNL     1      -9.565   5.844  66.788  1.00  0.00    -0.165 A  
HETATM    7  C   UNL     1     -11.063   6.572  68.530  1.00  0.00    -0.347 A  
HETATM    8  C   UNL     1      -8.655   6.822  67.182  1.00  0.00    -0.120 A  
HETATM    9  C   UNL     1      -8.234   9.506  69.696  1.00  0.00    -0.143 A  
HETATM   10  C   UNL     1      -8.001   8.662  68.618  1.00  0.00    -0.115 A  
HETATM   11  C   UNL     1     -10.140   7.538  68.996  1.00  0.00    -0.192 A  
HETATM   12  C   UNL     1      -8.930   7.676  68.263  1.00  0.00    -0.127 A  
ENDBRANCH   2   3
BRANCH   2  13
HETATM   13  N   UNL     1     -12.685   9.046  70.755  1.00  0.00    -0.490 NA 
HETATM   14  H   UNL     1     -13.560   8.522  70.783  1.00  0.00     0.000 HD 
BRANCH  13  15
HETATM   15  C   UNL     1     -12.777  10.237  71.593  1.00  0.00    -0.456 C  
BRANCH  15  16
HETATM   16  C   UNL     1     -12.091  11.421  70.915  1.00  0.00    -0.383 C  
BRANCH  16  17
HETATM   17  C   UNL     1     -12.626  11.591  69.491  1.00  0.00     0.121 C  
BRANCH  17  18
HETATM   18  C   UNL     1     -11.522  11.950  68.533  1.00  0.00    -0.349 A  
HETATM   19  C   UNL     1     -10.024  11.329  66.713  1.00  0.00    -0.238 A  
HETATM   20  C   UNL     1      -9.534  10.326  65.698  1.00  0.00    -0.221 C  
HETATM   21  C   UNL     1     -11.093  11.026  67.571  1.00  0.00    -0.366 A  
HETATM   22  C   UNL     1      -9.822  13.503  67.779  1.00  0.00    -0.233 A  
HETATM   23  F   UNL     1     -10.235   9.156  65.702  1.00  0.00    -0.344 F  
HETATM   24  F   UNL     1      -9.606  10.796  64.421  1.00  0.00    -0.223 F  
HETATM   25  F   UNL     1      -8.232   9.978  65.896  1.00  0.00    -0.116 F  
HETATM   26  C   UNL     1      -9.396  12.578  66.824  1.00  0.00    -0.230 A  
HETATM   27  C   UNL     1     -10.878  13.187  68.631  1.00  0.00    -0.287 A  
ENDBRANCH  17  18
ENDBRANCH  16  17
ENDBRANCH  15  16
ENDBRANCH  13  15
ENDBRANCH   2  13
TORSDOF 6
ENDMDL
MODEL      108
REMARK 921   NORMALIZED FREE ENERGY PREDICTED BY IDOCK:   -4.87 KCAL/MOL
REMARK 922        TOTAL FREE ENERGY PREDICTED BY IDOCK:   -9.70 KCAL/MOL
REMARK 923 INTER-LIGAND FREE ENERGY PREDICTED BY IDOCK:   -7.65 KCAL/MOL
REMARK 924 INTRA-LIGAND FREE ENERGY PREDICTED BY IDOCK:   -2.05 KCAL/MOL
REMARK 927      BINDING AFFINITY PREDICTED BY RF-SCORE:    0.00 PKD
ROOT
HETATM    1  C   UNL     1      -9.566  11.612  68.270  1.00  0.00    -0.198 C  
HETATM    2  C   UNL     1     -10.846  11.035  67.640  1.00  0.00    -0.256 C  
ENDROOT
BRANCH   2   3
HETATM    3  C   UNL     1     -11.132  11.543  66.224  1.00  0.00    -0.321 A  
HETATM    4  C   UNL     1      -9.021   9.333  63.977  1.00  0.00    -0.107 A  
HETATM    5  C   UNL     1     -12.003  12.637  66.043  1.00  0.00    -0.478 A  
HETATM    6  C   UNL     1      -9.180   9.981  62.762  1.00  0.00    -0.313 A  
HETATM    7  C   UNL     1      -9.682   9.811  65.113  1.00  0.00    -0.338 A  
HETATM    8  C   UNL     1     -10.030  11.081  62.675  1.00  0.00    -0.101 A  
HETATM    9  C   UNL     1     -12.227  13.185  64.784  1.00  0.00    -0.477 A  
HETATM   10  C   UNL     1     -11.565  12.666  63.679  1.00  0.00    -0.575 A  
HETATM   11  C   UNL     1     -10.507  10.961  65.077  1.00  0.00    -0.331 A  
HETATM   12  C   UNL     1     -10.703  11.570  63.808  1.00  0.00    -0.474 A  
ENDBRANCH   2   3
BRANCH   2  13
HETATM   13  N   UNL     1     -12.011  11.110  68.539  1.00  0.00    -0.635 NA 
HETATM   14  H   UNL     1     -12.424  10.185  68.663  1.00  0.00     0.000 HD 
BRANCH  13  15
HETATM   15  C   UNL     1     -11.735  11.721  69.835  1.00  0.00    -0.323 C  
BRANCH  15  16
HETATM   16  C   UNL     1     -12.251  13.158  69.868  1.00  0.00    -0.293 C  
BRANCH  16  17
HETATM   17  C   UNL     1     -11.218  14.070  70.535  1.00  0.00     0.216 C  
BRANCH  17  18
HETATM   18  C   UNL     1     -10.784  15.172  69.606  1.00  0.00    -0.289 A  
HETATM   19  C   UNL     1      -9.818  15.883  67.484  1.00  0.00    -0.230 A  
HETATM   20  C   UNL     1      -9.244  15.560  66.127  1.00  0.00    -0.344 C  
HETATM   21  C   UNL     1     -10.281  14.867  68.333  1.00  0.00    -0.231 A  
HETATM   22  C   UNL     1     -10.378  17.524  69.187  1.00  0.00    -0.239 A  
HETATM   23  F   UNL     1      -9.248  14.228  65.834  1.00  0.00    -0.246 F  
HETATM   24  F   UNL     1      -9.924  16.164  65.113  1.00  0.00    -0.290 F  
HETATM   25  F   UNL     1      -7.948  15.962  66.000  1.00  0.00    -0.238 F  
HETATM   26  C   UNL     1      -9.875  17.215  67.922  1.00  0.00    -0.283 A  
HETATM   27  C   UNL     1     -10.827  16.506  70.024  1.00  0.00    -0.258 A  
ENDBRANCH  17  18
ENDBRANCH  16  17
ENDBRANCH  15  16
ENDBRANCH  13  15
ENDBRANCH   2  13
TORSDOF 6
ENDMDL
MODEL      109
REMARK 921   NORMALIZED FREE ENERGY PREDICTED BY IDOCK:   -4.86 KCAL/MOL
REMARK 922        TOTAL FREE ENERGY PREDICTED BY IDOCK:   -9.69 KCAL/MOL
REMARK 923 INTER-LIGAND FREE ENERGY PREDICTED BY IDOCK:   -7.30 KCAL/MOL
REMARK 924 INTRA-LIGAND FREE ENERGY PREDICTED BY IDOCK:   -2.40 KCAL/MOL
REMARK 927      BINDING AFFINITY PREDICTED BY RF-SCORE:    0.00 PKD
ROOT
HETATM    1  C   UNL     1     -10.101   2.296  73.030  1.00  0.00    -0.199 C  
HETATM    2  C   UNL     1      -9.909   3.744  72.544  1.00  0.00    -0.153 C  
ENDROOT
BRANCH   2   3
HETATM    3  C   UNL     1      -9.290   3.859  71.148  1.00  0.00    -0.216 A  
HETATM    4  C   UNL     1     -11.437   6.429  69.367  1.00  0.00    -0.374 A  
HETATM    5  C   UNL     1      -8.182   3.054  70.812  1.00  0.00    -0.073 A  
HETATM    6  C   UNL     1     -10.943   6.323  68.076  1.00  0.00    -0.418 A  
HETATM    7  C   UNL     1     -10.883   5.655  70.391  1.00  0.00    -0.326 A  
HETATM    8  C   UNL     1      -9.870   5.473  67.819  1.00  0.00    -0.164 A  
HETATM    9  C   UNL     1      -7.640   3.065  69.531  1.00  0.00    -0.044 A  
HETATM   10  C   UNL     1      -8.209   3.865  68.549  1.00  0.00    -0.083 A  
HETATM   11  C   UNL     1      -9.831   4.738  70.157  1.00  0.00    -0.308 A  
HETATM   12  C   UNL     1      -9.301   4.693  68.839  1.00  0.00    -0.200 A  
ENDBRANCH   2   3
BRANCH   2  13
HETATM   13  N   UNL     1      -9.259   4.603  73.549  1.00  0.00    -0.115 NA 
HETATM   14  H   UNL     1      -8.493   5.127  73.127  1.00  0.00     0.000 HD 
BRANCH  13  15
HETATM   15  C   UNL     1     -10.167   5.506  74.249  1.00  0.00    -0.275 C  
BRANCH  15  16
HETATM   16  C   UNL     1      -9.605   6.926  74.260  1.00  0.00    -0.297 C  
BRANCH  16  17
HETATM   17  C   UNL     1      -8.831   7.192  72.965  1.00  0.00    -0.153 C  
BRANCH  17  18
HETATM   18  C   UNL     1      -9.540   8.203  72.105  1.00  0.00    -0.308 A  
HETATM   19  C   UNL     1     -11.547   9.480  71.569  1.00  0.00    -0.465 A  
HETATM   20  C   UNL     1     -12.975   9.866  71.862  1.00  0.00    -0.448 C  
HETATM   21  C   UNL     1     -10.857   8.583  72.400  1.00  0.00    -0.378 A  
HETATM   22  C   UNL     1      -9.584   9.628  70.145  1.00  0.00    -0.300 A  
HETATM   23  F   UNL     1     -13.481   9.284  72.986  1.00  0.00    -0.426 F  
HETATM   24  F   UNL     1     -13.128  11.209  72.039  1.00  0.00    -0.547 F  
HETATM   25  F   UNL     1     -13.825   9.524  70.853  1.00  0.00    -0.379 F  
HETATM   26  C   UNL     1     -10.896  10.000  70.441  1.00  0.00    -0.380 A  
HETATM   27  C   UNL     1      -8.912   8.730  70.972  1.00  0.00    -0.269 A  
ENDBRANCH  17  18
ENDBRANCH  16  17
ENDBRANCH  15  16
ENDBRANCH  13  15
ENDBRANCH   2  13
TORSDOF 6
ENDMDL
MODEL      110
REMARK 921   NORMALIZED FREE ENERGY PREDICTED BY IDOCK:   -4.86 KCAL/MOL
REMARK 922        TOTAL FREE ENERGY PREDICTED BY IDOCK:   -9.69 KCAL/MOL
REMARK 923 INTER-LIGAND FREE ENERGY PREDICTED BY IDOCK:   -8.26 KCAL/MOL
REMARK 924 INTRA-LIGAND FREE ENERGY PREDICTED BY IDOCK:   -1.43 KCAL/MOL
REMARK 927      BINDING AFFINITY PREDICTED BY RF-SCORE:    0.00 PKD
ROOT
HETATM    1  C   UNL     1     -10.373   8.748  67.723  1.00  0.00    -0.297 C  
HETATM    2  C   UNL     1     -10.178  10.253  67.461  1.00  0.00    -0.210 C  
ENDROOT
BRANCH   2   3
HETATM    3  C   UNL     1     -10.155  10.633  65.978  1.00  0.00    -0.308 A  
HETATM    4  C   UNL     1     -12.529  13.580  65.717  1.00  0.00    -0.514 A  
HETATM    5  C   UNL     1      -9.369   9.881  65.081  1.00  0.00    -0.317 A  
HETATM    6  C   UNL     1     -12.602  13.726  64.340  1.00  0.00    -0.218 A  
HETATM    7  C   UNL     1     -11.705  12.595  66.270  1.00  0.00    -0.460 A  
HETATM    8  C   UNL     1     -11.821  12.914  63.521  1.00  0.00    -0.605 A  
HETATM    9  C   UNL     1      -9.381  10.138  63.715  1.00  0.00    -0.336 A  
HETATM   10  C   UNL     1     -10.200  11.140  63.210  1.00  0.00    -0.403 A  
HETATM   11  C   UNL     1     -10.942  11.713  65.468  1.00  0.00    -0.327 A  
HETATM   12  C   UNL     1     -10.986  11.923  64.063  1.00  0.00    -0.445 A  
ENDBRANCH   2   3
BRANCH   2  13
HETATM   13  N   UNL     1      -9.064  10.828  68.235  1.00  0.00    -0.151 NA 
HETATM   14  H   UNL     1      -8.437  10.091  68.558  1.00  0.00     0.000 HD 
BRANCH  13  15
HETATM   15  C   UNL     1      -8.313  11.864  67.534  1.00  0.00    -0.158 C  
BRANCH  15  16
HETATM   16  C   UNL     1      -8.685  13.246  68.067  1.00  0.00    -0.186 C  
BRANCH  16  17
HETATM   17  C   UNL     1      -8.494  14.298  66.970  1.00  0.00    -0.190 C  
BRANCH  17  18
HETATM   18  C   UNL     1      -9.286  15.544  67.266  1.00  0.00    -0.219 A  
HETATM   19  C   UNL     1      -9.567  17.958  67.078  1.00  0.00    -0.286 A  
HETATM   20  C   UNL     1      -9.106  19.298  66.564  1.00  0.00    -0.350 C  
HETATM   21  C   UNL     1      -8.870  16.782  66.759  1.00  0.00    -0.257 A  
HETATM   22  C   UNL     1     -11.116  16.643  68.412  1.00  0.00    -0.305 A  
HETATM   23  F   UNL     1      -7.997  19.230  65.774  1.00  0.00    -0.303 F  
HETATM   24  F   UNL     1     -10.055  19.927  65.816  1.00  0.00    -0.486 F  
HETATM   25  F   UNL     1      -8.791  20.162  67.570  1.00  0.00    -0.363 F  
HETATM   26  C   UNL     1     -10.696  17.875  67.907  1.00  0.00    -0.328 A  
HETATM   27  C   UNL     1     -10.411  15.485  68.095  1.00  0.00    -0.237 A  
ENDBRANCH  17  18
ENDBRANCH  16  17
ENDBRANCH  15  16
ENDBRANCH  13  15
ENDBRANCH   2  13
TORSDOF 6
ENDMDL
MODEL      111
REMARK 921   NORMALIZED FREE ENERGY PREDICTED BY IDOCK:   -4.86 KCAL/MOL
REMARK 922        TOTAL FREE ENERGY PREDICTED BY IDOCK:   -9.69 KCAL/MOL
REMARK 923 INTER-LIGAND FREE ENERGY PREDICTED BY IDOCK:   -8.75 KCAL/MOL
REMARK 924 INTRA-LIGAND FREE ENERGY PREDICTED BY IDOCK:   -0.94 KCAL/MOL
REMARK 927      BINDING AFFINITY PREDICTED BY RF-SCORE:    0.00 PKD
ROOT
HETATM    1  C   UNL     1      -9.844  14.832  65.187  1.00  0.00    -0.164 C  
HETATM    2  C   UNL     1      -9.207  14.862  66.588  1.00  0.00    -0.276 C  
ENDROOT
BRANCH   2   3
HETATM    3  C   UNL     1      -8.350  16.102  66.860  1.00  0.00    -0.271 A  
HETATM    4  C   UNL     1     -10.862  18.903  67.346  1.00  0.00    -0.449 A  
HETATM    5  C   UNL     1      -6.945  15.991  66.848  1.00  0.00    -0.139 A  
HETATM    6  C   UNL     1     -10.016  19.999  67.384  1.00  0.00    -0.571 A  
HETATM    7  C   UNL     1     -10.331  17.616  67.211  1.00  0.00    -0.354 A  
HETATM    8  C   UNL     1      -8.637  19.806  67.326  1.00  0.00    -0.374 A  
HETATM    9  C   UNL     1      -6.127  17.105  67.008  1.00  0.00    -0.213 A  
HETATM   10  C   UNL     1      -6.698  18.362  67.160  1.00  0.00    -0.206 A  
HETATM   11  C   UNL     1      -8.939  17.385  67.090  1.00  0.00    -0.248 A  
HETATM   12  C   UNL     1      -8.089  18.520  67.194  1.00  0.00    -0.248 A  
ENDBRANCH   2   3
BRANCH   2  13
HETATM   13  N   UNL     1      -8.540  13.597  66.940  1.00  0.00    -0.402 NA 
HETATM   14  H   UNL     1      -7.532  13.736  67.021  1.00  0.00     0.000 HD 
BRANCH  13  15
HETATM   15  C   UNL     1      -9.061  12.953  68.141  1.00  0.00    -0.207 C  
BRANCH  15  16
HETATM   16  C   UNL     1     -10.019  11.823  67.767  1.00  0.00    -0.198 C  
BRANCH  16  17
HETATM   17  C   UNL     1     -11.464  12.329  67.803  1.00  0.00    -0.392 C  
BRANCH  17  18
HETATM   18  C   UNL     1     -12.029  12.265  69.197  1.00  0.00    -0.303 A  
HETATM   19  C   UNL     1     -12.805  13.398  71.211  1.00  0.00    -0.407 A  
HETATM   20  C   UNL     1     -13.102  14.664  71.975  1.00  0.00    -0.337 C  
HETATM   21  C   UNL     1     -12.334  13.445  69.890  1.00  0.00    -0.259 A  
HETATM   22  C   UNL     1     -12.679  10.972  71.140  1.00  0.00    -0.521 A  
HETATM   23  F   UNL     1     -12.888  15.802  71.254  1.00  0.00    -0.443 F  
HETATM   24  F   UNL     1     -14.396  14.731  72.395  1.00  0.00    -0.503 F  
HETATM   25  F   UNL     1     -12.339  14.788  73.097  1.00  0.00    -0.421 F  
HETATM   26  C   UNL     1     -12.978  12.150  71.828  1.00  0.00    -0.437 A  
HETATM   27  C   UNL     1     -12.204  11.032  69.832  1.00  0.00    -0.408 A  
ENDBRANCH  17  18
ENDBRANCH  16  17
ENDBRANCH  15  16
ENDBRANCH  13  15
ENDBRANCH   2  13
TORSDOF 6
ENDMDL
MODEL      112
REMARK 921   NORMALIZED FREE ENERGY PREDICTED BY IDOCK:   -4.85 KCAL/MOL
REMARK 922        TOTAL FREE ENERGY PREDICTED BY IDOCK:   -9.68 KCAL/MOL
REMARK 923 INTER-LIGAND FREE ENERGY PREDICTED BY IDOCK:   -6.85 KCAL/MOL
REMARK 924 INTRA-LIGAND FREE ENERGY PREDICTED BY IDOCK:   -2.83 KCAL/MOL
REMARK 927      BINDING AFFINITY PREDICTED BY RF-SCORE:    0.00 PKD
ROOT
HETATM    1  C   UNL     1      -9.411   3.390  70.022  1.00  0.00    -0.243 C  
HETATM    2  C   UNL     1      -9.803   4.781  70.552  1.00  0.00    -0.230 C  
ENDROOT
BRANCH   2   3
HETATM    3  C   UNL     1      -8.941   5.925  70.009  1.00  0.00    -0.146 A  
HETATM    4  C   UNL     1     -11.015   7.429  67.212  1.00  0.00    -0.234 A  
HETATM    5  C   UNL     1      -7.666   6.157  70.565  1.00  0.00    -0.101 A  
HETATM    6  C   UNL     1     -10.095   8.304  66.656  1.00  0.00    -0.351 A  
HETATM    7  C   UNL     1     -10.665   6.669  68.332  1.00  0.00    -0.314 A  
HETATM    8  C   UNL     1      -8.840   8.446  67.243  1.00  0.00    -0.137 A  
HETATM    9  C   UNL     1      -6.816   7.130  70.049  1.00  0.00    -0.056 A  
HETATM   10  C   UNL     1      -7.213   7.877  68.947  1.00  0.00    -0.076 A  
HETATM   11  C   UNL     1      -9.380   6.743  68.921  1.00  0.00    -0.129 A  
HETATM   12  C   UNL     1      -8.476   7.692  68.371  1.00  0.00    -0.125 A  
ENDBRANCH   2   3
BRANCH   2  13
HETATM   13  N   UNL     1      -9.964   4.810  72.017  1.00  0.00    -0.180 NA 
HETATM   14  H   UNL     1      -9.106   5.135  72.463  1.00  0.00     0.000 HD 
BRANCH  13  15
HETATM   15  C   UNL     1     -11.107   5.588  72.483  1.00  0.00    -0.270 C  
BRANCH  15  16
HETATM   16  C   UNL     1     -10.662   6.625  73.513  1.00  0.00    -0.301 C  
BRANCH  16  17
HETATM   17  C   UNL     1     -10.005   7.814  72.807  1.00  0.00    -0.321 C  
BRANCH  17  18
HETATM   18  C   UNL     1     -11.028   8.659  72.096  1.00  0.00    -0.434 A  
HETATM   19  C   UNL     1     -11.594  10.255  70.342  1.00  0.00    -0.411 A  
HETATM   20  C   UNL     1     -11.199  11.099  69.157  1.00  0.00    -0.264 C  
HETATM   21  C   UNL     1     -10.662   9.417  70.975  1.00  0.00    -0.407 A  
HETATM   22  C   UNL     1     -13.273   9.559  71.955  1.00  0.00    -0.524 A  
HETATM   23  F   UNL     1      -9.897  10.943  68.782  1.00  0.00    -0.167 F  
HETATM   24  F   UNL     1     -11.939  10.823  68.047  1.00  0.00    -0.323 F  
HETATM   25  F   UNL     1     -11.358  12.432  69.390  1.00  0.00    -0.285 F  
HETATM   26  C   UNL     1     -12.903  10.315  70.841  1.00  0.00    -0.463 A  
HETATM   27  C   UNL     1     -12.337   8.739  72.580  1.00  0.00    -0.358 A  
ENDBRANCH  17  18
ENDBRANCH  16  17
ENDBRANCH  15  16
ENDBRANCH  13  15
ENDBRANCH   2  13
TORSDOF 6
ENDMDL
MODEL      113
REMARK 921   NORMALIZED FREE ENERGY PREDICTED BY IDOCK:   -4.85 KCAL/MOL
REMARK 922        TOTAL FREE ENERGY PREDICTED BY IDOCK:   -9.68 KCAL/MOL
REMARK 923 INTER-LIGAND FREE ENERGY PREDICTED BY IDOCK:   -6.75 KCAL/MOL
REMARK 924 INTRA-LIGAND FREE ENERGY PREDICTED BY IDOCK:   -2.93 KCAL/MOL
REMARK 927      BINDING AFFINITY PREDICTED BY RF-SCORE:    0.00 PKD
ROOT
HETATM    1  C   UNL     1      -5.728  19.867  65.590  1.00  0.00    -0.194 C  
HETATM    2  C   UNL     1      -6.352  19.041  66.729  1.00  0.00    -0.186 C  
ENDROOT
BRANCH   2   3
HETATM    3  C   UNL     1      -7.876  19.159  66.827  1.00  0.00    -0.270 A  
HETATM    4  C   UNL     1      -9.165  15.771  65.711  1.00  0.00    -0.255 A  
HETATM    5  C   UNL     1      -8.451  20.380  67.236  1.00  0.00    -0.405 A  
HETATM    6  C   UNL     1     -10.524  16.029  65.637  1.00  0.00    -0.416 A  
HETATM    7  C   UNL     1      -8.287  16.775  66.133  1.00  0.00    -0.301 A  
HETATM    8  C   UNL     1     -11.010  17.276  66.022  1.00  0.00     0.193 A  
HETATM    9  C   UNL     1      -9.830  20.559  67.260  1.00  0.00    -0.581 A  
HETATM   10  C   UNL     1     -10.666  19.528  66.852  1.00  0.00    -0.576 A  
HETATM   11  C   UNL     1      -8.737  18.073  66.477  1.00  0.00    -0.279 A  
HETATM   12  C   UNL     1     -10.141  18.293  66.452  1.00  0.00    -0.406 A  
ENDBRANCH   2   3
BRANCH   2  13
HETATM   13  N   UNL     1      -5.662  19.230  68.017  1.00  0.00    -0.195 NA 
HETATM   14  H   UNL     1      -5.810  20.178  68.364  1.00  0.00     0.000 HD 
BRANCH  13  15
HETATM   15  C   UNL     1      -6.016  18.253  69.041  1.00  0.00    -0.218 C  
BRANCH  15  16
HETATM   16  C   UNL     1      -5.725  16.836  68.550  1.00  0.00    -0.126 C  
BRANCH  16  17
HETATM   17  C   UNL     1      -6.166  15.816  69.604  1.00  0.00    -0.169 C  
BRANCH  17  18
HETATM   18  C   UNL     1      -7.426  15.108  69.183  1.00  0.00    -0.176 A  
HETATM   19  C   UNL     1      -9.860  14.959  69.177  1.00  0.00    -0.200 A  
HETATM   20  C   UNL     1     -11.211  15.509  69.559  1.00  0.00    -0.299 C  
HETATM   21  C   UNL     1      -8.680  15.642  69.512  1.00  0.00    -0.199 A  
HETATM   22  C   UNL     1      -8.521  13.203  68.162  1.00  0.00    -0.173 A  
HETATM   23  F   UNL     1     -11.150  16.701  70.218  1.00  0.00    -0.358 F  
HETATM   24  F   UNL     1     -12.013  15.724  68.479  1.00  0.00    -0.373 F  
HETATM   25  F   UNL     1     -11.904  14.669  70.377  1.00  0.00    -0.282 F  
HETATM   26  C   UNL     1      -9.767  13.736  68.496  1.00  0.00    -0.193 A  
HETATM   27  C   UNL     1      -7.357  13.886  68.508  1.00  0.00    -0.116 A  
ENDBRANCH  17  18
ENDBRANCH  16  17
ENDBRANCH  15  16
ENDBRANCH  13  15
ENDBRANCH   2  13
TORSDOF 6
ENDMDL
MODEL      114
REMARK 921   NORMALIZED FREE ENERGY PREDICTED BY IDOCK:   -4.85 KCAL/MOL
REMARK 922        TOTAL FREE ENERGY PREDICTED BY IDOCK:   -9.68 KCAL/MOL
REMARK 923 INTER-LIGAND FREE ENERGY PREDICTED BY IDOCK:   -6.75 KCAL/MOL
REMARK 924 INTRA-LIGAND FREE ENERGY PREDICTED BY IDOCK:   -2.93 KCAL/MOL
REMARK 927      BINDING AFFINITY PREDICTED BY RF-SCORE:    0.00 PKD
ROOT
HETATM    1  C   UNL     1     -10.786   9.637  68.078  1.00  0.00    -0.250 C  
HETATM    2  C   UNL     1     -10.436  10.740  69.093  1.00  0.00    -0.218 C  
ENDROOT
BRANCH   2   3
HETATM    3  C   UNL     1     -11.144  12.074  68.840  1.00  0.00    -0.298 A  
HETATM    4  C   UNL     1     -11.596  12.208  65.076  1.00  0.00    -0.365 A  
HETATM    5  C   UNL     1     -11.434  12.923  69.927  1.00  0.00    -0.147 A  
HETATM    6  C   UNL     1     -12.049  13.508  64.921  1.00  0.00    -0.431 A  
HETATM    7  C   UNL     1     -11.328  11.711  66.355  1.00  0.00    -0.312 A  
HETATM    8  C   UNL     1     -12.272  14.298  66.047  1.00  0.00    -0.422 A  
HETATM    9  C   UNL     1     -12.000  14.179  69.736  1.00  0.00    -0.396 A  
HETATM   10  C   UNL     1     -12.268  14.625  68.448  1.00  0.00    -0.129 A  
HETATM   11  C   UNL     1     -11.487  12.502  67.519  1.00  0.00    -0.397 A  
HETATM   12  C   UNL     1     -12.012  13.810  67.338  1.00  0.00    -0.423 A  
ENDBRANCH   2   3
BRANCH   2  13
HETATM   13  N   UNL     1      -8.985  10.875  69.312  1.00  0.00    -0.388 NA 
HETATM   14  H   UNL     1      -8.689  10.300  70.101  1.00  0.00     0.000 HD 
BRANCH  13  15
HETATM   15  C   UNL     1      -8.167  10.587  68.139  1.00  0.00    -0.114 C  
BRANCH  15  16
HETATM   16  C   UNL     1      -7.218  11.749  67.851  1.00  0.00    -0.092 C  
BRANCH  16  17
HETATM   17  C   UNL     1      -7.853  12.705  66.838  1.00  0.00     0.047 C  
BRANCH  17  18
HETATM   18  C   UNL     1      -8.206  14.021  67.477  1.00  0.00    -0.195 A  
HETATM   19  C   UNL     1      -9.222  16.233  67.328  1.00  0.00    -0.217 A  
HETATM   20  C   UNL     1      -9.980  17.281  66.554  1.00  0.00    -0.305 C  
HETATM   21  C   UNL     1      -8.940  14.979  66.763  1.00  0.00    -0.293 A  
HETATM   22  C   UNL     1      -8.040  15.559  69.342  1.00  0.00    -0.241 A  
HETATM   23  F   UNL     1     -10.357  16.875  65.307  1.00  0.00    -0.268 F  
HETATM   24  F   UNL     1     -11.127  17.667  67.180  1.00  0.00    -0.227 F  
HETATM   25  F   UNL     1      -9.255  18.419  66.368  1.00  0.00    -0.286 F  
HETATM   26  C   UNL     1      -8.768  16.511  68.626  1.00  0.00    -0.244 A  
HETATM   27  C   UNL     1      -7.759  14.322  68.767  1.00  0.00    -0.134 A  
ENDBRANCH  17  18
ENDBRANCH  16  17
ENDBRANCH  15  16
ENDBRANCH  13  15
ENDBRANCH   2  13
TORSDOF 6
ENDMDL
MODEL      115
REMARK 921   NORMALIZED FREE ENERGY PREDICTED BY IDOCK:   -4.84 KCAL/MOL
REMARK 922        TOTAL FREE ENERGY PREDICTED BY IDOCK:   -9.67 KCAL/MOL
REMARK 923 INTER-LIGAND FREE ENERGY PREDICTED BY IDOCK:   -5.71 KCAL/MOL
REMARK 924 INTRA-LIGAND FREE ENERGY PREDICTED BY IDOCK:   -3.96 KCAL/MOL
REMARK 927      BINDING AFFINITY PREDICTED BY RF-SCORE:    0.00 PKD
ROOT
HETATM    1  C   UNL     1      -6.622   8.372  73.877  1.00  0.00    -0.143 C  
HETATM    2  C   UNL     1      -7.218   8.395  72.458  1.00  0.00    -0.080 C  
ENDROOT
BRANCH   2   3
HETATM    3  C   UNL     1      -8.743   8.258  72.416  1.00  0.00    -0.279 A  
HETATM    4  C   UNL     1      -9.805  10.375  69.454  1.00  0.00    -0.235 A  
HETATM    5  C   UNL     1      -9.397   7.485  73.397  1.00  0.00    -0.291 A  
HETATM    6  C   UNL     1     -11.182  10.359  69.611  1.00  0.00    -0.333 A  
HETATM    7  C   UNL     1      -8.994   9.664  70.343  1.00  0.00    -0.239 A  
HETATM    8  C   UNL     1     -11.749   9.600  70.632  1.00  0.00    -0.353 A  
HETATM    9  C   UNL     1     -10.784   7.400  73.448  1.00  0.00    -0.407 A  
HETATM   10  C   UNL     1     -11.551   8.108  72.532  1.00  0.00    -0.468 A  
HETATM   11  C   UNL     1      -9.530   8.929  71.428  1.00  0.00    -0.344 A  
HETATM   12  C   UNL     1     -10.946   8.877  71.530  1.00  0.00    -0.398 A  
ENDBRANCH   2   3
BRANCH   2  13
HETATM   13  N   UNL     1      -6.520   7.489  71.529  1.00  0.00    -0.039 NA 
HETATM   14  H   UNL     1      -5.604   7.868  71.285  1.00  0.00     0.000 HD 
BRANCH  13  15
HETATM   15  C   UNL     1      -6.391   6.117  72.006  1.00  0.00    -0.046 C  
BRANCH  15  16
HETATM   16  C   UNL     1      -6.830   5.132  70.924  1.00  0.00    -0.047 C  
BRANCH  16  17
HETATM   17  C   UNL     1      -8.311   4.786  71.101  1.00  0.00    -0.107 C  
BRANCH  17  18
HETATM   18  C   UNL     1      -9.158   5.463  70.057  1.00  0.00    -0.160 A  
HETATM   19  C   UNL     1      -9.334   6.827  68.044  1.00  0.00    -0.118 A  
HETATM   20  C   UNL     1      -8.691   7.588  66.912  1.00  0.00    -0.129 C  
HETATM   21  C   UNL     1      -8.555   6.141  68.989  1.00  0.00    -0.121 A  
HETATM   22  C   UNL     1     -11.336   6.138  69.237  1.00  0.00    -0.361 A  
HETATM   23  F   UNL     1      -7.329   7.515  66.907  1.00  0.00    -0.082 F  
HETATM   24  F   UNL     1      -9.089   7.142  65.688  1.00  0.00    -0.144 F  
HETATM   25  F   UNL     1      -8.990   8.917  66.941  1.00  0.00    -0.124 F  
HETATM   26  C   UNL     1     -10.730   6.815  68.177  1.00  0.00    -0.295 A  
HETATM   27  C   UNL     1     -10.551   5.469  70.173  1.00  0.00    -0.367 A  
ENDBRANCH  17  18
ENDBRANCH  16  17
ENDBRANCH  15  16
ENDBRANCH  13  15
ENDBRANCH   2  13
TORSDOF 6
ENDMDL
MODEL      116
REMARK 921   NORMALIZED FREE ENERGY PREDICTED BY IDOCK:   -4.81 KCAL/MOL
REMARK 922        TOTAL FREE ENERGY PREDICTED BY IDOCK:   -9.63 KCAL/MOL
REMARK 923 INTER-LIGAND FREE ENERGY PREDICTED BY IDOCK:   -6.83 KCAL/MOL
REMARK 924 INTRA-LIGAND FREE ENERGY PREDICTED BY IDOCK:   -2.79 KCAL/MOL
REMARK 927      BINDING AFFINITY PREDICTED BY RF-SCORE:    0.00 PKD
ROOT
HETATM    1  C   UNL     1     -11.177  15.406  70.616  1.00  0.00    -0.370 C  
HETATM    2  C   UNL     1     -11.033  15.163  69.103  1.00  0.00    -0.259 C  
ENDROOT
BRANCH   2   3
HETATM    3  C   UNL     1     -10.871  13.690  68.717  1.00  0.00    -0.279 A  
HETATM    4  C   UNL     1      -7.239  13.378  67.668  1.00  0.00    -0.167 A  
HETATM    5  C   UNL     1     -11.985  12.829  68.784  1.00  0.00    -0.278 A  
HETATM    6  C   UNL     1      -7.233  12.092  67.152  1.00  0.00    -0.131 A  
HETATM    7  C   UNL     1      -8.413  13.904  68.216  1.00  0.00    -0.169 A  
HETATM    8  C   UNL     1      -8.390  11.318  67.221  1.00  0.00    -0.145 A  
HETATM    9  C   UNL     1     -11.905  11.505  68.364  1.00  0.00    -0.353 A  
HETATM   10  C   UNL     1     -10.712  11.018  67.845  1.00  0.00    -0.263 A  
HETATM   11  C   UNL     1      -9.623  13.170  68.251  1.00  0.00    -0.218 A  
HETATM   12  C   UNL     1      -9.575  11.832  67.773  1.00  0.00    -0.184 A  
ENDBRANCH   2   3
BRANCH   2  13
HETATM   13  N   UNL     1     -10.039  16.050  68.473  1.00  0.00    -0.228 NA 
HETATM   14  H   UNL     1      -9.160  15.552  68.327  1.00  0.00     0.000 HD 
BRANCH  13  15
HETATM   15  C   UNL     1     -10.484  16.670  67.230  1.00  0.00    -0.313 C  
BRANCH  15  16
HETATM   16  C   UNL     1      -9.695  16.118  66.045  1.00  0.00    -0.376 C  
BRANCH  16  17
HETATM   17  C   UNL     1     -10.627  15.905  64.849  1.00  0.00    -0.281 C  
BRANCH  17  18
HETATM   18  C   UNL     1     -11.147  14.493  64.809  1.00  0.00    -0.400 A  
HETATM   19  C   UNL     1     -10.801  12.131  64.313  1.00  0.00    -0.388 A  
HETATM   20  C   UNL     1      -9.914  11.001  63.853  1.00  0.00    -0.341 C  
HETATM   21  C   UNL     1     -10.309  13.442  64.412  1.00  0.00    -0.347 A  
HETATM   22  C   UNL     1     -12.983  12.927  65.027  1.00  0.00    -0.171 A  
HETATM   23  F   UNL     1      -8.635  11.386  63.579  1.00  0.00     0.005 F  
HETATM   24  F   UNL     1      -9.812  10.007  64.779  1.00  0.00    -0.344 F  
HETATM   25  F   UNL     1     -10.374  10.407  62.717  1.00  0.00    -0.187 F  
HETATM   26  C   UNL     1     -12.146  11.884  64.628  1.00  0.00    -0.221 A  
HETATM   27  C   UNL     1     -12.485  14.225  65.113  1.00  0.00    -0.423 A  
ENDBRANCH  17  18
ENDBRANCH  16  17
ENDBRANCH  15  16
ENDBRANCH  13  15
ENDBRANCH   2  13
TORSDOF 6
ENDMDL
MODEL      117
REMARK 921   NORMALIZED FREE ENERGY PREDICTED BY IDOCK:   -4.80 KCAL/MOL
REMARK 922        TOTAL FREE ENERGY PREDICTED BY IDOCK:   -9.61 KCAL/MOL
REMARK 923 INTER-LIGAND FREE ENERGY PREDICTED BY IDOCK:   -6.62 KCAL/MOL
REMARK 924 INTRA-LIGAND FREE ENERGY PREDICTED BY IDOCK:   -2.99 KCAL/MOL
REMARK 927      BINDING AFFINITY PREDICTED BY RF-SCORE:    0.00 PKD
ROOT
HETATM    1  C   UNL     1      -9.534   4.296  71.168  1.00  0.00    -0.233 C  
HETATM    2  C   UNL     1      -9.355   5.205  69.940  1.00  0.00    -0.143 C  
ENDROOT
BRANCH   2   3
HETATM    3  C   UNL     1      -9.349   6.702  70.263  1.00  0.00    -0.160 A  
HETATM    4  C   UNL     1     -12.796   7.378  71.694  1.00  0.00    -0.406 A  
HETATM    5  C   UNL     1      -8.203   7.470  69.971  1.00  0.00    -0.130 A  
HETATM    6  C   UNL     1     -12.774   8.762  71.767  1.00  0.00    -0.408 A  
HETATM    7  C   UNL     1     -11.670   6.686  71.238  1.00  0.00    -0.386 A  
HETATM    8  C   UNL     1     -11.613   9.450  71.421  1.00  0.00    -0.451 A  
HETATM    9  C   UNL     1      -8.182   8.846  70.170  1.00  0.00    -0.126 A  
HETATM   10  C   UNL     1      -9.317   9.491  70.645  1.00  0.00    -0.263 A  
HETATM   11  C   UNL     1     -10.493   7.354  70.822  1.00  0.00    -0.221 A  
HETATM   12  C   UNL     1     -10.473   8.768  70.964  1.00  0.00    -0.293 A  
ENDBRANCH   2   3
BRANCH   2  13
HETATM   13  N   UNL     1     -10.252   4.847  68.827  1.00  0.00    -0.103 NA 
HETATM   14  H   UNL     1     -10.994   5.540  68.732  1.00  0.00     0.000 HD 
BRANCH  13  15
HETATM   15  C   UNL     1      -9.578   4.644  67.549  1.00  0.00    -0.163 C  
BRANCH  15  16
HETATM   16  C   UNL     1     -10.238   5.485  66.458  1.00  0.00    -0.273 C  
BRANCH  16  17
HETATM   17  C   UNL     1     -11.103   6.578  67.092  1.00  0.00    -0.434 C  
BRANCH  17  18
HETATM   18  C   UNL     1     -10.455   7.930  66.960  1.00  0.00    -0.419 A  
HETATM   19  C   UNL     1     -10.465  10.326  67.413  1.00  0.00    -0.303 A  
HETATM   20  C   UNL     1     -11.094  11.541  68.048  1.00  0.00    -0.254 C  
HETATM   21  C   UNL     1     -11.027   9.051  67.579  1.00  0.00     0.027 A  
HETATM   22  C   UNL     1      -8.737   9.350  66.010  1.00  0.00    -0.171 A  
HETATM   23  F   UNL     1     -12.208  11.260  68.782  1.00  0.00    -0.392 F  
HETATM   24  F   UNL     1     -10.245  12.188  68.895  1.00  0.00    -0.214 F  
HETATM   25  F   UNL     1     -11.481  12.468  67.127  1.00  0.00    -0.308 F  
HETATM   26  C   UNL     1      -9.312  10.463  66.625  1.00  0.00    -0.185 A  
HETATM   27  C   UNL     1      -9.310   8.091  66.175  1.00  0.00    -0.212 A  
ENDBRANCH  17  18
ENDBRANCH  16  17
ENDBRANCH  15  16
ENDBRANCH  13  15
ENDBRANCH   2  13
TORSDOF 6
ENDMDL
MODEL      118
REMARK 921   NORMALIZED FREE ENERGY PREDICTED BY IDOCK:   -4.80 KCAL/MOL
REMARK 922        TOTAL FREE ENERGY PREDICTED BY IDOCK:   -9.60 KCAL/MOL
REMARK 923 INTER-LIGAND FREE ENERGY PREDICTED BY IDOCK:   -7.52 KCAL/MOL
REMARK 924 INTRA-LIGAND FREE ENERGY PREDICTED BY IDOCK:   -2.09 KCAL/MOL
REMARK 927      BINDING AFFINITY PREDICTED BY RF-SCORE:    0.00 PKD
ROOT
HETATM    1  C   UNL     1     -10.682   6.292  71.655  1.00  0.00    -0.284 C  
HETATM    2  C   UNL     1     -11.069   7.305  70.564  1.00  0.00    -0.267 C  
ENDROOT
BRANCH   2   3
HETATM    3  C   UNL     1     -11.992   8.427  71.048  1.00  0.00    -0.255 A  
HETATM    4  C   UNL     1     -10.825  11.500  69.156  1.00  0.00    -0.241 A  
HETATM    5  C   UNL     1     -12.972   8.147  72.022  1.00  0.00    -0.329 A  
HETATM    6  C   UNL     1     -11.563  12.486  69.792  1.00  0.00    -0.291 A  
HETATM    7  C   UNL     1     -10.980  10.162  69.531  1.00  0.00    -0.295 A  
HETATM    8  C   UNL     1     -12.484  12.129  70.774  1.00  0.00    -0.362 A  
HETATM    9  C   UNL     1     -13.777   9.150  72.551  1.00  0.00    -0.499 A  
HETATM   10  C   UNL     1     -13.603  10.464  72.135  1.00  0.00    -0.202 A  
HETATM   11  C   UNL     1     -11.862   9.767  70.565  1.00  0.00    -0.316 A  
HETATM   12  C   UNL     1     -12.653  10.788  71.158  1.00  0.00    -0.532 A  
ENDBRANCH   2   3
BRANCH   2  13
HETATM   13  N   UNL     1     -11.527   6.660  69.321  1.00  0.00    -0.628 NA 
HETATM   14  H   UNL     1     -11.809   7.364  68.638  1.00  0.00     0.000 HD 
BRANCH  13  15
HETATM   15  C   UNL     1     -10.566   5.735  68.730  1.00  0.00    -0.251 C  
BRANCH  15  16
HETATM   16  C   UNL     1      -9.542   6.494  67.888  1.00  0.00    -0.119 C  
BRANCH  16  17
HETATM   17  C   UNL     1     -10.252   7.260  66.768  1.00  0.00    -0.305 C  
BRANCH  17  18
HETATM   18  C   UNL     1      -9.675   8.641  66.602  1.00  0.00    -0.315 A  
HETATM   19  C   UNL     1      -9.825  10.892  65.678  1.00  0.00    -0.292 A  
HETATM   20  C   UNL     1     -10.564  11.939  64.883  1.00  0.00    -0.287 C  
HETATM   21  C   UNL     1     -10.381   9.620  65.890  1.00  0.00    -0.103 A  
HETATM   22  C   UNL     1      -7.849  10.203  66.912  1.00  0.00    -0.107 A  
HETATM   23  F   UNL     1     -11.785  11.528  64.436  1.00  0.00    -0.356 F  
HETATM   24  F   UNL     1     -10.796  13.074  65.601  1.00  0.00    -0.275 F  
HETATM   25  F   UNL     1      -9.877  12.333  63.774  1.00  0.00    -0.334 F  
HETATM   26  C   UNL     1      -8.554  11.174  66.199  1.00  0.00    -0.172 A  
HETATM   27  C   UNL     1      -8.407   8.942  67.108  1.00  0.00    -0.103 A  
ENDBRANCH  17  18
ENDBRANCH  16  17
ENDBRANCH  15  16
ENDBRANCH  13  15
ENDBRANCH   2  13
TORSDOF 6
ENDMDL
MODEL      119
REMARK 921   NORMALIZED FREE ENERGY PREDICTED BY IDOCK:   -4.79 KCAL/MOL
REMARK 922        TOTAL FREE ENERGY PREDICTED BY IDOCK:   -9.60 KCAL/MOL
REMARK 923 INTER-LIGAND FREE ENERGY PREDICTED BY IDOCK:   -8.64 KCAL/MOL
REMARK 924 INTRA-LIGAND FREE ENERGY PREDICTED BY IDOCK:   -0.96 KCAL/MOL
REMARK 927      BINDING AFFINITY PREDICTED BY RF-SCORE:    0.00 PKD
ROOT
HETATM    1  C   UNL     1      -8.760  10.555  67.717  1.00  0.00    -0.122 C  
HETATM    2  C   UNL     1      -8.663  12.091  67.675  1.00  0.00    -0.166 C  
ENDROOT
BRANCH   2   3
HETATM    3  C   UNL     1      -9.964  12.790  67.269  1.00  0.00    -0.219 A  
HETATM    4  C   UNL     1     -10.767  11.382  63.840  1.00  0.00    -0.462 A  
HETATM    5  C   UNL     1     -10.537  13.745  68.134  1.00  0.00    -0.260 A  
HETATM    6  C   UNL     1     -11.822  12.201  63.470  1.00  0.00    -0.597 A  
HETATM    7  C   UNL     1     -10.170  11.538  65.095  1.00  0.00    -0.322 A  
HETATM    8  C   UNL     1     -12.305  13.149  64.369  1.00  0.00    -0.426 A  
HETATM    9  C   UNL     1     -11.670  14.465  67.770  1.00  0.00    -0.407 A  
HETATM   10  C   UNL     1     -12.243  14.263  66.521  1.00  0.00    -0.419 A  
HETATM   11  C   UNL     1     -10.595  12.529  66.013  1.00  0.00    -0.289 A  
HETATM   12  C   UNL     1     -11.718  13.314  65.635  1.00  0.00    -0.389 A  
ENDBRANCH   2   3
BRANCH   2  13
HETATM   13  N   UNL     1      -7.481  12.569  66.937  1.00  0.00    -0.387 NA 
HETATM   14  H   UNL     1      -7.766  13.136  66.139  1.00  0.00     0.000 HD 
BRANCH  13  15
HETATM   15  C   UNL     1      -6.511  13.292  67.753  1.00  0.00    -0.159 C  
BRANCH  15  16
HETATM   16  C   UNL     1      -6.746  14.798  67.654  1.00  0.00    -0.198 C  
BRANCH  16  17
HETATM   17  C   UNL     1      -7.353  15.320  68.959  1.00  0.00    -0.157 C  
BRANCH  17  18
HETATM   18  C   UNL     1      -7.478  16.820  68.941  1.00  0.00    -0.240 A  
HETATM   19  C   UNL     1      -8.776  18.821  68.435  1.00  0.00    -0.369 A  
HETATM   20  C   UNL     1     -10.042  19.476  67.943  1.00  0.00    -0.417 C  
HETATM   21  C   UNL     1      -8.669  17.423  68.513  1.00  0.00    -0.277 A  
HETATM   22  C   UNL     1      -6.488  19.012  69.231  1.00  0.00    -0.321 A  
HETATM   23  F   UNL     1     -11.027  18.591  67.620  1.00  0.00    -0.440 F  
HETATM   24  F   UNL     1     -10.588  20.318  68.866  1.00  0.00    -0.521 F  
HETATM   25  F   UNL     1      -9.839  20.229  66.826  1.00  0.00    -0.491 F  
HETATM   26  C   UNL     1      -7.674  19.608  68.801  1.00  0.00    -0.337 A  
HETATM   27  C   UNL     1      -6.391  17.624  69.296  1.00  0.00    -0.247 A  
ENDBRANCH  17  18
ENDBRANCH  16  17
ENDBRANCH  15  16
ENDBRANCH  13  15
ENDBRANCH   2  13
TORSDOF 6
ENDMDL
MODEL      120
REMARK 921   NORMALIZED FREE ENERGY PREDICTED BY IDOCK:   -4.79 KCAL/MOL
REMARK 922        TOTAL FREE ENERGY PREDICTED BY IDOCK:   -9.60 KCAL/MOL
REMARK 923 INTER-LIGAND FREE ENERGY PREDICTED BY IDOCK:   -8.28 KCAL/MOL
REMARK 924 INTRA-LIGAND FREE ENERGY PREDICTED BY IDOCK:   -1.32 KCAL/MOL
REMARK 927      BINDING AFFINITY PREDICTED BY RF-SCORE:    0.00 PKD
ROOT
HETATM    1  C   UNL     1     -12.032  12.959  66.025  1.00  0.00    -0.505 C  
HETATM    2  C   UNL     1     -11.000  12.811  67.157  1.00  0.00    -0.263 C  
ENDROOT
BRANCH   2   3
HETATM    3  C   UNL     1     -11.533  13.181  68.544  1.00  0.00    -0.338 A  
HETATM    4  C   UNL     1     -11.904   9.859  70.337  1.00  0.00    -0.310 A  
HETATM    5  C   UNL     1     -11.789  14.534  68.850  1.00  0.00    -0.359 A  
HETATM    6  C   UNL     1     -12.569  10.263  71.484  1.00  0.00    -0.544 A  
HETATM    7  C   UNL     1     -11.526  10.807  69.380  1.00  0.00    -0.366 A  
HETATM    8  C   UNL     1     -12.820  11.617  71.693  1.00  0.00    -0.454 A  
HETATM    9  C   UNL     1     -12.351  14.908  70.065  1.00  0.00    -0.358 A  
HETATM   10  C   UNL     1     -12.692  13.935  70.996  1.00  0.00    -0.428 A  
HETATM   11  C   UNL     1     -11.816  12.184  69.530  1.00  0.00    -0.386 A  
HETATM   12  C   UNL     1     -12.442  12.580  70.743  1.00  0.00    -0.357 A  
ENDBRANCH   2   3
BRANCH   2  13
HETATM   13  N   UNL     1      -9.705  13.437  66.836  1.00  0.00    -0.246 NA 
HETATM   14  H   UNL     1      -9.802  14.452  66.793  1.00  0.00     0.000 HD 
BRANCH  13  15
HETATM   15  C   UNL     1      -8.617  13.069  67.735  1.00  0.00    -0.189 C  
BRANCH  15  16
HETATM   16  C   UNL     1      -8.002  14.315  68.368  1.00  0.00    -0.143 C  
BRANCH  16  17
HETATM   17  C   UNL     1      -7.571  15.298  67.276  1.00  0.00    -0.244 C  
BRANCH  17  18
HETATM   18  C   UNL     1      -7.994  16.704  67.611  1.00  0.00    -0.188 A  
HETATM   19  C   UNL     1      -7.441  19.062  67.891  1.00  0.00    -0.278 A  
HETATM   20  C   UNL     1      -6.446  20.194  67.833  1.00  0.00    -0.250 C  
HETATM   21  C   UNL     1      -7.073  17.758  67.523  1.00  0.00    -0.198 A  
HETATM   22  C   UNL     1      -9.670  18.254  68.424  1.00  0.00    -0.373 A  
HETATM   23  F   UNL     1      -5.215  19.819  67.382  1.00  0.00    -0.161 F  
HETATM   24  F   UNL     1      -6.849  21.203  67.010  1.00  0.00    -0.348 F  
HETATM   25  F   UNL     1      -6.236  20.766  69.051  1.00  0.00    -0.361 F  
HETATM   26  C   UNL     1      -8.749  19.299  68.339  1.00  0.00    -0.395 A  
HETATM   27  C   UNL     1      -9.291  16.962  68.065  1.00  0.00    -0.238 A  
ENDBRANCH  17  18
ENDBRANCH  16  17
ENDBRANCH  15  16
ENDBRANCH  13  15
ENDBRANCH   2  13
TORSDOF 6
ENDMDL
MODEL      121
REMARK 921   NORMALIZED FREE ENERGY PREDICTED BY IDOCK:   -4.79 KCAL/MOL
REMARK 922        TOTAL FREE ENERGY PREDICTED BY IDOCK:   -9.60 KCAL/MOL
REMARK 923 INTER-LIGAND FREE ENERGY PREDICTED BY IDOCK:   -9.05 KCAL/MOL
REMARK 924 INTRA-LIGAND FREE ENERGY PREDICTED BY IDOCK:   -0.55 KCAL/MOL
REMARK 927      BINDING AFFINITY PREDICTED BY RF-SCORE:    0.00 PKD
ROOT
HETATM    1  C   UNL     1     -10.803   7.837  72.955  1.00  0.00    -0.453 C  
HETATM    2  C   UNL     1     -11.637   7.167  71.848  1.00  0.00    -0.278 C  
ENDROOT
BRANCH   2   3
HETATM    3  C   UNL     1     -10.919   6.024  71.126  1.00  0.00    -0.341 A  
HETATM    4  C   UNL     1     -10.560   3.316  73.758  1.00  0.00    -0.274 A  
HETATM    5  C   UNL     1     -10.538   6.186  69.778  1.00  0.00    -0.343 A  
HETATM    6  C   UNL     1      -9.737   2.422  73.091  1.00  0.00    -0.150 A  
HETATM    7  C   UNL     1     -10.984   4.484  73.116  1.00  0.00    -0.346 A  
HETATM    8  C   UNL     1      -9.372   2.676  71.771  1.00  0.00    -0.185 A  
HETATM    9  C   UNL     1      -9.811   5.208  69.107  1.00  0.00    -0.257 A  
HETATM   10  C   UNL     1      -9.427   4.054  69.778  1.00  0.00    -0.265 A  
HETATM   11  C   UNL     1     -10.587   4.804  71.795  1.00  0.00    -0.121 A  
HETATM   12  C   UNL     1      -9.795   3.842  71.112  1.00  0.00    -0.223 A  
ENDBRANCH   2   3
BRANCH   2  13
HETATM   13  N   UNL     1     -12.262   8.141  70.935  1.00  0.00    -0.489 NA 
HETATM   14  H   UNL     1     -13.278   8.080  70.991  1.00  0.00     0.000 HD 
BRANCH  13  15
HETATM   15  C   UNL     1     -11.824   9.519  71.130  1.00  0.00    -0.358 C  
BRANCH  15  16
HETATM   16  C   UNL     1     -12.968  10.488  70.841  1.00  0.00    -0.455 C  
BRANCH  16  17
HETATM   17  C   UNL     1     -13.253  11.345  72.077  1.00  0.00    -0.432 C  
BRANCH  17  18
HETATM   18  C   UNL     1     -13.300  12.809  71.727  1.00  0.00    -0.436 A  
HETATM   19  C   UNL     1     -12.408  14.710  70.490  1.00  0.00    -0.400 A  
HETATM   20  C   UNL     1     -11.433  15.291  69.496  1.00  0.00    -0.305 C  
HETATM   21  C   UNL     1     -12.413  13.337  70.779  1.00  0.00    -0.403 A  
HETATM   22  C   UNL     1     -14.201  15.027  72.100  1.00  0.00    -0.636 A  
HETATM   23  F   UNL     1     -10.613  14.363  68.927  1.00  0.00    -0.223 F  
HETATM   24  F   UNL     1     -12.055  15.921  68.460  1.00  0.00    -0.362 F  
HETATM   25  F   UNL     1     -10.608  16.220  70.057  1.00  0.00    -0.281 F  
HETATM   26  C   UNL     1     -13.313  15.549  71.157  1.00  0.00    -0.553 A  
HETATM   27  C   UNL     1     -14.190  13.664  72.385  1.00  0.00    -0.481 A  
ENDBRANCH  17  18
ENDBRANCH  16  17
ENDBRANCH  15  16
ENDBRANCH  13  15
ENDBRANCH   2  13
TORSDOF 6
ENDMDL
MODEL      122
REMARK 921   NORMALIZED FREE ENERGY PREDICTED BY IDOCK:   -4.79 KCAL/MOL
REMARK 922        TOTAL FREE ENERGY PREDICTED BY IDOCK:   -9.59 KCAL/MOL
REMARK 923 INTER-LIGAND FREE ENERGY PREDICTED BY IDOCK:   -8.32 KCAL/MOL
REMARK 924 INTRA-LIGAND FREE ENERGY PREDICTED BY IDOCK:   -1.27 KCAL/MOL
REMARK 927      BINDING AFFINITY PREDICTED BY RF-SCORE:    0.00 PKD
ROOT
HETATM    1  C   UNL     1      -7.902  10.240  69.487  1.00  0.00    -0.172 C  
HETATM    2  C   UNL     1      -9.305  10.144  68.861  1.00  0.00    -0.179 C  
ENDROOT
BRANCH   2   3
HETATM    3  C   UNL     1     -10.449  10.161  69.879  1.00  0.00    -0.322 A  
HETATM    4  C   UNL     1      -9.864   7.081  72.015  1.00  0.00    -0.171 A  
HETATM    5  C   UNL     1     -11.416  11.184  69.817  1.00  0.00    -0.388 A  
HETATM    6  C   UNL     1     -11.033   7.064  72.761  1.00  0.00    -0.329 A  
HETATM    7  C   UNL     1      -9.642   8.108  71.092  1.00  0.00    -0.196 A  
HETATM    8  C   UNL     1     -11.959   8.094  72.611  1.00  0.00    -0.353 A  
HETATM    9  C   UNL     1     -12.518  11.194  70.667  1.00  0.00    -0.448 A  
HETATM   10  C   UNL     1     -12.689  10.164  71.583  1.00  0.00    -0.549 A  
HETATM   11  C   UNL     1     -10.586   9.140  70.871  1.00  0.00    -0.341 A  
HETATM   12  C   UNL     1     -11.746   9.134  71.691  1.00  0.00    -0.448 A  
ENDBRANCH   2   3
BRANCH   2  13
HETATM   13  N   UNL     1      -9.414   9.059  67.869  1.00  0.00    -0.140 NA 
HETATM   14  H   UNL     1      -9.572   8.166  68.335  1.00  0.00     0.000 HD 
BRANCH  13  15
HETATM   15  C   UNL     1     -10.425   9.281  66.840  1.00  0.00    -0.214 C  
BRANCH  15  16
HETATM   16  C   UNL     1      -9.762   9.564  65.494  1.00  0.00    -0.344 C  
BRANCH  16  17
HETATM   17  C   UNL     1      -9.254  11.008  65.453  1.00  0.00    -0.232 C  
BRANCH  17  18
HETATM   18  C   UNL     1     -10.374  11.986  65.691  1.00  0.00    -0.288 A  
HETATM   19  C   UNL     1     -11.428  13.687  67.084  1.00  0.00    -0.367 A  
HETATM   20  C   UNL     1     -11.436  14.555  68.317  1.00  0.00    -0.311 C  
HETATM   21  C   UNL     1     -10.360  12.815  66.822  1.00  0.00    -0.248 A  
HETATM   22  C   UNL     1     -12.525  12.906  65.061  1.00  0.00    -0.553 A  
HETATM   23  F   UNL     1     -10.326  14.412  69.095  1.00  0.00    -0.225 F  
HETATM   24  F   UNL     1     -11.511  15.883  68.021  1.00  0.00    -0.343 F  
HETATM   25  F   UNL     1     -12.496  14.293  69.132  1.00  0.00    -0.338 F  
HETATM   26  C   UNL     1     -12.508  13.727  66.191  1.00  0.00    -0.466 A  
HETATM   27  C   UNL     1     -11.463  12.039  64.816  1.00  0.00    -0.357 A  
ENDBRANCH  17  18
ENDBRANCH  16  17
ENDBRANCH  15  16
ENDBRANCH  13  15
ENDBRANCH   2  13
TORSDOF 6
ENDMDL
MODEL      123
REMARK 921   NORMALIZED FREE ENERGY PREDICTED BY IDOCK:   -4.78 KCAL/MOL
REMARK 922        TOTAL FREE ENERGY PREDICTED BY IDOCK:   -9.58 KCAL/MOL
REMARK 923 INTER-LIGAND FREE ENERGY PREDICTED BY IDOCK:   -8.39 KCAL/MOL
REMARK 924 INTRA-LIGAND FREE ENERGY PREDICTED BY IDOCK:   -1.19 KCAL/MOL
REMARK 927      BINDING AFFINITY PREDICTED BY RF-SCORE:    0.00 PKD
ROOT
HETATM    1  C   UNL     1     -12.018  15.680  70.471  1.00  0.00    -0.417 C  
HETATM    2  C   UNL     1     -11.317  15.389  69.132  1.00  0.00    -0.315 C  
ENDROOT
BRANCH   2   3
HETATM    3  C   UNL     1     -10.371  16.498  68.665  1.00  0.00    -0.287 A  
HETATM    4  C   UNL     1      -6.910  15.244  69.582  1.00  0.00    -0.187 A  
HETATM    5  C   UNL     1     -10.905  17.664  68.078  1.00  0.00    -0.240 A  
HETATM    6  C   UNL     1      -6.152  16.373  69.315  1.00  0.00    -0.169 A  
HETATM    7  C   UNL     1      -8.288  15.257  69.341  1.00  0.00    -0.232 A  
HETATM    8  C   UNL     1      -6.765  17.500  68.771  1.00  0.00    -0.225 A  
HETATM    9  C   UNL     1     -10.091  18.732  67.715  1.00  0.00    -0.417 A  
HETATM   10  C   UNL     1      -8.725  18.668  67.954  1.00  0.00    -0.309 A  
HETATM   11  C   UNL     1      -8.955  16.402  68.844  1.00  0.00    -0.256 A  
HETATM   12  C   UNL     1      -8.146  17.526  68.520  1.00  0.00    -0.275 A  
ENDBRANCH   2   3
BRANCH   2  13
HETATM   13  N   UNL     1     -12.249  14.930  68.087  1.00  0.00    -0.566 NA 
HETATM   14  H   UNL     1     -12.731  15.725  67.667  1.00  0.00     0.000 HD 
BRANCH  13  15
HETATM   15  C   UNL     1     -11.637  14.103  67.052  1.00  0.00    -0.382 C  
BRANCH  15  16
HETATM   16  C   UNL     1     -11.821  12.622  67.374  1.00  0.00    -0.393 C  
BRANCH  16  17
HETATM   17  C   UNL     1     -10.731  12.157  68.344  1.00  0.00    -0.252 C  
BRANCH  17  18
HETATM   18  C   UNL     1     -11.313  11.343  69.468  1.00  0.00    -0.357 A  
HETATM   19  C   UNL     1     -11.549   9.209  70.624  1.00  0.00    -0.282 A  
HETATM   20  C   UNL     1     -11.206   7.747  70.767  1.00  0.00    -0.271 C  
HETATM   21  C   UNL     1     -10.966   9.993  69.616  1.00  0.00    -0.301 A  
HETATM   22  C   UNL     1     -12.825  11.145  71.351  1.00  0.00    -0.544 A  
HETATM   23  F   UNL     1     -10.291   7.308  69.856  1.00  0.00    -0.199 F  
HETATM   24  F   UNL     1     -10.683   7.450  71.989  1.00  0.00    -0.218 F  
HETATM   25  F   UNL     1     -12.293   6.940  70.619  1.00  0.00    -0.407 F  
HETATM   26  C   UNL     1     -12.479   9.800  71.492  1.00  0.00    -0.495 A  
HETATM   27  C   UNL     1     -12.247  11.910  70.341  1.00  0.00    -0.399 A  
ENDBRANCH  17  18
ENDBRANCH  16  17
ENDBRANCH  15  16
ENDBRANCH  13  15
ENDBRANCH   2  13
TORSDOF 6
ENDMDL
MODEL      124
REMARK 921   NORMALIZED FREE ENERGY PREDICTED BY IDOCK:   -4.78 KCAL/MOL
REMARK 922        TOTAL FREE ENERGY PREDICTED BY IDOCK:   -9.58 KCAL/MOL
REMARK 923 INTER-LIGAND FREE ENERGY PREDICTED BY IDOCK:   -6.15 KCAL/MOL
REMARK 924 INTRA-LIGAND FREE ENERGY PREDICTED BY IDOCK:   -3.43 KCAL/MOL
REMARK 927      BINDING AFFINITY PREDICTED BY RF-SCORE:    0.00 PKD
ROOT
HETATM    1  C   UNL     1      -8.750   7.814  71.308  1.00  0.00    -0.140 C  
HETATM    2  C   UNL     1      -9.934   8.446  70.555  1.00  0.00    -0.185 C  
ENDROOT
BRANCH   2   3
HETATM    3  C   UNL     1      -9.734   8.544  69.040  1.00  0.00    -0.170 A  
HETATM    4  C   UNL     1      -7.372  11.476  68.582  1.00  0.00    -0.106 A  
HETATM    5  C   UNL     1     -10.416   7.648  68.191  1.00  0.00    -0.233 A  
HETATM    6  C   UNL     1      -7.407  11.618  67.204  1.00  0.00    -0.143 A  
HETATM    7  C   UNL     1      -8.101  10.453  69.196  1.00  0.00    -0.151 A  
HETATM    8  C   UNL     1      -8.138  10.713  66.438  1.00  0.00    -0.148 A  
HETATM    9  C   UNL     1     -10.330   7.752  66.807  1.00  0.00    -0.348 A  
HETATM   10  C   UNL     1      -9.578   8.773  66.239  1.00  0.00    -0.328 A  
HETATM   11  C   UNL     1      -8.901   9.550  68.457  1.00  0.00    -0.124 A  
HETATM   12  C   UNL     1      -8.871   9.677  67.041  1.00  0.00    -0.142 A  
ENDBRANCH   2   3
BRANCH   2  13
HETATM   13  N   UNL     1     -10.398   9.702  71.170  1.00  0.00    -0.283 NA 
HETATM   14  H   UNL     1      -9.794  10.477  70.896  1.00  0.00     0.000 HD 
BRANCH  13  15
HETATM   15  C   UNL     1     -11.795  10.027  70.902  1.00  0.00    -0.368 C  
BRANCH  15  16
HETATM   16  C   UNL     1     -11.901  11.362  70.168  1.00  0.00    -0.440 C  
BRANCH  16  17
HETATM   17  C   UNL     1     -12.153  11.121  68.677  1.00  0.00    -0.180 C  
BRANCH  17  18
HETATM   18  C   UNL     1     -11.414  12.122  67.830  1.00  0.00    -0.392 A  
HETATM   19  C   UNL     1      -9.990  14.094  67.656  1.00  0.00    -0.233 A  
HETATM   20  C   UNL     1      -9.179  15.189  68.300  1.00  0.00    -0.188 C  
HETATM   21  C   UNL     1     -10.635  13.119  68.434  1.00  0.00    -0.264 A  
HETATM   22  C   UNL     1     -10.901  13.057  65.655  1.00  0.00    -0.293 A  
HETATM   23  F   UNL     1      -9.132  15.109  69.660  1.00  0.00    -0.219 F  
HETATM   24  F   UNL     1      -7.881  15.192  67.885  1.00  0.00    -0.113 F  
HETATM   25  F   UNL     1      -9.663  16.431  68.018  1.00  0.00    -0.224 F  
HETATM   26  C   UNL     1     -10.129  14.050  66.260  1.00  0.00    -0.307 A  
HETATM   27  C   UNL     1     -11.543  12.101  66.438  1.00  0.00    -0.429 A  
ENDBRANCH  17  18
ENDBRANCH  16  17
ENDBRANCH  15  16
ENDBRANCH  13  15
ENDBRANCH   2  13
TORSDOF 6
ENDMDL
MODEL      125
REMARK 921   NORMALIZED FREE ENERGY PREDICTED BY IDOCK:   -4.77 KCAL/MOL
REMARK 922        TOTAL FREE ENERGY PREDICTED BY IDOCK:   -9.57 KCAL/MOL
REMARK 923 INTER-LIGAND FREE ENERGY PREDICTED BY IDOCK:   -8.66 KCAL/MOL
REMARK 924 INTRA-LIGAND FREE ENERGY PREDICTED BY IDOCK:   -0.91 KCAL/MOL
REMARK 927      BINDING AFFINITY PREDICTED BY RF-SCORE:    0.00 PKD
ROOT
HETATM    1  C   UNL     1     -10.324   8.096  72.181  1.00  0.00    -0.342 C  
HETATM    2  C   UNL     1     -11.429   7.248  71.525  1.00  0.00    -0.263 C  
ENDROOT
BRANCH   2   3
HETATM    3  C   UNL     1     -10.929   6.311  70.422  1.00  0.00    -0.385 A  
HETATM    4  C   UNL     1      -9.551   3.307  72.282  1.00  0.00    -0.202 A  
HETATM    5  C   UNL     1     -11.032   6.711  69.074  1.00  0.00    -0.332 A  
HETATM    6  C   UNL     1      -8.948   2.618  71.241  1.00  0.00    -0.154 A  
HETATM    7  C   UNL     1     -10.233   4.499  72.025  1.00  0.00    -0.251 A  
HETATM    8  C   UNL     1      -9.063   3.101  69.939  1.00  0.00    -0.196 A  
HETATM    9  C   UNL     1     -10.516   5.930  68.045  1.00  0.00    -0.294 A  
HETATM   10  C   UNL     1      -9.863   4.741  68.343  1.00  0.00    -0.187 A  
HETATM   11  C   UNL     1     -10.322   5.052  70.725  1.00  0.00    -0.265 A  
HETATM   12  C   UNL     1      -9.750   4.296  69.666  1.00  0.00    -0.284 A  
ENDBRANCH   2   3
BRANCH   2  13
HETATM   13  N   UNL     1     -12.605   8.045  71.133  1.00  0.00    -0.484 NA 
HETATM   14  H   UNL     1     -13.454   7.485  71.207  1.00  0.00     0.000 HD 
BRANCH  13  15
HETATM   15  C   UNL     1     -12.757   9.298  71.865  1.00  0.00    -0.394 C  
BRANCH  15  16
HETATM   16  C   UNL     1     -12.961  10.461  70.896  1.00  0.00    -0.475 C  
BRANCH  16  17
HETATM   17  C   UNL     1     -11.756  10.578  69.958  1.00  0.00    -0.394 C  
BRANCH  17  18
HETATM   18  C   UNL     1     -11.812  11.850  69.155  1.00  0.00    -0.371 A  
HETATM   19  C   UNL     1     -11.754  12.987  67.000  1.00  0.00    -0.441 A  
HETATM   20  C   UNL     1     -11.667  12.946  65.495  1.00  0.00    -0.383 C  
HETATM   21  C   UNL     1     -11.763  11.804  67.755  1.00  0.00    -0.337 A  
HETATM   22  C   UNL     1     -11.857  14.270  69.061  1.00  0.00    -0.370 A  
HETATM   23  F   UNL     1     -11.621  11.683  64.982  1.00  0.00    -0.340 F  
HETATM   24  F   UNL     1     -12.728  13.552  64.892  1.00  0.00    -0.417 F  
HETATM   25  F   UNL     1     -10.557  13.579  65.020  1.00  0.00    -0.299 F  
HETATM   26  C   UNL     1     -11.805  14.220  67.667  1.00  0.00    -0.420 A  
HETATM   27  C   UNL     1     -11.857  13.090  69.800  1.00  0.00    -0.381 A  
ENDBRANCH  17  18
ENDBRANCH  16  17
ENDBRANCH  15  16
ENDBRANCH  13  15
ENDBRANCH   2  13
TORSDOF 6
ENDMDL
MODEL      126
REMARK 921   NORMALIZED FREE ENERGY PREDICTED BY IDOCK:   -4.77 KCAL/MOL
REMARK 922        TOTAL FREE ENERGY PREDICTED BY IDOCK:   -9.57 KCAL/MOL
REMARK 923 INTER-LIGAND FREE ENERGY PREDICTED BY IDOCK:   -8.45 KCAL/MOL
REMARK 924 INTRA-LIGAND FREE ENERGY PREDICTED BY IDOCK:   -1.12 KCAL/MOL
REMARK 927      BINDING AFFINITY PREDICTED BY RF-SCORE:    0.00 PKD
ROOT
HETATM    1  C   UNL     1      -7.962  10.335  64.808  1.00  0.00    -0.141 C  
HETATM    2  C   UNL     1      -9.450   9.942  64.797  1.00  0.00    -0.291 C  
ENDROOT
BRANCH   2   3
HETATM    3  C   UNL     1     -10.413  11.133  64.760  1.00  0.00    -0.388 A  
HETATM    4  C   UNL     1     -10.491  12.402  68.334  1.00  0.00    -0.245 A  
HETATM    5  C   UNL     1     -11.045  11.476  63.547  1.00  0.00    -0.434 A  
HETATM    6  C   UNL     1     -11.518  13.328  68.252  1.00  0.00    -0.351 A  
HETATM    7  C   UNL     1     -10.093  11.700  67.192  1.00  0.00    -0.227 A  
HETATM    8  C   UNL     1     -12.120  13.581  67.021  1.00  0.00    -0.401 A  
HETATM    9  C   UNL     1     -11.989  12.496  63.485  1.00  0.00    -0.629 A  
HETATM   10  C   UNL     1     -12.340  13.182  64.640  1.00  0.00    -0.463 A  
HETATM   11  C   UNL     1     -10.719  11.887  65.936  1.00  0.00    -0.326 A  
HETATM   12  C   UNL     1     -11.727  12.887  65.865  1.00  0.00    -0.449 A  
ENDBRANCH   2   3
BRANCH   2  13
HETATM   13  N   UNL     1      -9.787   8.945  65.828  1.00  0.00    -0.465 NA 
HETATM   14  H   UNL     1     -10.759   8.651  65.734  1.00  0.00     0.000 HD 
BRANCH  13  15
HETATM   15  C   UNL     1      -8.905   7.783  65.855  1.00  0.00    -0.142 C  
BRANCH  15  16
HETATM   16  C   UNL     1      -8.421   7.513  67.278  1.00  0.00    -0.118 C  
BRANCH  16  17
HETATM   17  C   UNL     1      -8.979   8.573  68.231  1.00  0.00    -0.139 C  
BRANCH  17  18
HETATM   18  C   UNL     1     -10.075   8.008  69.095  1.00  0.00    -0.202 A  
HETATM   19  C   UNL     1     -11.856   8.337  70.727  1.00  0.00    -0.172 A  
HETATM   20  C   UNL     1     -12.693   9.244  71.592  1.00  0.00    -0.364 C  
HETATM   21  C   UNL     1     -10.872   8.859  69.872  1.00  0.00    -0.219 A  
HETATM   22  C   UNL     1     -11.250   6.096  70.008  1.00  0.00    -0.471 A  
HETATM   23  F   UNL     1     -12.407  10.568  71.436  1.00  0.00    -0.403 F  
HETATM   24  F   UNL     1     -14.027   9.122  71.341  1.00  0.00    -0.416 F  
HETATM   25  F   UNL     1     -12.538   8.986  72.921  1.00  0.00    -0.394 F  
HETATM   26  C   UNL     1     -12.039   6.947  70.784  1.00  0.00    -0.400 A  
HETATM   27  C   UNL     1     -10.271   6.625  69.171  1.00  0.00    -0.201 A  
ENDBRANCH  17  18
ENDBRANCH  16  17
ENDBRANCH  15  16
ENDBRANCH  13  15
ENDBRANCH   2  13
TORSDOF 6
ENDMDL
MODEL      127
REMARK 921   NORMALIZED FREE ENERGY PREDICTED BY IDOCK:   -4.76 KCAL/MOL
REMARK 922        TOTAL FREE ENERGY PREDICTED BY IDOCK:   -9.56 KCAL/MOL
REMARK 923 INTER-LIGAND FREE ENERGY PREDICTED BY IDOCK:   -8.22 KCAL/MOL
REMARK 924 INTRA-LIGAND FREE ENERGY PREDICTED BY IDOCK:   -1.34 KCAL/MOL
REMARK 927      BINDING AFFINITY PREDICTED BY RF-SCORE:    0.00 PKD
ROOT
HETATM    1  C   UNL     1     -10.934  11.487  65.637  1.00  0.00    -0.296 C  
HETATM    2  C   UNL     1     -10.088  11.674  66.909  1.00  0.00    -0.211 C  
ENDROOT
BRANCH   2   3
HETATM    3  C   UNL     1     -10.862  12.252  68.098  1.00  0.00    -0.258 A  
HETATM    4  C   UNL     1     -11.310   9.317  70.458  1.00  0.00    -0.306 A  
HETATM    5  C   UNL     1     -11.249  13.608  68.079  1.00  0.00    -0.295 A  
HETATM    6  C   UNL     1     -12.177   9.869  71.388  1.00  0.00    -0.499 A  
HETATM    7  C   UNL     1     -10.842  10.094  69.394  1.00  0.00    -0.274 A  
HETATM    8  C   UNL     1     -12.543  11.208  71.276  1.00  0.00    -0.503 A  
HETATM    9  C   UNL     1     -12.024  14.155  69.097  1.00  0.00    -0.388 A  
HETATM   10  C   UNL     1     -12.450  13.350  70.146  1.00  0.00    -0.243 A  
HETATM   11  C   UNL     1     -11.238  11.441  69.214  1.00  0.00    -0.342 A  
HETATM   12  C   UNL     1     -12.078  12.002  70.215  1.00  0.00    -0.395 A  
ENDBRANCH   2   3
BRANCH   2  13
HETATM   13  N   UNL     1      -8.808  12.357  66.651  1.00  0.00    -0.327 NA 
HETATM   14  H   UNL     1      -8.974  13.291  66.276  1.00  0.00     0.000 HD 
BRANCH  13  15
HETATM   15  C   UNL     1      -7.915  12.422  67.802  1.00  0.00    -0.156 C  
BRANCH  15  16
HETATM   16  C   UNL     1      -7.832  13.852  68.334  1.00  0.00    -0.138 C  
BRANCH  16  17
HETATM   17  C   UNL     1      -7.327  14.790  67.235  1.00  0.00    -0.147 C  
BRANCH  17  18
HETATM   18  C   UNL     1      -8.332  15.871  66.937  1.00  0.00    -0.281 A  
HETATM   19  C   UNL     1      -9.246  18.084  67.393  1.00  0.00    -0.253 A  
HETATM   20  C   UNL     1      -9.215  19.389  68.149  1.00  0.00    -0.336 C  
HETATM   21  C   UNL     1      -8.278  17.094  67.620  1.00  0.00    -0.194 A  
HETATM   22  C   UNL     1     -10.322  16.623  65.776  1.00  0.00    -0.338 A  
HETATM   23  F   UNL     1      -8.171  19.491  69.022  1.00  0.00    -0.384 F  
HETATM   24  F   UNL     1      -9.115  20.469  67.325  1.00  0.00    -0.439 F  
HETATM   25  F   UNL     1     -10.339  19.588  68.892  1.00  0.00    -0.473 F  
HETATM   26  C   UNL     1     -10.266  17.838  66.462  1.00  0.00    -0.358 A  
HETATM   27  C   UNL     1      -9.361  15.644  66.017  1.00  0.00    -0.384 A  
ENDBRANCH  17  18
ENDBRANCH  16  17
ENDBRANCH  15  16
ENDBRANCH  13  15
ENDBRANCH   2  13
TORSDOF 6
ENDMDL
MODEL      128
REMARK 921   NORMALIZED FREE ENERGY PREDICTED BY IDOCK:   -4.75 KCAL/MOL
REMARK 922        TOTAL FREE ENERGY PREDICTED BY IDOCK:   -9.55 KCAL/MOL
REMARK 923 INTER-LIGAND FREE ENERGY PREDICTED BY IDOCK:   -8.22 KCAL/MOL
REMARK 924 INTRA-LIGAND FREE ENERGY PREDICTED BY IDOCK:   -1.32 KCAL/MOL
REMARK 927      BINDING AFFINITY PREDICTED BY RF-SCORE:    0.00 PKD
ROOT
HETATM    1  C   UNL     1      -7.791   8.518  67.488  1.00  0.00    -0.099 C  
HETATM    2  C   UNL     1      -9.319   8.692  67.539  1.00  0.00    -0.137 C  
ENDROOT
BRANCH   2   3
HETATM    3  C   UNL     1     -10.022   7.775  68.544  1.00  0.00    -0.193 A  
HETATM    4  C   UNL     1     -11.696  10.147  70.985  1.00  0.00    -0.470 A  
HETATM    5  C   UNL     1      -9.900   6.376  68.409  1.00  0.00    -0.141 A  
HETATM    6  C   UNL     1     -12.126   9.253  71.953  1.00  0.00    -0.440 A  
HETATM    7  C   UNL     1     -11.036   9.676  69.846  1.00  0.00    -0.268 A  
HETATM    8  C   UNL     1     -11.932   7.887  71.762  1.00  0.00    -0.337 A  
HETATM    9  C   UNL     1     -10.451   5.507  69.345  1.00  0.00    -0.360 A  
HETATM   10  C   UNL     1     -11.116   6.018  70.452  1.00  0.00    -0.399 A  
HETATM   11  C   UNL     1     -10.769   8.300  69.645  1.00  0.00    -0.196 A  
HETATM   12  C   UNL     1     -11.275   7.399  70.621  1.00  0.00    -0.292 A  
ENDBRANCH   2   3
BRANCH   2  13
HETATM   13  N   UNL     1      -9.941   8.688  66.203  1.00  0.00    -0.453 NA 
HETATM   14  H   UNL     1     -10.823   8.176  66.223  1.00  0.00     0.000 HD 
BRANCH  13  15
HETATM   15  C   UNL     1     -10.134  10.012  65.622  1.00  0.00    -0.251 C  
BRANCH  15  16
HETATM   16  C   UNL     1     -10.826  10.937  66.622  1.00  0.00    -0.258 C  
BRANCH  16  17
HETATM   17  C   UNL     1     -11.355  12.181  65.903  1.00  0.00    -0.407 C  
BRANCH  17  18
HETATM   18  C   UNL     1     -11.284  13.395  66.791  1.00  0.00    -0.332 A  
HETATM   19  C   UNL     1     -11.701  14.460  68.943  1.00  0.00    -0.357 A  
HETATM   20  C   UNL     1     -12.188  14.395  70.369  1.00  0.00    -0.338 C  
HETATM   21  C   UNL     1     -11.708  13.320  68.125  1.00  0.00    -0.397 A  
HETATM   22  C   UNL     1     -10.827  15.756  67.083  1.00  0.00    -0.289 A  
HETATM   23  F   UNL     1     -12.595  13.152  70.753  1.00  0.00    -0.394 F  
HETATM   24  F   UNL     1     -11.232  14.765  71.266  1.00  0.00    -0.318 F  
HETATM   25  F   UNL     1     -13.250  15.218  70.596  1.00  0.00    -0.426 F  
HETATM   26  C   UNL     1     -11.254  15.678  68.410  1.00  0.00    -0.352 A  
HETATM   27  C   UNL     1     -10.847  14.620  66.278  1.00  0.00    -0.321 A  
ENDBRANCH  17  18
ENDBRANCH  16  17
ENDBRANCH  15  16
ENDBRANCH  13  15
ENDBRANCH   2  13
TORSDOF 6
ENDMDL
MODEL      129
REMARK 921   NORMALIZED FREE ENERGY PREDICTED BY IDOCK:   -4.75 KCAL/MOL
REMARK 922        TOTAL FREE ENERGY PREDICTED BY IDOCK:   -9.54 KCAL/MOL
REMARK 923 INTER-LIGAND FREE ENERGY PREDICTED BY IDOCK:   -7.68 KCAL/MOL
REMARK 924 INTRA-LIGAND FREE ENERGY PREDICTED BY IDOCK:   -1.86 KCAL/MOL
REMARK 927      BINDING AFFINITY PREDICTED BY RF-SCORE:    0.00 PKD
ROOT
HETATM    1  C   UNL     1     -12.157  12.870  65.799  1.00  0.00    -0.513 C  
HETATM    2  C   UNL     1     -11.437  12.447  67.092  1.00  0.00    -0.357 C  
ENDROOT
BRANCH   2   3
HETATM    3  C   UNL     1     -11.662  13.395  68.274  1.00  0.00    -0.391 A  
HETATM    4  C   UNL     1     -12.878  11.146  71.075  1.00  0.00    -0.424 A  
HETATM    5  C   UNL     1     -11.433  14.777  68.108  1.00  0.00    -0.343 A  
HETATM    6  C   UNL     1     -13.243  12.092  72.020  1.00  0.00    -0.481 A  
HETATM    7  C   UNL     1     -12.326  11.554  69.857  1.00  0.00    -0.247 A  
HETATM    8  C   UNL     1     -13.020  13.442  71.762  1.00  0.00    -0.435 A  
HETATM    9  C   UNL     1     -11.704  15.684  69.127  1.00  0.00    -0.402 A  
HETATM   10  C   UNL     1     -12.233  15.231  70.329  1.00  0.00    -0.403 A  
HETATM   11  C   UNL     1     -12.137  12.920  69.536  1.00  0.00    -0.274 A  
HETATM   12  C   UNL     1     -12.462  13.867  70.545  1.00  0.00    -0.422 A  
ENDBRANCH   2   3
BRANCH   2  13
HETATM   13  N   UNL     1     -10.020  12.107  66.872  1.00  0.00    -0.202 NA 
HETATM   14  H   UNL     1      -9.494  12.196  67.741  1.00  0.00     0.000 HD 
BRANCH  13  15
HETATM   15  C   UNL     1      -9.800  10.793  66.276  1.00  0.00    -0.215 C  
BRANCH  15  16
HETATM   16  C   UNL     1      -8.903   9.943  67.175  1.00  0.00    -0.146 C  
BRANCH  16  17
HETATM   17  C   UNL     1      -8.466  10.756  68.396  1.00  0.00    -0.137 C  
BRANCH  17  18
HETATM   18  C   UNL     1      -8.509   9.923  69.649  1.00  0.00    -0.198 A  
HETATM   19  C   UNL     1      -9.765   8.559  71.232  1.00  0.00    -0.270 A  
HETATM   20  C   UNL     1     -11.050   7.903  71.671  1.00  0.00    -0.244 C  
HETATM   21  C   UNL     1      -9.698   9.288  70.035  1.00  0.00    -0.234 A  
HETATM   22  C   UNL     1      -7.432   9.091  71.654  1.00  0.00     0.011 A  
HETATM   23  F   UNL     1     -12.082   8.078  70.796  1.00  0.00    -0.294 F  
HETATM   24  F   UNL     1     -10.923   6.555  71.827  1.00  0.00    -0.247 F  
HETATM   25  F   UNL     1     -11.496   8.377  72.868  1.00  0.00    -0.432 F  
HETATM   26  C   UNL     1      -8.619   8.464  72.036  1.00  0.00    -0.254 A  
HETATM   27  C   UNL     1      -7.380   9.819  70.468  1.00  0.00    -0.126 A  
ENDBRANCH  17  18
ENDBRANCH  16  17
ENDBRANCH  15  16
ENDBRANCH  13  15
ENDBRANCH   2  13
TORSDOF 6
ENDMDL
MODEL      130
REMARK 921   NORMALIZED FREE ENERGY PREDICTED BY IDOCK:   -4.74 KCAL/MOL
REMARK 922        TOTAL FREE ENERGY PREDICTED BY IDOCK:   -9.53 KCAL/MOL
REMARK 923 INTER-LIGAND FREE ENERGY PREDICTED BY IDOCK:   -8.60 KCAL/MOL
REMARK 924 INTRA-LIGAND FREE ENERGY PREDICTED BY IDOCK:   -0.93 KCAL/MOL
REMARK 927      BINDING AFFINITY PREDICTED BY RF-SCORE:    0.00 PKD
ROOT
HETATM    1  C   UNL     1     -11.753  15.064  69.311  1.00  0.00    -0.349 C  
HETATM    2  C   UNL     1     -11.229  13.690  68.859  1.00  0.00    -0.270 C  
ENDROOT
BRANCH   2   3
HETATM    3  C   UNL     1     -11.559  13.339  67.405  1.00  0.00    -0.396 A  
HETATM    4  C   UNL     1      -9.614  10.153  66.733  1.00  0.00    -0.222 A  
HETATM    5  C   UNL     1     -12.403  14.189  66.661  1.00  0.00    -0.375 A  
HETATM    6  C   UNL     1      -9.804  10.023  65.366  1.00  0.00    -0.384 A  
HETATM    7  C   UNL     1     -10.211  11.213  67.421  1.00  0.00    -0.221 A  
HETATM    8  C   UNL     1     -10.623  10.930  64.696  1.00  0.00    -0.332 A  
HETATM    9  C   UNL     1     -12.663  13.956  65.315  1.00  0.00    -0.485 A  
HETATM   10  C   UNL     1     -12.065  12.878  64.675  1.00  0.00    -0.474 A  
HETATM   11  C   UNL     1     -11.001  12.188  66.766  1.00  0.00    -0.325 A  
HETATM   12  C   UNL     1     -11.232  11.998  65.376  1.00  0.00    -0.374 A  
ENDBRANCH   2   3
BRANCH   2  13
HETATM   13  N   UNL     1     -11.551  12.614  69.813  1.00  0.00    -0.473 NA 
HETATM   14  H   UNL     1     -10.698  12.248  70.238  1.00  0.00     0.000 HD 
BRANCH  13  15
HETATM   15  C   UNL     1     -12.513  12.987  70.843  1.00  0.00    -0.310 C  
BRANCH  15  16
HETATM   16  C   UNL     1     -12.975  11.753  71.616  1.00  0.00    -0.467 C  
BRANCH  16  17
HETATM   17  C   UNL     1     -12.852  10.508  70.734  1.00  0.00    -0.454 C  
BRANCH  17  18
HETATM   18  C   UNL     1     -11.805   9.565  71.264  1.00  0.00    -0.450 A  
HETATM   19  C   UNL     1      -9.498   8.776  71.292  1.00  0.00    -0.320 A  
HETATM   20  C   UNL     1      -8.068   8.880  70.825  1.00  0.00    -0.156 C  
HETATM   21  C   UNL     1     -10.471   9.687  70.851  1.00  0.00    -0.359 A  
HETATM   22  C   UNL     1     -11.205   7.623  72.581  1.00  0.00    -0.419 A  
HETATM   23  F   UNL     1      -7.843   9.926  69.980  1.00  0.00    -0.121 F  
HETATM   24  F   UNL     1      -7.191   9.041  71.855  1.00  0.00    -0.104 F  
HETATM   25  F   UNL     1      -7.657   7.768  70.154  1.00  0.00    -0.077 F  
HETATM   26  C   UNL     1      -9.878   7.745  72.164  1.00  0.00    -0.242 A  
HETATM   27  C   UNL     1     -12.163   8.527  72.129  1.00  0.00    -0.446 A  
ENDBRANCH  17  18
ENDBRANCH  16  17
ENDBRANCH  15  16
ENDBRANCH  13  15
ENDBRANCH   2  13
TORSDOF 6
ENDMDL
MODEL      131
REMARK 921   NORMALIZED FREE ENERGY PREDICTED BY IDOCK:   -4.74 KCAL/MOL
REMARK 922        TOTAL FREE ENERGY PREDICTED BY IDOCK:   -9.52 KCAL/MOL
REMARK 923 INTER-LIGAND FREE ENERGY PREDICTED BY IDOCK:   -6.15 KCAL/MOL
REMARK 924 INTRA-LIGAND FREE ENERGY PREDICTED BY IDOCK:   -3.38 KCAL/MOL
REMARK 927      BINDING AFFINITY PREDICTED BY RF-SCORE:    0.00 PKD
ROOT
HETATM    1  C   UNL     1      -8.889  17.987  68.140  1.00  0.00    -0.277 C  
HETATM    2  C   UNL     1      -8.668  16.978  67.000  1.00  0.00    -0.221 C  
ENDROOT
BRANCH   2   3
HETATM    3  C   UNL     1      -9.870  16.070  66.724  1.00  0.00    -0.260 A  
HETATM    4  C   UNL     1     -11.195  15.180  70.165  1.00  0.00    -0.299 A  
HETATM    5  C   UNL     1     -10.202  15.744  65.393  1.00  0.00    -0.380 A  
HETATM    6  C   UNL     1     -12.133  14.214  69.834  1.00  0.00    -0.405 A  
HETATM    7  C   UNL     1     -10.471  15.822  69.156  1.00  0.00    -0.240 A  
HETATM    8  C   UNL     1     -12.374  13.921  68.493  1.00  0.00    -0.018 A  
HETATM    9  C   UNL     1     -11.232  14.857  65.099  1.00  0.00    -0.389 A  
HETATM   10  C   UNL     1     -11.940  14.257  66.132  1.00  0.00    -0.422 A  
HETATM   11  C   UNL     1     -10.646  15.509  67.787  1.00  0.00    -0.281 A  
HETATM   12  C   UNL     1     -11.657  14.562  67.470  1.00  0.00    -0.403 A  
ENDBRANCH   2   3
BRANCH   2  13
HETATM   13  N   UNL     1      -7.394  16.248  67.121  1.00  0.00    -0.187 NA 
HETATM   14  H   UNL     1      -6.653  16.740  66.620  1.00  0.00     0.000 HD 
BRANCH  13  15
HETATM   15  C   UNL     1      -6.983  15.974  68.494  1.00  0.00    -0.131 C  
BRANCH  15  16
HETATM   16  C   UNL     1      -7.244  14.511  68.847  1.00  0.00    -0.125 C  
BRANCH  16  17
HETATM   17  C   UNL     1      -7.077  13.635  67.603  1.00  0.00    -0.179 C  
BRANCH  17  18
HETATM   18  C   UNL     1      -8.233  12.684  67.447  1.00  0.00    -0.184 A  
HETATM   19  C   UNL     1      -9.795  11.479  66.014  1.00  0.00    -0.255 A  
HETATM   20  C   UNL     1     -10.302  11.109  64.643  1.00  0.00    -0.330 C  
HETATM   21  C   UNL     1      -8.680  12.317  66.170  1.00  0.00     0.138 A  
HETATM   22  C   UNL     1     -10.009  11.361  68.432  1.00  0.00    -0.206 A  
HETATM   23  F   UNL     1      -9.570  11.645  63.625  1.00  0.00    -0.255 F  
HETATM   24  F   UNL     1     -10.302   9.763  64.431  1.00  0.00    -0.111 F  
HETATM   25  F   UNL     1     -11.584  11.520  64.433  1.00  0.00    -0.372 F  
HETATM   26  C   UNL     1     -10.452  11.002  67.158  1.00  0.00    -0.274 A  
HETATM   27  C   UNL     1      -8.907  12.201  68.574  1.00  0.00    -0.079 A  
ENDBRANCH  17  18
ENDBRANCH  16  17
ENDBRANCH  15  16
ENDBRANCH  13  15
ENDBRANCH   2  13
TORSDOF 6
ENDMDL
MODEL      132
REMARK 921   NORMALIZED FREE ENERGY PREDICTED BY IDOCK:   -4.71 KCAL/MOL
REMARK 922        TOTAL FREE ENERGY PREDICTED BY IDOCK:   -9.49 KCAL/MOL
REMARK 923 INTER-LIGAND FREE ENERGY PREDICTED BY IDOCK:   -5.67 KCAL/MOL
REMARK 924 INTRA-LIGAND FREE ENERGY PREDICTED BY IDOCK:   -3.82 KCAL/MOL
REMARK 927      BINDING AFFINITY PREDICTED BY RF-SCORE:    0.00 PKD
ROOT
HETATM    1  C   UNL     1     -10.022   9.103  66.208  1.00  0.00    -0.352 C  
HETATM    2  C   UNL     1     -10.598   8.382  67.439  1.00  0.00    -0.243 C  
ENDROOT
BRANCH   2   3
HETATM    3  C   UNL     1      -9.787   8.586  68.722  1.00  0.00    -0.180 A  
HETATM    4  C   UNL     1     -12.206   7.742  71.519  1.00  0.00    -0.344 A  
HETATM    5  C   UNL     1      -8.452   9.032  68.635  1.00  0.00    -0.128 A  
HETATM    6  C   UNL     1     -11.469   8.142  72.622  1.00  0.00    -0.454 A  
HETATM    7  C   UNL     1     -11.657   7.848  70.238  1.00  0.00    -0.022 A  
HETATM    8  C   UNL     1     -10.169   8.610  72.447  1.00  0.00    -0.319 A  
HETATM    9  C   UNL     1      -7.705   9.311  69.775  1.00  0.00    -0.096 A  
HETATM   10  C   UNL     1      -8.285   9.173  71.029  1.00  0.00    -0.186 A  
HETATM   11  C   UNL     1     -10.361   8.373  70.015  1.00  0.00    -0.211 A  
HETATM   12  C   UNL     1      -9.602   8.718  71.166  1.00  0.00    -0.309 A  
ENDBRANCH   2   3
BRANCH   2  13
HETATM   13  N   UNL     1     -10.931   6.971  67.172  1.00  0.00    -0.538 NA 
HETATM   14  H   UNL     1     -11.799   6.906  66.638  1.00  0.00     0.000 HD 
BRANCH  13  15
HETATM   15  C   UNL     1      -9.872   6.215  66.513  1.00  0.00    -0.133 C  
BRANCH  15  16
HETATM   16  C   UNL     1      -9.263   5.199  67.478  1.00  0.00    -0.124 C  
BRANCH  16  17
HETATM   17  C   UNL     1     -10.255   4.882  68.599  1.00  0.00    -0.112 C  
BRANCH  17  18
HETATM   18  C   UNL     1      -9.606   5.002  69.952  1.00  0.00    -0.246 A  
HETATM   19  C   UNL     1      -9.753   4.860  72.381  1.00  0.00    -0.200 A  
HETATM   20  C   UNL     1     -10.536   4.563  73.635  1.00  0.00    -0.247 C  
HETATM   21  C   UNL     1     -10.330   4.693  71.113  1.00  0.00    -0.142 A  
HETATM   22  C   UNL     1      -7.709   5.636  71.320  1.00  0.00    -0.109 A  
HETATM   23  F   UNL     1     -11.803   4.116  73.397  1.00  0.00    -0.336 F  
HETATM   24  F   UNL     1      -9.946   3.608  74.407  1.00  0.00    -0.130 F  
HETATM   25  F   UNL     1     -10.675   5.657  74.435  1.00  0.00    -0.275 F  
HETATM   26  C   UNL     1      -8.435   5.331  72.473  1.00  0.00    -0.118 A  
HETATM   27  C   UNL     1      -8.296   5.475  70.067  1.00  0.00    -0.116 A  
ENDBRANCH  17  18
ENDBRANCH  16  17
ENDBRANCH  15  16
ENDBRANCH  13  15
ENDBRANCH   2  13
TORSDOF 6
ENDMDL
MODEL      133
REMARK 921   NORMALIZED FREE ENERGY PREDICTED BY IDOCK:   -4.71 KCAL/MOL
REMARK 922        TOTAL FREE ENERGY PREDICTED BY IDOCK:   -9.49 KCAL/MOL
REMARK 923 INTER-LIGAND FREE ENERGY PREDICTED BY IDOCK:   -8.39 KCAL/MOL
REMARK 924 INTRA-LIGAND FREE ENERGY PREDICTED BY IDOCK:   -1.10 KCAL/MOL
REMARK 927      BINDING AFFINITY PREDICTED BY RF-SCORE:    0.00 PKD
ROOT
HETATM    1  C   UNL     1     -13.241  15.270  70.595  1.00  0.00    -0.370 C  
HETATM    2  C   UNL     1     -11.991  14.425  70.291  1.00  0.00    -0.321 C  
ENDROOT
BRANCH   2   3
HETATM    3  C   UNL     1     -11.701  14.250  68.798  1.00  0.00    -0.378 A  
HETATM    4  C   UNL     1     -10.338  17.613  67.695  1.00  0.00    -0.368 A  
HETATM    5  C   UNL     1     -11.994  13.019  68.174  1.00  0.00    -0.322 A  
HETATM    6  C   UNL     1     -10.296  17.433  66.322  1.00  0.00    -0.330 A  
HETATM    7  C   UNL     1     -10.762  16.569  68.523  1.00  0.00    -0.336 A  
HETATM    8  C   UNL     1     -10.640  16.196  65.780  1.00  0.00    -0.347 A  
HETATM    9  C   UNL     1     -11.825  12.842  66.805  1.00  0.00    -0.452 A  
HETATM   10  C   UNL     1     -11.381  13.901  66.023  1.00  0.00    -0.324 A  
HETATM   11  C   UNL     1     -11.175  15.318  68.005  1.00  0.00    -0.330 A  
HETATM   12  C   UNL     1     -11.063  15.137  66.600  1.00  0.00    -0.308 A  
ENDBRANCH   2   3
BRANCH   2  13
HETATM   13  N   UNL     1     -11.956  13.162  71.050  1.00  0.00    -0.384 NA 
HETATM   14  H   UNL     1     -11.154  13.150  71.681  1.00  0.00     0.000 HD 
BRANCH  13  15
HETATM   15  C   UNL     1     -13.182  12.862  71.781  1.00  0.00    -0.384 C  
BRANCH  15  16
HETATM   16  C   UNL     1     -13.307  11.358  72.018  1.00  0.00    -0.388 C  
BRANCH  16  17
HETATM   17  C   UNL     1     -12.721  10.591  70.830  1.00  0.00    -0.495 C  
BRANCH  17  18
HETATM   18  C   UNL     1     -11.657   9.624  71.278  1.00  0.00    -0.466 A  
HETATM   19  C   UNL     1      -9.374   8.782  71.125  1.00  0.00    -0.297 A  
HETATM   20  C   UNL     1      -7.984   8.852  70.545  1.00  0.00    -0.126 C  
HETATM   21  C   UNL     1     -10.357   9.715  70.760  1.00  0.00    -0.356 A  
HETATM   22  C   UNL     1     -10.999   7.669  72.548  1.00  0.00    -0.377 A  
HETATM   23  F   UNL     1      -7.802   9.893  69.682  1.00  0.00    -0.092 F  
HETATM   24  F   UNL     1      -7.024   8.993  71.502  1.00  0.00    -0.087 F  
HETATM   25  F   UNL     1      -7.653   7.730  69.846  1.00  0.00    -0.081 F  
HETATM   26  C   UNL     1      -9.707   7.760  72.026  1.00  0.00    -0.224 A  
HETATM   27  C   UNL     1     -11.969   8.595  72.171  1.00  0.00    -0.449 A  
ENDBRANCH  17  18
ENDBRANCH  16  17
ENDBRANCH  15  16
ENDBRANCH  13  15
ENDBRANCH   2  13
TORSDOF 6
ENDMDL
MODEL      134
REMARK 921   NORMALIZED FREE ENERGY PREDICTED BY IDOCK:   -4.69 KCAL/MOL
REMARK 922        TOTAL FREE ENERGY PREDICTED BY IDOCK:   -9.46 KCAL/MOL
REMARK 923 INTER-LIGAND FREE ENERGY PREDICTED BY IDOCK:   -8.16 KCAL/MOL
REMARK 924 INTRA-LIGAND FREE ENERGY PREDICTED BY IDOCK:   -1.30 KCAL/MOL
REMARK 927      BINDING AFFINITY PREDICTED BY RF-SCORE:    0.00 PKD
ROOT
HETATM    1  C   UNL     1     -10.195  15.204  68.023  1.00  0.00    -0.230 C  
HETATM    2  C   UNL     1     -11.591  14.595  67.807  1.00  0.00    -0.359 C  
ENDROOT
BRANCH   2   3
HETATM    3  C   UNL     1     -11.986  13.544  68.848  1.00  0.00    -0.378 A  
HETATM    4  C   UNL     1     -13.359  15.557  71.755  1.00  0.00    -0.577 A  
HETATM    5  C   UNL     1     -11.759  12.179  68.577  1.00  0.00    -0.382 A  
HETATM    6  C   UNL     1     -13.497  14.562  72.710  1.00  0.00    -0.575 A  
HETATM    7  C   UNL     1     -12.898  15.235  70.475  1.00  0.00    -0.421 A  
HETATM    8  C   UNL     1     -13.214  13.241  72.372  1.00  0.00    -0.539 A  
HETATM    9  C   UNL     1     -12.024  11.197  69.525  1.00  0.00    -0.425 A  
HETATM   10  C   UNL     1     -12.500  11.560  70.778  1.00  0.00    -0.444 A  
HETATM   11  C   UNL     1     -12.545  13.913  70.112  1.00  0.00    -0.285 A  
HETATM   12  C   UNL     1     -12.755  12.902  71.089  1.00  0.00    -0.366 A  
ENDBRANCH   2   3
BRANCH   2  13
HETATM   13  N   UNL     1     -11.816  14.160  66.417  1.00  0.00    -0.405 NA 
HETATM   14  H   UNL     1     -12.582  14.689  65.998  1.00  0.00     0.000 HD 
BRANCH  13  15
HETATM   15  C   UNL     1     -10.633  14.220  65.566  1.00  0.00    -0.340 C  
BRANCH  15  16
HETATM   16  C   UNL     1     -10.683  13.124  64.504  1.00  0.00    -0.416 C  
BRANCH  16  17
HETATM   17  C   UNL     1     -11.207  11.823  65.119  1.00  0.00    -0.311 C  
BRANCH  17  18
HETATM   18  C   UNL     1     -10.090  10.842  65.353  1.00  0.00    -0.347 A  
HETATM   19  C   UNL     1      -7.957   9.874  64.677  1.00  0.00    -0.141 A  
HETATM   20  C   UNL     1      -6.771   9.828  63.746  1.00  0.00    -0.120 C  
HETATM   21  C   UNL     1      -8.975  10.825  64.503  1.00  0.00    -0.181 A  
HETATM   22  C   UNL     1      -9.172   8.960  66.572  1.00  0.00    -0.231 A  
HETATM   23  F   UNL     1      -6.797  10.787  62.777  1.00  0.00    -0.133 F  
HETATM   24  F   UNL     1      -5.586   9.994  64.398  1.00  0.00    -0.071 F  
HETATM   25  F   UNL     1      -6.671   8.640  63.087  1.00  0.00    -0.089 F  
HETATM   26  C   UNL     1      -8.065   8.945  65.721  1.00  0.00    -0.107 A  
HETATM   27  C   UNL     1     -10.180   9.902  66.384  1.00  0.00    -0.292 A  
ENDBRANCH  17  18
ENDBRANCH  16  17
ENDBRANCH  15  16
ENDBRANCH  13  15
ENDBRANCH   2  13
TORSDOF 6
ENDMDL
MODEL      135
REMARK 921   NORMALIZED FREE ENERGY PREDICTED BY IDOCK:   -4.69 KCAL/MOL
REMARK 922        TOTAL FREE ENERGY PREDICTED BY IDOCK:   -9.46 KCAL/MOL
REMARK 923 INTER-LIGAND FREE ENERGY PREDICTED BY IDOCK:   -7.49 KCAL/MOL
REMARK 924 INTRA-LIGAND FREE ENERGY PREDICTED BY IDOCK:   -1.97 KCAL/MOL
REMARK 927      BINDING AFFINITY PREDICTED BY RF-SCORE:    0.00 PKD
ROOT
HETATM    1  C   UNL     1      -9.911   9.230  67.811  1.00  0.00    -0.235 C  
HETATM    2  C   UNL     1      -9.472  10.662  68.165  1.00  0.00    -0.154 C  
ENDROOT
BRANCH   2   3
HETATM    3  C   UNL     1     -10.490  11.742  67.788  1.00  0.00    -0.219 A  
HETATM    4  C   UNL     1     -10.874  11.412  64.029  1.00  0.00    -0.450 A  
HETATM    5  C   UNL     1     -11.010  12.585  68.791  1.00  0.00    -0.294 A  
HETATM    6  C   UNL     1     -11.639  12.535  63.753  1.00  0.00    -0.552 A  
HETATM    7  C   UNL     1     -10.519  11.119  65.349  1.00  0.00    -0.321 A  
HETATM    8  C   UNL     1     -12.081  13.340  64.800  1.00  0.00    -0.456 A  
HETATM    9  C   UNL     1     -11.872  13.632  68.484  1.00  0.00    -0.406 A  
HETATM   10  C   UNL     1     -12.215  13.875  67.160  1.00  0.00    -0.353 A  
HETATM   11  C   UNL     1     -10.900  11.946  66.433  1.00  0.00    -0.318 A  
HETATM   12  C   UNL     1     -11.735  13.055  66.131  1.00  0.00    -0.445 A  
ENDBRANCH   2   3
BRANCH   2  13
HETATM   13  N   UNL     1      -8.099  10.965  67.723  1.00  0.00    -0.114 NA 
HETATM   14  H   UNL     1      -8.069  11.075  66.709  1.00  0.00     0.000 HD 
BRANCH  13  15
HETATM   15  C   UNL     1      -7.494  12.120  68.378  1.00  0.00    -0.114 C  
BRANCH  15  16
HETATM   16  C   UNL     1      -7.683  13.375  67.528  1.00  0.00    -0.182 C  
BRANCH  16  17
HETATM   17  C   UNL     1      -8.106  14.549  68.416  1.00  0.00    -0.143 C  
BRANCH  17  18
HETATM   18  C   UNL     1      -8.826  15.603  67.619  1.00  0.00    -0.181 A  
HETATM   19  C   UNL     1      -9.870  17.802  67.489  1.00  0.00    -0.304 A  
HETATM   20  C   UNL     1     -10.249  19.117  68.124  1.00  0.00    -0.403 C  
HETATM   21  C   UNL     1      -9.146  16.836  68.204  1.00  0.00    -0.227 A  
HETATM   22  C   UNL     1      -9.940  16.297  65.582  1.00  0.00    -0.306 A  
HETATM   23  F   UNL     1      -9.806  19.253  69.407  1.00  0.00    -0.418 F  
HETATM   24  F   UNL     1      -9.751  20.188  67.445  1.00  0.00    -0.445 F  
HETATM   25  F   UNL     1     -11.597  19.301  68.176  1.00  0.00     0.243 F  
HETATM   26  C   UNL     1     -10.261  17.522  66.171  1.00  0.00    -0.339 A  
HETATM   27  C   UNL     1      -9.230  15.342  66.306  1.00  0.00    -0.354 A  
ENDBRANCH  17  18
ENDBRANCH  16  17
ENDBRANCH  15  16
ENDBRANCH  13  15
ENDBRANCH   2  13
TORSDOF 6
ENDMDL
MODEL      136
REMARK 921   NORMALIZED FREE ENERGY PREDICTED BY IDOCK:   -4.69 KCAL/MOL
REMARK 922        TOTAL FREE ENERGY PREDICTED BY IDOCK:   -9.46 KCAL/MOL
REMARK 923 INTER-LIGAND FREE ENERGY PREDICTED BY IDOCK:   -6.10 KCAL/MOL
REMARK 924 INTRA-LIGAND FREE ENERGY PREDICTED BY IDOCK:   -3.36 KCAL/MOL
REMARK 927      BINDING AFFINITY PREDICTED BY RF-SCORE:    0.00 PKD
ROOT
HETATM    1  C   UNL     1     -12.036  10.460  71.132  1.00  0.00    -0.487 C  
HETATM    2  C   UNL     1     -11.073  10.542  69.935  1.00  0.00    -0.307 C  
ENDROOT
BRANCH   2   3
HETATM    3  C   UNL     1      -9.855   9.620  70.046  1.00  0.00    -0.286 A  
HETATM    4  C   UNL     1     -11.323   6.177  70.661  1.00  0.00    -0.368 A  
HETATM    5  C   UNL     1      -8.559  10.168  69.945  1.00  0.00    -0.100 A  
HETATM    6  C   UNL     1     -10.173   5.458  70.946  1.00  0.00    -0.303 A  
HETATM    7  C   UNL     1     -11.233   7.533  70.330  1.00  0.00    -0.253 A  
HETATM    8  C   UNL     1      -8.932   6.084  70.862  1.00  0.00    -0.146 A  
HETATM    9  C   UNL     1      -7.425   9.383  70.122  1.00  0.00    -0.120 A  
HETATM   10  C   UNL     1      -7.560   8.036  70.430  1.00  0.00    -0.081 A  
HETATM   11  C   UNL     1      -9.995   8.218  70.291  1.00  0.00    -0.188 A  
HETATM   12  C   UNL     1      -8.826   7.444  70.526  1.00  0.00    -0.148 A  
ENDBRANCH   2   3
BRANCH   2  13
HETATM   13  N   UNL     1     -10.732  11.928  69.569  1.00  0.00    -0.439 NA 
HETATM   14  H   UNL     1      -9.719  12.048  69.537  1.00  0.00     0.000 HD 
BRANCH  13  15
HETATM   15  C   UNL     1     -11.338  12.391  68.325  1.00  0.00    -0.284 C  
BRANCH  15  16
HETATM   16  C   UNL     1     -11.497  11.231  67.344  1.00  0.00    -0.300 C  
BRANCH  16  17
HETATM   17  C   UNL     1     -10.351  11.244  66.329  1.00  0.00    -0.294 C  
BRANCH  17  18
HETATM   18  C   UNL     1      -9.556   9.968  66.388  1.00  0.00    -0.248 A  
HETATM   19  C   UNL     1      -9.477   7.539  66.587  1.00  0.00    -0.246 A  
HETATM   20  C   UNL     1     -10.175   6.208  66.711  1.00  0.00    -0.206 C  
HETATM   21  C   UNL     1     -10.210   8.731  66.471  1.00  0.00    -0.314 A  
HETATM   22  C   UNL     1      -7.420   8.831  66.523  1.00  0.00    -0.085 A  
HETATM   23  F   UNL     1     -11.535   6.297  66.678  1.00  0.00    -0.364 F  
HETATM   24  F   UNL     1      -9.836   5.344  65.713  1.00  0.00    -0.172 F  
HETATM   25  F   UNL     1      -9.875   5.569  67.876  1.00  0.00    -0.122 F  
HETATM   26  C   UNL     1      -8.076   7.602  66.609  1.00  0.00    -0.119 A  
HETATM   27  C   UNL     1      -8.159  10.007  66.417  1.00  0.00    -0.120 A  
ENDBRANCH  17  18
ENDBRANCH  16  17
ENDBRANCH  15  16
ENDBRANCH  13  15
ENDBRANCH   2  13
TORSDOF 6
ENDMDL
MODEL      137
REMARK 921   NORMALIZED FREE ENERGY PREDICTED BY IDOCK:   -4.66 KCAL/MOL
REMARK 922        TOTAL FREE ENERGY PREDICTED BY IDOCK:   -9.43 KCAL/MOL
REMARK 923 INTER-LIGAND FREE ENERGY PREDICTED BY IDOCK:   -8.19 KCAL/MOL
REMARK 924 INTRA-LIGAND FREE ENERGY PREDICTED BY IDOCK:   -1.24 KCAL/MOL
REMARK 927      BINDING AFFINITY PREDICTED BY RF-SCORE:    0.00 PKD
ROOT
HETATM    1  C   UNL     1     -14.325   8.806  71.526  1.00  0.00    -0.342 C  
HETATM    2  C   UNL     1     -12.967   9.322  72.035  1.00  0.00    -0.425 C  
ENDROOT
BRANCH   2   3
HETATM    3  C   UNL     1     -12.301  10.349  71.114  1.00  0.00    -0.505 A  
HETATM    4  C   UNL     1     -13.706  13.687  72.244  1.00  0.00    -0.687 A  
HETATM    5  C   UNL     1     -11.416   9.909  70.109  1.00  0.00    -0.309 A  
HETATM    6  C   UNL     1     -13.218  14.518  71.247  1.00  0.00    -0.422 A  
HETATM    7  C   UNL     1     -13.386  12.326  72.235  1.00  0.00    -0.375 A  
HETATM    8  C   UNL     1     -12.379  13.995  70.266  1.00  0.00    -0.425 A  
HETATM    9  C   UNL     1     -10.854  10.796  69.198  1.00  0.00    -0.281 A  
HETATM   10  C   UNL     1     -11.183  12.144  69.256  1.00  0.00    -0.288 A  
HETATM   11  C   UNL     1     -12.584  11.747  71.221  1.00  0.00    -0.401 A  
HETATM   12  C   UNL     1     -12.046  12.631  70.246  1.00  0.00    -0.372 A  
ENDBRANCH   2   3
BRANCH   2  13
HETATM   13  N   UNL     1     -12.064   8.237  72.457  1.00  0.00    -0.511 NA 
HETATM   14  H   UNL     1     -11.841   8.325  73.448  1.00  0.00     0.000 HD 
BRANCH  13  15
HETATM   15  C   UNL     1     -12.555   6.894  72.164  1.00  0.00    -0.125 C  
BRANCH  15  16
HETATM   16  C   UNL     1     -11.397   5.899  72.126  1.00  0.00    -0.344 C  
BRANCH  16  17
HETATM   17  C   UNL     1     -10.249   6.464  71.285  1.00  0.00    -0.232 C  
BRANCH  17  18
HETATM   18  C   UNL     1     -10.267   5.900  69.890  1.00  0.00    -0.280 A  
HETATM   19  C   UNL     1      -9.549   4.206  68.290  1.00  0.00    -0.191 A  
HETATM   20  C   UNL     1      -8.792   2.943  67.965  1.00  0.00    -0.129 C  
HETATM   21  C   UNL     1      -9.588   4.708  69.600  1.00  0.00    -0.262 A  
HETATM   22  C   UNL     1     -10.889   6.096  67.556  1.00  0.00    -0.422 A  
HETATM   23  F   UNL     1      -8.198   2.366  69.049  1.00  0.00    -0.057 F  
HETATM   24  F   UNL     1      -9.589   1.980  67.424  1.00  0.00    -0.162 F  
HETATM   25  F   UNL     1      -7.793   3.152  67.063  1.00  0.00    -0.075 F  
HETATM   26  C   UNL     1     -10.208   4.910  67.272  1.00  0.00    -0.190 A  
HETATM   27  C   UNL     1     -10.913   6.589  68.859  1.00  0.00    -0.376 A  
ENDBRANCH  17  18
ENDBRANCH  16  17
ENDBRANCH  15  16
ENDBRANCH  13  15
ENDBRANCH   2  13
TORSDOF 6
ENDMDL
MODEL      138
REMARK 921   NORMALIZED FREE ENERGY PREDICTED BY IDOCK:   -4.66 KCAL/MOL
REMARK 922        TOTAL FREE ENERGY PREDICTED BY IDOCK:   -9.42 KCAL/MOL
REMARK 923 INTER-LIGAND FREE ENERGY PREDICTED BY IDOCK:   -7.70 KCAL/MOL
REMARK 924 INTRA-LIGAND FREE ENERGY PREDICTED BY IDOCK:   -1.72 KCAL/MOL
REMARK 927      BINDING AFFINITY PREDICTED BY RF-SCORE:    0.00 PKD
ROOT
HETATM    1  C   UNL     1      -8.172   9.791  64.186  1.00  0.00    -0.158 C  
HETATM    2  C   UNL     1      -9.454   9.967  65.019  1.00  0.00    -0.280 C  
ENDROOT
BRANCH   2   3
HETATM    3  C   UNL     1      -9.561  11.320  65.728  1.00  0.00    -0.256 A  
HETATM    4  C   UNL     1     -12.266  13.178  63.828  1.00  0.00    -0.528 A  
HETATM    5  C   UNL     1      -8.705  11.603  66.813  1.00  0.00    -0.189 A  
HETATM    6  C   UNL     1     -12.156  14.438  64.395  1.00  0.00    -0.491 A  
HETATM    7  C   UNL     1     -11.448  12.137  64.277  1.00  0.00    -0.437 A  
HETATM    8  C   UNL     1     -11.256  14.646  65.438  1.00  0.00    -0.347 A  
HETATM    9  C   UNL     1      -8.709  12.848  67.434  1.00  0.00    -0.197 A  
HETATM   10  C   UNL     1      -9.553  13.847  66.967  1.00  0.00    -0.254 A  
HETATM   11  C   UNL     1     -10.482  12.324  65.295  1.00  0.00    -0.315 A  
HETATM   12  C   UNL     1     -10.431  13.608  65.903  1.00  0.00    -0.297 A  
ENDBRANCH   2   3
BRANCH   2  13
HETATM   13  N   UNL     1      -9.727   8.817  65.899  1.00  0.00    -0.447 NA 
HETATM   14  H   UNL     1     -10.490   8.254  65.523  1.00  0.00     0.000 HD 
BRANCH  13  15
HETATM   15  C   UNL     1      -8.565   7.978  66.174  1.00  0.00    -0.148 C  
BRANCH  15  16
HETATM   16  C   UNL     1      -8.675   7.352  67.562  1.00  0.00    -0.124 C  
BRANCH  16  17
HETATM   17  C   UNL     1      -8.179   8.338  68.623  1.00  0.00    -0.120 C  
BRANCH  17  18
HETATM   18  C   UNL     1      -9.222   8.569  69.683  1.00  0.00    -0.157 A  
HETATM   19  C   UNL     1     -11.221   9.730  70.458  1.00  0.00    -0.381 A  
HETATM   20  C   UNL     1     -12.339  10.715  70.229  1.00  0.00    -0.325 C  
HETATM   21  C   UNL     1     -10.278   9.462  69.453  1.00  0.00    -0.214 A  
HETATM   22  C   UNL     1     -10.052   8.188  71.928  1.00  0.00    -0.285 A  
HETATM   23  F   UNL     1     -12.334  11.271  68.984  1.00  0.00    -0.384 F  
HETATM   24  F   UNL     1     -13.571  10.153  70.378  1.00  0.00    -0.339 F  
HETATM   25  F   UNL     1     -12.298  11.761  71.102  1.00  0.00    -0.435 F  
HETATM   26  C   UNL     1     -11.099   9.081  71.695  1.00  0.00    -0.433 A  
HETATM   27  C   UNL     1      -9.117   7.937  70.926  1.00  0.00    -0.157 A  
ENDBRANCH  17  18
ENDBRANCH  16  17
ENDBRANCH  15  16
ENDBRANCH  13  15
ENDBRANCH   2  13
TORSDOF 6
ENDMDL
MODEL      139
REMARK 921   NORMALIZED FREE ENERGY PREDICTED BY IDOCK:   -4.66 KCAL/MOL
REMARK 922        TOTAL FREE ENERGY PREDICTED BY IDOCK:   -9.42 KCAL/MOL
REMARK 923 INTER-LIGAND FREE ENERGY PREDICTED BY IDOCK:   -7.48 KCAL/MOL
REMARK 924 INTRA-LIGAND FREE ENERGY PREDICTED BY IDOCK:   -1.94 KCAL/MOL
REMARK 927      BINDING AFFINITY PREDICTED BY RF-SCORE:    0.00 PKD
ROOT
HETATM    1  C   UNL     1     -12.014  14.039  67.187  1.00  0.00    -0.465 C  
HETATM    2  C   UNL     1     -11.178  13.399  68.310  1.00  0.00    -0.279 C  
ENDROOT
BRANCH   2   3
HETATM    3  C   UNL     1     -11.906  13.300  69.654  1.00  0.00    -0.391 A  
HETATM    4  C   UNL     1     -11.609   9.645  70.625  1.00  0.00    -0.371 A  
HETATM    5  C   UNL     1     -12.511  14.449  70.202  1.00  0.00    -0.395 A  
HETATM    6  C   UNL     1     -12.451   9.606  71.726  1.00  0.00    -0.487 A  
HETATM    7  C   UNL     1     -11.392  10.854  69.957  1.00  0.00    -0.386 A  
HETATM    8  C   UNL     1     -13.043  10.781  72.181  1.00  0.00    -0.350 A  
HETATM    9  C   UNL     1     -13.252  14.389  71.377  1.00  0.00    -0.418 A  
HETATM   10  C   UNL     1     -13.425  13.169  72.020  1.00  0.00    -0.598 A  
HETATM   11  C   UNL     1     -12.022  12.058  70.354  1.00  0.00    -0.379 A  
HETATM   12  C   UNL     1     -12.830  12.004  71.522  1.00  0.00    -0.403 A  
ENDBRANCH   2   3
BRANCH   2  13
HETATM   13  N   UNL     1      -9.825  13.974  68.414  1.00  0.00    -0.229 NA 
HETATM   14  H   UNL     1      -9.682  14.382  69.337  1.00  0.00     0.000 HD 
BRANCH  13  15
HETATM   15  C   UNL     1      -8.748  13.042  68.098  1.00  0.00    -0.190 C  
BRANCH  15  16
HETATM   16  C   UNL     1      -9.133  12.163  66.910  1.00  0.00    -0.203 C  
BRANCH  16  17
HETATM   17  C   UNL     1      -8.232  10.927  66.859  1.00  0.00    -0.135 C  
BRANCH  17  18
HETATM   18  C   UNL     1      -8.990   9.683  67.237  1.00  0.00    -0.146 A  
HETATM   19  C   UNL     1      -9.335   7.800  68.747  1.00  0.00    -0.146 A  
HETATM   20  C   UNL     1      -8.977   7.035  69.996  1.00  0.00    -0.142 C  
HETATM   21  C   UNL     1      -8.675   8.993  68.416  1.00  0.00    -0.130 A  
HETATM   22  C   UNL     1     -10.647   7.995  66.710  1.00  0.00    -0.225 A  
HETATM   23  F   UNL     1      -7.997   7.625  70.738  1.00  0.00    -0.094 F  
HETATM   24  F   UNL     1     -10.037   6.882  70.838  1.00  0.00    -0.191 F  
HETATM   25  F   UNL     1      -8.530   5.777  69.727  1.00  0.00    -0.113 F  
HETATM   26  C   UNL     1     -10.327   7.310  67.884  1.00  0.00    -0.253 A  
HETATM   27  C   UNL     1      -9.978   9.173  66.389  1.00  0.00    -0.358 A  
ENDBRANCH  17  18
ENDBRANCH  16  17
ENDBRANCH  15  16
ENDBRANCH  13  15
ENDBRANCH   2  13
TORSDOF 6
ENDMDL
MODEL      140
REMARK 921   NORMALIZED FREE ENERGY PREDICTED BY IDOCK:   -4.64 KCAL/MOL
REMARK 922        TOTAL FREE ENERGY PREDICTED BY IDOCK:   -9.39 KCAL/MOL
REMARK 923 INTER-LIGAND FREE ENERGY PREDICTED BY IDOCK:   -8.48 KCAL/MOL
REMARK 924 INTRA-LIGAND FREE ENERGY PREDICTED BY IDOCK:   -0.91 KCAL/MOL
REMARK 927      BINDING AFFINITY PREDICTED BY RF-SCORE:    0.00 PKD
ROOT
HETATM    1  C   UNL     1      -9.736  15.106  67.898  1.00  0.00    -0.208 C  
HETATM    2  C   UNL     1      -9.982  15.906  66.606  1.00  0.00    -0.257 C  
ENDROOT
BRANCH   2   3
HETATM    3  C   UNL     1      -9.724  17.409  66.741  1.00  0.00    -0.293 A  
HETATM    4  C   UNL     1      -6.031  17.811  65.973  1.00  0.00    -0.242 A  
HETATM    5  C   UNL     1     -10.782  18.263  67.116  1.00  0.00    -0.334 A  
HETATM    6  C   UNL     1      -5.845  19.143  66.311  1.00  0.00    -0.179 A  
HETATM    7  C   UNL     1      -7.302  17.238  66.075  1.00  0.00    -0.225 A  
HETATM    8  C   UNL     1      -6.937  19.910  66.711  1.00  0.00    -0.238 A  
HETATM    9  C   UNL     1     -10.575  19.622  67.331  1.00  0.00    -0.589 A  
HETATM   10  C   UNL     1      -9.299  20.154  67.199  1.00  0.00    -0.521 A  
HETATM   11  C   UNL     1      -8.424  17.969  66.533  1.00  0.00    -0.285 A  
HETATM   12  C   UNL     1      -8.221  19.348  66.813  1.00  0.00    -0.311 A  
ENDBRANCH   2   3
BRANCH   2  13
HETATM   13  N   UNL     1     -11.272  15.583  65.971  1.00  0.00    -0.184 NA 
HETATM   14  H   UNL     1     -11.889  16.395  65.988  1.00  0.00     0.000 HD 
BRANCH  13  15
HETATM   15  C   UNL     1     -11.162  15.058  64.614  1.00  0.00    -0.332 C  
BRANCH  15  16
HETATM   16  C   UNL     1     -12.402  14.239  64.257  1.00  0.00    -0.407 C  
BRANCH  16  17
HETATM   17  C   UNL     1     -11.988  12.937  63.568  1.00  0.00    -0.629 C  
BRANCH  17  18
HETATM   18  C   UNL     1     -11.282  12.014  64.525  1.00  0.00    -0.390 A  
HETATM   19  C   UNL     1     -10.842  11.278  66.807  1.00  0.00    -0.334 A  
HETATM   20  C   UNL     1     -11.087  11.382  68.292  1.00  0.00    -0.244 C  
HETATM   21  C   UNL     1     -11.539  12.092  65.901  1.00  0.00    -0.425 A  
HETATM   22  C   UNL     1      -9.634  10.288  64.945  1.00  0.00    -0.365 A  
HETATM   23  F   UNL     1     -12.035  12.302  68.627  1.00  0.00    -0.325 F  
HETATM   24  F   UNL     1     -11.505  10.205  68.836  1.00  0.00    -0.264 F  
HETATM   25  F   UNL     1      -9.967  11.736  68.981  1.00  0.00    -0.189 F  
HETATM   26  C   UNL     1      -9.890  10.373  66.315  1.00  0.00    -0.272 A  
HETATM   27  C   UNL     1     -10.326  11.108  64.057  1.00  0.00    -0.437 A  
ENDBRANCH  17  18
ENDBRANCH  16  17
ENDBRANCH  15  16
ENDBRANCH  13  15
ENDBRANCH   2  13
TORSDOF 6
ENDMDL
MODEL      141
REMARK 921   NORMALIZED FREE ENERGY PREDICTED BY IDOCK:   -4.62 KCAL/MOL
REMARK 922        TOTAL FREE ENERGY PREDICTED BY IDOCK:   -9.37 KCAL/MOL
REMARK 923 INTER-LIGAND FREE ENERGY PREDICTED BY IDOCK:   -7.25 KCAL/MOL
REMARK 924 INTRA-LIGAND FREE ENERGY PREDICTED BY IDOCK:   -2.13 KCAL/MOL
REMARK 927      BINDING AFFINITY PREDICTED BY RF-SCORE:    0.00 PKD
ROOT
HETATM    1  C   UNL     1     -11.075  12.872  68.923  1.00  0.00    -0.301 C  
HETATM    2  C   UNL     1     -12.030  13.319  67.802  1.00  0.00    -0.314 C  
ENDROOT
BRANCH   2   3
HETATM    3  C   UNL     1     -11.607  12.868  66.401  1.00  0.00    -0.425 A  
HETATM    4  C   UNL     1     -10.052   9.450  66.934  1.00  0.00    -0.314 A  
HETATM    5  C   UNL     1     -11.821  13.725  65.302  1.00  0.00    -0.365 A  
HETATM    6  C   UNL     1      -9.526   9.211  65.675  1.00  0.00    -0.309 A  
HETATM    7  C   UNL     1     -10.767  10.626  67.179  1.00  0.00    -0.327 A  
HETATM    8  C   UNL     1      -9.748  10.129  64.651  1.00  0.00    -0.377 A  
HETATM    9  C   UNL     1     -11.378  13.393  64.026  1.00  0.00    -0.356 A  
HETATM   10  C   UNL     1     -10.690  12.204  63.824  1.00  0.00    -0.488 A  
HETATM   11  C   UNL     1     -10.964  11.610  66.181  1.00  0.00    -0.339 A  
HETATM   12  C   UNL     1     -10.468  11.313  64.882  1.00  0.00    -0.375 A  
ENDBRANCH   2   3
BRANCH   2  13
HETATM   13  N   UNL     1     -12.376  14.750  67.881  1.00  0.00    -0.539 NA 
HETATM   14  H   UNL     1     -13.368  14.865  68.087  1.00  0.00     0.000 HD 
BRANCH  13  15
HETATM   15  C   UNL     1     -11.568  15.515  68.825  1.00  0.00    -0.378 C  
BRANCH  15  16
HETATM   16  C   UNL     1     -10.953  16.732  68.137  1.00  0.00    -0.309 C  
BRANCH  16  17
HETATM   17  C   UNL     1      -9.927  16.280  67.093  1.00  0.00    -0.257 C  
BRANCH  17  18
HETATM   18  C   UNL     1      -8.767  15.571  67.740  1.00  0.00    -0.170 A  
HETATM   19  C   UNL     1      -7.310  13.624  67.899  1.00  0.00    -0.148 A  
HETATM   20  C   UNL     1      -6.879  12.262  67.416  1.00  0.00    -0.145 C  
HETATM   21  C   UNL     1      -8.350  14.320  67.265  1.00  0.00    -0.222 A  
HETATM   22  C   UNL     1      -7.092  15.451  69.486  1.00  0.00    -0.200 A  
HETATM   23  F   UNL     1      -7.575  11.821  66.329  1.00  0.00    -0.068 F  
HETATM   24  F   UNL     1      -5.566  12.226  67.053  1.00  0.00    -0.125 F  
HETATM   25  F   UNL     1      -7.030  11.299  68.367  1.00  0.00    -0.060 F  
HETATM   26  C   UNL     1      -6.682  14.203  69.012  1.00  0.00    -0.107 A  
HETATM   27  C   UNL     1      -8.132  16.128  68.854  1.00  0.00    -0.228 A  
ENDBRANCH  17  18
ENDBRANCH  16  17
ENDBRANCH  15  16
ENDBRANCH  13  15
ENDBRANCH   2  13
TORSDOF 6
ENDMDL
MODEL      142
REMARK 921   NORMALIZED FREE ENERGY PREDICTED BY IDOCK:   -4.62 KCAL/MOL
REMARK 922        TOTAL FREE ENERGY PREDICTED BY IDOCK:   -9.37 KCAL/MOL
REMARK 923 INTER-LIGAND FREE ENERGY PREDICTED BY IDOCK:   -6.91 KCAL/MOL
REMARK 924 INTRA-LIGAND FREE ENERGY PREDICTED BY IDOCK:   -2.46 KCAL/MOL
REMARK 927      BINDING AFFINITY PREDICTED BY RF-SCORE:    0.00 PKD
ROOT
HETATM    1  C   UNL     1      -9.329   3.489  69.868  1.00  0.00    -0.247 C  
HETATM    2  C   UNL     1     -10.097   4.736  70.341  1.00  0.00    -0.231 C  
ENDROOT
BRANCH   2   3
HETATM    3  C   UNL     1      -9.979   5.939  69.401  1.00  0.00    -0.229 A  
HETATM    4  C   UNL     1      -6.666   7.541  70.320  1.00  0.00    -0.047 A  
HETATM    5  C   UNL     1     -11.023   6.215  68.495  1.00  0.00    -0.404 A  
HETATM    6  C   UNL     1      -6.736   8.711  69.580  1.00  0.00    -0.040 A  
HETATM    7  C   UNL     1      -7.704   6.607  70.246  1.00  0.00    -0.098 A  
HETATM    8  C   UNL     1      -7.823   8.927  68.736  1.00  0.00    -0.101 A  
HETATM    9  C   UNL     1     -10.998   7.343  67.681  1.00  0.00    -0.136 A  
HETATM   10  C   UNL     1      -9.937   8.235  67.773  1.00  0.00    -0.235 A  
HETATM   11  C   UNL     1      -8.852   6.818  69.445  1.00  0.00    -0.135 A  
HETATM   12  C   UNL     1      -8.870   7.995  68.648  1.00  0.00    -0.134 A  
ENDBRANCH   2   3
BRANCH   2  13
HETATM   13  N   UNL     1      -9.838   5.064  71.754  1.00  0.00    -0.170 NA 
HETATM   14  H   UNL     1      -9.069   5.730  71.829  1.00  0.00     0.000 HD 
BRANCH  13  15
HETATM   15  C   UNL     1     -11.004   5.550  72.485  1.00  0.00    -0.263 C  
BRANCH  15  16
HETATM   16  C   UNL     1     -10.587   6.587  73.526  1.00  0.00    -0.312 C  
BRANCH  16  17
HETATM   17  C   UNL     1     -10.014   7.825  72.832  1.00  0.00    -0.341 C  
BRANCH  17  18
HETATM   18  C   UNL     1     -11.097   8.619  72.152  1.00  0.00    -0.434 A  
HETATM   19  C   UNL     1     -11.770  10.305  70.525  1.00  0.00    -0.418 A  
HETATM   20  C   UNL     1     -11.427  11.297  69.442  1.00  0.00    -0.301 C  
HETATM   21  C   UNL     1     -10.776   9.516  71.124  1.00  0.00    -0.408 A  
HETATM   22  C   UNL     1     -13.421   9.282  71.985  1.00  0.00    -0.519 A  
HETATM   23  F   UNL     1     -10.103  11.318  69.118  1.00  0.00    -0.216 F  
HETATM   24  F   UNL     1     -12.089  11.051  68.278  1.00  0.00    -0.342 F  
HETATM   25  F   UNL     1     -11.743  12.577  69.788  1.00  0.00    -0.334 F  
HETATM   26  C   UNL     1     -13.096  10.177  70.964  1.00  0.00    -0.458 A  
HETATM   27  C   UNL     1     -12.424   8.511  72.578  1.00  0.00    -0.358 A  
ENDBRANCH  17  18
ENDBRANCH  16  17
ENDBRANCH  15  16
ENDBRANCH  13  15
ENDBRANCH   2  13
TORSDOF 6
ENDMDL
MODEL      143
REMARK 921   NORMALIZED FREE ENERGY PREDICTED BY IDOCK:   -4.60 KCAL/MOL
REMARK 922        TOTAL FREE ENERGY PREDICTED BY IDOCK:   -9.34 KCAL/MOL
REMARK 923 INTER-LIGAND FREE ENERGY PREDICTED BY IDOCK:   -5.62 KCAL/MOL
REMARK 924 INTRA-LIGAND FREE ENERGY PREDICTED BY IDOCK:   -3.72 KCAL/MOL
REMARK 927      BINDING AFFINITY PREDICTED BY RF-SCORE:    0.00 PKD
ROOT
HETATM    1  C   UNL     1      -7.530   8.371  70.210  1.00  0.00    -0.063 C  
HETATM    2  C   UNL     1      -8.776   9.224  69.913  1.00  0.00    -0.180 C  
ENDROOT
BRANCH   2   3
HETATM    3  C   UNL     1      -8.533  10.363  68.918  1.00  0.00    -0.144 A  
HETATM    4  C   UNL     1      -9.745   8.993  65.594  1.00  0.00    -0.178 A  
HETATM    5  C   UNL     1      -7.939  11.560  69.366  1.00  0.00     0.333 A  
HETATM    6  C   UNL     1      -9.309   9.990  64.735  1.00  0.00    -0.330 A  
HETATM    7  C   UNL     1      -9.530   9.117  66.970  1.00  0.00    -0.201 A  
HETATM    8  C   UNL     1      -8.695  11.126  65.256  1.00  0.00    -0.030 A  
HETATM    9  C   UNL     1      -7.624  12.588  68.483  1.00  0.00    -0.119 A  
HETATM   10  C   UNL     1      -7.874  12.431  67.126  1.00  0.00    -0.138 A  
HETATM   11  C   UNL     1      -8.858  10.229  67.531  1.00  0.00    -0.128 A  
HETATM   12  C   UNL     1      -8.476  11.265  66.636  1.00  0.00    -0.168 A  
ENDBRANCH   2   3
BRANCH   2  13
HETATM   13  N   UNL     1      -9.483   9.649  71.133  1.00  0.00    -0.327 NA 
HETATM   14  H   UNL     1      -9.234  10.609  71.372  1.00  0.00     0.000 HD 
BRANCH  13  15
HETATM   15  C   UNL     1     -10.933   9.499  71.075  1.00  0.00    -0.353 C  
BRANCH  15  16
HETATM   16  C   UNL     1     -11.598  10.845  70.791  1.00  0.00    -0.249 C  
BRANCH  16  17
HETATM   17  C   UNL     1     -12.123  10.876  69.353  1.00  0.00    -0.362 C  
BRANCH  17  18
HETATM   18  C   UNL     1     -11.675  12.122  68.636  1.00  0.00    -0.382 A  
HETATM   19  C   UNL     1     -10.837  14.410  68.707  1.00  0.00    -0.261 A  
HETATM   20  C   UNL     1     -10.360  15.611  69.485  1.00  0.00    -0.277 C  
HETATM   21  C   UNL     1     -11.201  13.223  69.362  1.00  0.00    -0.220 A  
HETATM   22  C   UNL     1     -11.412  13.380  66.582  1.00  0.00    -0.376 A  
HETATM   23  F   UNL     1     -10.308  15.407  70.832  1.00  0.00    -0.289 F  
HETATM   24  F   UNL     1      -9.108  16.006  69.122  1.00  0.00    -0.200 F  
HETATM   25  F   UNL     1     -11.161  16.699  69.306  1.00  0.00    -0.301 F  
HETATM   26  C   UNL     1     -10.944  14.476  67.310  1.00  0.00    -0.307 A  
HETATM   27  C   UNL     1     -11.778  12.211  67.245  1.00  0.00    -0.369 A  
ENDBRANCH  17  18
ENDBRANCH  16  17
ENDBRANCH  15  16
ENDBRANCH  13  15
ENDBRANCH   2  13
TORSDOF 6
ENDMDL
MODEL      144
REMARK 921   NORMALIZED FREE ENERGY PREDICTED BY IDOCK:   -4.59 KCAL/MOL
REMARK 922        TOTAL FREE ENERGY PREDICTED BY IDOCK:   -9.32 KCAL/MOL
REMARK 923 INTER-LIGAND FREE ENERGY PREDICTED BY IDOCK:   -8.46 KCAL/MOL
REMARK 924 INTRA-LIGAND FREE ENERGY PREDICTED BY IDOCK:   -0.87 KCAL/MOL
REMARK 927      BINDING AFFINITY PREDICTED BY RF-SCORE:    0.00 PKD
ROOT
HETATM    1  C   UNL     1     -13.469  15.538  70.837  1.00  0.00    -0.349 C  
HETATM    2  C   UNL     1     -12.162  14.768  70.582  1.00  0.00    -0.319 C  
ENDROOT
BRANCH   2   3
HETATM    3  C   UNL     1     -11.770  14.669  69.105  1.00  0.00    -0.342 A  
HETATM    4  C   UNL     1      -9.968  17.927  68.381  1.00  0.00    -0.367 A  
HETATM    5  C   UNL     1     -12.140  13.528  68.364  1.00  0.00    -0.293 A  
HETATM    6  C   UNL     1      -9.832  17.842  67.005  1.00  0.00    -0.314 A  
HETATM    7  C   UNL     1     -10.568  16.881  69.088  1.00  0.00    -0.330 A  
HETATM    8  C   UNL     1     -10.261  16.694  66.341  1.00  0.00    -0.322 A  
HETATM    9  C   UNL     1     -11.879  13.432  67.001  1.00  0.00    -0.443 A  
HETATM   10  C   UNL     1     -11.262  14.487  66.342  1.00  0.00    -0.341 A  
HETATM   11  C   UNL     1     -11.069  15.725  68.442  1.00  0.00    -0.341 A  
HETATM   12  C   UNL     1     -10.862  15.634  67.039  1.00  0.00    -0.294 A  
ENDBRANCH   2   3
BRANCH   2  13
HETATM   13  N   UNL     1     -12.110  13.478  71.293  1.00  0.00    -0.370 NA 
HETATM   14  H   UNL     1     -11.245  13.401  71.828  1.00  0.00     0.000 HD 
BRANCH  13  15
HETATM   15  C   UNL     1     -13.262  13.213  72.148  1.00  0.00    -0.462 C  
BRANCH  15  16
HETATM   16  C   UNL     1     -13.481  11.709  72.298  1.00  0.00    -0.098 C  
BRANCH  16  17
HETATM   17  C   UNL     1     -12.373  10.944  71.569  1.00  0.00    -0.344 C  
BRANCH  17  18
HETATM   18  C   UNL     1     -12.572   9.456  71.685  1.00  0.00    -0.460 A  
HETATM   19  C   UNL     1     -11.687   7.191  71.511  1.00  0.00    -0.324 A  
HETATM   20  C   UNL     1     -10.545   6.243  71.242  1.00  0.00    -0.236 C  
HETATM   21  C   UNL     1     -11.499   8.581  71.466  1.00  0.00    -0.350 A  
HETATM   22  C   UNL     1     -14.037   7.554  72.014  1.00  0.00    -0.343 A  
HETATM   23  F   UNL     1      -9.362   6.870  70.983  1.00  0.00    -0.154 F  
HETATM   24  F   UNL     1     -10.299   5.409  72.291  1.00  0.00    -0.215 F  
HETATM   25  F   UNL     1     -10.779   5.436  70.170  1.00  0.00    -0.344 F  
HETATM   26  C   UNL     1     -12.966   6.687  71.791  1.00  0.00    -0.191 A  
HETATM   27  C   UNL     1     -13.839   8.932  71.957  1.00  0.00    -0.511 A  
ENDBRANCH  17  18
ENDBRANCH  16  17
ENDBRANCH  15  16
ENDBRANCH  13  15
ENDBRANCH   2  13
TORSDOF 6
ENDMDL
MODEL      145
REMARK 921   NORMALIZED FREE ENERGY PREDICTED BY IDOCK:   -4.58 KCAL/MOL
REMARK 922        TOTAL FREE ENERGY PREDICTED BY IDOCK:   -9.32 KCAL/MOL
REMARK 923 INTER-LIGAND FREE ENERGY PREDICTED BY IDOCK:   -7.93 KCAL/MOL
REMARK 924 INTRA-LIGAND FREE ENERGY PREDICTED BY IDOCK:   -1.38 KCAL/MOL
REMARK 927      BINDING AFFINITY PREDICTED BY RF-SCORE:    0.00 PKD
ROOT
HETATM    1  C   UNL     1     -11.765  10.881  67.965  1.00  0.00    -0.205 C  
HETATM    2  C   UNL     1     -10.734  10.332  68.967  1.00  0.00    -0.227 C  
ENDROOT
BRANCH   2   3
HETATM    3  C   UNL     1     -11.350   9.723  70.230  1.00  0.00    -0.333 A  
HETATM    4  C   UNL     1      -9.926   6.210  70.379  1.00  0.00    -0.223 A  
HETATM    5  C   UNL     1     -12.255  10.485  70.996  1.00  0.00    -0.505 A  
HETATM    6  C   UNL     1     -10.678   5.676  71.414  1.00  0.00    -0.310 A  
HETATM    7  C   UNL     1     -10.109   7.544  70.002  1.00  0.00    -0.199 A  
HETATM    8  C   UNL     1     -11.582   6.486  72.097  1.00  0.00    -0.349 A  
HETATM    9  C   UNL     1     -12.902   9.944  72.103  1.00  0.00    -0.435 A  
HETATM   10  C   UNL     1     -12.675   8.620  72.454  1.00  0.00    -0.423 A  
HETATM   11  C   UNL     1     -11.060   8.382  70.634  1.00  0.00    -0.278 A  
HETATM   12  C   UNL     1     -11.773   7.829  71.732  1.00  0.00    -0.323 A  
ENDBRANCH   2   3
BRANCH   2  13
HETATM   13  N   UNL     1      -9.642  11.283  69.243  1.00  0.00    -0.409 NA 
HETATM   14  H   UNL     1      -9.710  11.634  70.199  1.00  0.00     0.000 HD 
BRANCH  13  15
HETATM   15  C   UNL     1      -8.305  10.759  68.987  1.00  0.00    -0.136 C  
BRANCH  15  16
HETATM   16  C   UNL     1      -8.109  10.501  67.494  1.00  0.00    -0.107 C  
BRANCH  16  17
HETATM   17  C   UNL     1      -8.087  11.829  66.733  1.00  0.00    -0.133 C  
BRANCH  17  18
HETATM   18  C   UNL     1      -9.253  11.935  65.787  1.00  0.00    -0.110 A  
HETATM   19  C   UNL     1     -11.236  13.120  65.010  1.00  0.00    -0.322 A  
HETATM   20  C   UNL     1     -12.184  14.291  65.091  1.00  0.00    -0.421 C  
HETATM   21  C   UNL     1     -10.112  13.041  65.846  1.00  0.00    -0.291 A  
HETATM   22  C   UNL     1     -10.630  10.977  64.039  1.00  0.00    -0.395 A  
HETATM   23  F   UNL     1     -11.822  15.226  66.016  1.00  0.00    -0.194 F  
HETATM   24  F   UNL     1     -12.291  14.961  63.910  1.00  0.00    -0.475 F  
HETATM   25  F   UNL     1     -13.450  13.914  65.423  1.00  0.00    -0.395 F  
HETATM   26  C   UNL     1     -11.484  12.079  64.103  1.00  0.00    -0.460 A  
HETATM   27  C   UNL     1      -9.522  10.906  64.880  1.00  0.00    -0.277 A  
ENDBRANCH  17  18
ENDBRANCH  16  17
ENDBRANCH  15  16
ENDBRANCH  13  15
ENDBRANCH   2  13
TORSDOF 6
ENDMDL
MODEL      146
REMARK 921   NORMALIZED FREE ENERGY PREDICTED BY IDOCK:   -4.57 KCAL/MOL
REMARK 922        TOTAL FREE ENERGY PREDICTED BY IDOCK:   -9.30 KCAL/MOL
REMARK 923 INTER-LIGAND FREE ENERGY PREDICTED BY IDOCK:   -7.73 KCAL/MOL
REMARK 924 INTRA-LIGAND FREE ENERGY PREDICTED BY IDOCK:   -1.57 KCAL/MOL
REMARK 927      BINDING AFFINITY PREDICTED BY RF-SCORE:    0.00 PKD
ROOT
HETATM    1  C   UNL     1     -10.298   6.741  70.420  1.00  0.00    -0.223 C  
HETATM    2  C   UNL     1     -10.567   8.219  70.084  1.00  0.00    -0.233 C  
ENDROOT
BRANCH   2   3
HETATM    3  C   UNL     1      -9.450   8.894  69.283  1.00  0.00    -0.161 A  
HETATM    4  C   UNL     1     -11.268  11.122  66.810  1.00  0.00    -0.215 A  
HETATM    5  C   UNL     1      -8.105   8.571  69.561  1.00  0.00    -0.111 A  
HETATM    6  C   UNL     1     -10.212  11.528  66.009  1.00  0.00    -0.283 A  
HETATM    7  C   UNL     1     -11.031  10.288  67.906  1.00  0.00    -0.350 A  
HETATM    8  C   UNL     1      -8.915  11.132  66.330  1.00  0.00    -0.202 A  
HETATM    9  C   UNL     1      -7.063   9.096  68.804  1.00  0.00    -0.073 A  
HETATM   10  C   UNL     1      -7.343   9.937  67.735  1.00  0.00    -0.089 A  
HETATM   11  C   UNL     1      -9.735   9.818  68.229  1.00  0.00    -0.160 A  
HETATM   12  C   UNL     1      -8.661  10.298  67.431  1.00  0.00    -0.128 A  
ENDBRANCH   2   3
BRANCH   2  13
HETATM   13  N   UNL     1     -11.008   9.000  71.253  1.00  0.00    -0.285 NA 
HETATM   14  H   UNL     1     -10.624   9.944  71.216  1.00  0.00     0.000 HD 
BRANCH  13  15
HETATM   15  C   UNL     1     -12.454   9.047  71.438  1.00  0.00    -0.317 C  
BRANCH  15  16
HETATM   16  C   UNL     1     -13.018  10.362  70.905  1.00  0.00    -0.475 C  
BRANCH  16  17
HETATM   17  C   UNL     1     -13.366  11.293  72.069  1.00  0.00    -0.386 C  
BRANCH  17  18
HETATM   18  C   UNL     1     -13.258  12.738  71.663  1.00  0.00    -0.410 A  
HETATM   19  C   UNL     1     -12.284  14.461  70.240  1.00  0.00    -0.397 A  
HETATM   20  C   UNL     1     -11.376  14.872  69.108  1.00  0.00    -0.292 C  
HETATM   21  C   UNL     1     -12.438  13.110  70.588  1.00  0.00    -0.363 A  
HETATM   22  C   UNL     1     -13.793  15.070  72.045  1.00  0.00    -0.578 A  
HETATM   23  F   UNL     1     -10.770  13.822  68.482  1.00  0.00    -0.232 F  
HETATM   24  F   UNL     1     -12.035  15.555  68.130  1.00  0.00    -0.351 F  
HETATM   25  F   UNL     1     -10.367  15.690  69.519  1.00  0.00    -0.205 F  
HETATM   26  C   UNL     1     -12.972  15.437  70.976  1.00  0.00    -0.556 A  
HETATM   27  C   UNL     1     -13.931  13.727  72.386  1.00  0.00    -0.651 A  
ENDBRANCH  17  18
ENDBRANCH  16  17
ENDBRANCH  15  16
ENDBRANCH  13  15
ENDBRANCH   2  13
TORSDOF 6
ENDMDL
MODEL      147
REMARK 921   NORMALIZED FREE ENERGY PREDICTED BY IDOCK:   -4.55 KCAL/MOL
REMARK 922        TOTAL FREE ENERGY PREDICTED BY IDOCK:   -9.27 KCAL/MOL
REMARK 923 INTER-LIGAND FREE ENERGY PREDICTED BY IDOCK:   -6.80 KCAL/MOL
REMARK 924 INTRA-LIGAND FREE ENERGY PREDICTED BY IDOCK:   -2.47 KCAL/MOL
REMARK 927      BINDING AFFINITY PREDICTED BY RF-SCORE:    0.00 PKD
ROOT
HETATM    1  C   UNL     1     -10.438   5.409  66.527  1.00  0.00    -0.352 C  
HETATM    2  C   UNL     1     -10.387   6.273  67.800  1.00  0.00    -0.195 C  
ENDROOT
BRANCH   2   3
HETATM    3  C   UNL     1      -9.192   7.228  67.863  1.00  0.00    -0.131 A  
HETATM    4  C   UNL     1     -10.278  10.241  65.830  1.00  0.00    -0.293 A  
HETATM    5  C   UNL     1      -8.029   6.839  68.558  1.00  0.00    -0.119 A  
HETATM    6  C   UNL     1      -9.088  10.950  65.771  1.00  0.00    -0.214 A  
HETATM    7  C   UNL     1     -10.338   9.038  66.541  1.00  0.00    -0.263 A  
HETATM    8  C   UNL     1      -7.971  10.475  66.454  1.00  0.00    -0.137 A  
HETATM    9  C   UNL     1      -6.890   7.638  68.571  1.00  0.00    -0.066 A  
HETATM   10  C   UNL     1      -6.881   8.836  67.868  1.00  0.00    -0.070 A  
HETATM   11  C   UNL     1      -9.209   8.495  67.199  1.00  0.00    -0.173 A  
HETATM   12  C   UNL     1      -8.018   9.271  67.176  1.00  0.00    -0.106 A  
ENDBRANCH   2   3
BRANCH   2  13
HETATM   13  N   UNL     1     -10.579   5.487  69.032  1.00  0.00    -0.228 NA 
HETATM   14  H   UNL     1      -9.677   5.228  69.432  1.00  0.00     0.000 HD 
BRANCH  13  15
HETATM   15  C   UNL     1     -11.414   6.135  70.037  1.00  0.00    -0.299 C  
BRANCH  15  16
HETATM   16  C   UNL     1     -10.672   6.228  71.369  1.00  0.00    -0.297 C  
BRANCH  16  17
HETATM   17  C   UNL     1     -10.047   7.617  71.523  1.00  0.00    -0.205 C  
BRANCH  17  18
HETATM   18  C   UNL     1     -11.058   8.702  71.266  1.00  0.00    -0.336 A  
HETATM   19  C   UNL     1     -11.675  10.797  70.182  1.00  0.00    -0.425 A  
HETATM   20  C   UNL     1     -11.348  11.945  69.261  1.00  0.00    -0.277 C  
HETATM   21  C   UNL     1     -10.762   9.749  70.383  1.00  0.00    -0.368 A  
HETATM   22  C   UNL     1     -13.197   9.733  71.749  1.00  0.00    -0.532 A  
HETATM   23  F   UNL     1     -10.129  11.836  68.660  1.00  0.00    -0.203 F  
HETATM   24  F   UNL     1     -12.249  12.075  68.247  1.00  0.00    -0.369 F  
HETATM   25  F   UNL     1     -11.337  13.145  69.906  1.00  0.00    -0.282 F  
HETATM   26  C   UNL     1     -12.896  10.776  70.872  1.00  0.00    -0.443 A  
HETATM   27  C   UNL     1     -12.280   8.704  71.947  1.00  0.00    -0.419 A  
ENDBRANCH  17  18
ENDBRANCH  16  17
ENDBRANCH  15  16
ENDBRANCH  13  15
ENDBRANCH   2  13
TORSDOF 6
ENDMDL
MODEL      148
REMARK 921   NORMALIZED FREE ENERGY PREDICTED BY IDOCK:   -4.54 KCAL/MOL
REMARK 922        TOTAL FREE ENERGY PREDICTED BY IDOCK:   -9.26 KCAL/MOL
REMARK 923 INTER-LIGAND FREE ENERGY PREDICTED BY IDOCK:   -7.09 KCAL/MOL
REMARK 924 INTRA-LIGAND FREE ENERGY PREDICTED BY IDOCK:   -2.17 KCAL/MOL
REMARK 927      BINDING AFFINITY PREDICTED BY RF-SCORE:    0.00 PKD
ROOT
HETATM    1  C   UNL     1      -6.959   8.328  67.687  1.00  0.00    -0.079 C  
HETATM    2  C   UNL     1      -7.892   8.670  68.862  1.00  0.00    -0.104 C  
ENDROOT
BRANCH   2   3
HETATM    3  C   UNL     1      -8.980   7.625  69.124  1.00  0.00    -0.135 A  
HETATM    4  C   UNL     1      -9.449   7.666  72.888  1.00  0.00    -0.262 A  
HETATM    5  C   UNL     1      -9.520   6.900  68.042  1.00  0.00    -0.124 A  
HETATM    6  C   UNL     1     -10.284   6.573  73.052  1.00  0.00    -0.220 A  
HETATM    7  C   UNL     1      -9.041   8.046  71.606  1.00  0.00    -0.194 A  
HETATM    8  C   UNL     1     -10.743   5.884  71.931  1.00  0.00    -0.290 A  
HETATM    9  C   UNL     1     -10.449   5.885  68.241  1.00  0.00    -0.293 A  
HETATM   10  C   UNL     1     -10.842   5.554  69.532  1.00  0.00    -0.254 A  
HETATM   11  C   UNL     1      -9.439   7.335  70.448  1.00  0.00    -0.165 A  
HETATM   12  C   UNL     1     -10.345   6.256  70.637  1.00  0.00    -0.254 A  
ENDBRANCH   2   3
BRANCH   2  13
HETATM   13  N   UNL     1      -8.403  10.051  68.803  1.00  0.00    -0.114 NA 
HETATM   14  H   UNL     1      -7.670  10.713  69.060  1.00  0.00     0.000 HD 
BRANCH  13  15
HETATM   15  C   UNL     1      -8.996  10.422  67.523  1.00  0.00    -0.135 C  
BRANCH  15  16
HETATM   16  C   UNL     1     -10.520  10.366  67.606  1.00  0.00    -0.277 C  
BRANCH  16  17
HETATM   17  C   UNL     1     -11.073  11.736  68.007  1.00  0.00    -0.297 C  
BRANCH  17  18
HETATM   18  C   UNL     1     -11.705  11.690  69.373  1.00  0.00    -0.405 A  
HETATM   19  C   UNL     1     -12.660  10.406  71.212  1.00  0.00    -0.525 A  
HETATM   20  C   UNL     1     -13.030   9.086  71.841  1.00  0.00    -0.389 C  
HETATM   21  C   UNL     1     -12.017  10.458  69.966  1.00  0.00    -0.324 A  
HETATM   22  C   UNL     1     -12.666  12.835  71.279  1.00  0.00    -0.364 A  
HETATM   23  F   UNL     1     -12.662   8.003  71.097  1.00  0.00    -0.309 F  
HETATM   24  F   UNL     1     -12.454   8.908  73.062  1.00  0.00    -0.345 F  
HETATM   25  F   UNL     1     -14.372   8.960  72.039  1.00  0.00    -0.431 F  
HETATM   26  C   UNL     1     -12.979  11.607  71.864  1.00  0.00    -0.442 A  
HETATM   27  C   UNL     1     -12.036  12.874  70.038  1.00  0.00    -0.357 A  
ENDBRANCH  17  18
ENDBRANCH  16  17
ENDBRANCH  15  16
ENDBRANCH  13  15
ENDBRANCH   2  13
TORSDOF 6
ENDMDL
MODEL      149
REMARK 921   NORMALIZED FREE ENERGY PREDICTED BY IDOCK:   -4.53 KCAL/MOL
REMARK 922        TOTAL FREE ENERGY PREDICTED BY IDOCK:   -9.25 KCAL/MOL
REMARK 923 INTER-LIGAND FREE ENERGY PREDICTED BY IDOCK:   -8.94 KCAL/MOL
REMARK 924 INTRA-LIGAND FREE ENERGY PREDICTED BY IDOCK:   -0.31 KCAL/MOL
REMARK 927      BINDING AFFINITY PREDICTED BY RF-SCORE:    0.00 PKD
ROOT
HETATM    1  C   UNL     1     -10.822  14.984  70.167  1.00  0.00    -0.217 C  
HETATM    2  C   UNL     1     -11.851  14.005  69.576  1.00  0.00    -0.325 C  
ENDROOT
BRANCH   2   3
HETATM    3  C   UNL     1     -11.326  12.578  69.393  1.00  0.00    -0.275 A  
HETATM    4  C   UNL     1     -13.215  10.534  71.970  1.00  0.00    -0.483 A  
HETATM    5  C   UNL     1     -10.327  12.325  68.431  1.00  0.00    -0.231 A  
HETATM    6  C   UNL     1     -12.545   9.324  71.875  1.00  0.00    -0.468 A  
HETATM    7  C   UNL     1     -12.852  11.598  71.140  1.00  0.00    -0.392 A  
HETATM    8  C   UNL     1     -11.540   9.167  70.924  1.00  0.00    -0.350 A  
HETATM    9  C   UNL     1      -9.761  11.062  68.288  1.00  0.00    -0.181 A  
HETATM   10  C   UNL     1     -10.167  10.027  69.121  1.00  0.00    -0.224 A  
HETATM   11  C   UNL     1     -11.797  11.496  70.201  1.00  0.00    -0.440 A  
HETATM   12  C   UNL     1     -11.168  10.227  70.080  1.00  0.00    -0.387 A  
ENDBRANCH   2   3
BRANCH   2  13
HETATM   13  N   UNL     1     -12.531  14.540  68.383  1.00  0.00    -0.531 NA 
HETATM   14  H   UNL     1     -12.709  15.538  68.494  1.00  0.00     0.000 HD 
BRANCH  13  15
HETATM   15  C   UNL     1     -11.835  14.285  67.126  1.00  0.00    -0.425 C  
BRANCH  15  16
HETATM   16  C   UNL     1     -11.027  15.510  66.705  1.00  0.00    -0.257 C  
BRANCH  16  17
HETATM   17  C   UNL     1     -10.583  15.368  65.247  1.00  0.00    -0.450 C  
BRANCH  17  18
HETATM   18  C   UNL     1     -10.928  14.008  64.702  1.00  0.00    -0.401 A  
HETATM   19  C   UNL     1     -10.344  11.668  64.349  1.00  0.00    -0.362 A  
HETATM   20  C   UNL     1      -9.398  10.507  64.533  1.00  0.00    -0.253 C  
HETATM   21  C   UNL     1     -10.061  12.925  64.904  1.00  0.00    -0.229 A  
HETATM   22  C   UNL     1     -12.385  12.579  63.395  1.00  0.00    -0.577 A  
HETATM   23  F   UNL     1      -8.301  10.809  65.283  1.00  0.00    -0.166 F  
HETATM   24  F   UNL     1      -9.987   9.445  65.149  1.00  0.00    -0.338 F  
HETATM   25  F   UNL     1      -8.918  10.034  63.349  1.00  0.00    -0.180 F  
HETATM   26  C   UNL     1     -11.516  11.505  63.596  1.00  0.00    -0.374 A  
HETATM   27  C   UNL     1     -12.088  13.825  63.943  1.00  0.00    -0.423 A  
ENDBRANCH  17  18
ENDBRANCH  16  17
ENDBRANCH  15  16
ENDBRANCH  13  15
ENDBRANCH   2  13
TORSDOF 6
ENDMDL
MODEL      150
REMARK 921   NORMALIZED FREE ENERGY PREDICTED BY IDOCK:   -4.53 KCAL/MOL
REMARK 922        TOTAL FREE ENERGY PREDICTED BY IDOCK:   -9.25 KCAL/MOL
REMARK 923 INTER-LIGAND FREE ENERGY PREDICTED BY IDOCK:   -6.30 KCAL/MOL
REMARK 924 INTRA-LIGAND FREE ENERGY PREDICTED BY IDOCK:   -2.95 KCAL/MOL
REMARK 927      BINDING AFFINITY PREDICTED BY RF-SCORE:    0.00 PKD
ROOT
HETATM    1  C   UNL     1      -5.560  19.217  65.996  1.00  0.00    -0.179 C  
HETATM    2  C   UNL     1      -6.480  18.461  66.971  1.00  0.00    -0.182 C  
ENDROOT
BRANCH   2   3
HETATM    3  C   UNL     1      -7.965  18.806  66.828  1.00  0.00    -0.265 A  
HETATM    4  C   UNL     1      -9.528  15.681  65.352  1.00  0.00    -0.017 A  
HETATM    5  C   UNL     1      -8.417  20.089  67.198  1.00  0.00    -0.390 A  
HETATM    6  C   UNL     1     -10.804  16.144  65.072  1.00  0.00    -0.380 A  
HETATM    7  C   UNL     1      -8.597  16.530  65.959  1.00  0.00    -0.241 A  
HETATM    8  C   UNL     1     -11.161  17.440  65.435  1.00  0.00     0.312 A  
HETATM    9  C   UNL     1      -9.740  20.475  67.008  1.00  0.00    -0.548 A  
HETATM   10  C   UNL     1     -10.637  19.592  66.420  1.00  0.00    -0.592 A  
HETATM   11  C   UNL     1      -8.904  17.871  66.290  1.00  0.00    -0.189 A  
HETATM   12  C   UNL     1     -10.237  18.302  66.050  1.00  0.00    -0.334 A  
ENDBRANCH   2   3
BRANCH   2  13
HETATM   13  N   UNL     1      -5.997  18.503  68.362  1.00  0.00    -0.187 NA 
HETATM   14  H   UNL     1      -5.999  19.462  68.710  1.00  0.00     0.000 HD 
BRANCH  13  15
HETATM   15  C   UNL     1      -6.719  17.628  69.279  1.00  0.00    -0.221 C  
BRANCH  15  16
HETATM   16  C   UNL     1      -6.663  16.181  68.792  1.00  0.00    -0.136 C  
BRANCH  16  17
HETATM   17  C   UNL     1      -7.446  15.276  69.747  1.00  0.00    -0.122 C  
BRANCH  17  18
HETATM   18  C   UNL     1      -8.882  15.141  69.315  1.00  0.00    -0.207 A  
HETATM   19  C   UNL     1     -10.611  13.934  68.093  1.00  0.00    -0.258 A  
HETATM   20  C   UNL     1     -11.048  12.768  67.241  1.00  0.00    -0.276 C  
HETATM   21  C   UNL     1      -9.289  14.039  68.551  1.00  0.00    -0.182 A  
HETATM   22  C   UNL     1     -11.127  16.042  69.185  1.00  0.00    -0.317 A  
HETATM   23  F   UNL     1     -10.056  11.865  66.999  1.00  0.00    -0.207 F  
HETATM   24  F   UNL     1     -12.065  12.059  67.805  1.00  0.00    -0.378 F  
HETATM   25  F   UNL     1     -11.499  13.159  66.016  1.00  0.00    -0.313 F  
HETATM   26  C   UNL     1     -11.527  14.945  68.421  1.00  0.00    -0.338 A  
HETATM   27  C   UNL     1      -9.810  16.140  69.626  1.00  0.00    -0.150 A  
ENDBRANCH  17  18
ENDBRANCH  16  17
ENDBRANCH  15  16
ENDBRANCH  13  15
ENDBRANCH   2  13
TORSDOF 6
ENDMDL
MODEL      151
REMARK 921   NORMALIZED FREE ENERGY PREDICTED BY IDOCK:   -4.52 KCAL/MOL
REMARK 922        TOTAL FREE ENERGY PREDICTED BY IDOCK:   -9.24 KCAL/MOL
REMARK 923 INTER-LIGAND FREE ENERGY PREDICTED BY IDOCK:   -8.16 KCAL/MOL
REMARK 924 INTRA-LIGAND FREE ENERGY PREDICTED BY IDOCK:   -1.08 KCAL/MOL
REMARK 927      BINDING AFFINITY PREDICTED BY RF-SCORE:    0.00 PKD
ROOT
HETATM    1  C   UNL     1      -8.183   9.758  67.610  1.00  0.00    -0.114 C  
HETATM    2  C   UNL     1      -9.707   9.607  67.456  1.00  0.00    -0.158 C  
ENDROOT
BRANCH   2   3
HETATM    3  C   UNL     1     -10.290   8.378  68.159  1.00  0.00    -0.255 A  
HETATM    4  C   UNL     1     -11.612   9.706  71.457  1.00  0.00    -0.451 A  
HETATM    5  C   UNL     1     -10.206   7.117  67.533  1.00  0.00    -0.272 A  
HETATM    6  C   UNL     1     -11.929   8.520  72.100  1.00  0.00    -0.451 A  
HETATM    7  C   UNL     1     -11.107   9.679  70.153  1.00  0.00    -0.314 A  
HETATM    8  C   UNL     1     -11.779   7.311  71.424  1.00  0.00    -0.317 A  
HETATM    9  C   UNL     1     -10.647   5.961  68.169  1.00  0.00    -0.312 A  
HETATM   10  C   UNL     1     -11.160   6.037  69.457  1.00  0.00    -0.468 A  
HETATM   11  C   UNL     1     -10.886   8.467  69.456  1.00  0.00    -0.126 A  
HETATM   12  C   UNL     1     -11.278   7.269  70.113  1.00  0.00    -0.264 A  
ENDBRANCH   2   3
BRANCH   2  13
HETATM   13  N   UNL     1     -10.159   9.759  66.062  1.00  0.00    -0.273 NA 
HETATM   14  H   UNL     1     -10.880   9.070  65.845  1.00  0.00     0.000 HD 
BRANCH  13  15
HETATM   15  C   UNL     1     -10.618  11.100  65.718  1.00  0.00    -0.227 C  
BRANCH  15  16
HETATM   16  C   UNL     1     -11.386  11.717  66.885  1.00  0.00    -0.386 C  
BRANCH  16  17
HETATM   17  C   UNL     1     -11.951  13.081  66.477  1.00  0.00    -0.457 C  
BRANCH  17  18
HETATM   18  C   UNL     1     -11.739  14.105  67.559  1.00  0.00    -0.418 A  
HETATM   19  C   UNL     1     -10.846  16.255  68.282  1.00  0.00    -0.340 A  
HETATM   20  C   UNL     1     -10.132  17.549  67.982  1.00  0.00    -0.332 C  
HETATM   21  C   UNL     1     -11.103  15.320  67.268  1.00  0.00    -0.325 A  
HETATM   22  C   UNL     1     -11.883  14.755  69.889  1.00  0.00    -0.364 A  
HETATM   23  F   UNL     1      -9.801  17.700  66.668  1.00  0.00    -0.259 F  
HETATM   24  F   UNL     1     -10.875  18.645  68.304  1.00  0.00    -0.323 F  
HETATM   25  F   UNL     1      -8.965  17.673  68.674  1.00  0.00    -0.270 F  
HETATM   26  C   UNL     1     -11.246  15.962  69.594  1.00  0.00    -0.331 A  
HETATM   27  C   UNL     1     -12.124  13.831  68.875  1.00  0.00    -0.348 A  
ENDBRANCH  17  18
ENDBRANCH  16  17
ENDBRANCH  15  16
ENDBRANCH  13  15
ENDBRANCH   2  13
TORSDOF 6
ENDMDL
MODEL      152
REMARK 921   NORMALIZED FREE ENERGY PREDICTED BY IDOCK:   -4.52 KCAL/MOL
REMARK 922        TOTAL FREE ENERGY PREDICTED BY IDOCK:   -9.23 KCAL/MOL
REMARK 923 INTER-LIGAND FREE ENERGY PREDICTED BY IDOCK:   -7.21 KCAL/MOL
REMARK 924 INTRA-LIGAND FREE ENERGY PREDICTED BY IDOCK:   -2.02 KCAL/MOL
REMARK 927      BINDING AFFINITY PREDICTED BY RF-SCORE:    0.00 PKD
ROOT
HETATM    1  C   UNL     1      -8.815  10.569  63.957  1.00  0.00    -0.206 C  
HETATM    2  C   UNL     1     -10.119  10.446  64.764  1.00  0.00    -0.317 C  
ENDROOT
BRANCH   2   3
HETATM    3  C   UNL     1     -10.640  11.774  65.321  1.00  0.00    -0.327 A  
HETATM    4  C   UNL     1      -7.951  12.906  67.746  1.00  0.00    -0.162 A  
HETATM    5  C   UNL     1     -11.896  12.257  64.901  1.00  0.00    -0.417 A  
HETATM    6  C   UNL     1      -8.584  13.985  68.341  1.00  0.00    -0.174 A  
HETATM    7  C   UNL     1      -8.596  12.193  66.731  1.00  0.00    -0.163 A  
HETATM    8  C   UNL     1      -9.844  14.375  67.895  1.00  0.00    -0.224 A  
HETATM    9  C   UNL     1     -12.445  13.415  65.442  1.00  0.00    -0.543 A  
HETATM   10  C   UNL     1     -11.760  14.104  66.435  1.00  0.00    -0.404 A  
HETATM   11  C   UNL     1      -9.900  12.523  66.290  1.00  0.00    -0.260 A  
HETATM   12  C   UNL     1     -10.503  13.671  66.873  1.00  0.00    -0.272 A  
ENDBRANCH   2   3
BRANCH   2  13
HETATM   13  N   UNL     1     -10.072   9.365  65.765  1.00  0.00    -0.353 NA 
HETATM   14  H   UNL     1     -10.892   8.765  65.678  1.00  0.00     0.000 HD 
BRANCH  13  15
HETATM   15  C   UNL     1      -8.851   8.567  65.735  1.00  0.00    -0.190 C  
BRANCH  15  16
HETATM   16  C   UNL     1      -8.571   7.967  67.112  1.00  0.00    -0.124 C  
BRANCH  16  17
HETATM   17  C   UNL     1      -8.083   9.059  68.068  1.00  0.00    -0.105 C  
BRANCH  17  18
HETATM   18  C   UNL     1      -9.028   9.231  69.227  1.00  0.00    -0.147 A  
HETATM   19  C   UNL     1     -11.003  10.280  70.199  1.00  0.00    -0.377 A  
HETATM   20  C   UNL     1     -12.190  11.203  70.087  1.00  0.00    -0.337 C  
HETATM   21  C   UNL     1     -10.148  10.065  69.106  1.00  0.00    -0.219 A  
HETATM   22  C   UNL     1      -9.613   8.803  71.539  1.00  0.00    -0.354 A  
HETATM   23  F   UNL     1     -12.336  11.760  68.850  1.00  0.00    -0.330 F  
HETATM   24  F   UNL     1     -13.369  10.574  70.351  1.00  0.00    -0.366 F  
HETATM   25  F   UNL     1     -12.121  12.249  70.957  1.00  0.00    -0.427 F  
HETATM   26  C   UNL     1     -10.726   9.638  71.415  1.00  0.00    -0.246 A  
HETATM   27  C   UNL     1      -8.768   8.605  70.449  1.00  0.00    -0.165 A  
ENDBRANCH  17  18
ENDBRANCH  16  17
ENDBRANCH  15  16
ENDBRANCH  13  15
ENDBRANCH   2  13
TORSDOF 6
ENDMDL
MODEL      153
REMARK 921   NORMALIZED FREE ENERGY PREDICTED BY IDOCK:   -4.50 KCAL/MOL
REMARK 922        TOTAL FREE ENERGY PREDICTED BY IDOCK:   -9.20 KCAL/MOL
REMARK 923 INTER-LIGAND FREE ENERGY PREDICTED BY IDOCK:   -7.60 KCAL/MOL
REMARK 924 INTRA-LIGAND FREE ENERGY PREDICTED BY IDOCK:   -1.59 KCAL/MOL
REMARK 927      BINDING AFFINITY PREDICTED BY RF-SCORE:    0.00 PKD
ROOT
HETATM    1  C   UNL     1     -14.408   8.607  71.529  1.00  0.00    -0.402 C  
HETATM    2  C   UNL     1     -13.055   9.151  72.020  1.00  0.00    -0.429 C  
ENDROOT
BRANCH   2   3
HETATM    3  C   UNL     1     -12.386  10.132  71.053  1.00  0.00    -0.474 A  
HETATM    4  C   UNL     1     -13.705  13.535  72.086  1.00  0.00    -0.654 A  
HETATM    5  C   UNL     1     -11.526   9.638  70.050  1.00  0.00    -0.191 A  
HETATM    6  C   UNL     1     -13.219  14.320  71.052  1.00  0.00    -0.367 A  
HETATM    7  C   UNL     1     -13.412  12.168  72.120  1.00  0.00    -0.383 A  
HETATM    8  C   UNL     1     -12.407  13.746  70.076  1.00  0.00    -0.364 A  
HETATM    9  C   UNL     1     -10.962  10.482  69.099  1.00  0.00    -0.286 A  
HETATM   10  C   UNL     1     -11.265  11.837  69.114  1.00  0.00    -0.324 A  
HETATM   11  C   UNL     1     -12.639  11.538  71.114  1.00  0.00    -0.463 A  
HETATM   12  C   UNL     1     -12.101  12.375  70.100  1.00  0.00    -0.366 A  
ENDBRANCH   2   3
BRANCH   2  13
HETATM   13  N   UNL     1     -12.153   8.091  72.503  1.00  0.00    -0.541 NA 
HETATM   14  H   UNL     1     -12.038   8.155  73.515  1.00  0.00     0.000 HD 
BRANCH  13  15
HETATM   15  C   UNL     1     -12.550   6.740  72.121  1.00  0.00    -0.124 C  
BRANCH  15  16
HETATM   16  C   UNL     1     -11.400   5.761  72.351  1.00  0.00    -0.348 C  
BRANCH  16  17
HETATM   17  C   UNL     1     -10.073   6.407  71.944  1.00  0.00    -0.204 C  
BRANCH  17  18
HETATM   18  C   UNL     1      -9.929   6.460  70.447  1.00  0.00    -0.213 A  
HETATM   19  C   UNL     1      -8.851   7.379  68.463  1.00  0.00    -0.126 A  
HETATM   20  C   UNL     1      -7.826   8.283  67.824  1.00  0.00    -0.114 C  
HETATM   21  C   UNL     1      -8.953   7.277  69.859  1.00  0.00    -0.142 A  
HETATM   22  C   UNL     1     -10.704   5.824  68.241  1.00  0.00    -0.285 A  
HETATM   23  F   UNL     1      -7.038   8.940  68.723  1.00  0.00    -0.062 F  
HETATM   24  F   UNL     1      -6.971   7.608  67.006  1.00  0.00    -0.070 F  
HETATM   25  F   UNL     1      -8.394   9.252  67.053  1.00  0.00    -0.115 F  
HETATM   26  C   UNL     1      -9.733   6.642  67.660  1.00  0.00    -0.142 A  
HETATM   27  C   UNL     1     -10.802   5.738  69.628  1.00  0.00    -0.418 A  
ENDBRANCH  17  18
ENDBRANCH  16  17
ENDBRANCH  15  16
ENDBRANCH  13  15
ENDBRANCH   2  13
TORSDOF 6
ENDMDL
MODEL      154
REMARK 921   NORMALIZED FREE ENERGY PREDICTED BY IDOCK:   -4.48 KCAL/MOL
REMARK 922        TOTAL FREE ENERGY PREDICTED BY IDOCK:   -9.18 KCAL/MOL
REMARK 923 INTER-LIGAND FREE ENERGY PREDICTED BY IDOCK:   -9.49 KCAL/MOL
REMARK 924 INTRA-LIGAND FREE ENERGY PREDICTED BY IDOCK:    0.31 KCAL/MOL
REMARK 927      BINDING AFFINITY PREDICTED BY RF-SCORE:    0.00 PKD
ROOT
HETATM    1  C   UNL     1     -10.811   7.796  72.943  1.00  0.00    -0.453 C  
HETATM    2  C   UNL     1     -11.537   7.166  71.741  1.00  0.00    -0.280 C  
ENDROOT
BRANCH   2   3
HETATM    3  C   UNL     1     -10.757   6.038  71.058  1.00  0.00    -0.325 A  
HETATM    4  C   UNL     1     -11.028   6.804  67.353  1.00  0.00    -0.407 A  
HETATM    5  C   UNL     1     -10.178   5.021  71.845  1.00  0.00    -0.267 A  
HETATM    6  C   UNL     1     -10.482   5.649  66.815  1.00  0.00    -0.353 A  
HETATM    7  C   UNL     1     -11.093   6.962  68.741  1.00  0.00    -0.163 A  
HETATM    8  C   UNL     1      -9.967   4.672  67.663  1.00  0.00    -0.161 A  
HETATM    9  C   UNL     1      -9.534   3.934  71.264  1.00  0.00    -0.229 A  
HETATM   10  C   UNL     1      -9.475   3.826  69.881  1.00  0.00    -0.267 A  
HETATM   11  C   UNL     1     -10.633   5.966  69.635  1.00  0.00    -0.383 A  
HETATM   12  C   UNL     1     -10.022   4.820  69.059  1.00  0.00    -0.213 A  
ENDBRANCH   2   3
BRANCH   2  13
HETATM   13  N   UNL     1     -12.063   8.171  70.800  1.00  0.00    -0.491 NA 
HETATM   14  H   UNL     1     -13.076   8.083  70.716  1.00  0.00     0.000 HD 
BRANCH  13  15
HETATM   15  C   UNL     1     -11.697   9.547  71.119  1.00  0.00    -0.363 C  
BRANCH  15  16
HETATM   16  C   UNL     1     -12.821  10.503  70.725  1.00  0.00    -0.454 C  
BRANCH  16  17
HETATM   17  C   UNL     1     -13.244  11.341  71.935  1.00  0.00    -0.491 C  
BRANCH  17  18
HETATM   18  C   UNL     1     -13.209  12.812  71.619  1.00  0.00    -0.410 A  
HETATM   19  C   UNL     1     -12.270  14.676  70.360  1.00  0.00    -0.391 A  
HETATM   20  C   UNL     1     -11.327  15.212  69.312  1.00  0.00    -0.300 C  
HETATM   21  C   UNL     1     -12.354  13.300  70.621  1.00  0.00    -0.416 A  
HETATM   22  C   UNL     1     -13.920  15.078  72.099  1.00  0.00    -0.610 A  
HETATM   23  F   UNL     1     -10.617  14.242  68.667  1.00  0.00    -0.223 F  
HETATM   24  F   UNL     1     -11.972  15.910  68.335  1.00  0.00    -0.360 F  
HETATM   25  F   UNL     1     -10.401  16.065  69.831  1.00  0.00    -0.255 F  
HETATM   26  C   UNL     1     -13.064  15.560  71.106  1.00  0.00    -0.573 A  
HETATM   27  C   UNL     1     -13.987  13.711  72.354  1.00  0.00    -0.651 A  
ENDBRANCH  17  18
ENDBRANCH  16  17
ENDBRANCH  15  16
ENDBRANCH  13  15
ENDBRANCH   2  13
TORSDOF 6
ENDMDL
MODEL      155
REMARK 921   NORMALIZED FREE ENERGY PREDICTED BY IDOCK:   -4.47 KCAL/MOL
REMARK 922        TOTAL FREE ENERGY PREDICTED BY IDOCK:   -9.16 KCAL/MOL
REMARK 923 INTER-LIGAND FREE ENERGY PREDICTED BY IDOCK:   -7.91 KCAL/MOL
REMARK 924 INTRA-LIGAND FREE ENERGY PREDICTED BY IDOCK:   -1.26 KCAL/MOL
REMARK 927      BINDING AFFINITY PREDICTED BY RF-SCORE:    0.00 PKD
ROOT
HETATM    1  C   UNL     1     -10.273   8.201  66.807  1.00  0.00    -0.372 C  
HETATM    2  C   UNL     1      -9.632   9.601  66.803  1.00  0.00    -0.173 C  
ENDROOT
BRANCH   2   3
HETATM    3  C   UNL     1     -10.000  10.455  65.586  1.00  0.00    -0.337 A  
HETATM    4  C   UNL     1     -11.967  13.361  67.028  1.00  0.00    -0.429 A  
HETATM    5  C   UNL     1      -9.612  10.032  64.298  1.00  0.00    -0.301 A  
HETATM    6  C   UNL     1     -12.424  13.960  65.865  1.00  0.00    -0.519 A  
HETATM    7  C   UNL     1     -11.143  12.233  66.954  1.00  0.00    -0.341 A  
HETATM    8  C   UNL     1     -12.025  13.456  64.629  1.00  0.00    -0.441 A  
HETATM    9  C   UNL     1      -9.995  10.732  63.159  1.00  0.00    -0.341 A  
HETATM   10  C   UNL     1     -10.797  11.859  63.280  1.00  0.00    -0.408 A  
HETATM   11  C   UNL     1     -10.765  11.657  65.717  1.00  0.00    -0.331 A  
HETATM   12  C   UNL     1     -11.195  12.326  64.540  1.00  0.00    -0.378 A  
ENDBRANCH   2   3
BRANCH   2  13
HETATM   13  N   UNL     1      -8.186   9.568  67.084  1.00  0.00    -0.112 NA 
HETATM   14  H   UNL     1      -7.653   9.684  66.222  1.00  0.00     0.000 HD 
BRANCH  13  15
HETATM   15  C   UNL     1      -7.744  10.532  68.087  1.00  0.00    -0.096 C  
BRANCH  15  16
HETATM   16  C   UNL     1      -8.712  10.554  69.269  1.00  0.00    -0.135 C  
BRANCH  16  17
HETATM   17  C   UNL     1      -8.299   9.505  70.304  1.00  0.00    -0.221 C  
BRANCH  17  18
HETATM   18  C   UNL     1      -9.491   8.996  71.070  1.00  0.00    -0.342 A  
HETATM   19  C   UNL     1     -10.543   7.267  72.429  1.00  0.00    -0.273 A  
HETATM   20  C   UNL     1     -10.484   5.941  73.146  1.00  0.00    -0.228 C  
HETATM   21  C   UNL     1      -9.420   7.779  71.762  1.00  0.00    -0.191 A  
HETATM   22  C   UNL     1     -11.815   9.212  71.719  1.00  0.00    -0.453 A  
HETATM   23  F   UNL     1      -9.261   5.341  73.087  1.00  0.00    -0.131 F  
HETATM   24  F   UNL     1     -10.779   6.050  74.471  1.00  0.00    -0.227 F  
HETATM   25  F   UNL     1     -11.365   5.035  72.639  1.00  0.00    -0.289 F  
HETATM   26  C   UNL     1     -11.741   7.997  72.403  1.00  0.00    -0.444 A  
HETATM   27  C   UNL     1     -10.696   9.705  71.053  1.00  0.00    -0.393 A  
ENDBRANCH  17  18
ENDBRANCH  16  17
ENDBRANCH  15  16
ENDBRANCH  13  15
ENDBRANCH   2  13
TORSDOF 6
ENDMDL
MODEL      156
REMARK 921   NORMALIZED FREE ENERGY PREDICTED BY IDOCK:   -4.47 KCAL/MOL
REMARK 922        TOTAL FREE ENERGY PREDICTED BY IDOCK:   -9.16 KCAL/MOL
REMARK 923 INTER-LIGAND FREE ENERGY PREDICTED BY IDOCK:   -6.14 KCAL/MOL
REMARK 924 INTRA-LIGAND FREE ENERGY PREDICTED BY IDOCK:   -3.03 KCAL/MOL
REMARK 927      BINDING AFFINITY PREDICTED BY RF-SCORE:    0.00 PKD
ROOT
HETATM    1  C   UNL     1     -11.272  14.620  67.215  1.00  0.00    -0.344 C  
HETATM    2  C   UNL     1     -11.961  13.244  67.218  1.00  0.00    -0.343 C  
ENDROOT
BRANCH   2   3
HETATM    3  C   UNL     1     -11.291  12.209  68.127  1.00  0.00    -0.349 A  
HETATM    4  C   UNL     1      -7.593  12.502  67.333  1.00  0.00    -0.156 A  
HETATM    5  C   UNL     1     -12.087  11.407  68.970  1.00  0.00    -0.316 A  
HETATM    6  C   UNL     1      -7.096  11.414  68.034  1.00  0.00    -0.074 A  
HETATM    7  C   UNL     1      -8.959  12.797  67.382  1.00  0.00    -0.195 A  
HETATM    8  C   UNL     1      -7.958  10.646  68.814  1.00  0.00    -0.135 A  
HETATM    9  C   UNL     1     -11.531  10.399  69.749  1.00  0.00    -0.348 A  
HETATM   10  C   UNL     1     -10.166  10.153  69.686  1.00  0.00    -0.272 A  
HETATM   11  C   UNL     1      -9.875  12.006  68.116  1.00  0.00    -0.201 A  
HETATM   12  C   UNL     1      -9.332  10.934  68.875  1.00  0.00    -0.169 A  
ENDBRANCH   2   3
BRANCH   2  13
HETATM   13  N   UNL     1     -12.242  12.743  65.861  1.00  0.00    -0.559 NA 
HETATM   14  H   UNL     1     -13.249  12.687  65.705  1.00  0.00     0.000 HD 
BRANCH  13  15
HETATM   15  C   UNL     1     -11.602  13.502  64.792  1.00  0.00    -0.349 C  
BRANCH  15  16
HETATM   16  C   UNL     1     -10.609  12.623  64.035  1.00  0.00    -0.457 C  
BRANCH  16  17
HETATM   17  C   UNL     1     -11.007  11.150  64.166  1.00  0.00    -0.276 C  
BRANCH  17  18
HETATM   18  C   UNL     1      -9.874  10.327  64.720  1.00  0.00    -0.403 A  
HETATM   19  C   UNL     1      -7.531   9.658  64.666  1.00  0.00    -0.123 A  
HETATM   20  C   UNL     1      -6.144   9.776  64.085  1.00  0.00    -0.114 C  
HETATM   21  C   UNL     1      -8.580  10.464  64.198  1.00  0.00    -0.186 A  
HETATM   22  C   UNL     1      -9.078   8.582  66.200  1.00  0.00    -0.245 A  
HETATM   23  F   UNL     1      -6.035  10.726  63.114  1.00  0.00    -0.147 F  
HETATM   24  F   UNL     1      -5.209  10.097  65.023  1.00  0.00    -0.046 F  
HETATM   25  F   UNL     1      -5.717   8.614  63.516  1.00  0.00    -0.067 F  
HETATM   26  C   UNL     1      -7.792   8.719  65.674  1.00  0.00    -0.097 A  
HETATM   27  C   UNL     1     -10.113   9.381  65.721  1.00  0.00    -0.166 A  
ENDBRANCH  17  18
ENDBRANCH  16  17
ENDBRANCH  15  16
ENDBRANCH  13  15
ENDBRANCH   2  13
TORSDOF 6
ENDMDL
MODEL      157
REMARK 921   NORMALIZED FREE ENERGY PREDICTED BY IDOCK:   -4.46 KCAL/MOL
REMARK 922        TOTAL FREE ENERGY PREDICTED BY IDOCK:   -9.15 KCAL/MOL
REMARK 923 INTER-LIGAND FREE ENERGY PREDICTED BY IDOCK:   -8.61 KCAL/MOL
REMARK 924 INTRA-LIGAND FREE ENERGY PREDICTED BY IDOCK:   -0.54 KCAL/MOL
REMARK 927      BINDING AFFINITY PREDICTED BY RF-SCORE:    0.00 PKD
ROOT
HETATM    1  C   UNL     1     -12.613   9.354  71.939  1.00  0.00    -0.481 C  
HETATM    2  C   UNL     1     -11.650   8.477  71.119  1.00  0.00    -0.281 C  
ENDROOT
BRANCH   2   3
HETATM    3  C   UNL     1     -10.452   7.950  71.913  1.00  0.00    -0.284 A  
HETATM    4  C   UNL     1     -11.594   4.582  73.230  1.00  0.00    -0.254 A  
HETATM    5  C   UNL     1      -9.290   8.741  72.021  1.00  0.00    -0.322 A  
HETATM    6  C   UNL     1     -10.548   4.275  74.086  1.00  0.00    -0.323 A  
HETATM    7  C   UNL     1     -11.562   5.764  72.485  1.00  0.00    -0.321 A  
HETATM    8  C   UNL     1      -9.452   5.131  74.166  1.00  0.00    -0.131 A  
HETATM    9  C   UNL     1      -8.209   8.340  72.800  1.00  0.00    -0.221 A  
HETATM   10  C   UNL     1      -8.276   7.147  73.508  1.00  0.00    -0.138 A  
HETATM   11  C   UNL     1     -10.493   6.687  72.583  1.00  0.00    -0.237 A  
HETATM   12  C   UNL     1      -9.404   6.320  73.419  1.00  0.00    -0.137 A  
ENDBRANCH   2   3
BRANCH   2  13
HETATM   13  N   UNL     1     -11.281   9.087  69.829  1.00  0.00    -0.423 NA 
HETATM   14  H   UNL     1     -11.922   8.782  69.096  1.00  0.00     0.000 HD 
BRANCH  13  15
HETATM   15  C   UNL     1     -11.190  10.542  69.853  1.00  0.00    -0.307 C  
BRANCH  15  16
HETATM   16  C   UNL     1     -11.808  11.136  68.589  1.00  0.00    -0.357 C  
BRANCH  16  17
HETATM   17  C   UNL     1     -11.885  12.661  68.710  1.00  0.00    -0.341 C  
BRANCH  17  18
HETATM   18  C   UNL     1     -11.489  13.331  67.422  1.00  0.00    -0.371 A  
HETATM   19  C   UNL     1     -11.289  13.280  64.993  1.00  0.00    -0.326 A  
HETATM   20  C   UNL     1     -11.490  12.580  63.673  1.00  0.00    -0.493 C  
HETATM   21  C   UNL     1     -11.709  12.690  66.195  1.00  0.00    -0.461 A  
HETATM   22  C   UNL     1     -10.436  15.174  66.254  1.00  0.00    -0.312 A  
HETATM   23  F   UNL     1     -12.117  11.374  63.782  1.00  0.00    -0.416 F  
HETATM   24  F   UNL     1     -12.242  13.311  62.802  1.00  0.00    -0.509 F  
HETATM   25  F   UNL     1     -10.315  12.329  63.031  1.00  0.00    -0.412 F  
HETATM   26  C   UNL     1     -10.653  14.530  65.035  1.00  0.00    -0.458 A  
HETATM   27  C   UNL     1     -10.849  14.574  67.441  1.00  0.00    -0.291 A  
ENDBRANCH  17  18
ENDBRANCH  16  17
ENDBRANCH  15  16
ENDBRANCH  13  15
ENDBRANCH   2  13
TORSDOF 6
ENDMDL
MODEL      158
REMARK 921   NORMALIZED FREE ENERGY PREDICTED BY IDOCK:   -4.45 KCAL/MOL
REMARK 922        TOTAL FREE ENERGY PREDICTED BY IDOCK:   -9.14 KCAL/MOL
REMARK 923 INTER-LIGAND FREE ENERGY PREDICTED BY IDOCK:   -8.09 KCAL/MOL
REMARK 924 INTRA-LIGAND FREE ENERGY PREDICTED BY IDOCK:   -1.06 KCAL/MOL
REMARK 927      BINDING AFFINITY PREDICTED BY RF-SCORE:    0.00 PKD
ROOT
HETATM    1  C   UNL     1      -8.500  11.154  68.534  1.00  0.00    -0.156 C  
HETATM    2  C   UNL     1      -8.641  12.573  67.957  1.00  0.00    -0.185 C  
ENDROOT
BRANCH   2   3
HETATM    3  C   UNL     1      -9.925  12.799  67.154  1.00  0.00    -0.218 A  
HETATM    4  C   UNL     1      -9.411  10.807  63.967  1.00  0.00    -0.312 A  
HETATM    5  C   UNL     1     -10.931  13.638  67.675  1.00  0.00    -0.283 A  
HETATM    6  C   UNL     1     -10.507  11.223  63.227  1.00  0.00    -0.370 A  
HETATM    7  C   UNL     1      -9.225  11.286  65.267  1.00  0.00    -0.191 A  
HETATM    8  C   UNL     1     -11.437  12.087  63.803  1.00  0.00    -0.547 A  
HETATM    9  C   UNL     1     -12.076  13.937  66.944  1.00  0.00    -0.467 A  
HETATM   10  C   UNL     1     -12.230  13.423  65.663  1.00  0.00    -0.510 A  
HETATM   11  C   UNL     1     -10.116  12.210  65.864  1.00  0.00    -0.270 A  
HETATM   12  C   UNL     1     -11.265  12.573  65.110  1.00  0.00    -0.342 A  
ENDBRANCH   2   3
BRANCH   2  13
HETATM   13  N   UNL     1      -7.424  13.033  67.265  1.00  0.00    -0.326 NA 
HETATM   14  H   UNL     1      -7.489  12.837  66.266  1.00  0.00     0.000 HD 
BRANCH  13  15
HETATM   15  C   UNL     1      -7.096  14.437  67.488  1.00  0.00    -0.175 C  
BRANCH  15  16
HETATM   16  C   UNL     1      -7.112  14.759  68.981  1.00  0.00    -0.127 C  
BRANCH  16  17
HETATM   17  C   UNL     1      -6.949  16.266  69.194  1.00  0.00    -0.206 C  
BRANCH  17  18
HETATM   18  C   UNL     1      -8.184  17.013  68.766  1.00  0.00    -0.245 A  
HETATM   19  C   UNL     1      -9.214  18.923  67.655  1.00  0.00    -0.318 A  
HETATM   20  C   UNL     1      -9.099  20.204  66.868  1.00  0.00    -0.356 C  
HETATM   21  C   UNL     1      -8.072  18.186  68.007  1.00  0.00    -0.264 A  
HETATM   22  C   UNL     1     -10.590  17.292  68.818  1.00  0.00    -0.305 A  
HETATM   23  F   UNL     1      -7.817  20.532  66.539  1.00  0.00    -0.292 F  
HETATM   24  F   UNL     1      -9.782  20.159  65.690  1.00  0.00    -0.464 F  
HETATM   25  F   UNL     1      -9.593  21.278  67.545  1.00  0.00    -0.557 F  
HETATM   26  C   UNL     1     -10.474  18.462  68.065  1.00  0.00    -0.390 A  
HETATM   27  C   UNL     1      -9.449  16.575  69.169  1.00  0.00    -0.212 A  
ENDBRANCH  17  18
ENDBRANCH  16  17
ENDBRANCH  15  16
ENDBRANCH  13  15
ENDBRANCH   2  13
TORSDOF 6
ENDMDL
MODEL      159
REMARK 921   NORMALIZED FREE ENERGY PREDICTED BY IDOCK:   -4.45 KCAL/MOL
REMARK 922        TOTAL FREE ENERGY PREDICTED BY IDOCK:   -9.14 KCAL/MOL
REMARK 923 INTER-LIGAND FREE ENERGY PREDICTED BY IDOCK:   -6.71 KCAL/MOL
REMARK 924 INTRA-LIGAND FREE ENERGY PREDICTED BY IDOCK:   -2.43 KCAL/MOL
REMARK 927      BINDING AFFINITY PREDICTED BY RF-SCORE:    0.00 PKD
ROOT
HETATM    1  C   UNL     1      -8.179  10.743  67.669  1.00  0.00    -0.115 C  
HETATM    2  C   UNL     1      -8.022  12.273  67.628  1.00  0.00    -0.161 C  
ENDROOT
BRANCH   2   3
HETATM    3  C   UNL     1      -9.258  13.017  67.115  1.00  0.00    -0.226 A  
HETATM    4  C   UNL     1      -9.903  15.698  69.720  1.00  0.00    -0.260 A  
HETATM    5  C   UNL     1      -9.877  12.593  65.921  1.00  0.00    -0.251 A  
HETATM    6  C   UNL     1     -11.129  16.180  69.291  1.00  0.00    -0.327 A  
HETATM    7  C   UNL     1      -9.260  14.687  68.999  1.00  0.00    -0.108 A  
HETATM    8  C   UNL     1     -11.693  15.679  68.119  1.00  0.00    -0.209 A  
HETATM    9  C   UNL     1     -11.048  13.185  65.461  1.00  0.00    -0.299 A  
HETATM   10  C   UNL     1     -11.642  14.201  66.199  1.00  0.00    -0.377 A  
HETATM   11  C   UNL     1      -9.829  14.112  67.837  1.00  0.00    -0.224 A  
HETATM   12  C   UNL     1     -11.057  14.666  67.383  1.00  0.00    -0.331 A  
ENDBRANCH   2   3
BRANCH   2  13
HETATM   13  N   UNL     1      -6.767  12.702  66.986  1.00  0.00    -0.418 NA 
HETATM   14  H   UNL     1      -6.926  12.913  66.000  1.00  0.00     0.000 HD 
BRANCH  13  15
HETATM   15  C   UNL     1      -6.104  13.823  67.644  1.00  0.00    -0.084 C  
BRANCH  15  16
HETATM   16  C   UNL     1      -6.618  15.149  67.087  1.00  0.00     0.221 C  
BRANCH  16  17
HETATM   17  C   UNL     1      -5.908  16.317  67.778  1.00  0.00    -0.158 C  
BRANCH  17  18
HETATM   18  C   UNL     1      -6.846  17.474  67.994  1.00  0.00    -0.190 A  
HETATM   19  C   UNL     1      -8.903  18.654  67.431  1.00  0.00    -0.284 A  
HETATM   20  C   UNL     1     -10.184  18.759  66.642  1.00  0.00    -0.408 C  
HETATM   21  C   UNL     1      -8.050  17.550  67.281  1.00  0.00    -0.219 A  
HETATM   22  C   UNL     1      -7.341  19.608  69.030  1.00  0.00    -0.363 A  
HETATM   23  F   UNL     1     -10.411  17.693  65.822  1.00  0.00    -0.338 F  
HETATM   24  F   UNL     1     -11.284  18.853  67.440  1.00  0.00    -0.481 F  
HETATM   25  F   UNL     1     -10.212  19.858  65.837  1.00  0.00    -0.491 F  
HETATM   26  C   UNL     1      -8.538  19.681  68.315  1.00  0.00    -0.358 A  
HETATM   27  C   UNL     1      -6.499  18.511  68.866  1.00  0.00    -0.254 A  
ENDBRANCH  17  18
ENDBRANCH  16  17
ENDBRANCH  15  16
ENDBRANCH  13  15
ENDBRANCH   2  13
TORSDOF 6
ENDMDL
MODEL      160
REMARK 921   NORMALIZED FREE ENERGY PREDICTED BY IDOCK:   -4.43 KCAL/MOL
REMARK 922        TOTAL FREE ENERGY PREDICTED BY IDOCK:   -9.11 KCAL/MOL
REMARK 923 INTER-LIGAND FREE ENERGY PREDICTED BY IDOCK:   -8.83 KCAL/MOL
REMARK 924 INTRA-LIGAND FREE ENERGY PREDICTED BY IDOCK:   -0.28 KCAL/MOL
REMARK 927      BINDING AFFINITY PREDICTED BY RF-SCORE:    0.00 PKD
ROOT
HETATM    1  C   UNL     1     -12.000  14.683  69.353  1.00  0.00    -0.351 C  
HETATM    2  C   UNL     1     -10.604  15.184  68.941  1.00  0.00    -0.242 C  
ENDROOT
BRANCH   2   3
HETATM    3  C   UNL     1     -10.564  15.870  67.572  1.00  0.00    -0.315 A  
HETATM    4  C   UNL     1      -9.750  19.492  68.349  1.00  0.00    -0.498 A  
HETATM    5  C   UNL     1     -10.838  15.118  66.411  1.00  0.00    -0.326 A  
HETATM    6  C   UNL     1      -9.931  20.066  67.100  1.00  0.00    -0.580 A  
HETATM    7  C   UNL     1      -9.919  18.114  68.513  1.00  0.00    -0.408 A  
HETATM    8  C   UNL     1     -10.241  19.257  66.010  1.00  0.00    -0.512 A  
HETATM    9  C   UNL     1     -10.894  15.715  65.156  1.00  0.00    -0.448 A  
HETATM   10  C   UNL     1     -10.700  17.085  65.037  1.00  0.00     0.006 A  
HETATM   11  C   UNL     1     -10.291  17.268  67.441  1.00  0.00    -0.338 A  
HETATM   12  C   UNL     1     -10.409  17.870  66.159  1.00  0.00    -0.352 A  
ENDBRANCH   2   3
BRANCH   2  13
HETATM   13  N   UNL     1      -9.555  14.166  69.121  1.00  0.00    -0.409 NA 
HETATM   14  H   UNL     1      -9.691  13.667  70.001  1.00  0.00     0.000 HD 
BRANCH  13  15
HETATM   15  C   UNL     1      -9.433  13.222  68.015  1.00  0.00    -0.219 C  
BRANCH  15  16
HETATM   16  C   UNL     1      -9.508  11.785  68.529  1.00  0.00    -0.165 C  
BRANCH  16  17
HETATM   17  C   UNL     1     -10.907  11.214  68.282  1.00  0.00    -0.258 C  
BRANCH  17  18
HETATM   18  C   UNL     1     -11.498  10.652  69.548  1.00  0.00    -0.360 A  
HETATM   19  C   UNL     1     -11.868   8.764  71.045  1.00  0.00    -0.315 A  
HETATM   20  C   UNL     1     -11.659   7.315  71.409  1.00  0.00    -0.276 C  
HETATM   21  C   UNL     1     -11.273   9.314  69.899  1.00  0.00    -0.145 A  
HETATM   22  C   UNL     1     -12.908  10.912  71.501  1.00  0.00    -0.560 A  
HETATM   23  F   UNL     1     -10.846   6.644  70.544  1.00  0.00    -0.242 F  
HETATM   24  F   UNL     1     -11.097   7.161  72.640  1.00  0.00    -0.246 F  
HETATM   25  F   UNL     1     -12.826   6.612  71.441  1.00  0.00    -0.375 F  
HETATM   26  C   UNL     1     -12.685   9.577  71.844  1.00  0.00    -0.496 A  
HETATM   27  C   UNL     1     -12.320  11.444  70.356  1.00  0.00    -0.404 A  
ENDBRANCH  17  18
ENDBRANCH  16  17
ENDBRANCH  15  16
ENDBRANCH  13  15
ENDBRANCH   2  13
TORSDOF 6
ENDMDL
MODEL      161
REMARK 921   NORMALIZED FREE ENERGY PREDICTED BY IDOCK:   -4.43 KCAL/MOL
REMARK 922        TOTAL FREE ENERGY PREDICTED BY IDOCK:   -9.11 KCAL/MOL
REMARK 923 INTER-LIGAND FREE ENERGY PREDICTED BY IDOCK:   -4.96 KCAL/MOL
REMARK 924 INTRA-LIGAND FREE ENERGY PREDICTED BY IDOCK:   -4.14 KCAL/MOL
REMARK 927      BINDING AFFINITY PREDICTED BY RF-SCORE:    0.00 PKD
ROOT
HETATM    1  C   UNL     1     -11.875  12.057  68.888  1.00  0.00    -0.356 C  
HETATM    2  C   UNL     1     -10.709  11.071  68.701  1.00  0.00    -0.198 C  
ENDROOT
BRANCH   2   3
HETATM    3  C   UNL     1     -10.856   9.768  69.493  1.00  0.00    -0.264 A  
HETATM    4  C   UNL     1     -10.530   7.032  66.886  1.00  0.00    -0.356 A  
HETATM    5  C   UNL     1     -11.092   9.823  70.882  1.00  0.00    -0.428 A  
HETATM    6  C   UNL     1     -10.872   5.920  67.640  1.00  0.00    -0.331 A  
HETATM    7  C   UNL     1     -10.486   8.294  67.485  1.00  0.00    -0.325 A  
HETATM    8  C   UNL     1     -11.131   6.066  69.001  1.00  0.00    -0.377 A  
HETATM    9  C   UNL     1     -11.315   8.670  71.626  1.00  0.00    -0.377 A  
HETATM   10  C   UNL     1     -11.330   7.434  70.992  1.00  0.00    -0.298 A  
HETATM   11  C   UNL     1     -10.799   8.490  68.852  1.00  0.00    -0.009 A  
HETATM   12  C   UNL     1     -11.085   7.328  69.618  1.00  0.00    -0.161 A  
ENDBRANCH   2   3
BRANCH   2  13
HETATM   13  N   UNL     1      -9.389  11.709  68.856  1.00  0.00    -0.404 NA 
HETATM   14  H   UNL     1      -8.906  11.332  69.672  1.00  0.00     0.000 HD 
BRANCH  13  15
HETATM   15  C   UNL     1      -8.535  11.625  67.677  1.00  0.00    -0.142 C  
BRANCH  15  16
HETATM   16  C   UNL     1      -7.525  10.490  67.828  1.00  0.00    -0.087 C  
BRANCH  16  17
HETATM   17  C   UNL     1      -7.192  10.279  69.307  1.00  0.00    -0.093 C  
BRANCH  17  18
HETATM   18  C   UNL     1      -7.300   8.827  69.689  1.00  0.00    -0.059 A  
HETATM   19  C   UNL     1      -7.243   6.472  69.061  1.00  0.00    -0.091 A  
HETATM   20  C   UNL     1      -7.049   5.392  68.026  1.00  0.00    -0.067 C  
HETATM   21  C   UNL     1      -7.086   7.826  68.730  1.00  0.00    -0.076 A  
HETATM   22  C   UNL     1      -7.819   7.122  71.331  1.00  0.00    -0.097 A  
HETATM   23  F   UNL     1      -6.699   5.868  66.797  1.00  0.00    -0.050 F  
HETATM   24  F   UNL     1      -6.073   4.506  68.372  1.00  0.00    -0.026 F  
HETATM   25  F   UNL     1      -8.174   4.650  67.829  1.00  0.00    -0.097 F  
HETATM   26  C   UNL     1      -7.609   6.130  70.371  1.00  0.00    -0.096 A  
HETATM   27  C   UNL     1      -7.669   8.464  70.988  1.00  0.00    -0.099 A  
ENDBRANCH  17  18
ENDBRANCH  16  17
ENDBRANCH  15  16
ENDBRANCH  13  15
ENDBRANCH   2  13
TORSDOF 6
ENDMDL
MODEL      162
REMARK 921   NORMALIZED FREE ENERGY PREDICTED BY IDOCK:   -4.40 KCAL/MOL
REMARK 922        TOTAL FREE ENERGY PREDICTED BY IDOCK:   -9.07 KCAL/MOL
REMARK 923 INTER-LIGAND FREE ENERGY PREDICTED BY IDOCK:   -7.08 KCAL/MOL
REMARK 924 INTRA-LIGAND FREE ENERGY PREDICTED BY IDOCK:   -2.00 KCAL/MOL
REMARK 927      BINDING AFFINITY PREDICTED BY RF-SCORE:    0.00 PKD
ROOT
HETATM    1  C   UNL     1     -11.877   4.710  72.947  1.00  0.00     0.012 C  
HETATM    2  C   UNL     1     -10.507   5.218  72.464  1.00  0.00    -0.216 C  
ENDROOT
BRANCH   2   3
HETATM    3  C   UNL     1     -10.011   4.555  71.175  1.00  0.00    -0.257 A  
HETATM    4  C   UNL     1     -11.119   6.907  68.413  1.00  0.00    -0.142 A  
HETATM    5  C   UNL     1      -9.340   3.317  71.246  1.00  0.00    -0.206 A  
HETATM    6  C   UNL     1     -10.816   6.146  67.295  1.00  0.00    -0.438 A  
HETATM    7  C   UNL     1     -10.829   6.416  69.689  1.00  0.00    -0.380 A  
HETATM    8  C   UNL     1     -10.188   4.912  67.452  1.00  0.00    -0.173 A  
HETATM    9  C   UNL     1      -8.947   2.639  70.097  1.00  0.00    -0.165 A  
HETATM   10  C   UNL     1      -9.237   3.174  68.848  1.00  0.00    -0.226 A  
HETATM   11  C   UNL     1     -10.245   5.142  69.892  1.00  0.00    -0.361 A  
HETATM   12  C   UNL     1      -9.887   4.408  68.728  1.00  0.00    -0.149 A  
ENDBRANCH   2   3
BRANCH   2  13
HETATM   13  N   UNL     1      -9.497   5.248  73.537  1.00  0.00    -0.133 NA 
HETATM   14  H   UNL     1      -8.949   4.387  73.533  1.00  0.00     0.000 HD 
BRANCH  13  15
HETATM   15  C   UNL     1      -8.617   6.411  73.506  1.00  0.00    -0.123 C  
BRANCH  15  16
HETATM   16  C   UNL     1      -9.436   7.700  73.507  1.00  0.00    -0.347 C  
BRANCH  16  17
HETATM   17  C   UNL     1      -9.199   8.472  72.207  1.00  0.00    -0.343 C  
BRANCH  17  18
HETATM   18  C   UNL     1     -10.478   9.074  71.689  1.00  0.00    -0.426 A  
HETATM   19  C   UNL     1     -11.626  10.652  70.228  1.00  0.00    -0.424 A  
HETATM   20  C   UNL     1     -11.594  11.718  69.162  1.00  0.00    -0.310 C  
HETATM   21  C   UNL     1     -10.444  10.041  70.675  1.00  0.00    -0.211 A  
HETATM   22  C   UNL     1     -12.886   9.307  71.812  1.00  0.00    -0.461 A  
HETATM   23  F   UNL     1     -10.342  11.987  68.694  1.00  0.00    -0.203 F  
HETATM   24  F   UNL     1     -12.334  11.386  68.067  1.00  0.00    -0.207 F  
HETATM   25  F   UNL     1     -12.089  12.909  69.600  1.00  0.00    -0.335 F  
HETATM   26  C   UNL     1     -12.847  10.273  70.804  1.00  0.00    -0.427 A  
HETATM   27  C   UNL     1     -11.706   8.715  72.253  1.00  0.00    -0.428 A  
ENDBRANCH  17  18
ENDBRANCH  16  17
ENDBRANCH  15  16
ENDBRANCH  13  15
ENDBRANCH   2  13
TORSDOF 6
ENDMDL
MODEL      163
REMARK 921   NORMALIZED FREE ENERGY PREDICTED BY IDOCK:   -4.40 KCAL/MOL
REMARK 922        TOTAL FREE ENERGY PREDICTED BY IDOCK:   -9.07 KCAL/MOL
REMARK 923 INTER-LIGAND FREE ENERGY PREDICTED BY IDOCK:   -8.04 KCAL/MOL
REMARK 924 INTRA-LIGAND FREE ENERGY PREDICTED BY IDOCK:   -1.03 KCAL/MOL
REMARK 927      BINDING AFFINITY PREDICTED BY RF-SCORE:    0.00 PKD
ROOT
HETATM    1  C   UNL     1      -8.542   7.749  70.271  1.00  0.00    -0.138 C  
HETATM    2  C   UNL     1      -9.375   8.503  69.219  1.00  0.00    -0.154 C  
ENDROOT
BRANCH   2   3
HETATM    3  C   UNL     1     -10.463   9.405  69.810  1.00  0.00    -0.243 A  
HETATM    4  C   UNL     1     -12.766   7.027  71.662  1.00  0.00    -0.417 A  
HETATM    5  C   UNL     1     -10.428  10.791  69.556  1.00  0.00    -0.205 A  
HETATM    6  C   UNL     1     -13.808   7.882  71.985  1.00  0.00    -0.329 A  
HETATM    7  C   UNL     1     -11.647   7.517  70.981  1.00  0.00    -0.305 A  
HETATM    8  C   UNL     1     -13.713   9.234  71.662  1.00  0.00    -0.421 A  
HETATM    9  C   UNL     1     -11.439  11.636  70.001  1.00  0.00    -0.266 A  
HETATM   10  C   UNL     1     -12.522  11.109  70.692  1.00  0.00    -0.448 A  
HETATM   11  C   UNL     1     -11.541   8.872  70.585  1.00  0.00    -0.251 A  
HETATM   12  C   UNL     1     -12.593   9.741  70.982  1.00  0.00    -0.406 A  
ENDBRANCH   2   3
BRANCH   2  13
HETATM   13  N   UNL     1      -9.860   7.627  68.138  1.00  0.00    -0.159 NA 
HETATM   14  H   UNL     1     -10.558   6.974  68.495  1.00  0.00     0.000 HD 
BRANCH  13  15
HETATM   15  C   UNL     1     -10.376   8.335  66.972  1.00  0.00    -0.323 C  
BRANCH  15  16
HETATM   16  C   UNL     1      -9.234   8.720  66.033  1.00  0.00    -0.282 C  
BRANCH  16  17
HETATM   17  C   UNL     1      -8.944  10.218  66.148  1.00  0.00    -0.174 C  
BRANCH  17  18
HETATM   18  C   UNL     1      -9.895  11.024  65.304  1.00  0.00    -0.309 A  
HETATM   19  C   UNL     1     -11.458  12.882  65.078  1.00  0.00    -0.350 A  
HETATM   20  C   UNL     1     -12.164  14.082  65.655  1.00  0.00    -0.442 C  
HETATM   21  C   UNL     1     -10.524  12.159  65.836  1.00  0.00    -0.288 A  
HETATM   22  C   UNL     1     -11.119  11.333  63.236  1.00  0.00    -0.091 A  
HETATM   23  F   UNL     1     -11.789  14.377  66.933  1.00  0.00    -0.363 F  
HETATM   24  F   UNL     1     -11.943  15.217  64.934  1.00  0.00    -0.353 F  
HETATM   25  F   UNL     1     -13.517  13.922  65.694  1.00  0.00    -0.422 F  
HETATM   26  C   UNL     1     -11.746  12.459  63.771  1.00  0.00    -0.566 A  
HETATM   27  C   UNL     1     -10.201  10.618  64.002  1.00  0.00    -0.334 A  
ENDBRANCH  17  18
ENDBRANCH  16  17
ENDBRANCH  15  16
ENDBRANCH  13  15
ENDBRANCH   2  13
TORSDOF 6
ENDMDL
MODEL      164
REMARK 921   NORMALIZED FREE ENERGY PREDICTED BY IDOCK:   -4.40 KCAL/MOL
REMARK 922        TOTAL FREE ENERGY PREDICTED BY IDOCK:   -9.07 KCAL/MOL
REMARK 923 INTER-LIGAND FREE ENERGY PREDICTED BY IDOCK:   -8.22 KCAL/MOL
REMARK 924 INTRA-LIGAND FREE ENERGY PREDICTED BY IDOCK:   -0.84 KCAL/MOL
REMARK 927      BINDING AFFINITY PREDICTED BY RF-SCORE:    0.00 PKD
ROOT
HETATM    1  C   UNL     1     -11.605  12.775  66.780  1.00  0.00    -0.431 C  
HETATM    2  C   UNL     1     -12.140  12.770  68.223  1.00  0.00    -0.104 C  
ENDROOT
BRANCH   2   3
HETATM    3  C   UNL     1     -11.696  13.972  69.061  1.00  0.00    -0.368 A  
HETATM    4  C   UNL     1     -13.637  13.639  72.303  1.00  0.00    -0.669 A  
HETATM    5  C   UNL     1     -10.777  14.894  68.519  1.00  0.00    -0.245 A  
HETATM    6  C   UNL     1     -13.336  14.850  72.905  1.00  0.00    -0.576 A  
HETATM    7  C   UNL     1     -13.081  13.321  71.060  1.00  0.00    -0.153 A  
HETATM    8  C   UNL     1     -12.447  15.725  72.283  1.00  0.00    -0.533 A  
HETATM    9  C   UNL     1     -10.409  16.043  69.210  1.00  0.00    -0.251 A  
HETATM   10  C   UNL     1     -10.972  16.310  70.451  1.00  0.00    -0.282 A  
HETATM   11  C   UNL     1     -12.220  14.209  70.371  1.00  0.00    -0.427 A  
HETATM   12  C   UNL     1     -11.877  15.416  71.037  1.00  0.00    -0.406 A  
ENDBRANCH   2   3
BRANCH   2  13
HETATM   13  N   UNL     1     -11.946  11.475  68.901  1.00  0.00    -0.401 NA 
HETATM   14  H   UNL     1     -12.562  10.768  68.499  1.00  0.00     0.000 HD 
BRANCH  13  15
HETATM   15  C   UNL     1     -10.567  11.001  68.912  1.00  0.00    -0.207 C  
BRANCH  15  16
HETATM   16  C   UNL     1     -10.292  10.190  70.177  1.00  0.00    -0.280 C  
BRANCH  16  17
HETATM   17  C   UNL     1     -11.466  10.325  71.150  1.00  0.00    -0.319 C  
BRANCH  17  18
HETATM   18  C   UNL     1     -12.062   8.981  71.475  1.00  0.00    -0.410 A  
HETATM   19  C   UNL     1     -11.782   6.664  72.181  1.00  0.00    -0.342 A  
HETATM   20  C   UNL     1     -10.903   5.528  72.640  1.00  0.00    -0.257 C  
HETATM   21  C   UNL     1     -11.245   7.938  71.933  1.00  0.00    -0.320 A  
HETATM   22  C   UNL     1     -13.971   7.489  71.521  1.00  0.00    -0.522 A  
HETATM   23  F   UNL     1      -9.594   5.876  72.797  1.00  0.00    -0.154 F  
HETATM   24  F   UNL     1     -11.295   5.015  73.839  1.00  0.00    -0.346 F  
HETATM   25  F   UNL     1     -10.905   4.482  71.767  1.00  0.00    -0.160 F  
HETATM   26  C   UNL     1     -13.152   6.452  71.974  1.00  0.00     0.133 A  
HETATM   27  C   UNL     1     -13.425   8.745  71.270  1.00  0.00    -0.192 A  
ENDBRANCH  17  18
ENDBRANCH  16  17
ENDBRANCH  15  16
ENDBRANCH  13  15
ENDBRANCH   2  13
TORSDOF 6
ENDMDL
MODEL      165
REMARK 921   NORMALIZED FREE ENERGY PREDICTED BY IDOCK:   -4.39 KCAL/MOL
REMARK 922        TOTAL FREE ENERGY PREDICTED BY IDOCK:   -9.05 KCAL/MOL
REMARK 923 INTER-LIGAND FREE ENERGY PREDICTED BY IDOCK:   -4.94 KCAL/MOL
REMARK 924 INTRA-LIGAND FREE ENERGY PREDICTED BY IDOCK:   -4.11 KCAL/MOL
REMARK 927      BINDING AFFINITY PREDICTED BY RF-SCORE:    0.00 PKD
ROOT
HETATM    1  C   UNL     1     -12.079   7.621  72.100  1.00  0.00    -0.325 C  
HETATM    2  C   UNL     1     -11.162   8.557  71.293  1.00  0.00    -0.265 C  
ENDROOT
BRANCH   2   3
HETATM    3  C   UNL     1     -10.890   8.085  69.861  1.00  0.00    -0.217 A  
HETATM    4  C   UNL     1     -10.141  11.269  67.940  1.00  0.00    -0.195 A  
HETATM    5  C   UNL     1     -10.990   6.713  69.552  1.00  0.00    -0.367 A  
HETATM    6  C   UNL     1     -10.108  10.781  66.643  1.00  0.00    -0.265 A  
HETATM    7  C   UNL     1     -10.361  10.394  69.008  1.00  0.00    -0.232 A  
HETATM    8  C   UNL     1     -10.256   9.415  66.419  1.00  0.00    -0.300 A  
HETATM    9  C   UNL     1     -10.833   6.250  68.250  1.00  0.00    -0.397 A  
HETATM   10  C   UNL     1     -10.596   7.153  67.222  1.00  0.00    -0.398 A  
HETATM   11  C   UNL     1     -10.573   9.008  68.815  1.00  0.00    -0.196 A  
HETATM   12  C   UNL     1     -10.473   8.523  67.483  1.00  0.00    -0.328 A  
ENDBRANCH   2   3
BRANCH   2  13
HETATM   13  N   UNL     1      -9.945   8.940  72.029  1.00  0.00    -0.322 NA 
HETATM   14  H   UNL     1     -10.139   9.721  72.655  1.00  0.00     0.000 HD 
BRANCH  13  15
HETATM   15  C   UNL     1      -9.312   7.847  72.760  1.00  0.00    -0.234 C  
BRANCH  15  16
HETATM   16  C   UNL     1      -8.027   7.410  72.059  1.00  0.00    -0.099 C  
BRANCH  16  17
HETATM   17  C   UNL     1      -7.395   8.601  71.334  1.00  0.00    -0.116 C  
BRANCH  17  18
HETATM   18  C   UNL     1      -7.235   8.322  69.864  1.00  0.00    -0.059 A  
HETATM   19  C   UNL     1      -7.084   6.730  68.024  1.00  0.00    -0.085 A  
HETATM   20  C   UNL     1      -7.111   5.313  67.507  1.00  0.00    -0.067 C  
HETATM   21  C   UNL     1      -7.292   7.006  69.384  1.00  0.00    -0.091 A  
HETATM   22  C   UNL     1      -6.773   9.105  67.618  1.00  0.00    -0.069 A  
HETATM   23  F   UNL     1      -7.369   4.383  68.470  1.00  0.00    -0.057 F  
HETATM   24  F   UNL     1      -8.059   5.124  66.546  1.00  0.00    -0.105 F  
HETATM   25  F   UNL     1      -5.928   4.943  66.942  1.00  0.00    -0.023 F  
HETATM   26  C   UNL     1      -6.828   7.792  67.146  1.00  0.00    -0.069 A  
HETATM   27  C   UNL     1      -6.972   9.366  68.972  1.00  0.00    -0.059 A  
ENDBRANCH  17  18
ENDBRANCH  16  17
ENDBRANCH  15  16
ENDBRANCH  13  15
ENDBRANCH   2  13
TORSDOF 6
ENDMDL
MODEL      166
REMARK 921   NORMALIZED FREE ENERGY PREDICTED BY IDOCK:   -4.38 KCAL/MOL
REMARK 922        TOTAL FREE ENERGY PREDICTED BY IDOCK:   -9.05 KCAL/MOL
REMARK 923 INTER-LIGAND FREE ENERGY PREDICTED BY IDOCK:   -5.57 KCAL/MOL
REMARK 924 INTRA-LIGAND FREE ENERGY PREDICTED BY IDOCK:   -3.48 KCAL/MOL
REMARK 927      BINDING AFFINITY PREDICTED BY RF-SCORE:    0.00 PKD
ROOT
HETATM    1  C   UNL     1     -10.098   3.174  72.239  1.00  0.00    -0.216 C  
HETATM    2  C   UNL     1      -9.522   4.284  71.342  1.00  0.00    -0.158 C  
ENDROOT
BRANCH   2   3
HETATM    3  C   UNL     1      -9.464   5.662  72.008  1.00  0.00    -0.169 A  
HETATM    4  C   UNL     1     -12.884   7.172  71.368  1.00  0.00    -0.431 A  
HETATM    5  C   UNL     1      -8.272   6.079  72.636  1.00  0.00    -0.111 A  
HETATM    6  C   UNL     1     -12.678   8.467  71.816  1.00  0.00    -0.373 A  
HETATM    7  C   UNL     1     -11.853   6.231  71.456  1.00  0.00    -0.291 A  
HETATM    8  C   UNL     1     -11.455   8.810  72.389  1.00  0.00    -0.301 A  
HETATM    9  C   UNL     1      -8.146   7.352  73.181  1.00  0.00    -0.134 A  
HETATM   10  C   UNL     1      -9.203   8.248  73.089  1.00  0.00    -0.293 A  
HETATM   11  C   UNL     1     -10.578   6.558  71.978  1.00  0.00    -0.244 A  
HETATM   12  C   UNL     1     -10.412   7.874  72.488  1.00  0.00    -0.363 A  
ENDBRANCH   2   3
BRANCH   2  13
HETATM   13  N   UNL     1     -10.127   4.305  69.998  1.00  0.00    -0.118 NA 
HETATM   14  H   UNL     1     -10.570   5.207  69.822  1.00  0.00     0.000 HD 
BRANCH  13  15
HETATM   15  C   UNL     1      -9.206   3.971  68.917  1.00  0.00    -0.148 C  
BRANCH  15  16
HETATM   16  C   UNL     1      -9.155   5.101  67.891  1.00  0.00    -0.121 C  
BRANCH  16  17
HETATM   17  C   UNL     1     -10.330   6.058  68.108  1.00  0.00    -0.251 C  
BRANCH  17  18
HETATM   18  C   UNL     1      -9.865   7.372  68.677  1.00  0.00    -0.165 A  
HETATM   19  C   UNL     1     -10.284   9.723  69.170  1.00  0.00    -0.211 A  
HETATM   20  C   UNL     1     -11.195  10.925  69.163  1.00  0.00    -0.256 C  
HETATM   21  C   UNL     1     -10.727   8.478  68.698  1.00  0.00    -0.082 A  
HETATM   22  C   UNL     1      -8.105   8.746  69.617  1.00  0.00    -0.101 A  
HETATM   23  F   UNL     1     -12.445  10.662  68.686  1.00  0.00    -0.131 F  
HETATM   24  F   UNL     1     -11.377  11.450  70.407  1.00  0.00    -0.342 F  
HETATM   25  F   UNL     1     -10.712  11.941  68.395  1.00  0.00    -0.193 F  
HETATM   26  C   UNL     1      -8.966   9.845  69.633  1.00  0.00    -0.232 A  
HETATM   27  C   UNL     1      -8.553   7.518  69.138  1.00  0.00    -0.136 A  
ENDBRANCH  17  18
ENDBRANCH  16  17
ENDBRANCH  15  16
ENDBRANCH  13  15
ENDBRANCH   2  13
TORSDOF 6
ENDMDL
MODEL      167
REMARK 921   NORMALIZED FREE ENERGY PREDICTED BY IDOCK:   -4.36 KCAL/MOL
REMARK 922        TOTAL FREE ENERGY PREDICTED BY IDOCK:   -9.01 KCAL/MOL
REMARK 923 INTER-LIGAND FREE ENERGY PREDICTED BY IDOCK:   -7.83 KCAL/MOL
REMARK 924 INTRA-LIGAND FREE ENERGY PREDICTED BY IDOCK:   -1.18 KCAL/MOL
REMARK 927      BINDING AFFINITY PREDICTED BY RF-SCORE:    0.00 PKD
ROOT
HETATM    1  C   UNL     1      -7.629   8.599  71.547  1.00  0.00    -0.134 C  
HETATM    2  C   UNL     1      -8.970   7.922  71.883  1.00  0.00    -0.136 C  
ENDROOT
BRANCH   2   3
HETATM    3  C   UNL     1      -9.278   6.685  71.035  1.00  0.00    -0.160 A  
HETATM    4  C   UNL     1     -10.439   8.082  67.705  1.00  0.00    -0.301 A  
HETATM    5  C   UNL     1      -9.122   5.402  71.598  1.00  0.00    -0.154 A  
HETATM    6  C   UNL     1     -10.881   6.924  67.084  1.00  0.00    -0.447 A  
HETATM    7  C   UNL     1      -9.879   8.016  68.984  1.00  0.00    -0.178 A  
HETATM    8  C   UNL     1     -10.726   5.698  67.726  1.00  0.00    -0.250 A  
HETATM    9  C   UNL     1      -9.468   4.253  70.894  1.00  0.00    -0.239 A  
HETATM   10  C   UNL     1     -10.003   4.364  69.616  1.00  0.00    -0.209 A  
HETATM   11  C   UNL     1      -9.759   6.796  69.692  1.00  0.00    -0.160 A  
HETATM   12  C   UNL     1     -10.162   5.616  69.010  1.00  0.00    -0.291 A  
ENDBRANCH   2   3
BRANCH   2  13
HETATM   13  N   UNL     1     -10.089   8.877  71.960  1.00  0.00    -0.329 NA 
HETATM   14  H   UNL     1     -10.264   9.294  71.045  1.00  0.00     0.000 HD 
BRANCH  13  15
HETATM   15  C   UNL     1     -11.321   8.321  72.509  1.00  0.00    -0.385 C  
BRANCH  15  16
HETATM   16  C   UNL     1     -12.466   8.468  71.508  1.00  0.00    -0.353 C  
BRANCH  16  17
HETATM   17  C   UNL     1     -13.391   9.610  71.934  1.00  0.00    -0.526 C  
BRANCH  17  18
HETATM   18  C   UNL     1     -13.014  10.900  71.255  1.00  0.00    -0.492 A  
HETATM   19  C   UNL     1     -12.100  12.079  69.327  1.00  0.00    -0.249 A  
HETATM   20  C   UNL     1     -11.526  12.070  67.933  1.00  0.00    -0.330 C  
HETATM   21  C   UNL     1     -12.511  10.888  69.947  1.00  0.00    -0.292 A  
HETATM   22  C   UNL     1     -12.713  13.303  71.335  1.00  0.00    -0.401 A  
HETATM   23  F   UNL     1     -11.477  10.830  67.368  1.00  0.00    -0.378 F  
HETATM   24  F   UNL     1     -12.241  12.842  67.067  1.00  0.00    -0.421 F  
HETATM   25  F   UNL     1     -10.250  12.546  67.891  1.00  0.00    -0.199 F  
HETATM   26  C   UNL     1     -12.209  13.286  70.033  1.00  0.00    -0.345 A  
HETATM   27  C   UNL     1     -13.109  12.114  71.943  1.00  0.00    -0.475 A  
ENDBRANCH  17  18
ENDBRANCH  16  17
ENDBRANCH  15  16
ENDBRANCH  13  15
ENDBRANCH   2  13
TORSDOF 6
ENDMDL
MODEL      168
REMARK 921   NORMALIZED FREE ENERGY PREDICTED BY IDOCK:   -4.32 KCAL/MOL
REMARK 922        TOTAL FREE ENERGY PREDICTED BY IDOCK:   -8.96 KCAL/MOL
REMARK 923 INTER-LIGAND FREE ENERGY PREDICTED BY IDOCK:   -6.39 KCAL/MOL
REMARK 924 INTRA-LIGAND FREE ENERGY PREDICTED BY IDOCK:   -2.58 KCAL/MOL
REMARK 927      BINDING AFFINITY PREDICTED BY RF-SCORE:    0.00 PKD
ROOT
HETATM    1  C   UNL     1      -5.565  17.025  67.222  1.00  0.00    -0.176 C  
HETATM    2  C   UNL     1      -6.855  16.257  67.563  1.00  0.00    -0.161 C  
ENDROOT
BRANCH   2   3
HETATM    3  C   UNL     1      -8.143  17.024  67.251  1.00  0.00    -0.203 A  
HETATM    4  C   UNL     1     -10.176  14.638  65.116  1.00  0.00    -0.414 A  
HETATM    5  C   UNL     1      -8.300  18.340  67.734  1.00  0.00    -0.261 A  
HETATM    6  C   UNL     1     -11.210  15.471  64.719  1.00  0.00    -0.399 A  
HETATM    7  C   UNL     1      -9.183  15.121  65.973  1.00  0.00    -0.273 A  
HETATM    8  C   UNL     1     -11.272  16.773  65.211  1.00  0.00     0.130 A  
HETATM    9  C   UNL     1      -9.416  19.104  67.407  1.00  0.00    -0.362 A  
HETATM   10  C   UNL     1     -10.389  18.577  66.568  1.00  0.00    -0.447 A  
HETATM   11  C   UNL     1      -9.180  16.455  66.447  1.00  0.00    -0.335 A  
HETATM   12  C   UNL     1     -10.283  17.270  66.076  1.00  0.00    -0.314 A  
ENDBRANCH   2   3
BRANCH   2  13
HETATM   13  N   UNL     1      -6.830  15.670  68.914  1.00  0.00    -0.119 NA 
HETATM   14  H   UNL     1      -7.772  15.644  69.307  1.00  0.00     0.000 HD 
BRANCH  13  15
HETATM   15  C   UNL     1      -6.211  14.351  68.990  1.00  0.00    -0.094 C  
BRANCH  15  16
HETATM   16  C   UNL     1      -6.729  13.454  67.867  1.00  0.00    -0.150 C  
BRANCH  16  17
HETATM   17  C   UNL     1      -7.244  12.134  68.448  1.00  0.00    -0.097 C  
BRANCH  17  18
HETATM   18  C   UNL     1      -8.734  12.006  68.273  1.00  0.00    -0.178 A  
HETATM   19  C   UNL     1     -10.957  13.005  68.324  1.00  0.00    -0.285 A  
HETATM   20  C   UNL     1     -11.857  14.198  68.522  1.00  0.00    -0.355 C  
HETATM   21  C   UNL     1      -9.562  13.126  68.426  1.00  0.00    -0.186 A  
HETATM   22  C   UNL     1     -10.690  10.627  67.896  1.00  0.00    -0.292 A  
HETATM   23  F   UNL     1     -11.183  15.356  68.780  1.00  0.00    -0.241 F  
HETATM   24  F   UNL     1     -12.632  14.457  67.432  1.00  0.00    -0.302 F  
HETATM   25  F   UNL     1     -12.720  14.033  69.564  1.00  0.00    -0.332 F  
HETATM   26  C   UNL     1     -11.512  11.745  68.054  1.00  0.00    -0.388 A  
HETATM   27  C   UNL     1      -9.308  10.759  68.009  1.00  0.00    -0.152 A  
ENDBRANCH  17  18
ENDBRANCH  16  17
ENDBRANCH  15  16
ENDBRANCH  13  15
ENDBRANCH   2  13
TORSDOF 6
ENDMDL
MODEL      169
REMARK 921   NORMALIZED FREE ENERGY PREDICTED BY IDOCK:   -4.31 KCAL/MOL
REMARK 922        TOTAL FREE ENERGY PREDICTED BY IDOCK:   -8.94 KCAL/MOL
REMARK 923 INTER-LIGAND FREE ENERGY PREDICTED BY IDOCK:   -5.42 KCAL/MOL
REMARK 924 INTRA-LIGAND FREE ENERGY PREDICTED BY IDOCK:   -3.53 KCAL/MOL
REMARK 927      BINDING AFFINITY PREDICTED BY RF-SCORE:    0.00 PKD
ROOT
HETATM    1  C   UNL     1     -10.304   9.779  67.170  1.00  0.00    -0.311 C  
HETATM    2  C   UNL     1     -10.363  10.929  68.192  1.00  0.00    -0.178 C  
ENDROOT
BRANCH   2   3
HETATM    3  C   UNL     1     -10.934  12.235  67.633  1.00  0.00    -0.287 A  
HETATM    4  C   UNL     1     -11.489  14.411  70.691  1.00  0.00    -0.170 A  
HETATM    5  C   UNL     1     -11.154  12.360  66.246  1.00  0.00    -0.344 A  
HETATM    6  C   UNL     1     -12.182  15.470  70.126  1.00  0.00    -0.404 A  
HETATM    7  C   UNL     1     -11.043  13.361  69.883  1.00  0.00     0.161 A  
HETATM    8  C   UNL     1     -12.392  15.498  68.749  1.00  0.00     0.131 A  
HETATM    9  C   UNL     1     -11.747  13.495  65.704  1.00  0.00    -0.363 A  
HETATM   10  C   UNL     1     -12.157  14.524  66.542  1.00  0.00    -0.330 A  
HETATM   11  C   UNL     1     -11.289  13.325  68.489  1.00  0.00    -0.319 A  
HETATM   12  C   UNL     1     -11.946  14.452  67.925  1.00  0.00    -0.348 A  
ENDBRANCH   2   3
BRANCH   2  13
HETATM   13  N   UNL     1      -9.099  11.105  68.928  1.00  0.00    -0.335 NA 
HETATM   14  H   UNL     1      -9.146  10.634  69.832  1.00  0.00     0.000 HD 
BRANCH  13  15
HETATM   15  C   UNL     1      -7.910  10.683  68.195  1.00  0.00    -0.110 C  
BRANCH  15  16
HETATM   16  C   UNL     1      -6.885  11.815  68.144  1.00  0.00    -0.066 C  
BRANCH  16  17
HETATM   17  C   UNL     1      -7.318  12.866  67.119  1.00  0.00     0.002 C  
BRANCH  17  18
HETATM   18  C   UNL     1      -7.815  14.116  67.796  1.00  0.00    -0.177 A  
HETATM   19  C   UNL     1      -8.987  16.250  67.685  1.00  0.00    -0.194 A  
HETATM   20  C   UNL     1      -9.769  17.281  66.911  1.00  0.00    -0.273 C  
HETATM   21  C   UNL     1      -8.570  15.055  67.080  1.00  0.00    -0.266 A  
HETATM   22  C   UNL     1      -7.896  15.556  69.743  1.00  0.00    -0.031 A  
HETATM   23  F   UNL     1     -10.028  16.918  65.622  1.00  0.00    -0.296 F  
HETATM   24  F   UNL     1     -10.983  17.546  67.471  1.00  0.00    -0.342 F  
HETATM   25  F   UNL     1      -9.123  18.478  66.835  1.00  0.00    -0.262 F  
HETATM   26  C   UNL     1      -8.645  16.490  69.024  1.00  0.00    -0.208 A  
HETATM   27  C   UNL     1      -7.481  14.377  69.128  1.00  0.00    -0.094 A  
ENDBRANCH  17  18
ENDBRANCH  16  17
ENDBRANCH  15  16
ENDBRANCH  13  15
ENDBRANCH   2  13
TORSDOF 6
ENDMDL
MODEL      170
REMARK 921   NORMALIZED FREE ENERGY PREDICTED BY IDOCK:   -4.30 KCAL/MOL
REMARK 922        TOTAL FREE ENERGY PREDICTED BY IDOCK:   -8.93 KCAL/MOL
REMARK 923 INTER-LIGAND FREE ENERGY PREDICTED BY IDOCK:   -6.13 KCAL/MOL
REMARK 924 INTRA-LIGAND FREE ENERGY PREDICTED BY IDOCK:   -2.80 KCAL/MOL
REMARK 927      BINDING AFFINITY PREDICTED BY RF-SCORE:    0.00 PKD
ROOT
HETATM    1  C   UNL     1     -12.274  11.479  70.485  1.00  0.00    -0.469 C  
HETATM    2  C   UNL     1     -11.205  10.504  69.964  1.00  0.00    -0.315 C  
ENDROOT
BRANCH   2   3
HETATM    3  C   UNL     1     -10.726   9.485  71.002  1.00  0.00    -0.411 A  
HETATM    4  C   UNL     1      -6.998   9.173  70.375  1.00  0.00    -0.071 A  
HETATM    5  C   UNL     1     -11.660   8.894  71.877  1.00  0.00    -0.442 A  
HETATM    6  C   UNL     1      -6.689   8.105  71.203  1.00  0.00    -0.044 A  
HETATM    7  C   UNL     1      -8.307   9.660  70.324  1.00  0.00    -0.216 A  
HETATM    8  C   UNL     1      -7.682   7.550  72.008  1.00  0.00    -0.094 A  
HETATM    9  C   UNL     1     -11.285   7.904  72.778  1.00  0.00    -0.466 A  
HETATM   10  C   UNL     1      -9.968   7.464  72.809  1.00  0.00    -0.263 A  
HETATM   11  C   UNL     1      -9.355   9.085  71.084  1.00  0.00    -0.336 A  
HETATM   12  C   UNL     1      -9.001   8.032  71.970  1.00  0.00    -0.212 A  
ENDBRANCH   2   3
BRANCH   2  13
HETATM   13  N   UNL     1     -10.106  11.184  69.256  1.00  0.00    -0.412 NA 
HETATM   14  H   UNL     1      -9.222  10.705  69.427  1.00  0.00     0.000 HD 
BRANCH  13  15
HETATM   15  C   UNL     1     -10.324  11.353  67.823  1.00  0.00    -0.182 C  
BRANCH  15  16
HETATM   16  C   UNL     1      -9.479  10.356  67.033  1.00  0.00    -0.189 C  
BRANCH  16  17
HETATM   17  C   UNL     1     -10.260   9.055  66.829  1.00  0.00    -0.341 C  
BRANCH  17  18
HETATM   18  C   UNL     1      -9.524   7.879  67.414  1.00  0.00    -0.179 A  
HETATM   19  C   UNL     1      -9.475   5.953  68.908  1.00  0.00    -0.146 A  
HETATM   20  C   UNL     1     -10.153   5.042  69.900  1.00  0.00    -0.274 C  
HETATM   21  C   UNL     1     -10.170   7.017  68.311  1.00  0.00    -0.206 A  
HETATM   22  C   UNL     1      -7.477   6.612  67.691  1.00  0.00    -0.097 A  
HETATM   23  F   UNL     1     -11.464   5.350  70.119  1.00  0.00    -0.160 F  
HETATM   24  F   UNL     1     -10.140   3.738  69.507  1.00  0.00    -0.213 F  
HETATM   25  F   UNL     1      -9.557   5.069  71.125  1.00  0.00    -0.176 F  
HETATM   26  C   UNL     1      -8.124   5.758  68.586  1.00  0.00    -0.101 A  
HETATM   27  C   UNL     1      -8.175   7.670  67.112  1.00  0.00    -0.118 A  
ENDBRANCH  17  18
ENDBRANCH  16  17
ENDBRANCH  15  16
ENDBRANCH  13  15
ENDBRANCH   2  13
TORSDOF 6
ENDMDL
MODEL      171
REMARK 921   NORMALIZED FREE ENERGY PREDICTED BY IDOCK:   -4.30 KCAL/MOL
REMARK 922        TOTAL FREE ENERGY PREDICTED BY IDOCK:   -8.93 KCAL/MOL
REMARK 923 INTER-LIGAND FREE ENERGY PREDICTED BY IDOCK:   -6.24 KCAL/MOL
REMARK 924 INTRA-LIGAND FREE ENERGY PREDICTED BY IDOCK:   -2.69 KCAL/MOL
REMARK 927      BINDING AFFINITY PREDICTED BY RF-SCORE:    0.00 PKD
ROOT
HETATM    1  C   UNL     1      -8.506  17.429  68.077  1.00  0.00    -0.235 C  
HETATM    2  C   UNL     1      -8.482  16.211  67.137  1.00  0.00    -0.191 C  
ENDROOT
BRANCH   2   3
HETATM    3  C   UNL     1      -9.788  15.411  67.113  1.00  0.00    -0.221 A  
HETATM    4  C   UNL     1     -11.217  15.823  70.602  1.00  0.00    -0.395 A  
HETATM    5  C   UNL     1     -10.157  14.721  65.940  1.00  0.00    -0.343 A  
HETATM    6  C   UNL     1     -12.269  14.921  70.554  1.00  0.00    -0.388 A  
HETATM    7  C   UNL     1     -10.417  16.021  69.473  1.00  0.00    -0.286 A  
HETATM    8  C   UNL     1     -12.543  14.248  69.366  1.00  0.00     0.048 A  
HETATM    9  C   UNL     1     -11.290  13.915  65.899  1.00  0.00    -0.314 A  
HETATM   10  C   UNL     1     -12.069  13.763  67.039  1.00  0.00    -0.436 A  
HETATM   11  C   UNL     1     -10.629  15.313  68.265  1.00  0.00    -0.244 A  
HETATM   12  C   UNL     1     -11.750  14.441  68.222  1.00  0.00    -0.376 A  
ENDBRANCH   2   3
BRANCH   2  13
HETATM   13  N   UNL     1      -7.283  15.374  67.315  1.00  0.00    -0.207 NA 
HETATM   14  H   UNL     1      -6.463  15.841  66.926  1.00  0.00     0.000 HD 
BRANCH  13  15
HETATM   15  C   UNL     1      -7.030  14.967  68.693  1.00  0.00    -0.108 C  
BRANCH  15  16
HETATM   16  C   UNL     1      -7.093  13.446  68.821  1.00  0.00    -0.101 C  
BRANCH  16  17
HETATM   17  C   UNL     1      -7.143  12.806  67.431  1.00  0.00    -0.134 C  
BRANCH  17  18
HETATM   18  C   UNL     1      -8.301  11.852  67.311  1.00  0.00    -0.169 A  
HETATM   19  C   UNL     1     -10.325  10.865  68.246  1.00  0.00    -0.194 A  
HETATM   20  C   UNL     1     -11.356  10.771  69.343  1.00  0.00    -0.285 C  
HETATM   21  C   UNL     1      -9.274  11.793  68.319  1.00  0.00    -0.188 A  
HETATM   22  C   UNL     1      -9.431  10.061  66.134  1.00  0.00    -0.242 A  
HETATM   23  F   UNL     1     -11.163  11.667  70.354  1.00  0.00    -0.233 F  
HETATM   24  F   UNL     1     -12.622  10.990  68.892  1.00  0.00    -0.288 F  
HETATM   25  F   UNL     1     -11.376   9.544  69.935  1.00  0.00    -0.244 F  
HETATM   26  C   UNL     1     -10.395  10.002  67.142  1.00  0.00    -0.300 A  
HETATM   27  C   UNL     1      -8.388  10.980  66.223  1.00  0.00    -0.166 A  
ENDBRANCH  17  18
ENDBRANCH  16  17
ENDBRANCH  15  16
ENDBRANCH  13  15
ENDBRANCH   2  13
TORSDOF 6
ENDMDL
MODEL      172
REMARK 921   NORMALIZED FREE ENERGY PREDICTED BY IDOCK:   -4.30 KCAL/MOL
REMARK 922        TOTAL FREE ENERGY PREDICTED BY IDOCK:   -8.93 KCAL/MOL
REMARK 923 INTER-LIGAND FREE ENERGY PREDICTED BY IDOCK:   -6.85 KCAL/MOL
REMARK 924 INTRA-LIGAND FREE ENERGY PREDICTED BY IDOCK:   -2.08 KCAL/MOL
REMARK 927      BINDING AFFINITY PREDICTED BY RF-SCORE:    0.00 PKD
ROOT
HETATM    1  C   UNL     1     -10.686   7.773  67.781  1.00  0.00    -0.197 C  
HETATM    2  C   UNL     1     -10.545   9.293  67.582  1.00  0.00    -0.261 C  
ENDROOT
BRANCH   2   3
HETATM    3  C   UNL     1      -9.955   9.695  66.228  1.00  0.00    -0.335 A  
HETATM    4  C   UNL     1     -11.937  12.763  65.204  1.00  0.00    -0.466 A  
HETATM    5  C   UNL     1      -8.924   8.918  65.661  1.00  0.00    -0.249 A  
HETATM    6  C   UNL     1     -11.487  12.934  63.904  1.00  0.00    -0.504 A  
HETATM    7  C   UNL     1     -11.420  11.729  65.990  1.00  0.00    -0.281 A  
HETATM    8  C   UNL     1     -10.492  12.097  63.406  1.00  0.00    -0.450 A  
HETATM    9  C   UNL     1      -8.416   9.197  64.397  1.00  0.00    -0.198 A  
HETATM   10  C   UNL     1      -8.946  10.247  63.659  1.00  0.00    -0.259 A  
HETATM   11  C   UNL     1     -10.451  10.822  65.499  1.00  0.00    -0.264 A  
HETATM   12  C   UNL     1      -9.960  11.057  64.185  1.00  0.00    -0.385 A  
ENDBRANCH   2   3
BRANCH   2  13
HETATM   13  N   UNL     1      -9.903   9.962  68.727  1.00  0.00    -0.165 NA 
HETATM   14  H   UNL     1      -9.424  10.809  68.420  1.00  0.00     0.000 HD 
BRANCH  13  15
HETATM   15  C   UNL     1     -10.803  10.260  69.836  1.00  0.00    -0.302 C  
BRANCH  15  16
HETATM   16  C   UNL     1     -11.976  11.113  69.356  1.00  0.00    -0.420 C  
BRANCH  16  17
HETATM   17  C   UNL     1     -11.946  12.480  70.045  1.00  0.00    -0.372 C  
BRANCH  17  18
HETATM   18  C   UNL     1     -11.309  13.521  69.163  1.00  0.00    -0.333 A  
HETATM   19  C   UNL     1      -9.309  14.597  68.278  1.00  0.00    -0.199 A  
HETATM   20  C   UNL     1      -7.808  14.703  68.180  1.00  0.00    -0.128 C  
HETATM   21  C   UNL     1      -9.914  13.593  69.050  1.00  0.00     0.088 A  
HETATM   22  C   UNL     1     -11.513  15.454  67.717  1.00  0.00    -0.284 A  
HETATM   23  F   UNL     1      -7.144  13.739  68.880  1.00  0.00    -0.096 F  
HETATM   24  F   UNL     1      -7.359  14.603  66.898  1.00  0.00    -0.152 F  
HETATM   25  F   UNL     1      -7.337  15.892  68.650  1.00  0.00    -0.121 F  
HETATM   26  C   UNL     1     -10.122  15.525  67.611  1.00  0.00    -0.243 A  
HETATM   27  C   UNL     1     -12.101  14.459  68.493  1.00  0.00    -0.278 A  
ENDBRANCH  17  18
ENDBRANCH  16  17
ENDBRANCH  15  16
ENDBRANCH  13  15
ENDBRANCH   2  13
TORSDOF 6
ENDMDL
MODEL      173
REMARK 921   NORMALIZED FREE ENERGY PREDICTED BY IDOCK:   -4.30 KCAL/MOL
REMARK 922        TOTAL FREE ENERGY PREDICTED BY IDOCK:   -8.93 KCAL/MOL
REMARK 923 INTER-LIGAND FREE ENERGY PREDICTED BY IDOCK:   -8.06 KCAL/MOL
REMARK 924 INTRA-LIGAND FREE ENERGY PREDICTED BY IDOCK:   -0.88 KCAL/MOL
REMARK 927      BINDING AFFINITY PREDICTED BY RF-SCORE:    0.00 PKD
ROOT
HETATM    1  C   UNL     1      -8.664  10.374  64.248  1.00  0.00    -0.206 C  
HETATM    2  C   UNL     1     -10.145  10.414  64.661  1.00  0.00    -0.308 C  
ENDROOT
BRANCH   2   3
HETATM    3  C   UNL     1     -10.787  11.801  64.561  1.00  0.00    -0.377 A  
HETATM    4  C   UNL     1      -9.268  13.760  67.431  1.00  0.00    -0.221 A  
HETATM    5  C   UNL     1     -11.741  12.052  63.553  1.00  0.00    -0.566 A  
HETATM    6  C   UNL     1     -10.040  14.911  67.389  1.00  0.00    -0.228 A  
HETATM    7  C   UNL     1      -9.477  12.747  66.490  1.00  0.00    -0.253 A  
HETATM    8  C   UNL     1     -10.991  15.065  66.383  1.00  0.00    -0.336 A  
HETATM    9  C   UNL     1     -12.411  13.268  63.475  1.00  0.00    -0.442 A  
HETATM   10  C   UNL     1     -12.158  14.255  64.419  1.00  0.00    -0.490 A  
HETATM   11  C   UNL     1     -10.473  12.842  65.489  1.00  0.00    -0.305 A  
HETATM   12  C   UNL     1     -11.208  14.057  65.429  1.00  0.00    -0.319 A  
ENDBRANCH   2   3
BRANCH   2  13
HETATM   13  N   UNL     1     -10.399   9.739  65.947  1.00  0.00    -0.162 NA 
HETATM   14  H   UNL     1     -11.354   9.381  65.978  1.00  0.00     0.000 HD 
BRANCH  13  15
HETATM   15  C   UNL     1      -9.448   8.682  66.272  1.00  0.00    -0.241 C  
BRANCH  15  16
HETATM   16  C   UNL     1      -9.042   8.763  67.742  1.00  0.00    -0.143 C  
BRANCH  16  17
HETATM   17  C   UNL     1      -9.441  10.123  68.321  1.00  0.00    -0.147 C  
BRANCH  17  18
HETATM   18  C   UNL     1     -10.454   9.970  69.424  1.00  0.00    -0.252 A  
HETATM   19  C   UNL     1     -11.672   8.549  70.987  1.00  0.00    -0.310 A  
HETATM   20  C   UNL     1     -11.953   7.194  71.585  1.00  0.00    -0.318 C  
HETATM   21  C   UNL     1     -10.688   8.713  70.000  1.00  0.00    -0.233 A  
HETATM   22  C   UNL     1     -12.183  10.920  70.831  1.00  0.00    -0.485 A  
HETATM   23  F   UNL     1     -11.160   6.201  71.091  1.00  0.00    -0.301 F  
HETATM   24  F   UNL     1     -11.775   7.171  72.936  1.00  0.00    -0.251 F  
HETATM   25  F   UNL     1     -13.235   6.784  71.370  1.00  0.00    -0.368 F  
HETATM   26  C   UNL     1     -12.415   9.665  71.399  1.00  0.00    -0.465 A  
HETATM   27  C   UNL     1     -11.209  11.068  69.846  1.00  0.00    -0.327 A  
ENDBRANCH  17  18
ENDBRANCH  16  17
ENDBRANCH  15  16
ENDBRANCH  13  15
ENDBRANCH   2  13
TORSDOF 6
ENDMDL
MODEL      174
REMARK 921   NORMALIZED FREE ENERGY PREDICTED BY IDOCK:   -4.28 KCAL/MOL
REMARK 922        TOTAL FREE ENERGY PREDICTED BY IDOCK:   -8.91 KCAL/MOL
REMARK 923 INTER-LIGAND FREE ENERGY PREDICTED BY IDOCK:   -7.93 KCAL/MOL
REMARK 924 INTRA-LIGAND FREE ENERGY PREDICTED BY IDOCK:   -0.98 KCAL/MOL
REMARK 927      BINDING AFFINITY PREDICTED BY RF-SCORE:    0.00 PKD
ROOT
HETATM    1  C   UNL     1     -12.280  13.548  65.387  1.00  0.00    -0.482 C  
HETATM    2  C   UNL     1     -12.377  13.525  66.923  1.00  0.00    -0.238 C  
ENDROOT
BRANCH   2   3
HETATM    3  C   UNL     1     -11.625  14.666  67.615  1.00  0.00    -0.383 A  
HETATM    4  C   UNL     1     -12.747  14.482  71.234  1.00  0.00    -0.413 A  
HETATM    5  C   UNL     1     -10.777  15.498  66.857  1.00  0.00    -0.317 A  
HETATM    6  C   UNL     1     -12.189  15.649  71.732  1.00  0.00    -0.494 A  
HETATM    7  C   UNL     1     -12.542  14.128  69.897  1.00  0.00    -0.205 A  
HETATM    8  C   UNL     1     -11.394  16.439  70.905  1.00  0.00    -0.215 A  
HETATM    9  C   UNL     1     -10.140  16.596  67.426  1.00  0.00    -0.274 A  
HETATM   10  C   UNL     1     -10.355  16.900  68.764  1.00  0.00    -0.324 A  
HETATM   11  C   UNL     1     -11.790  14.935  69.010  1.00  0.00    -0.333 A  
HETATM   12  C   UNL     1     -11.177  16.093  69.561  1.00  0.00    -0.337 A  
ENDBRANCH   2   3
BRANCH   2  13
HETATM   13  N   UNL     1     -12.090  12.198  67.495  1.00  0.00    -0.499 NA 
HETATM   14  H   UNL     1     -12.769  11.513  67.162  1.00  0.00     0.000 HD 
BRANCH  13  15
HETATM   15  C   UNL     1     -10.731  11.721  67.262  1.00  0.00    -0.237 C  
BRANCH  15  16
HETATM   16  C   UNL     1     -10.012  11.488  68.590  1.00  0.00    -0.207 C  
BRANCH  16  17
HETATM   17  C   UNL     1     -10.961  10.820  69.588  1.00  0.00    -0.320 C  
BRANCH  17  18
HETATM   18  C   UNL     1     -10.304   9.646  70.263  1.00  0.00    -0.336 A  
HETATM   19  C   UNL     1     -10.482   7.563  71.517  1.00  0.00    -0.226 A  
HETATM   20  C   UNL     1     -11.317   6.486  72.163  1.00  0.00    -0.282 C  
HETATM   21  C   UNL     1     -11.084   8.631  70.834  1.00  0.00    -0.310 A  
HETATM   22  C   UNL     1      -8.302   8.527  71.044  1.00  0.00    -0.173 A  
HETATM   23  F   UNL     1     -12.659   6.656  71.992  1.00  0.00    -0.366 F  
HETATM   24  F   UNL     1     -11.036   5.244  71.677  1.00  0.00    -0.276 F  
HETATM   25  F   UNL     1     -11.122   6.412  73.510  1.00  0.00    -0.249 F  
HETATM   26  C   UNL     1      -9.084   7.520  71.614  1.00  0.00    -0.149 A  
HETATM   27  C   UNL     1      -8.911   9.586  70.376  1.00  0.00    -0.291 A  
ENDBRANCH  17  18
ENDBRANCH  16  17
ENDBRANCH  15  16
ENDBRANCH  13  15
ENDBRANCH   2  13
TORSDOF 6
ENDMDL
MODEL      175
REMARK 921   NORMALIZED FREE ENERGY PREDICTED BY IDOCK:   -4.27 KCAL/MOL
REMARK 922        TOTAL FREE ENERGY PREDICTED BY IDOCK:   -8.90 KCAL/MOL
REMARK 923 INTER-LIGAND FREE ENERGY PREDICTED BY IDOCK:   -6.83 KCAL/MOL
REMARK 924 INTRA-LIGAND FREE ENERGY PREDICTED BY IDOCK:   -2.06 KCAL/MOL
REMARK 927      BINDING AFFINITY PREDICTED BY RF-SCORE:    0.00 PKD
ROOT
HETATM    1  C   UNL     1     -10.801  15.253  70.694  1.00  0.00    -0.278 C  
HETATM    2  C   UNL     1     -11.221  14.522  69.407  1.00  0.00    -0.280 C  
ENDROOT
BRANCH   2   3
HETATM    3  C   UNL     1     -10.081  13.773  68.710  1.00  0.00    -0.141 A  
HETATM    4  C   UNL     1     -11.371  10.227  68.326  1.00  0.00    -0.245 A  
HETATM    5  C   UNL     1      -8.886  14.457  68.407  1.00  0.00    -0.182 A  
HETATM    6  C   UNL     1     -10.224   9.586  67.883  1.00  0.00    -0.251 A  
HETATM    7  C   UNL     1     -11.350  11.604  68.568  1.00  0.00    -0.332 A  
HETATM    8  C   UNL     1      -9.070  10.329  67.644  1.00  0.00    -0.144 A  
HETATM    9  C   UNL     1      -7.795  13.798  67.851  1.00  0.00    -0.159 A  
HETATM   10  C   UNL     1      -7.865  12.432  67.608  1.00  0.00    -0.163 A  
HETATM   11  C   UNL     1     -10.181  12.382  68.393  1.00  0.00    -0.227 A  
HETATM   12  C   UNL     1      -9.037  11.714  67.879  1.00  0.00    -0.171 A  
ENDBRANCH   2   3
BRANCH   2  13
HETATM   13  N   UNL     1     -12.009  15.373  68.497  1.00  0.00    -0.550 NA 
HETATM   14  H   UNL     1     -11.796  16.357  68.658  1.00  0.00     0.000 HD 
BRANCH  13  15
HETATM   15  C   UNL     1     -11.862  15.044  67.083  1.00  0.00    -0.125 C  
BRANCH  15  16
HETATM   16  C   UNL     1     -11.107  16.153  66.354  1.00  0.00     0.085 C  
BRANCH  16  17
HETATM   17  C   UNL     1     -10.216  15.551  65.265  1.00  0.00    -0.380 C  
BRANCH  17  18
HETATM   18  C   UNL     1     -10.798  14.270  64.730  1.00  0.00    -0.420 A  
HETATM   19  C   UNL     1     -10.537  11.919  64.140  1.00  0.00    -0.397 A  
HETATM   20  C   UNL     1      -9.696  10.669  64.063  1.00  0.00    -0.315 C  
HETATM   21  C   UNL     1     -10.023  13.103  64.692  1.00  0.00    -0.145 A  
HETATM   22  C   UNL     1     -12.623  13.075  63.675  1.00  0.00    -0.283 A  
HETATM   23  F   UNL     1      -8.446  10.817  64.588  1.00  0.00    -0.176 F  
HETATM   24  F   UNL     1     -10.255   9.621  64.729  1.00  0.00    -0.258 F  
HETATM   25  F   UNL     1      -9.512  10.243  62.782  1.00  0.00    -0.256 F  
HETATM   26  C   UNL     1     -11.845  11.916  63.635  1.00  0.00    -0.573 A  
HETATM   27  C   UNL     1     -12.099  14.246  64.217  1.00  0.00    -0.467 A  
ENDBRANCH  17  18
ENDBRANCH  16  17
ENDBRANCH  15  16
ENDBRANCH  13  15
ENDBRANCH   2  13
TORSDOF 6
ENDMDL
MODEL      176
REMARK 921   NORMALIZED FREE ENERGY PREDICTED BY IDOCK:   -4.26 KCAL/MOL
REMARK 922        TOTAL FREE ENERGY PREDICTED BY IDOCK:   -8.88 KCAL/MOL
REMARK 923 INTER-LIGAND FREE ENERGY PREDICTED BY IDOCK:   -8.09 KCAL/MOL
REMARK 924 INTRA-LIGAND FREE ENERGY PREDICTED BY IDOCK:   -0.79 KCAL/MOL
REMARK 927      BINDING AFFINITY PREDICTED BY RF-SCORE:    0.00 PKD
ROOT
HETATM    1  C   UNL     1      -7.343   9.254  70.484  1.00  0.00    -0.120 C  
HETATM    2  C   UNL     1      -8.502   8.569  71.230  1.00  0.00    -0.163 C  
ENDROOT
BRANCH   2   3
HETATM    3  C   UNL     1      -8.901   7.207  70.653  1.00  0.00    -0.149 A  
HETATM    4  C   UNL     1     -10.522   8.026  67.323  1.00  0.00    -0.384 A  
HETATM    5  C   UNL     1      -8.651   6.038  71.400  1.00  0.00    -0.129 A  
HETATM    6  C   UNL     1     -11.025   6.783  66.973  1.00  0.00    -0.439 A  
HETATM    7  C   UNL     1      -9.794   8.175  68.508  1.00  0.00    -0.190 A  
HETATM    8  C   UNL     1     -10.766   5.682  67.787  1.00  0.00    -0.250 A  
HETATM    9  C   UNL     1      -9.071   4.789  70.954  1.00  0.00    -0.181 A  
HETATM   10  C   UNL     1      -9.774   4.684  69.760  1.00  0.00    -0.280 A  
HETATM   11  C   UNL     1      -9.561   7.092  69.389  1.00  0.00    -0.153 A  
HETATM   12  C   UNL     1     -10.033   5.816  68.977  1.00  0.00    -0.222 A  
ENDBRANCH   2   3
BRANCH   2  13
HETATM   13  N   UNL     1      -9.645   9.469  71.461  1.00  0.00    -0.250 NA 
HETATM   14  H   UNL     1      -9.983   9.849  70.576  1.00  0.00     0.000 HD 
BRANCH  13  15
HETATM   15  C   UNL     1     -10.745   8.870  72.209  1.00  0.00    -0.149 C  
BRANCH  15  16
HETATM   16  C   UNL     1     -12.043   8.954  71.410  1.00  0.00    -0.381 C  
BRANCH  16  17
HETATM   17  C   UNL     1     -12.933  10.066  71.972  1.00  0.00    -0.514 C  
BRANCH  17  18
HETATM   18  C   UNL     1     -12.618  11.392  71.334  1.00  0.00    -0.439 A  
HETATM   19  C   UNL     1     -12.603  13.828  71.429  1.00  0.00    -0.433 A  
HETATM   20  C   UNL     1     -12.870  15.116  72.167  1.00  0.00    -0.344 C  
HETATM   21  C   UNL     1     -12.837  12.585  72.037  1.00  0.00    -0.259 A  
HETATM   22  C   UNL     1     -11.911  12.676  69.404  1.00  0.00    -0.356 A  
HETATM   23  F   UNL     1     -13.324  14.934  73.440  1.00  0.00    -0.539 F  
HETATM   24  F   UNL     1     -11.758  15.895  72.279  1.00  0.00    -0.434 F  
HETATM   25  F   UNL     1     -13.807  15.888  71.547  1.00  0.00    -0.498 F  
HETATM   26  C   UNL     1     -12.135  13.862  70.107  1.00  0.00    -0.418 A  
HETATM   27  C   UNL     1     -12.155  11.449  70.016  1.00  0.00    -0.417 A  
ENDBRANCH  17  18
ENDBRANCH  16  17
ENDBRANCH  15  16
ENDBRANCH  13  15
ENDBRANCH   2  13
TORSDOF 6
ENDMDL
MODEL      177
REMARK 921   NORMALIZED FREE ENERGY PREDICTED BY IDOCK:   -4.26 KCAL/MOL
REMARK 922        TOTAL FREE ENERGY PREDICTED BY IDOCK:   -8.88 KCAL/MOL
REMARK 923 INTER-LIGAND FREE ENERGY PREDICTED BY IDOCK:   -4.79 KCAL/MOL
REMARK 924 INTRA-LIGAND FREE ENERGY PREDICTED BY IDOCK:   -4.09 KCAL/MOL
REMARK 927      BINDING AFFINITY PREDICTED BY RF-SCORE:    0.00 PKD
ROOT
HETATM    1  C   UNL     1      -8.750   2.846  67.405  1.00  0.00    -0.141 C  
HETATM    2  C   UNL     1      -8.242   3.970  68.325  1.00  0.00    -0.091 C  
ENDROOT
BRANCH   2   3
HETATM    3  C   UNL     1      -9.351   4.849  68.912  1.00  0.00    -0.180 A  
HETATM    4  C   UNL     1      -9.076   4.344  72.662  1.00  0.00    -0.134 A  
HETATM    5  C   UNL     1     -10.194   5.573  68.045  1.00  0.00    -0.233 A  
HETATM    6  C   UNL     1     -10.220   4.999  73.091  1.00  0.00    -0.214 A  
HETATM    7  C   UNL     1      -8.759   4.315  71.300  1.00  0.00    -0.133 A  
HETATM    8  C   UNL     1     -11.023   5.659  72.163  1.00  0.00    -0.307 A  
HETATM    9  C   UNL     1     -11.265   6.317  68.529  1.00  0.00    -0.305 A  
HETATM   10  C   UNL     1     -11.532   6.334  69.892  1.00  0.00    -0.459 A  
HETATM   11  C   UNL     1      -9.581   4.924  70.322  1.00  0.00    -0.265 A  
HETATM   12  C   UNL     1     -10.713   5.642  70.793  1.00  0.00    -0.320 A  
ENDBRANCH   2   3
BRANCH   2  13
HETATM   13  N   UNL     1      -7.134   4.739  67.731  1.00  0.00    -0.061 NA 
HETATM   14  H   UNL     1      -7.483   5.605  67.319  1.00  0.00     0.000 HD 
BRANCH  13  15
HETATM   15  C   UNL     1      -6.034   5.018  68.647  1.00  0.00    -0.025 C  
BRANCH  15  16
HETATM   16  C   UNL     1      -5.850   6.525  68.817  1.00  0.00    -0.021 C  
BRANCH  16  17
HETATM   17  C   UNL     1      -6.166   6.931  70.259  1.00  0.00    -0.031 C  
BRANCH  17  18
HETATM   18  C   UNL     1      -7.419   7.762  70.329  1.00  0.00    -0.079 A  
HETATM   19  C   UNL     1      -9.082   9.167  69.231  1.00  0.00    -0.146 A  
HETATM   20  C   UNL     1      -9.636   9.823  67.991  1.00  0.00    -0.142 C  
HETATM   21  C   UNL     1      -7.948   8.342  69.167  1.00  0.00    -0.112 A  
HETATM   22  C   UNL     1      -9.166   8.818  71.635  1.00  0.00    -0.333 A  
HETATM   23  F   UNL     1      -8.948   9.514  66.855  1.00  0.00    -0.130 F  
HETATM   24  F   UNL     1     -10.930   9.472  67.748  1.00  0.00    -0.319 F  
HETATM   25  F   UNL     1      -9.626  11.183  68.072  1.00  0.00    -0.159 F  
HETATM   26  C   UNL     1      -9.687   9.396  70.476  1.00  0.00    -0.331 A  
HETATM   27  C   UNL     1      -8.035   8.008  71.560  1.00  0.00    -0.117 A  
ENDBRANCH  17  18
ENDBRANCH  16  17
ENDBRANCH  15  16
ENDBRANCH  13  15
ENDBRANCH   2  13
TORSDOF 6
ENDMDL
MODEL      178
REMARK 921   NORMALIZED FREE ENERGY PREDICTED BY IDOCK:   -4.25 KCAL/MOL
REMARK 922        TOTAL FREE ENERGY PREDICTED BY IDOCK:   -8.87 KCAL/MOL
REMARK 923 INTER-LIGAND FREE ENERGY PREDICTED BY IDOCK:   -5.07 KCAL/MOL
REMARK 924 INTRA-LIGAND FREE ENERGY PREDICTED BY IDOCK:   -3.80 KCAL/MOL
REMARK 927      BINDING AFFINITY PREDICTED BY RF-SCORE:    0.00 PKD
ROOT
HETATM    1  C   UNL     1      -8.198   8.245  64.840  1.00  0.00    -0.154 C  
HETATM    2  C   UNL     1      -9.336   8.187  65.874  1.00  0.00    -0.056 C  
ENDROOT
BRANCH   2   3
HETATM    3  C   UNL     1      -9.287   9.301  66.923  1.00  0.00    -0.193 A  
HETATM    4  C   UNL     1      -6.286   8.444  69.079  1.00  0.00    -0.044 A  
HETATM    5  C   UNL     1     -10.276  10.306  66.914  1.00  0.00    -0.286 A  
HETATM    6  C   UNL     1      -6.435   9.368  70.101  1.00  0.00    -0.058 A  
HETATM    7  C   UNL     1      -7.191   8.431  68.013  1.00  0.00    -0.091 A  
HETATM    8  C   UNL     1      -7.465  10.304  70.036  1.00  0.00    -0.143 A  
HETATM    9  C   UNL     1     -10.320  11.290  67.897  1.00  0.00    -0.205 A  
HETATM   10  C   UNL     1      -9.388  11.276  68.927  1.00  0.00    -0.084 A  
HETATM   11  C   UNL     1      -8.284   9.329  67.942  1.00  0.00    -0.115 A  
HETATM   12  C   UNL     1      -8.378  10.307  68.969  1.00  0.00    -0.148 A  
ENDBRANCH   2   3
BRANCH   2  13
HETATM   13  N   UNL     1      -9.518   6.843  66.450  1.00  0.00    -0.295 NA 
HETATM   14  H   UNL     1      -9.004   6.760  67.327  1.00  0.00     0.000 HD 
BRANCH  13  15
HETATM   15  C   UNL     1     -10.910   6.449  66.637  1.00  0.00    -0.182 C  
BRANCH  15  16
HETATM   16  C   UNL     1     -11.143   5.975  68.070  1.00  0.00    -0.233 C  
BRANCH  16  17
HETATM   17  C   UNL     1      -9.852   6.110  68.882  1.00  0.00    -0.167 C  
BRANCH  17  18
HETATM   18  C   UNL     1     -10.031   7.058  70.038  1.00  0.00    -0.188 A  
HETATM   19  C   UNL     1     -11.179   8.955  71.050  1.00  0.00    -0.342 A  
HETATM   20  C   UNL     1     -12.242  10.023  71.006  1.00  0.00    -0.365 C  
HETATM   21  C   UNL     1     -11.042   8.028  70.006  1.00  0.00    -0.154 A  
HETATM   22  C   UNL     1      -9.288   7.924  72.175  1.00  0.00    -0.225 A  
HETATM   23  F   UNL     1     -13.028   9.969  69.893  1.00  0.00    -0.068 F  
HETATM   24  F   UNL     1     -13.096   9.956  72.066  1.00  0.00    -0.434 F  
HETATM   25  F   UNL     1     -11.719  11.281  71.028  1.00  0.00    -0.371 F  
HETATM   26  C   UNL     1     -10.294   8.891  72.137  1.00  0.00    -0.313 A  
HETATM   27  C   UNL     1      -9.156   7.015  71.128  1.00  0.00    -0.153 A  
ENDBRANCH  17  18
ENDBRANCH  16  17
ENDBRANCH  15  16
ENDBRANCH  13  15
ENDBRANCH   2  13
TORSDOF 6
ENDMDL
MODEL      179
REMARK 921   NORMALIZED FREE ENERGY PREDICTED BY IDOCK:   -4.25 KCAL/MOL
REMARK 922        TOTAL FREE ENERGY PREDICTED BY IDOCK:   -8.87 KCAL/MOL
REMARK 923 INTER-LIGAND FREE ENERGY PREDICTED BY IDOCK:   -8.04 KCAL/MOL
REMARK 924 INTRA-LIGAND FREE ENERGY PREDICTED BY IDOCK:   -0.83 KCAL/MOL
REMARK 927      BINDING AFFINITY PREDICTED BY RF-SCORE:    0.00 PKD
ROOT
HETATM    1  C   UNL     1      -9.664  13.394  68.224  1.00  0.00    -0.226 C  
HETATM    2  C   UNL     1     -11.034  12.762  67.918  1.00  0.00    -0.234 C  
ENDROOT
BRANCH   2   3
HETATM    3  C   UNL     1     -11.452  12.851  66.447  1.00  0.00    -0.389 A  
HETATM    4  C   UNL     1      -9.370  10.200  64.707  1.00  0.00    -0.324 A  
HETATM    5  C   UNL     1     -12.401  13.816  66.053  1.00  0.00    -0.499 A  
HETATM    6  C   UNL     1      -9.655  10.483  63.381  1.00  0.00    -0.376 A  
HETATM    7  C   UNL     1      -9.977  10.943  65.725  1.00  0.00    -0.299 A  
HETATM    8  C   UNL     1     -10.577  11.481  63.074  1.00  0.00    -0.206 A  
HETATM    9  C   UNL     1     -12.748  13.989  64.718  1.00  0.00    -0.236 A  
HETATM   10  C   UNL     1     -12.135  13.215  63.741  1.00  0.00    -0.563 A  
HETATM   11  C   UNL     1     -10.874  12.003  65.451  1.00  0.00    -0.336 A  
HETATM   12  C   UNL     1     -11.197  12.233  64.086  1.00  0.00    -0.430 A  
ENDBRANCH   2   3
BRANCH   2  13
HETATM   13  N   UNL     1     -12.085  13.193  68.856  1.00  0.00    -0.264 NA 
HETATM   14  H   UNL     1     -12.971  12.740  68.630  1.00  0.00     0.000 HD 
BRANCH  13  15
HETATM   15  C   UNL     1     -11.757  12.995  70.264  1.00  0.00    -0.114 C  
BRANCH  15  16
HETATM   16  C   UNL     1     -12.341  11.677  70.768  1.00  0.00    -0.454 C  
BRANCH  16  17
HETATM   17  C   UNL     1     -11.920  10.531  69.844  1.00  0.00    -0.339 C  
BRANCH  17  18
HETATM   18  C   UNL     1     -10.710   9.814  70.381  1.00  0.00    -0.368 A  
HETATM   19  C   UNL     1      -9.711   8.274  71.985  1.00  0.00    -0.322 A  
HETATM   20  C   UNL     1      -9.840   7.319  73.145  1.00  0.00    -0.235 C  
HETATM   21  C   UNL     1     -10.841   8.902  71.438  1.00  0.00    -0.378 A  
HETATM   22  C   UNL     1      -8.312   9.468  70.396  1.00  0.00    -0.226 A  
HETATM   23  F   UNL     1     -11.124   7.133  73.562  1.00  0.00    -0.343 F  
HETATM   24  F   UNL     1      -9.362   6.076  72.855  1.00  0.00    -0.146 F  
HETATM   25  F   UNL     1      -9.151   7.737  74.244  1.00  0.00    -0.290 F  
HETATM   26  C   UNL     1      -8.447   8.564  71.452  1.00  0.00    -0.218 A  
HETATM   27  C   UNL     1      -9.440  10.092  69.868  1.00  0.00    -0.221 A  
ENDBRANCH  17  18
ENDBRANCH  16  17
ENDBRANCH  15  16
ENDBRANCH  13  15
ENDBRANCH   2  13
TORSDOF 6
ENDMDL
MODEL      180
REMARK 921   NORMALIZED FREE ENERGY PREDICTED BY IDOCK:   -4.24 KCAL/MOL
REMARK 922        TOTAL FREE ENERGY PREDICTED BY IDOCK:   -8.85 KCAL/MOL
REMARK 923 INTER-LIGAND FREE ENERGY PREDICTED BY IDOCK:   -7.54 KCAL/MOL
REMARK 924 INTRA-LIGAND FREE ENERGY PREDICTED BY IDOCK:   -1.32 KCAL/MOL
REMARK 927      BINDING AFFINITY PREDICTED BY RF-SCORE:    0.00 PKD
ROOT
HETATM    1  C   UNL     1      -8.990   9.668  69.179  1.00  0.00    -0.154 C  
HETATM    2  C   UNL     1     -10.487   9.536  68.847  1.00  0.00    -0.216 C  
ENDROOT
BRANCH   2   3
HETATM    3  C   UNL     1     -11.410  10.308  69.795  1.00  0.00    -0.334 A  
HETATM    4  C   UNL     1     -11.387  13.858  68.460  1.00  0.00    -0.311 A  
HETATM    5  C   UNL     1     -12.002   9.637  70.885  1.00  0.00    -0.391 A  
HETATM    6  C   UNL     1     -12.068  14.515  69.473  1.00  0.00    -0.348 A  
HETATM    7  C   UNL     1     -11.194  12.475  68.533  1.00  0.00    -0.322 A  
HETATM    8  C   UNL     1     -12.590  13.783  70.538  1.00  0.00    -0.361 A  
HETATM    9  C   UNL     1     -12.779  10.315  71.818  1.00  0.00    -0.535 A  
HETATM   10  C   UNL     1     -12.963  11.686  71.696  1.00  0.00    -0.483 A  
HETATM   11  C   UNL     1     -11.658  11.706  69.627  1.00  0.00    -0.401 A  
HETATM   12  C   UNL     1     -12.407  12.392  70.622  1.00  0.00    -0.367 A  
ENDBRANCH   2   3
BRANCH   2  13
HETATM   13  N   UNL     1     -10.903   8.140  68.626  1.00  0.00    -0.421 NA 
HETATM   14  H   UNL     1     -11.301   8.032  67.693  1.00  0.00     0.000 HD 
BRANCH  13  15
HETATM   15  C   UNL     1      -9.852   7.154  68.848  1.00  0.00    -0.156 C  
BRANCH  15  16
HETATM   16  C   UNL     1     -10.451   5.834  69.331  1.00  0.00    -0.360 C  
BRANCH  16  17
HETATM   17  C   UNL     1     -11.430   6.093  70.479  1.00  0.00    -0.330 C  
BRANCH  17  18
HETATM   18  C   UNL     1     -10.718   6.129  71.805  1.00  0.00    -0.289 A  
HETATM   19  C   UNL     1      -8.908   6.972  73.203  1.00  0.00    -0.151 A  
HETATM   20  C   UNL     1      -7.699   7.852  73.399  1.00  0.00    -0.149 C  
HETATM   21  C   UNL     1      -9.615   6.974  71.991  1.00  0.00    -0.149 A  
HETATM   22  C   UNL     1     -10.427   5.276  74.054  1.00  0.00    -0.318 A  
HETATM   23  F   UNL     1      -7.405   8.628  72.316  1.00  0.00    -0.122 F  
HETATM   24  F   UNL     1      -7.844   8.715  74.443  1.00  0.00    -0.276 F  
HETATM   25  F   UNL     1      -6.569   7.137  73.659  1.00  0.00    -0.065 F  
HETATM   26  C   UNL     1      -9.326   6.117  74.233  1.00  0.00    -0.167 A  
HETATM   27  C   UNL     1     -11.115   5.281  72.843  1.00  0.00    -0.365 A  
ENDBRANCH  17  18
ENDBRANCH  16  17
ENDBRANCH  15  16
ENDBRANCH  13  15
ENDBRANCH   2  13
TORSDOF 6
ENDMDL
MODEL      181
REMARK 921   NORMALIZED FREE ENERGY PREDICTED BY IDOCK:   -4.23 KCAL/MOL
REMARK 922        TOTAL FREE ENERGY PREDICTED BY IDOCK:   -8.84 KCAL/MOL
REMARK 923 INTER-LIGAND FREE ENERGY PREDICTED BY IDOCK:   -7.85 KCAL/MOL
REMARK 924 INTRA-LIGAND FREE ENERGY PREDICTED BY IDOCK:   -0.99 KCAL/MOL
REMARK 927      BINDING AFFINITY PREDICTED BY RF-SCORE:    0.00 PKD
ROOT
HETATM    1  C   UNL     1      -9.300  11.389  68.772  1.00  0.00    -0.115 C  
HETATM    2  C   UNL     1     -10.770  10.990  68.552  1.00  0.00    -0.202 C  
ENDROOT
BRANCH   2   3
HETATM    3  C   UNL     1     -11.702  11.367  69.708  1.00  0.00    -0.418 A  
HETATM    4  C   UNL     1     -11.816  15.158  69.635  1.00  0.00    -0.362 A  
HETATM    5  C   UNL     1     -12.255  10.351  70.513  1.00  0.00    -0.412 A  
HETATM    6  C   UNL     1     -12.501  15.414  70.812  1.00  0.00    -0.476 A  
HETATM    7  C   UNL     1     -11.577  13.838  69.241  1.00  0.00    -0.362 A  
HETATM    8  C   UNL     1     -12.981  14.351  71.573  1.00  0.00    -0.406 A  
HETATM    9  C   UNL     1     -13.039  10.650  71.622  1.00  0.00    -0.555 A  
HETATM   10  C   UNL     1     -13.268  11.976  71.966  1.00  0.00    -0.481 A  
HETATM   11  C   UNL     1     -11.998  12.732  70.018  1.00  0.00    -0.371 A  
HETATM   12  C   UNL     1     -12.752  13.020  71.187  1.00  0.00    -0.372 A  
ENDBRANCH   2   3
BRANCH   2  13
HETATM   13  N   UNL     1     -10.923   9.594  68.104  1.00  0.00    -0.469 NA 
HETATM   14  H   UNL     1     -11.145   9.563  67.109  1.00  0.00     0.000 HD 
BRANCH  13  15
HETATM   15  C   UNL     1      -9.778   8.737  68.397  1.00  0.00    -0.162 C  
BRANCH  15  16
HETATM   16  C   UNL     1      -9.915   7.399  67.673  1.00  0.00    -0.213 C  
BRANCH  16  17
HETATM   17  C   UNL     1     -11.242   6.735  68.048  1.00  0.00    -0.159 C  
BRANCH  17  18
HETATM   18  C   UNL     1     -11.231   6.261  69.476  1.00  0.00    -0.500 A  
HETATM   19  C   UNL     1     -10.398   4.736  71.186  1.00  0.00    -0.188 A  
HETATM   20  C   UNL     1      -9.503   3.597  71.608  1.00  0.00    -0.145 C  
HETATM   21  C   UNL     1     -10.373   5.225  69.870  1.00  0.00    -0.374 A  
HETATM   22  C   UNL     1     -12.141   6.343  71.721  1.00  0.00    -0.351 A  
HETATM   23  F   UNL     1      -8.694   3.138  70.611  1.00  0.00    -0.090 F  
HETATM   24  F   UNL     1      -8.672   3.937  72.632  1.00  0.00    -0.094 F  
HETATM   25  F   UNL     1     -10.207   2.514  72.041  1.00  0.00    -0.226 F  
HETATM   26  C   UNL     1     -11.288   5.307  72.107  1.00  0.00    -0.078 A  
HETATM   27  C   UNL     1     -12.113   6.813  70.410  1.00  0.00    -0.270 A  
ENDBRANCH  17  18
ENDBRANCH  16  17
ENDBRANCH  15  16
ENDBRANCH  13  15
ENDBRANCH   2  13
TORSDOF 6
ENDMDL
MODEL      182
REMARK 921   NORMALIZED FREE ENERGY PREDICTED BY IDOCK:   -4.23 KCAL/MOL
REMARK 922        TOTAL FREE ENERGY PREDICTED BY IDOCK:   -8.84 KCAL/MOL
REMARK 923 INTER-LIGAND FREE ENERGY PREDICTED BY IDOCK:   -8.35 KCAL/MOL
REMARK 924 INTRA-LIGAND FREE ENERGY PREDICTED BY IDOCK:   -0.49 KCAL/MOL
REMARK 927      BINDING AFFINITY PREDICTED BY RF-SCORE:    0.00 PKD
ROOT
HETATM    1  C   UNL     1      -7.456  13.730  67.694  1.00  0.00    -0.187 C  
HETATM    2  C   UNL     1      -8.987  13.683  67.550  1.00  0.00    -0.209 C  
ENDROOT
BRANCH   2   3
HETATM    3  C   UNL     1      -9.485  12.745  66.447  1.00  0.00    -0.229 A  
HETATM    4  C   UNL     1     -11.607  14.954  64.209  1.00  0.00    -0.201 A  
HETATM    5  C   UNL     1      -9.129  11.381  66.483  1.00  0.00    -0.193 A  
HETATM    6  C   UNL     1     -12.170  14.002  63.374  1.00  0.00     0.132 A  
HETATM    7  C   UNL     1     -10.699  14.563  65.198  1.00  0.00    -0.422 A  
HETATM    8  C   UNL     1     -11.795  12.667  63.501  1.00  0.00    -0.619 A  
HETATM    9  C   UNL     1      -9.626  10.477  65.550  1.00  0.00    -0.282 A  
HETATM   10  C   UNL     1     -10.510  10.912  64.572  1.00  0.00    -0.393 A  
HETATM   11  C   UNL     1     -10.338  13.208  65.396  1.00  0.00    -0.313 A  
HETATM   12  C   UNL     1     -10.881  12.260  64.487  1.00  0.00    -0.355 A  
ENDBRANCH   2   3
BRANCH   2  13
HETATM   13  N   UNL     1      -9.598  15.023  67.504  1.00  0.00    -0.203 NA 
HETATM   14  H   UNL     1     -10.616  14.950  67.514  1.00  0.00     0.000 HD 
BRANCH  13  15
HETATM   15  C   UNL     1      -9.144  15.931  68.552  1.00  0.00    -0.200 C  
BRANCH  15  16
HETATM   16  C   UNL     1     -10.319  16.377  69.419  1.00  0.00    -0.290 C  
BRANCH  16  17
HETATM   17  C   UNL     1     -11.613  15.729  68.920  1.00  0.00    -0.400 C  
BRANCH  17  18
HETATM   18  C   UNL     1     -12.208  14.824  69.965  1.00  0.00    -0.383 A  
HETATM   19  C   UNL     1     -12.593  12.582  70.843  1.00  0.00    -0.331 A  
HETATM   20  C   UNL     1     -12.394  11.089  70.766  1.00  0.00    -0.398 C  
HETATM   21  C   UNL     1     -11.993  13.440  69.908  1.00  0.00    -0.408 A  
HETATM   22  C   UNL     1     -13.619  14.509  71.910  1.00  0.00    -0.484 A  
HETATM   23  F   UNL     1     -11.584  10.696  69.742  1.00  0.00    -0.265 F  
HETATM   24  F   UNL     1     -11.833  10.577  71.898  1.00  0.00    -0.267 F  
HETATM   25  F   UNL     1     -13.565  10.416  70.592  1.00  0.00    -0.348 F  
HETATM   26  C   UNL     1     -13.405  13.131  71.846  1.00  0.00    -0.546 A  
HETATM   27  C   UNL     1     -13.026  15.349  70.971  1.00  0.00    -0.556 A  
ENDBRANCH  17  18
ENDBRANCH  16  17
ENDBRANCH  15  16
ENDBRANCH  13  15
ENDBRANCH   2  13
TORSDOF 6
ENDMDL
MODEL      183
REMARK 921   NORMALIZED FREE ENERGY PREDICTED BY IDOCK:   -4.22 KCAL/MOL
REMARK 922        TOTAL FREE ENERGY PREDICTED BY IDOCK:   -8.83 KCAL/MOL
REMARK 923 INTER-LIGAND FREE ENERGY PREDICTED BY IDOCK:   -7.13 KCAL/MOL
REMARK 924 INTRA-LIGAND FREE ENERGY PREDICTED BY IDOCK:   -1.70 KCAL/MOL
REMARK 927      BINDING AFFINITY PREDICTED BY RF-SCORE:    0.00 PKD
ROOT
HETATM    1  C   UNL     1      -8.530  11.087  68.542  1.00  0.00    -0.153 C  
HETATM    2  C   UNL     1      -8.624  12.454  67.841  1.00  0.00    -0.171 C  
ENDROOT
BRANCH   2   3
HETATM    3  C   UNL     1      -9.821  12.594  66.897  1.00  0.00    -0.234 A  
HETATM    4  C   UNL     1      -8.985  10.339  63.964  1.00  0.00    -0.261 A  
HETATM    5  C   UNL     1     -10.877  13.464  67.239  1.00  0.00    -0.278 A  
HETATM    6  C   UNL     1     -10.002  10.677  63.085  1.00  0.00    -0.286 A  
HETATM    7  C   UNL     1      -8.931  10.931  65.229  1.00  0.00    -0.202 A  
HETATM    8  C   UNL     1     -10.987  11.576  63.487  1.00  0.00    -0.453 A  
HETATM    9  C   UNL     1     -11.943  13.685  66.375  1.00  0.00    -0.466 A  
HETATM   10  C   UNL     1     -11.967  13.060  65.135  1.00  0.00    -0.440 A  
HETATM   11  C   UNL     1      -9.880  11.893  65.651  1.00  0.00    -0.266 A  
HETATM   12  C   UNL     1     -10.948  12.176  64.757  1.00  0.00    -0.356 A  
ENDBRANCH   2   3
BRANCH   2  13
HETATM   13  N   UNL     1      -7.347  12.877  67.240  1.00  0.00    -0.314 NA 
HETATM   14  H   UNL     1      -7.335  12.664  66.242  1.00  0.00     0.000 HD 
BRANCH  13  15
HETATM   15  C   UNL     1      -7.008  14.278  67.464  1.00  0.00    -0.155 C  
BRANCH  15  16
HETATM   16  C   UNL     1      -6.970  14.586  68.960  1.00  0.00    -0.121 C  
BRANCH  16  17
HETATM   17  C   UNL     1      -7.300  16.062  69.199  1.00  0.00    -0.209 C  
BRANCH  17  18
HETATM   18  C   UNL     1      -8.774  16.323  69.046  1.00  0.00    -0.246 A  
HETATM   19  C   UNL     1     -11.076  15.872  69.713  1.00  0.00    -0.324 A  
HETATM   20  C   UNL     1     -12.074  15.159  70.591  1.00  0.00    -0.329 C  
HETATM   21  C   UNL     1      -9.696  15.682  69.887  1.00  0.00    -0.148 A  
HETATM   22  C   UNL     1     -10.608  17.366  67.855  1.00  0.00    -0.383 A  
HETATM   23  F   UNL     1     -11.500  14.364  71.539  1.00  0.00    -0.305 F  
HETATM   24  F   UNL     1     -12.882  16.020  71.271  1.00  0.00    -0.501 F  
HETATM   25  F   UNL     1     -12.906  14.347  69.881  1.00  0.00    -0.347 F  
HETATM   26  C   UNL     1     -11.522  16.723  68.692  1.00  0.00     0.069 A  
HETATM   27  C   UNL     1      -9.241  17.163  68.031  1.00  0.00    -0.250 A  
ENDBRANCH  17  18
ENDBRANCH  16  17
ENDBRANCH  15  16
ENDBRANCH  13  15
ENDBRANCH   2  13
TORSDOF 6
ENDMDL
MODEL      184
REMARK 921   NORMALIZED FREE ENERGY PREDICTED BY IDOCK:   -4.21 KCAL/MOL
REMARK 922        TOTAL FREE ENERGY PREDICTED BY IDOCK:   -8.82 KCAL/MOL
REMARK 923 INTER-LIGAND FREE ENERGY PREDICTED BY IDOCK:   -8.14 KCAL/MOL
REMARK 924 INTRA-LIGAND FREE ENERGY PREDICTED BY IDOCK:   -0.67 KCAL/MOL
REMARK 927      BINDING AFFINITY PREDICTED BY RF-SCORE:    0.00 PKD
ROOT
HETATM    1  C   UNL     1     -12.227  14.075  69.755  1.00  0.00    -0.396 C  
HETATM    2  C   UNL     1     -11.124  13.354  68.960  1.00  0.00    -0.249 C  
ENDROOT
BRANCH   2   3
HETATM    3  C   UNL     1     -11.275  13.462  67.439  1.00  0.00    -0.311 A  
HETATM    4  C   UNL     1     -10.242  17.021  66.633  1.00  0.00    -0.310 A  
HETATM    5  C   UNL     1     -11.749  12.352  66.709  1.00  0.00    -0.430 A  
HETATM    6  C   UNL     1     -10.596  17.092  65.295  1.00  0.00    -0.096 A  
HETATM    7  C   UNL     1     -10.425  15.829  67.341  1.00  0.00    -0.297 A  
HETATM    8  C   UNL     1     -11.095  15.959  64.656  1.00  0.00    -0.368 A  
HETATM    9  C   UNL     1     -11.980  12.431  65.340  1.00  0.00    -0.457 A  
HETATM   10  C   UNL     1     -11.765  13.630  64.672  1.00  0.00    -0.414 A  
HETATM   11  C   UNL     1     -10.984  14.675  66.741  1.00  0.00    -0.323 A  
HETATM   12  C   UNL     1     -11.280  14.754  65.353  1.00  0.00    -0.347 A  
ENDBRANCH   2   3
BRANCH   2  13
HETATM   13  N   UNL     1     -10.885  11.979  69.432  1.00  0.00    -0.452 NA 
HETATM   14  H   UNL     1      -9.992  11.922  69.923  1.00  0.00     0.000 HD 
BRANCH  13  15
HETATM   15  C   UNL     1     -11.955  11.429  70.257  1.00  0.00    -0.373 C  
BRANCH  15  16
HETATM   16  C   UNL     1     -11.558  10.058  70.801  1.00  0.00    -0.444 C  
BRANCH  16  17
HETATM   17  C   UNL     1     -10.742   9.295  69.753  1.00  0.00    -0.245 C  
BRANCH  17  18
HETATM   18  C   UNL     1     -10.674   7.827  70.079  1.00  0.00    -0.245 A  
HETATM   19  C   UNL     1     -10.663   6.030  71.727  1.00  0.00    -0.294 A  
HETATM   20  C   UNL     1     -10.748   5.559  73.157  1.00  0.00    -0.268 C  
HETATM   21  C   UNL     1     -10.786   7.391  71.407  1.00  0.00    -0.250 A  
HETATM   22  C   UNL     1     -10.328   5.535  69.371  1.00  0.00    -0.348 A  
HETATM   23  F   UNL     1     -10.968   6.563  74.053  1.00  0.00    -0.214 F  
HETATM   24  F   UNL     1     -11.754   4.661  73.353  1.00  0.00    -0.388 F  
HETATM   25  F   UNL     1      -9.608   4.938  73.569  1.00  0.00    -0.130 F  
HETATM   26  C   UNL     1     -10.437   5.107  70.696  1.00  0.00    -0.269 A  
HETATM   27  C   UNL     1     -10.443   6.890  69.067  1.00  0.00    -0.223 A  
ENDBRANCH  17  18
ENDBRANCH  16  17
ENDBRANCH  15  16
ENDBRANCH  13  15
ENDBRANCH   2  13
TORSDOF 6
ENDMDL
MODEL      185
REMARK 921   NORMALIZED FREE ENERGY PREDICTED BY IDOCK:   -4.21 KCAL/MOL
REMARK 922        TOTAL FREE ENERGY PREDICTED BY IDOCK:   -8.81 KCAL/MOL
REMARK 923 INTER-LIGAND FREE ENERGY PREDICTED BY IDOCK:   -7.68 KCAL/MOL
REMARK 924 INTRA-LIGAND FREE ENERGY PREDICTED BY IDOCK:   -1.13 KCAL/MOL
REMARK 927      BINDING AFFINITY PREDICTED BY RF-SCORE:    0.00 PKD
ROOT
HETATM    1  C   UNL     1     -12.191  14.456  66.559  1.00  0.00    -0.358 C  
HETATM    2  C   UNL     1     -11.502  13.608  67.642  1.00  0.00    -0.325 C  
ENDROOT
BRANCH   2   3
HETATM    3  C   UNL     1     -11.958  13.922  69.069  1.00  0.00    -0.402 A  
HETATM    4  C   UNL     1     -12.516  10.523  70.658  1.00  0.00    -0.456 A  
HETATM    5  C   UNL     1     -12.101  15.266  69.471  1.00  0.00    -0.320 A  
HETATM    6  C   UNL     1     -13.109  10.896  71.854  1.00  0.00    -0.537 A  
HETATM    7  C   UNL     1     -12.101  11.503  69.751  1.00  0.00    -0.374 A  
HETATM    8  C   UNL     1     -13.251  12.248  72.159  1.00  0.00    -0.466 A  
HETATM    9  C   UNL     1     -12.592  15.598  70.730  1.00  0.00    -0.482 A  
HETATM   10  C   UNL     1     -12.973  14.592  71.608  1.00  0.00    -0.408 A  
HETATM   11  C   UNL     1     -12.281  12.885  70.000  1.00  0.00    -0.292 A  
HETATM   12  C   UNL     1     -12.835  13.243  71.259  1.00  0.00    -0.398 A  
ENDBRANCH   2   3
BRANCH   2  13
HETATM   13  N   UNL     1     -10.037  13.564  67.487  1.00  0.00    -0.231 NA 
HETATM   14  H   UNL     1      -9.591  13.365  68.383  1.00  0.00     0.000 HD 
BRANCH  13  15
HETATM   15  C   UNL     1      -9.565  12.634  66.467  1.00  0.00    -0.248 C  
BRANCH  15  16
HETATM   16  C   UNL     1     -10.320  11.309  66.562  1.00  0.00    -0.284 C  
BRANCH  16  17
HETATM   17  C   UNL     1      -9.541  10.324  67.437  1.00  0.00    -0.183 C  
BRANCH  17  18
HETATM   18  C   UNL     1      -9.204   9.069  66.678  1.00  0.00    -0.211 A  
HETATM   19  C   UNL     1      -9.506   6.677  66.317  1.00  0.00    -0.120 A  
HETATM   20  C   UNL     1     -10.179   5.372  66.658  1.00  0.00    -0.243 C  
HETATM   21  C   UNL     1      -9.856   7.865  66.977  1.00  0.00    -0.293 A  
HETATM   22  C   UNL     1      -7.849   7.910  65.037  1.00  0.00    -0.120 A  
HETATM   23  F   UNL     1     -11.136   5.484  67.624  1.00  0.00    -0.258 F  
HETATM   24  F   UNL     1     -10.802   4.807  65.586  1.00  0.00    -0.316 F  
HETATM   25  F   UNL     1      -9.301   4.436  67.115  1.00  0.00    -0.123 F  
HETATM   26  C   UNL     1      -8.499   6.713  65.341  1.00  0.00    -0.112 A  
HETATM   27  C   UNL     1      -8.199   9.081  65.706  1.00  0.00    -0.120 A  
ENDBRANCH  17  18
ENDBRANCH  16  17
ENDBRANCH  15  16
ENDBRANCH  13  15
ENDBRANCH   2  13
TORSDOF 6
ENDMDL
MODEL      186
REMARK 921   NORMALIZED FREE ENERGY PREDICTED BY IDOCK:   -4.20 KCAL/MOL
REMARK 922        TOTAL FREE ENERGY PREDICTED BY IDOCK:   -8.81 KCAL/MOL
REMARK 923 INTER-LIGAND FREE ENERGY PREDICTED BY IDOCK:   -4.66 KCAL/MOL
REMARK 924 INTRA-LIGAND FREE ENERGY PREDICTED BY IDOCK:   -4.14 KCAL/MOL
REMARK 927      BINDING AFFINITY PREDICTED BY RF-SCORE:    0.00 PKD
ROOT
HETATM    1  C   UNL     1      -9.223   3.108  66.064  1.00  0.00    -0.138 C  
HETATM    2  C   UNL     1      -8.494   3.967  67.113  1.00  0.00    -0.100 C  
ENDROOT
BRANCH   2   3
HETATM    3  C   UNL     1      -9.423   4.827  67.974  1.00  0.00    -0.182 A  
HETATM    4  C   UNL     1      -8.967   3.486  71.492  1.00  0.00    -0.158 A  
HETATM    5  C   UNL     1     -10.211   5.823  67.361  1.00  0.00    -0.243 A  
HETATM    6  C   UNL     1      -9.973   4.170  72.157  1.00  0.00    -0.243 A  
HETATM    7  C   UNL     1      -8.751   3.716  70.130  1.00  0.00    -0.122 A  
HETATM    8  C   UNL     1     -10.736   5.111  71.469  1.00  0.00    -0.165 A  
HETATM    9  C   UNL     1     -11.129   6.572  68.090  1.00  0.00    -0.332 A  
HETATM   10  C   UNL     1     -11.297   6.324  69.447  1.00  0.00    -0.448 A  
HETATM   11  C   UNL     1      -9.543   4.622  69.384  1.00  0.00    -0.257 A  
HETATM   12  C   UNL     1     -10.526   5.355  70.101  1.00  0.00    -0.361 A  
ENDBRANCH   2   3
BRANCH   2  13
HETATM   13  N   UNL     1      -7.354   4.712  66.549  1.00  0.00    -0.080 NA 
HETATM   14  H   UNL     1      -7.655   5.632  66.228  1.00  0.00     0.000 HD 
BRANCH  13  15
HETATM   15  C   UNL     1      -6.211   4.836  67.447  1.00  0.00    -0.039 C  
BRANCH  15  16
HETATM   16  C   UNL     1      -6.183   6.222  68.088  1.00  0.00    -0.032 C  
BRANCH  16  17
HETATM   17  C   UNL     1      -6.134   6.092  69.613  1.00  0.00    -0.026 C  
BRANCH  17  18
HETATM   18  C   UNL     1      -7.108   7.032  70.272  1.00  0.00    -0.067 A  
HETATM   19  C   UNL     1      -8.352   7.736  72.247  1.00  0.00    -0.154 A  
HETATM   20  C   UNL     1      -8.696   7.581  73.707  1.00  0.00    -0.223 C  
HETATM   21  C   UNL     1      -7.400   6.904  71.637  1.00  0.00    -0.084 A  
HETATM   22  C   UNL     1      -8.711   8.842  70.113  1.00  0.00    -0.168 A  
HETATM   23  F   UNL     1      -7.991   6.597  74.335  1.00  0.00    -0.111 F  
HETATM   24  F   UNL     1      -8.464   8.717  74.423  1.00  0.00    -0.236 F  
HETATM   25  F   UNL     1     -10.010   7.278  73.903  1.00  0.00    -0.290 F  
HETATM   26  C   UNL     1      -9.001   8.708  71.472  1.00  0.00    -0.302 A  
HETATM   27  C   UNL     1      -7.771   8.004  69.517  1.00  0.00    -0.103 A  
ENDBRANCH  17  18
ENDBRANCH  16  17
ENDBRANCH  15  16
ENDBRANCH  13  15
ENDBRANCH   2  13
TORSDOF 6
ENDMDL
MODEL      187
REMARK 921   NORMALIZED FREE ENERGY PREDICTED BY IDOCK:   -4.19 KCAL/MOL
REMARK 922        TOTAL FREE ENERGY PREDICTED BY IDOCK:   -8.79 KCAL/MOL
REMARK 923 INTER-LIGAND FREE ENERGY PREDICTED BY IDOCK:   -8.11 KCAL/MOL
REMARK 924 INTRA-LIGAND FREE ENERGY PREDICTED BY IDOCK:   -0.68 KCAL/MOL
REMARK 927      BINDING AFFINITY PREDICTED BY RF-SCORE:    0.00 PKD
ROOT
HETATM    1  C   UNL     1     -10.944  16.351  69.162  1.00  0.00    -0.324 C  
HETATM    2  C   UNL     1      -9.885  16.393  68.045  1.00  0.00    -0.238 C  
ENDROOT
BRANCH   2   3
HETATM    3  C   UNL     1      -9.747  17.757  67.363  1.00  0.00    -0.284 A  
HETATM    4  C   UNL     1      -6.512  19.182  68.738  1.00  0.00    -0.286 A  
HETATM    5  C   UNL     1     -10.752  18.194  66.476  1.00  0.00    -0.173 A  
HETATM    6  C   UNL     1      -6.569  20.472  68.236  1.00  0.00    -0.315 A  
HETATM    7  C   UNL     1      -7.527  18.270  68.433  1.00  0.00    -0.292 A  
HETATM    8  C   UNL     1      -7.619  20.838  67.397  1.00  0.00    -0.349 A  
HETATM    9  C   UNL     1     -10.711  19.459  65.899  1.00  0.00    -0.501 A  
HETATM   10  C   UNL     1      -9.673  20.326  66.215  1.00  0.00    -0.455 A  
HETATM   11  C   UNL     1      -8.639  18.621  67.632  1.00  0.00    -0.288 A  
HETATM   12  C   UNL     1      -8.643  19.930  67.078  1.00  0.00    -0.389 A  
ENDBRANCH   2   3
BRANCH   2  13
HETATM   13  N   UNL     1     -10.008  15.270  67.098  1.00  0.00    -0.232 NA 
HETATM   14  H   UNL     1      -9.401  15.417  66.292  1.00  0.00     0.000 HD 
BRANCH  13  15
HETATM   15  C   UNL     1      -9.766  13.956  67.684  1.00  0.00    -0.226 C  
BRANCH  15  16
HETATM   16  C   UNL     1     -11.087  13.239  67.953  1.00  0.00    -0.287 C  
BRANCH  16  17
HETATM   17  C   UNL     1     -10.899  12.187  69.048  1.00  0.00    -0.208 C  
BRANCH  17  18
HETATM   18  C   UNL     1     -11.786  12.466  70.231  1.00  0.00    -0.315 A  
HETATM   19  C   UNL     1     -12.464  13.930  72.059  1.00  0.00    -0.198 A  
HETATM   20  C   UNL     1     -12.335  15.223  72.824  1.00  0.00    -0.396 C  
HETATM   21  C   UNL     1     -11.684  13.684  70.919  1.00  0.00     0.103 A  
HETATM   22  C   UNL     1     -13.467  11.729  71.814  1.00  0.00    -0.192 A  
HETATM   23  F   UNL     1     -11.428  16.088  72.288  1.00  0.00    -0.469 F  
HETATM   24  F   UNL     1     -13.509  15.911  72.891  1.00  0.00    -0.520 F  
HETATM   25  F   UNL     1     -11.942  15.028  74.114  1.00  0.00    -0.618 F  
HETATM   26  C   UNL     1     -13.359  12.942  72.498  1.00  0.00    -0.402 A  
HETATM   27  C   UNL     1     -12.680  11.494  70.689  1.00  0.00    -0.259 A  
ENDBRANCH  17  18
ENDBRANCH  16  17
ENDBRANCH  15  16
ENDBRANCH  13  15
ENDBRANCH   2  13
TORSDOF 6
ENDMDL
MODEL      188
REMARK 921   NORMALIZED FREE ENERGY PREDICTED BY IDOCK:   -4.19 KCAL/MOL
REMARK 922        TOTAL FREE ENERGY PREDICTED BY IDOCK:   -8.78 KCAL/MOL
REMARK 923 INTER-LIGAND FREE ENERGY PREDICTED BY IDOCK:   -7.40 KCAL/MOL
REMARK 924 INTRA-LIGAND FREE ENERGY PREDICTED BY IDOCK:   -1.39 KCAL/MOL
REMARK 927      BINDING AFFINITY PREDICTED BY RF-SCORE:    0.00 PKD
ROOT
HETATM    1  C   UNL     1     -11.833  11.525  68.756  1.00  0.00    -0.394 C  
HETATM    2  C   UNL     1     -11.339  11.260  67.323  1.00  0.00    -0.255 C  
ENDROOT
BRANCH   2   3
HETATM    3  C   UNL     1      -9.831  11.448  67.135  1.00  0.00    -0.212 A  
HETATM    4  C   UNL     1      -9.016   9.492  63.989  1.00  0.00    -0.228 A  
HETATM    5  C   UNL     1      -9.102  12.200  68.080  1.00  0.00    -0.190 A  
HETATM    6  C   UNL     1      -7.631   9.545  64.008  1.00  0.00    -0.122 A  
HETATM    7  C   UNL     1      -9.752  10.139  64.986  1.00  0.00    -0.384 A  
HETATM    8  C   UNL     1      -6.985  10.279  65.001  1.00  0.00    -0.112 A  
HETATM    9  C   UNL     1      -7.720  12.327  67.995  1.00  0.00    -0.132 A  
HETATM   10  C   UNL     1      -7.030  11.683  66.976  1.00  0.00    -0.144 A  
HETATM   11  C   UNL     1      -9.130  10.845  66.044  1.00  0.00    -0.208 A  
HETATM   12  C   UNL     1      -7.712  10.937  66.006  1.00  0.00    -0.107 A  
ENDBRANCH   2   3
BRANCH   2  13
HETATM   13  N   UNL     1     -12.150  11.948  66.303  1.00  0.00    -0.438 NA 
HETATM   14  H   UNL     1     -13.130  11.680  66.388  1.00  0.00     0.000 HD 
BRANCH  13  15
HETATM   15  C   UNL     1     -12.018  13.401  66.305  1.00  0.00    -0.411 C  
BRANCH  15  16
HETATM   16  C   UNL     1     -11.291  13.873  65.047  1.00  0.00    -0.336 C  
BRANCH  16  17
HETATM   17  C   UNL     1     -11.369  15.398  64.939  1.00  0.00    -0.367 C  
BRANCH  17  18
HETATM   18  C   UNL     1     -10.247  16.057  65.695  1.00  0.00    -0.412 A  
HETATM   19  C   UNL     1      -9.247  18.057  66.666  1.00  0.00    -0.291 A  
HETATM   20  C   UNL     1      -9.298  19.531  66.981  1.00  0.00    -0.336 C  
HETATM   21  C   UNL     1     -10.315  17.420  66.014  1.00  0.00    -0.309 A  
HETATM   22  C   UNL     1      -8.042  15.947  66.693  1.00  0.00    -0.298 A  
HETATM   23  F   UNL     1     -10.458  20.134  66.593  1.00  0.00    -0.533 F  
HETATM   24  F   UNL     1      -9.176  19.786  68.314  1.00  0.00    -0.376 F  
HETATM   25  F   UNL     1      -8.298  20.229  66.374  1.00  0.00    -0.322 F  
HETATM   26  C   UNL     1      -8.112  17.307  67.005  1.00  0.00    -0.237 A  
HETATM   27  C   UNL     1      -9.104  15.329  66.038  1.00  0.00    -0.244 A  
ENDBRANCH  17  18
ENDBRANCH  16  17
ENDBRANCH  15  16
ENDBRANCH  13  15
ENDBRANCH   2  13
TORSDOF 6
ENDMDL
MODEL      189
REMARK 921   NORMALIZED FREE ENERGY PREDICTED BY IDOCK:   -4.15 KCAL/MOL
REMARK 922        TOTAL FREE ENERGY PREDICTED BY IDOCK:   -8.74 KCAL/MOL
REMARK 923 INTER-LIGAND FREE ENERGY PREDICTED BY IDOCK:   -6.04 KCAL/MOL
REMARK 924 INTRA-LIGAND FREE ENERGY PREDICTED BY IDOCK:   -2.69 KCAL/MOL
REMARK 927      BINDING AFFINITY PREDICTED BY RF-SCORE:    0.00 PKD
ROOT
HETATM    1  C   UNL     1     -11.073  13.602  68.460  1.00  0.00    -0.301 C  
HETATM    2  C   UNL     1     -11.855  12.280  68.361  1.00  0.00    -0.304 C  
ENDROOT
BRANCH   2   3
HETATM    3  C   UNL     1     -11.552  11.286  69.486  1.00  0.00    -0.398 A  
HETATM    4  C   UNL     1      -7.872  10.468  69.061  1.00  0.00    -0.129 A  
HETATM    5  C   UNL     1     -12.588  10.880  70.351  1.00  0.00    -0.376 A  
HETATM    6  C   UNL     1      -7.736   9.431  69.971  1.00  0.00    -0.124 A  
HETATM    7  C   UNL     1      -9.106  11.109  68.915  1.00  0.00    -0.098 A  
HETATM    8  C   UNL     1      -8.822   9.063  70.762  1.00  0.00    -0.281 A  
HETATM    9  C   UNL     1     -12.378   9.917  71.333  1.00  0.00    -0.498 A  
HETATM   10  C   UNL     1     -11.131   9.320  71.456  1.00  0.00    -0.443 A  
HETATM   11  C   UNL     1     -10.248  10.725  69.659  1.00  0.00    -0.099 A  
HETATM   12  C   UNL     1     -10.066   9.701  70.629  1.00  0.00    -0.324 A  
ENDBRANCH   2   3
BRANCH   2  13
HETATM   13  N   UNL     1     -11.801  11.682  67.016  1.00  0.00    -0.575 NA 
HETATM   14  H   UNL     1     -12.731  11.659  66.599  1.00  0.00     0.000 HD 
BRANCH  13  15
HETATM   15  C   UNL     1     -10.853  12.322  66.109  1.00  0.00    -0.279 C  
BRANCH  15  16
HETATM   16  C   UNL     1      -9.740  11.348  65.727  1.00  0.00    -0.263 C  
BRANCH  16  17
HETATM   17  C   UNL     1     -10.339   9.989  65.352  1.00  0.00    -0.111 C  
BRANCH  17  18
HETATM   18  C   UNL     1      -9.811   8.897  66.244  1.00  0.00    -0.355 A  
HETATM   19  C   UNL     1      -8.012   7.382  66.882  1.00  0.00    -0.115 A  
HETATM   20  C   UNL     1      -6.607   6.862  66.707  1.00  0.00    -0.048 C  
HETATM   21  C   UNL     1      -8.494   8.441  66.097  1.00  0.00    -0.139 A  
HETATM   22  C   UNL     1     -10.176   7.245  67.978  1.00  0.00    -0.225 A  
HETATM   23  F   UNL     1      -5.892   7.527  65.755  1.00  0.00    -0.034 F  
HETATM   24  F   UNL     1      -5.870   6.949  67.850  1.00  0.00    -0.019 F  
HETATM   25  F   UNL     1      -6.578   5.550  66.342  1.00  0.00    -0.048 F  
HETATM   26  C   UNL     1      -8.865   6.791  67.826  1.00  0.00    -0.118 A  
HETATM   27  C   UNL     1     -10.646   8.290  67.187  1.00  0.00    -0.340 A  
ENDBRANCH  17  18
ENDBRANCH  16  17
ENDBRANCH  15  16
ENDBRANCH  13  15
ENDBRANCH   2  13
TORSDOF 6
ENDMDL
MODEL      190
REMARK 921   NORMALIZED FREE ENERGY PREDICTED BY IDOCK:   -4.15 KCAL/MOL
REMARK 922        TOTAL FREE ENERGY PREDICTED BY IDOCK:   -8.73 KCAL/MOL
REMARK 923 INTER-LIGAND FREE ENERGY PREDICTED BY IDOCK:   -4.63 KCAL/MOL
REMARK 924 INTRA-LIGAND FREE ENERGY PREDICTED BY IDOCK:   -4.10 KCAL/MOL
REMARK 927      BINDING AFFINITY PREDICTED BY RF-SCORE:    0.00 PKD
ROOT
HETATM    1  C   UNL     1     -10.378  11.427  65.199  1.00  0.00    -0.344 C  
HETATM    2  C   UNL     1     -10.160   9.956  65.596  1.00  0.00    -0.237 C  
ENDROOT
BRANCH   2   3
HETATM    3  C   UNL     1      -9.941   9.737  67.096  1.00  0.00    -0.252 A  
HETATM    4  C   UNL     1     -11.161   6.201  67.725  1.00  0.00    -0.306 A  
HETATM    5  C   UNL     1      -9.417  10.784  67.881  1.00  0.00    -0.165 A  
HETATM    6  C   UNL     1     -11.118   6.160  69.109  1.00  0.00    -0.448 A  
HETATM    7  C   UNL     1     -10.746   7.352  67.048  1.00  0.00    -0.389 A  
HETATM    8  C   UNL     1     -10.623   7.254  69.814  1.00  0.00    -0.247 A  
HETATM    9  C   UNL     1      -9.280  10.659  69.259  1.00  0.00    -0.121 A  
HETATM   10  C   UNL     1      -9.686   9.489  69.888  1.00  0.00    -0.252 A  
HETATM   11  C   UNL     1     -10.292   8.505  67.732  1.00  0.00    -0.298 A  
HETATM   12  C   UNL     1     -10.198   8.416  69.148  1.00  0.00    -0.217 A  
ENDBRANCH   2   3
BRANCH   2  13
HETATM   13  N   UNL     1      -9.162   9.278  64.750  1.00  0.00    -0.431 NA 
HETATM   14  H   UNL     1      -9.555   9.075  63.830  1.00  0.00     0.000 HD 
BRANCH  13  15
HETATM   15  C   UNL     1      -7.897   9.993  64.615  1.00  0.00    -0.145 C  
BRANCH  15  16
HETATM   16  C   UNL     1      -6.794   9.274  65.388  1.00  0.00    -0.074 C  
BRANCH  16  17
HETATM   17  C   UNL     1      -7.201   7.822  65.655  1.00  0.00    -0.068 C  
BRANCH  17  18
HETATM   18  C   UNL     1      -7.024   7.464  67.106  1.00  0.00    -0.083 A  
HETATM   19  C   UNL     1      -7.296   5.874  68.934  1.00  0.00    -0.084 A  
HETATM   20  C   UNL     1      -7.733   4.526  69.449  1.00  0.00    -0.055 C  
HETATM   21  C   UNL     1      -7.401   6.197  67.572  1.00  0.00    -0.077 A  
HETATM   22  C   UNL     1      -6.414   8.098  69.364  1.00  0.00    -0.035 A  
HETATM   23  F   UNL     1      -8.200   3.693  68.475  1.00  0.00    -0.071 F  
HETATM   24  F   UNL     1      -6.723   3.847  70.062  1.00  0.00    -0.031 F  
HETATM   25  F   UNL     1      -8.734   4.618  70.368  1.00  0.00    -0.086 F  
HETATM   26  C   UNL     1      -6.795   6.836  69.824  1.00  0.00    -0.054 A  
HETATM   27  C   UNL     1      -6.532   8.409  68.012  1.00  0.00    -0.057 A  
ENDBRANCH  17  18
ENDBRANCH  16  17
ENDBRANCH  15  16
ENDBRANCH  13  15
ENDBRANCH   2  13
TORSDOF 6
ENDMDL
MODEL      191
REMARK 921   NORMALIZED FREE ENERGY PREDICTED BY IDOCK:   -4.15 KCAL/MOL
REMARK 922        TOTAL FREE ENERGY PREDICTED BY IDOCK:   -8.73 KCAL/MOL
REMARK 923 INTER-LIGAND FREE ENERGY PREDICTED BY IDOCK:   -7.10 KCAL/MOL
REMARK 924 INTRA-LIGAND FREE ENERGY PREDICTED BY IDOCK:   -1.63 KCAL/MOL
REMARK 927      BINDING AFFINITY PREDICTED BY RF-SCORE:    0.00 PKD
ROOT
HETATM    1  C   UNL     1     -10.389   6.112  73.756  1.00  0.00    -0.288 C  
HETATM    2  C   UNL     1     -11.202   6.367  72.475  1.00  0.00    -0.272 C  
ENDROOT
BRANCH   2   3
HETATM    3  C   UNL     1     -10.357   6.441  71.200  1.00  0.00    -0.244 A  
HETATM    4  C   UNL     1      -7.714   9.053  71.962  1.00  0.00     0.207 A  
HETATM    5  C   UNL     1     -10.701   5.638  70.093  1.00  0.00    -0.376 A  
HETATM    6  C   UNL     1      -7.134   9.199  70.712  1.00  0.00    -0.103 A  
HETATM    7  C   UNL     1      -8.747   8.129  72.147  1.00  0.00    -0.234 A  
HETATM    8  C   UNL     1      -7.559   8.394  69.658  1.00  0.00    -0.089 A  
HETATM    9  C   UNL     1     -10.014   5.733  68.887  1.00  0.00    -0.211 A  
HETATM   10  C   UNL     1      -8.980   6.651  68.754  1.00  0.00    -0.125 A  
HETATM   11  C   UNL     1      -9.246   7.334  71.087  1.00  0.00    -0.156 A  
HETATM   12  C   UNL     1      -8.593   7.458  69.830  1.00  0.00    -0.140 A  
ENDBRANCH   2   3
BRANCH   2  13
HETATM   13  N   UNL     1     -12.155   7.482  72.615  1.00  0.00    -0.558 NA 
HETATM   14  H   UNL     1     -11.665   8.376  72.577  1.00  0.00     0.000 HD 
BRANCH  13  15
HETATM   15  C   UNL     1     -13.253   7.463  71.654  1.00  0.00    -0.362 C  
BRANCH  15  16
HETATM   16  C   UNL     1     -13.738   8.883  71.369  1.00  0.00    -0.323 C  
BRANCH  16  17
HETATM   17  C   UNL     1     -12.736   9.899  71.924  1.00  0.00    -0.501 C  
BRANCH  17  18
HETATM   18  C   UNL     1     -12.008  10.610  70.815  1.00  0.00    -0.477 A  
HETATM   19  C   UNL     1     -11.631  12.620  69.488  1.00  0.00    -0.348 A  
HETATM   20  C   UNL     1     -11.924  14.068  69.185  1.00  0.00    -0.360 C  
HETATM   21  C   UNL     1     -12.260  11.965  70.558  1.00  0.00    -0.426 A  
HETATM   22  C   UNL     1     -10.479  10.553  68.936  1.00  0.00    -0.226 A  
HETATM   23  F   UNL     1     -12.813  14.640  70.046  1.00  0.00    -0.349 F  
HETATM   24  F   UNL     1     -10.808  14.849  69.233  1.00  0.00    -0.229 F  
HETATM   25  F   UNL     1     -12.450  14.244  67.940  1.00  0.00    -0.310 F  
HETATM   26  C   UNL     1     -10.736  11.902  68.682  1.00  0.00    -0.266 A  
HETATM   27  C   UNL     1     -11.116   9.911  69.995  1.00  0.00    -0.335 A  
ENDBRANCH  17  18
ENDBRANCH  16  17
ENDBRANCH  15  16
ENDBRANCH  13  15
ENDBRANCH   2  13
TORSDOF 6
ENDMDL
MODEL      192
REMARK 921   NORMALIZED FREE ENERGY PREDICTED BY IDOCK:   -4.14 KCAL/MOL
REMARK 922        TOTAL FREE ENERGY PREDICTED BY IDOCK:   -8.71 KCAL/MOL
REMARK 923 INTER-LIGAND FREE ENERGY PREDICTED BY IDOCK:   -7.56 KCAL/MOL
REMARK 924 INTRA-LIGAND FREE ENERGY PREDICTED BY IDOCK:   -1.15 KCAL/MOL
REMARK 927      BINDING AFFINITY PREDICTED BY RF-SCORE:    0.00 PKD
ROOT
HETATM    1  C   UNL     1      -9.963  11.420  66.076  1.00  0.00    -0.269 C  
HETATM    2  C   UNL     1     -10.634  11.073  67.416  1.00  0.00    -0.237 C  
ENDROOT
BRANCH   2   3
HETATM    3  C   UNL     1     -10.985  12.291  68.276  1.00  0.00    -0.268 A  
HETATM    4  C   UNL     1     -12.761  10.839  71.297  1.00  0.00    -0.546 A  
HETATM    5  C   UNL     1     -10.649  13.582  67.819  1.00  0.00    -0.252 A  
HETATM    6  C   UNL     1     -13.213  11.999  71.907  1.00  0.00    -0.469 A  
HETATM    7  C   UNL     1     -12.000  10.919  70.127  1.00  0.00    -0.435 A  
HETATM    8  C   UNL     1     -12.871  13.237  71.369  1.00  0.00    -0.411 A  
HETATM    9  C   UNL     1     -11.022  14.720  68.526  1.00  0.00    -0.265 A  
HETATM   10  C   UNL     1     -11.760  14.594  69.696  1.00  0.00    -0.358 A  
HETATM   11  C   UNL     1     -11.682  12.157  69.518  1.00  0.00    -0.402 A  
HETATM   12  C   UNL     1     -12.103  13.332  70.196  1.00  0.00    -0.403 A  
ENDBRANCH   2   3
BRANCH   2  13
HETATM   13  N   UNL     1      -9.922  10.015  68.155  1.00  0.00    -0.149 NA 
HETATM   14  H   UNL     1      -9.964   9.134  67.644  1.00  0.00     0.000 HD 
BRANCH  13  15
HETATM   15  C   UNL     1      -8.540  10.341  68.494  1.00  0.00    -0.126 C  
BRANCH  15  16
HETATM   16  C   UNL     1      -8.253   9.995  69.953  1.00  0.00    -0.175 C  
BRANCH  16  17
HETATM   17  C   UNL     1      -7.688   8.575  70.053  1.00  0.00    -0.086 C  
BRANCH  17  18
HETATM   18  C   UNL     1      -8.785   7.547  69.989  1.00  0.00    -0.140 A  
HETATM   19  C   UNL     1     -10.921   6.689  70.793  1.00  0.00    -0.318 A  
HETATM   20  C   UNL     1     -12.128   6.801  71.690  1.00  0.00    -0.359 C  
HETATM   21  C   UNL     1      -9.921   7.673  70.802  1.00  0.00    -0.181 A  
HETATM   22  C   UNL     1      -9.647   5.449  69.137  1.00  0.00    -0.193 A  
HETATM   23  F   UNL     1     -12.139   7.929  72.456  1.00  0.00    -0.339 F  
HETATM   24  F   UNL     1     -13.299   6.816  70.993  1.00  0.00    -0.346 F  
HETATM   25  F   UNL     1     -12.227   5.760  72.563  1.00  0.00    -0.350 F  
HETATM   26  C   UNL     1     -10.774   5.577  69.950  1.00  0.00    -0.358 A  
HETATM   27  C   UNL     1      -8.657   6.428  69.160  1.00  0.00    -0.125 A  
ENDBRANCH  17  18
ENDBRANCH  16  17
ENDBRANCH  15  16
ENDBRANCH  13  15
ENDBRANCH   2  13
TORSDOF 6
ENDMDL
MODEL      193
REMARK 921   NORMALIZED FREE ENERGY PREDICTED BY IDOCK:   -4.12 KCAL/MOL
REMARK 922        TOTAL FREE ENERGY PREDICTED BY IDOCK:   -8.70 KCAL/MOL
REMARK 923 INTER-LIGAND FREE ENERGY PREDICTED BY IDOCK:   -8.29 KCAL/MOL
REMARK 924 INTRA-LIGAND FREE ENERGY PREDICTED BY IDOCK:   -0.41 KCAL/MOL
REMARK 927      BINDING AFFINITY PREDICTED BY RF-SCORE:    0.00 PKD
ROOT
HETATM    1  C   UNL     1     -12.913  13.785  65.725  1.00  0.00    -0.310 C  
HETATM    2  C   UNL     1     -11.428  13.873  65.328  1.00  0.00    -0.315 C  
ENDROOT
BRANCH   2   3
HETATM    3  C   UNL     1     -10.822  12.542  64.872  1.00  0.00    -0.327 A  
HETATM    4  C   UNL     1     -11.143  10.269  67.891  1.00  0.00    -0.341 A  
HETATM    5  C   UNL     1     -10.286  12.434  63.572  1.00  0.00    -0.397 A  
HETATM    6  C   UNL     1     -10.402   9.177  67.467  1.00  0.00    -0.324 A  
HETATM    7  C   UNL     1     -11.320  11.364  67.040  1.00  0.00    -0.309 A  
HETATM    8  C   UNL     1      -9.872   9.165  66.178  1.00  0.00    -0.363 A  
HETATM    9  C   UNL     1      -9.651  11.273  63.144  1.00  0.00    -0.391 A  
HETATM   10  C   UNL     1      -9.516  10.200  64.016  1.00  0.00    -0.341 A  
HETATM   11  C   UNL     1     -10.748  11.413  65.746  1.00  0.00    -0.309 A  
HETATM   12  C   UNL     1     -10.045  10.256  65.311  1.00  0.00    -0.359 A  
ENDBRANCH   2   3
BRANCH   2  13
HETATM   13  N   UNL     1     -10.610  14.582  66.327  1.00  0.00    -0.297 NA 
HETATM   14  H   UNL     1     -10.302  15.482  65.960  1.00  0.00     0.000 HD 
BRANCH  13  15
HETATM   15  C   UNL     1     -11.255  14.755  67.624  1.00  0.00    -0.323 C  
BRANCH  15  16
HETATM   16  C   UNL     1     -10.208  14.867  68.730  1.00  0.00    -0.243 C  
BRANCH  16  17
HETATM   17  C   UNL     1      -8.821  15.079  68.119  1.00  0.00    -0.167 C  
BRANCH  17  18
HETATM   18  C   UNL     1      -8.414  16.527  68.179  1.00  0.00    -0.191 A  
HETATM   19  C   UNL     1      -8.633  18.815  67.365  1.00  0.00    -0.289 A  
HETATM   20  C   UNL     1      -9.284  19.831  66.461  1.00  0.00    -0.383 C  
HETATM   21  C   UNL     1      -9.045  17.473  67.360  1.00  0.00    -0.237 A  
HETATM   22  C   UNL     1      -6.954  18.262  69.033  1.00  0.00    -0.266 A  
HETATM   23  F   UNL     1     -10.286  19.318  65.692  1.00  0.00    -0.415 F  
HETATM   24  F   UNL     1      -9.840  20.865  67.152  1.00  0.00    -0.608 F  
HETATM   25  F   UNL     1      -8.401  20.395  65.590  1.00  0.00    -0.212 F  
HETATM   26  C   UNL     1      -7.583  19.200  68.212  1.00  0.00    -0.339 A  
HETATM   27  C   UNL     1      -7.367  16.932  69.012  1.00  0.00    -0.231 A  
ENDBRANCH  17  18
ENDBRANCH  16  17
ENDBRANCH  15  16
ENDBRANCH  13  15
ENDBRANCH   2  13
TORSDOF 6
ENDMDL
MODEL      194
REMARK 921   NORMALIZED FREE ENERGY PREDICTED BY IDOCK:   -4.12 KCAL/MOL
REMARK 922        TOTAL FREE ENERGY PREDICTED BY IDOCK:   -8.69 KCAL/MOL
REMARK 923 INTER-LIGAND FREE ENERGY PREDICTED BY IDOCK:   -7.65 KCAL/MOL
REMARK 924 INTRA-LIGAND FREE ENERGY PREDICTED BY IDOCK:   -1.04 KCAL/MOL
REMARK 927      BINDING AFFINITY PREDICTED BY RF-SCORE:    0.00 PKD
ROOT
HETATM    1  C   UNL     1     -11.638  10.430  69.204  1.00  0.00    -0.234 C  
HETATM    2  C   UNL     1     -11.067  11.219  68.012  1.00  0.00    -0.266 C  
ENDROOT
BRANCH   2   3
HETATM    3  C   UNL     1     -10.025  10.451  67.194  1.00  0.00    -0.239 A  
HETATM    4  C   UNL     1     -10.386  11.820  63.675  1.00  0.00    -0.476 A  
HETATM    5  C   UNL     1      -9.238   9.466  67.823  1.00  0.00    -0.141 A  
HETATM    6  C   UNL     1      -9.568  10.946  62.977  1.00  0.00    -0.382 A  
HETATM    7  C   UNL     1     -10.519  11.694  65.061  1.00  0.00    -0.336 A  
HETATM    8  C   UNL     1      -8.853   9.972  63.670  1.00  0.00    -0.249 A  
HETATM    9  C   UNL     1      -8.338   8.687  67.103  1.00  0.00    -0.107 A  
HETATM   10  C   UNL     1      -8.223   8.860  65.730  1.00  0.00    -0.116 A  
HETATM   11  C   UNL     1      -9.855  10.680  65.792  1.00  0.00    -0.296 A  
HETATM   12  C   UNL     1      -8.973   9.836  65.063  1.00  0.00    -0.247 A  
ENDBRANCH   2   3
BRANCH   2  13
HETATM   13  N   UNL     1     -10.642  12.581  68.379  1.00  0.00    -0.236 NA 
HETATM   14  H   UNL     1     -10.088  12.994  67.629  1.00  0.00     0.000 HD 
BRANCH  13  15
HETATM   15  C   UNL     1     -11.732  13.474  68.757  1.00  0.00    -0.337 C  
BRANCH  15  16
HETATM   16  C   UNL     1     -11.829  14.642  67.778  1.00  0.00    -0.359 C  
BRANCH  16  17
HETATM   17  C   UNL     1     -10.515  14.787  67.005  1.00  0.00    -0.270 C  
BRANCH  17  18
HETATM   18  C   UNL     1      -9.830  16.086  67.335  1.00  0.00    -0.236 A  
HETATM   19  C   UNL     1      -9.541  18.476  66.950  1.00  0.00    -0.314 A  
HETATM   20  C   UNL     1      -9.927  19.748  66.237  1.00  0.00    -0.478 C  
HETATM   21  C   UNL     1     -10.214  17.272  66.694  1.00  0.00    -0.319 A  
HETATM   22  C   UNL     1      -8.097  17.303  68.514  1.00  0.00    -0.262 A  
HETATM   23  F   UNL     1     -10.970  19.597  65.373  1.00  0.00    -0.567 F  
HETATM   24  F   UNL     1     -10.300  20.737  67.097  1.00  0.00    -0.480 F  
HETATM   25  F   UNL     1      -8.905  20.262  65.498  1.00  0.00    -0.232 F  
HETATM   26  C   UNL     1      -8.482  18.481  67.869  1.00  0.00    -0.292 A  
HETATM   27  C   UNL     1      -8.767  16.112  68.244  1.00  0.00    -0.180 A  
ENDBRANCH  17  18
ENDBRANCH  16  17
ENDBRANCH  15  16
ENDBRANCH  13  15
ENDBRANCH   2  13
TORSDOF 6
ENDMDL
MODEL      195
REMARK 921   NORMALIZED FREE ENERGY PREDICTED BY IDOCK:   -4.11 KCAL/MOL
REMARK 922        TOTAL FREE ENERGY PREDICTED BY IDOCK:   -8.68 KCAL/MOL
REMARK 923 INTER-LIGAND FREE ENERGY PREDICTED BY IDOCK:   -7.17 KCAL/MOL
REMARK 924 INTRA-LIGAND FREE ENERGY PREDICTED BY IDOCK:   -1.51 KCAL/MOL
REMARK 927      BINDING AFFINITY PREDICTED BY RF-SCORE:    0.00 PKD
ROOT
HETATM    1  C   UNL     1      -9.300  13.471  68.693  1.00  0.00    -0.036 C  
HETATM    2  C   UNL     1      -8.453  12.949  67.519  1.00  0.00    -0.186 C  
ENDROOT
BRANCH   2   3
HETATM    3  C   UNL     1      -9.273  12.389  66.353  1.00  0.00    -0.192 A  
HETATM    4  C   UNL     1     -11.071  15.408  64.925  1.00  0.00    -0.435 A  
HETATM    5  C   UNL     1      -9.237  11.007  66.080  1.00  0.00    -0.209 A  
HETATM    6  C   UNL     1     -11.928  14.792  64.026  1.00  0.00    -0.153 A  
HETATM    7  C   UNL     1     -10.171  14.639  65.669  1.00  0.00    -0.382 A  
HETATM    8  C   UNL     1     -11.856  13.413  63.843  1.00  0.00    -0.492 A  
HETATM    9  C   UNL     1     -10.029  10.443  65.086  1.00  0.00    -0.390 A  
HETATM   10  C   UNL     1     -10.895  11.248  64.356  1.00  0.00    -0.373 A  
HETATM   11  C   UNL     1     -10.110  13.230  65.553  1.00  0.00    -0.274 A  
HETATM   12  C   UNL     1     -10.954  12.629  64.581  1.00  0.00    -0.346 A  
ENDBRANCH   2   3
BRANCH   2  13
HETATM   13  N   UNL     1      -7.362  12.057  67.953  1.00  0.00    -0.095 NA 
HETATM   14  H   UNL     1      -6.508  12.263  67.436  1.00  0.00     0.000 HD 
BRANCH  13  15
HETATM   15  C   UNL     1      -7.104  12.074  69.389  1.00  0.00     0.085 C  
BRANCH  15  16
HETATM   16  C   UNL     1      -6.775  10.669  69.889  1.00  0.00    -0.147 C  
BRANCH  16  17
HETATM   17  C   UNL     1      -7.733   9.653  69.260  1.00  0.00    -0.095 C  
BRANCH  17  18
HETATM   18  C   UNL     1      -8.912   9.388  70.157  1.00  0.00    -0.256 A  
HETATM   19  C   UNL     1     -11.198   9.890  70.838  1.00  0.00    -0.433 A  
HETATM   20  C   UNL     1     -12.481  10.663  70.664  1.00  0.00    -0.371 C  
HETATM   21  C   UNL     1     -10.113  10.086  69.970  1.00  0.00    -0.289 A  
HETATM   22  C   UNL     1      -9.876   8.274  72.081  1.00  0.00    -0.342 A  
HETATM   23  F   UNL     1     -12.466  11.518  69.602  1.00  0.00    -0.289 F  
HETATM   24  F   UNL     1     -13.559   9.852  70.471  1.00  0.00    -0.332 F  
HETATM   25  F   UNL     1     -12.780  11.429  71.751  1.00  0.00    -0.463 F  
HETATM   26  C   UNL     1     -11.069   8.975  71.893  1.00  0.00    -0.433 A  
HETATM   27  C   UNL     1      -8.803   8.484  71.218  1.00  0.00    -0.240 A  
ENDBRANCH  17  18
ENDBRANCH  16  17
ENDBRANCH  15  16
ENDBRANCH  13  15
ENDBRANCH   2  13
TORSDOF 6
ENDMDL
MODEL      196
REMARK 921   NORMALIZED FREE ENERGY PREDICTED BY IDOCK:   -4.11 KCAL/MOL
REMARK 922        TOTAL FREE ENERGY PREDICTED BY IDOCK:   -8.68 KCAL/MOL
REMARK 923 INTER-LIGAND FREE ENERGY PREDICTED BY IDOCK:   -8.39 KCAL/MOL
REMARK 924 INTRA-LIGAND FREE ENERGY PREDICTED BY IDOCK:   -0.29 KCAL/MOL
REMARK 927      BINDING AFFINITY PREDICTED BY RF-SCORE:    0.00 PKD
ROOT
HETATM    1  C   UNL     1     -12.905  15.364  70.337  1.00  0.00    -0.355 C  
HETATM    2  C   UNL     1     -11.824  14.389  69.836  1.00  0.00    -0.323 C  
ENDROOT
BRANCH   2   3
HETATM    3  C   UNL     1     -12.051  12.933  70.254  1.00  0.00    -0.377 A  
HETATM    4  C   UNL     1     -10.137  10.900  67.687  1.00  0.00    -0.206 A  
HETATM    5  C   UNL     1     -12.864  12.651  71.371  1.00  0.00    -0.358 A  
HETATM    6  C   UNL     1     -10.555   9.620  68.014  1.00  0.00    -0.292 A  
HETATM    7  C   UNL     1     -10.590  11.993  68.433  1.00  0.00    -0.236 A  
HETATM    8  C   UNL     1     -11.393   9.429  69.111  1.00  0.00     0.156 A  
HETATM    9  C   UNL     1     -13.165  11.343  71.737  1.00  0.00    -0.472 A  
HETATM   10  C   UNL     1     -12.677  10.286  70.979  1.00  0.00    -0.491 A  
HETATM   11  C   UNL     1     -11.488  11.845  69.517  1.00  0.00    -0.357 A  
HETATM   12  C   UNL     1     -11.852  10.517  69.871  1.00  0.00    -0.358 A  
ENDBRANCH   2   3
BRANCH   2  13
HETATM   13  N   UNL     1     -10.456  14.870  70.094  1.00  0.00    -0.485 NA 
HETATM   14  H   UNL     1      -9.917  14.161  70.591  1.00  0.00     0.000 HD 
BRANCH  13  15
HETATM   15  C   UNL     1      -9.737  15.313  68.904  1.00  0.00    -0.220 C  
BRANCH  15  16
HETATM   16  C   UNL     1      -8.248  14.999  69.033  1.00  0.00    -0.187 C  
BRANCH  16  17
HETATM   17  C   UNL     1      -7.478  16.264  69.421  1.00  0.00    -0.152 C  
BRANCH  17  18
HETATM   18  C   UNL     1      -7.573  17.312  68.344  1.00  0.00    -0.241 A  
HETATM   19  C   UNL     1      -8.805  19.114  67.259  1.00  0.00    -0.317 A  
HETATM   20  C   UNL     1     -10.008  20.020  67.177  1.00  0.00    -0.441 C  
HETATM   21  C   UNL     1      -8.678  18.173  68.293  1.00  0.00    -0.294 A  
HETATM   22  C   UNL     1      -6.699  18.335  66.329  1.00  0.00    -0.269 A  
HETATM   23  F   UNL     1     -10.901  19.837  68.191  1.00  0.00    -0.498 F  
HETATM   24  F   UNL     1      -9.672  21.340  67.213  1.00  0.00    -0.599 F  
HETATM   25  F   UNL     1     -10.715  19.845  66.026  1.00  0.00    -0.536 F  
HETATM   26  C   UNL     1      -7.804  19.188  66.280  1.00  0.00    -0.307 A  
HETATM   27  C   UNL     1      -6.589  17.400  67.355  1.00  0.00    -0.172 A  
ENDBRANCH  17  18
ENDBRANCH  16  17
ENDBRANCH  15  16
ENDBRANCH  13  15
ENDBRANCH   2  13
TORSDOF 6
ENDMDL
MODEL      197
REMARK 921   NORMALIZED FREE ENERGY PREDICTED BY IDOCK:   -4.11 KCAL/MOL
REMARK 922        TOTAL FREE ENERGY PREDICTED BY IDOCK:   -8.68 KCAL/MOL
REMARK 923 INTER-LIGAND FREE ENERGY PREDICTED BY IDOCK:   -8.06 KCAL/MOL
REMARK 924 INTRA-LIGAND FREE ENERGY PREDICTED BY IDOCK:   -0.62 KCAL/MOL
REMARK 927      BINDING AFFINITY PREDICTED BY RF-SCORE:    0.00 PKD
ROOT
HETATM    1  C   UNL     1     -11.972  14.538  66.891  1.00  0.00    -0.371 C  
HETATM    2  C   UNL     1     -11.425  15.624  67.835  1.00  0.00    -0.251 C  
ENDROOT
BRANCH   2   3
HETATM    3  C   UNL     1     -10.008  16.094  67.496  1.00  0.00    -0.243 A  
HETATM    4  C   UNL     1     -10.388  19.792  66.745  1.00  0.00    -0.604 A  
HETATM    5  C   UNL     1      -8.950  15.161  67.494  1.00  0.00    -0.187 A  
HETATM    6  C   UNL     1      -9.123  20.084  66.261  1.00  0.00    -0.402 A  
HETATM    7  C   UNL     1     -10.683  18.499  67.187  1.00  0.00    -0.396 A  
HETATM    8  C   UNL     1      -8.143  19.094  66.255  1.00  0.00    -0.308 A  
HETATM    9  C   UNL     1      -7.663  15.525  67.111  1.00  0.00    -0.257 A  
HETATM   10  C   UNL     1      -7.410  16.827  66.699  1.00  0.00    -0.297 A  
HETATM   11  C   UNL     1      -9.732  17.452  67.142  1.00  0.00    -0.267 A  
HETATM   12  C   UNL     1      -8.425  17.792  66.700  1.00  0.00    -0.283 A  
ENDBRANCH   2   3
BRANCH   2  13
HETATM   13  N   UNL     1     -11.611  15.291  69.258  1.00  0.00    -0.311 NA 
HETATM   14  H   UNL     1     -12.090  16.051  69.742  1.00  0.00     0.000 HD 
BRANCH  13  15
HETATM   15  C   UNL     1     -12.295  14.025  69.499  1.00  0.00    -0.229 C  
BRANCH  15  16
HETATM   16  C   UNL     1     -12.189  13.632  70.971  1.00  0.00    -0.374 C  
BRANCH  16  17
HETATM   17  C   UNL     1     -13.332  12.683  71.342  1.00  0.00    -0.087 C  
BRANCH  17  18
HETATM   18  C   UNL     1     -12.869  11.251  71.354  1.00  0.00    -0.515 A  
HETATM   19  C   UNL     1     -11.430   9.493  70.470  1.00  0.00    -0.337 A  
HETATM   20  C   UNL     1     -10.334   9.035  69.541  1.00  0.00    -0.209 C  
HETATM   21  C   UNL     1     -11.828  10.838  70.511  1.00  0.00    -0.453 A  
HETATM   22  C   UNL     1     -13.118   8.972  72.139  1.00  0.00    -0.496 A  
HETATM   23  F   UNL     1      -9.790  10.041  68.797  1.00  0.00    -0.150 F  
HETATM   24  F   UNL     1      -9.291   8.461  70.204  1.00  0.00    -0.156 F  
HETATM   25  F   UNL     1     -10.765   8.104  68.645  1.00  0.00    -0.221 F  
HETATM   26  C   UNL     1     -12.082   8.565  71.295  1.00  0.00    -0.323 A  
HETATM   27  C   UNL     1     -13.510  10.308  72.164  1.00  0.00    -0.332 A  
ENDBRANCH  17  18
ENDBRANCH  16  17
ENDBRANCH  15  16
ENDBRANCH  13  15
ENDBRANCH   2  13
TORSDOF 6
ENDMDL
MODEL      198
REMARK 921   NORMALIZED FREE ENERGY PREDICTED BY IDOCK:   -4.11 KCAL/MOL
REMARK 922        TOTAL FREE ENERGY PREDICTED BY IDOCK:   -8.68 KCAL/MOL
REMARK 923 INTER-LIGAND FREE ENERGY PREDICTED BY IDOCK:   -4.75 KCAL/MOL
REMARK 924 INTRA-LIGAND FREE ENERGY PREDICTED BY IDOCK:   -3.93 KCAL/MOL
REMARK 927      BINDING AFFINITY PREDICTED BY RF-SCORE:    0.00 PKD
ROOT
HETATM    1  C   UNL     1      -8.482   9.401  63.252  1.00  0.00    -0.202 C  
HETATM    2  C   UNL     1      -8.373   8.933  64.714  1.00  0.00    -0.175 C  
ENDROOT
BRANCH   2   3
HETATM    3  C   UNL     1      -7.936  10.027  65.692  1.00  0.00    -0.140 A  
HETATM    4  C   UNL     1     -11.165  11.226  67.279  1.00  0.00    -0.364 A  
HETATM    5  C   UNL     1      -6.571  10.370  65.785  1.00  0.00    -0.126 A  
HETATM    6  C   UNL     1     -10.709  12.330  67.982  1.00  0.00    -0.245 A  
HETATM    7  C   UNL     1     -10.265  10.441  66.552  1.00  0.00    -0.289 A  
HETATM    8  C   UNL     1      -9.347  12.624  67.991  1.00  0.00    -0.209 A  
HETATM    9  C   UNL     1      -6.139  11.413  66.597  1.00  0.00    -0.140 A  
HETATM   10  C   UNL     1      -7.066  12.154  67.317  1.00  0.00    -0.144 A  
HETATM   11  C   UNL     1      -8.883  10.742  66.490  1.00  0.00    -0.162 A  
HETATM   12  C   UNL     1      -8.430  11.841  67.269  1.00  0.00    -0.160 A  
ENDBRANCH   2   3
BRANCH   2  13
HETATM   13  N   UNL     1      -7.614   7.677  64.857  1.00  0.00    -0.092 NA 
HETATM   14  H   UNL     1      -6.856   7.795  65.530  1.00  0.00     0.000 HD 
BRANCH  13  15
HETATM   15  C   UNL     1      -8.427   6.517  65.205  1.00  0.00    -0.087 C  
BRANCH  15  16
HETATM   16  C   UNL     1      -8.718   6.500  66.705  1.00  0.00    -0.128 C  
BRANCH  16  17
HETATM   17  C   UNL     1      -7.421   6.706  67.492  1.00  0.00    -0.097 C  
BRANCH  17  18
HETATM   18  C   UNL     1      -7.588   7.763  68.550  1.00  0.00    -0.105 A  
HETATM   19  C   UNL     1      -9.019   8.995  70.093  1.00  0.00    -0.200 A  
HETATM   20  C   UNL     1     -10.369   9.248  70.716  1.00  0.00    -0.281 C  
HETATM   21  C   UNL     1      -8.839   7.972  69.149  1.00  0.00    -0.145 A  
HETATM   22  C   UNL     1      -6.677   9.595  69.848  1.00  0.00    -0.069 A  
HETATM   23  F   UNL     1     -11.339   8.391  70.286  1.00  0.00    -0.265 F  
HETATM   24  F   UNL     1     -10.349   9.134  72.073  1.00  0.00    -0.399 F  
HETATM   25  F   UNL     1     -10.838  10.500  70.453  1.00  0.00    -0.334 F  
HETATM   26  C   UNL     1      -7.925   9.802  70.439  1.00  0.00    -0.139 A  
HETATM   27  C   UNL     1      -6.513   8.582  68.906  1.00  0.00    -0.049 A  
ENDBRANCH  17  18
ENDBRANCH  16  17
ENDBRANCH  15  16
ENDBRANCH  13  15
ENDBRANCH   2  13
TORSDOF 6
ENDMDL
MODEL      199
REMARK 921   NORMALIZED FREE ENERGY PREDICTED BY IDOCK:   -4.11 KCAL/MOL
REMARK 922        TOTAL FREE ENERGY PREDICTED BY IDOCK:   -8.67 KCAL/MOL
REMARK 923 INTER-LIGAND FREE ENERGY PREDICTED BY IDOCK:   -7.46 KCAL/MOL
REMARK 924 INTRA-LIGAND FREE ENERGY PREDICTED BY IDOCK:   -1.21 KCAL/MOL
REMARK 927      BINDING AFFINITY PREDICTED BY RF-SCORE:    0.00 PKD
ROOT
HETATM    1  C   UNL     1     -12.432  13.769  65.643  1.00  0.00    -0.541 C  
HETATM    2  C   UNL     1     -11.779  13.240  66.932  1.00  0.00    -0.388 C  
ENDROOT
BRANCH   2   3
HETATM    3  C   UNL     1     -11.311  14.336  67.894  1.00  0.00    -0.320 A  
HETATM    4  C   UNL     1     -12.779  13.345  71.248  1.00  0.00    -0.424 A  
HETATM    5  C   UNL     1     -10.536  15.406  67.401  1.00  0.00    -0.289 A  
HETATM    6  C   UNL     1     -12.484  14.473  71.997  1.00  0.00    -0.391 A  
HETATM    7  C   UNL     1     -12.371  13.269  69.912  1.00  0.00    -0.228 A  
HETATM    8  C   UNL     1     -11.747  15.506  71.423  1.00  0.00    -0.470 A  
HETATM    9  C   UNL     1     -10.160  16.466  68.220  1.00  0.00    -0.248 A  
HETATM   10  C   UNL     1     -10.570  16.490  69.547  1.00  0.00    -0.321 A  
HETATM   11  C   UNL     1     -11.672  14.324  69.278  1.00  0.00    -0.363 A  
HETATM   12  C   UNL     1     -11.327  15.442  70.084  1.00  0.00    -0.321 A  
ENDBRANCH   2   3
BRANCH   2  13
HETATM   13  N   UNL     1     -10.759  12.208  66.674  1.00  0.00    -0.239 NA 
HETATM   14  H   UNL     1      -9.830  12.559  66.908  1.00  0.00     0.000 HD 
BRANCH  13  15
HETATM   15  C   UNL     1     -11.005  10.935  67.343  1.00  0.00    -0.293 C  
BRANCH  15  16
HETATM   16  C   UNL     1      -9.702  10.151  67.494  1.00  0.00    -0.190 C  
BRANCH  16  17
HETATM   17  C   UNL     1      -9.096  10.405  68.877  1.00  0.00    -0.175 C  
BRANCH  17  18
HETATM   18  C   UNL     1      -9.669   9.465  69.904  1.00  0.00    -0.236 A  
HETATM   19  C   UNL     1      -9.929   7.206  70.783  1.00  0.00    -0.194 A  
HETATM   20  C   UNL     1      -9.621   5.731  70.726  1.00  0.00    -0.171 C  
HETATM   21  C   UNL     1      -9.353   8.100  69.867  1.00  0.00    -0.159 A  
HETATM   22  C   UNL     1     -11.134   9.060  71.791  1.00  0.00    -0.444 A  
HETATM   23  F   UNL     1      -8.742   5.392  69.739  1.00  0.00    -0.101 F  
HETATM   24  F   UNL     1      -9.073   5.266  71.884  1.00  0.00    -0.134 F  
HETATM   25  F   UNL     1     -10.732   4.974  70.508  1.00  0.00    -0.303 F  
HETATM   26  C   UNL     1     -10.820   7.700  71.747  1.00  0.00    -0.266 A  
HETATM   27  C   UNL     1     -10.563   9.936  70.871  1.00  0.00    -0.254 A  
ENDBRANCH  17  18
ENDBRANCH  16  17
ENDBRANCH  15  16
ENDBRANCH  13  15
ENDBRANCH   2  13
TORSDOF 6
ENDMDL
MODEL      200
REMARK 921   NORMALIZED FREE ENERGY PREDICTED BY IDOCK:   -4.10 KCAL/MOL
REMARK 922        TOTAL FREE ENERGY PREDICTED BY IDOCK:   -8.66 KCAL/MOL
REMARK 923 INTER-LIGAND FREE ENERGY PREDICTED BY IDOCK:   -8.04 KCAL/MOL
REMARK 924 INTRA-LIGAND FREE ENERGY PREDICTED BY IDOCK:   -0.62 KCAL/MOL
REMARK 927      BINDING AFFINITY PREDICTED BY RF-SCORE:    0.00 PKD
ROOT
HETATM    1  C   UNL     1     -11.035   6.812  66.928  1.00  0.00    -0.370 C  
HETATM    2  C   UNL     1      -9.984   7.079  68.020  1.00  0.00    -0.154 C  
ENDROOT
BRANCH   2   3
HETATM    3  C   UNL     1      -9.967   6.037  69.142  1.00  0.00    -0.205 A  
HETATM    4  C   UNL     1     -12.122   7.550  71.873  1.00  0.00    -0.338 A  
HETATM    5  C   UNL     1      -9.212   4.858  68.983  1.00  0.00    -0.165 A  
HETATM    6  C   UNL     1     -11.889   6.654  72.906  1.00  0.00     0.201 A  
HETATM    7  C   UNL     1     -11.528   7.343  70.625  1.00  0.00    -0.307 A  
HETATM    8  C   UNL     1     -11.096   5.532  72.676  1.00  0.00    -0.334 A  
HETATM    9  C   UNL     1      -9.100   3.923  70.007  1.00  0.00    -0.189 A  
HETATM   10  C   UNL     1      -9.723   4.159  71.225  1.00  0.00    -0.255 A  
HETATM   11  C   UNL     1     -10.670   6.246  70.371  1.00  0.00    -0.329 A  
HETATM   12  C   UNL     1     -10.497   5.309  71.426  1.00  0.00    -0.273 A  
ENDBRANCH   2   3
BRANCH   2  13
HETATM   13  N   UNL     1     -10.006   8.469  68.507  1.00  0.00    -0.178 NA 
HETATM   14  H   UNL     1      -9.103   8.719  68.911  1.00  0.00     0.000 HD 
BRANCH  13  15
HETATM   15  C   UNL     1     -10.406   9.454  67.507  1.00  0.00    -0.255 C  
BRANCH  15  16
HETATM   16  C   UNL     1     -11.495  10.368  68.064  1.00  0.00    -0.161 C  
BRANCH  16  17
HETATM   17  C   UNL     1     -10.861  11.524  68.842  1.00  0.00    -0.263 C  
BRANCH  17  18
HETATM   18  C   UNL     1     -11.768  12.002  69.944  1.00  0.00    -0.374 A  
HETATM   19  C   UNL     1     -12.808  13.832  71.175  1.00  0.00    -0.409 A  
HETATM   20  C   UNL     1     -13.048  15.306  71.384  1.00  0.00    -0.454 C  
HETATM   21  C   UNL     1     -12.013  13.372  70.114  1.00  0.00    -0.396 A  
HETATM   22  C   UNL     1     -13.128  11.532  71.894  1.00  0.00    -0.492 A  
HETATM   23  F   UNL     1     -12.444  16.097  70.451  1.00  0.00    -0.343 F  
HETATM   24  F   UNL     1     -14.370  15.632  71.346  1.00  0.00    -0.531 F  
HETATM   25  F   UNL     1     -12.590  15.742  72.591  1.00  0.00    -0.386 F  
HETATM   26  C   UNL     1     -13.366  12.898  72.061  1.00  0.00    -0.579 A  
HETATM   27  C   UNL     1     -12.329  11.089  70.842  1.00  0.00    -0.503 A  
ENDBRANCH  17  18
ENDBRANCH  16  17
ENDBRANCH  15  16
ENDBRANCH  13  15
ENDBRANCH   2  13
TORSDOF 6
ENDMDL
MODEL      201
REMARK 921   NORMALIZED FREE ENERGY PREDICTED BY IDOCK:   -4.08 KCAL/MOL
REMARK 922        TOTAL FREE ENERGY PREDICTED BY IDOCK:   -8.64 KCAL/MOL
REMARK 923 INTER-LIGAND FREE ENERGY PREDICTED BY IDOCK:   -5.72 KCAL/MOL
REMARK 924 INTRA-LIGAND FREE ENERGY PREDICTED BY IDOCK:   -2.92 KCAL/MOL
REMARK 927      BINDING AFFINITY PREDICTED BY RF-SCORE:    0.00 PKD
ROOT
HETATM    1  C   UNL     1      -8.304  16.950  67.986  1.00  0.00    -0.204 C  
HETATM    2  C   UNL     1      -8.559  15.679  67.156  1.00  0.00    -0.210 C  
ENDROOT
BRANCH   2   3
HETATM    3  C   UNL     1      -9.880  14.974  67.480  1.00  0.00    -0.217 A  
HETATM    4  C   UNL     1     -10.505  12.716  64.496  1.00  0.00    -0.379 A  
HETATM    5  C   UNL     1     -10.557  15.286  68.676  1.00  0.00    -0.236 A  
HETATM    6  C   UNL     1     -11.791  12.280  64.773  1.00  0.00    -0.428 A  
HETATM    7  C   UNL     1      -9.851  13.570  65.390  1.00  0.00    -0.141 A  
HETATM    8  C   UNL     1     -12.408  12.667  65.961  1.00  0.00    -0.177 A  
HETATM    9  C   UNL     1     -11.799  14.733  68.972  1.00  0.00    -0.337 A  
HETATM   10  C   UNL     1     -12.403  13.872  68.064  1.00  0.00     0.004 A  
HETATM   11  C   UNL     1     -10.467  14.031  66.578  1.00  0.00    -0.281 A  
HETATM   12  C   UNL     1     -11.761  13.521  66.870  1.00  0.00    -0.424 A  
ENDBRANCH   2   3
BRANCH   2  13
HETATM   13  N   UNL     1      -7.398  14.772  67.127  1.00  0.00    -0.288 NA 
HETATM   14  H   UNL     1      -6.634  15.189  66.595  1.00  0.00     0.000 HD 
BRANCH  13  15
HETATM   15  C   UNL     1      -6.930  14.348  68.442  1.00  0.00    -0.109 C  
BRANCH  15  16
HETATM   16  C   UNL     1      -6.633  12.850  68.445  1.00  0.00    -0.085 C  
BRANCH  16  17
HETATM   17  C   UNL     1      -7.105  12.220  67.132  1.00  0.00    -0.102 C  
BRANCH  17  18
HETATM   18  C   UNL     1      -8.239  11.258  67.365  1.00  0.00    -0.135 A  
HETATM   19  C   UNL     1     -10.254  10.630  68.584  1.00  0.00    -0.196 A  
HETATM   20  C   UNL     1     -11.300  10.919  69.632  1.00  0.00    -0.292 C  
HETATM   21  C   UNL     1      -9.226  11.547  68.317  1.00  0.00    -0.186 A  
HETATM   22  C   UNL     1      -9.309   9.130  66.923  1.00  0.00    -0.199 A  
HETATM   23  F   UNL     1     -11.144  12.128  70.243  1.00  0.00    -0.046 F  
HETATM   24  F   UNL     1     -12.564  10.922  69.124  1.00  0.00    -0.350 F  
HETATM   25  F   UNL     1     -11.302   9.996  70.634  1.00  0.00    -0.302 F  
HETATM   26  C   UNL     1     -10.287   9.420  67.875  1.00  0.00    -0.276 A  
HETATM   27  C   UNL     1      -8.288  10.044  66.673  1.00  0.00    -0.125 A  
ENDBRANCH  17  18
ENDBRANCH  16  17
ENDBRANCH  15  16
ENDBRANCH  13  15
ENDBRANCH   2  13
TORSDOF 6
ENDMDL
MODEL      202
REMARK 921   NORMALIZED FREE ENERGY PREDICTED BY IDOCK:   -4.06 KCAL/MOL
REMARK 922        TOTAL FREE ENERGY PREDICTED BY IDOCK:   -8.62 KCAL/MOL
REMARK 923 INTER-LIGAND FREE ENERGY PREDICTED BY IDOCK:   -4.81 KCAL/MOL
REMARK 924 INTRA-LIGAND FREE ENERGY PREDICTED BY IDOCK:   -3.81 KCAL/MOL
REMARK 927      BINDING AFFINITY PREDICTED BY RF-SCORE:    0.00 PKD
ROOT
HETATM    1  C   UNL     1      -9.777   3.125  71.336  1.00  0.00    -0.219 C  
HETATM    2  C   UNL     1      -9.455   4.427  70.583  1.00  0.00    -0.172 C  
ENDROOT
BRANCH   2   3
HETATM    3  C   UNL     1      -9.779   5.702  71.367  1.00  0.00    -0.204 A  
HETATM    4  C   UNL     1      -6.406   7.329  71.969  1.00  0.00    -0.043 A  
HETATM    5  C   UNL     1     -11.117   5.984  71.711  1.00  0.00    -0.332 A  
HETATM    6  C   UNL     1      -6.765   8.344  72.841  1.00  0.00    -0.103 A  
HETATM    7  C   UNL     1      -7.385   6.477  71.450  1.00  0.00    -0.084 A  
HETATM    8  C   UNL     1      -8.108   8.532  73.162  1.00  0.00    -0.082 A  
HETATM    9  C   UNL     1     -11.449   7.085  72.493  1.00  0.00    -0.275 A  
HETATM   10  C   UNL     1     -10.445   7.918  72.971  1.00  0.00    -0.410 A  
HETATM   11  C   UNL     1      -8.752   6.599  71.798  1.00  0.00    -0.129 A  
HETATM   12  C   UNL     1      -9.103   7.686  72.644  1.00  0.00    -0.209 A  
ENDBRANCH   2   3
BRANCH   2  13
HETATM   13  N   UNL     1      -9.978   4.435  69.205  1.00  0.00    -0.122 NA 
HETATM   14  H   UNL     1     -10.709   5.139  69.106  1.00  0.00     0.000 HD 
BRANCH  13  15
HETATM   15  C   UNL     1      -8.961   4.611  68.174  1.00  0.00    -0.114 C  
BRANCH  15  16
HETATM   16  C   UNL     1      -9.212   5.898  67.391  1.00  0.00    -0.108 C  
BRANCH  16  17
HETATM   17  C   UNL     1     -10.506   6.559  67.872  1.00  0.00    -0.273 C  
BRANCH  17  18
HETATM   18  C   UNL     1     -10.220   7.815  68.652  1.00  0.00    -0.217 A  
HETATM   19  C   UNL     1     -11.019   9.744  69.909  1.00  0.00    -0.299 A  
HETATM   20  C   UNL     1     -12.146  10.549  70.505  1.00  0.00    -0.345 C  
HETATM   21  C   UNL     1     -11.269   8.541  69.231  1.00  0.00     0.261 A  
HETATM   22  C   UNL     1      -8.649   9.485  69.436  1.00  0.00    -0.159 A  
HETATM   23  F   UNL     1     -13.375   9.983  70.332  1.00  0.00    -0.310 F  
HETATM   24  F   UNL     1     -12.008  10.728  71.849  1.00  0.00    -0.233 F  
HETATM   25  F   UNL     1     -12.236  11.798  69.969  1.00  0.00    -0.341 F  
HETATM   26  C   UNL     1      -9.698  10.207  70.009  1.00  0.00    -0.144 A  
HETATM   27  C   UNL     1      -8.911   8.297  68.758  1.00  0.00    -0.144 A  
ENDBRANCH  17  18
ENDBRANCH  16  17
ENDBRANCH  15  16
ENDBRANCH  13  15
ENDBRANCH   2  13
TORSDOF 6
ENDMDL
MODEL      203
REMARK 921   NORMALIZED FREE ENERGY PREDICTED BY IDOCK:   -4.06 KCAL/MOL
REMARK 922        TOTAL FREE ENERGY PREDICTED BY IDOCK:   -8.61 KCAL/MOL
REMARK 923 INTER-LIGAND FREE ENERGY PREDICTED BY IDOCK:   -7.45 KCAL/MOL
REMARK 924 INTRA-LIGAND FREE ENERGY PREDICTED BY IDOCK:   -1.16 KCAL/MOL
REMARK 927      BINDING AFFINITY PREDICTED BY RF-SCORE:    0.00 PKD
ROOT
HETATM    1  C   UNL     1     -11.733  15.060  68.137  1.00  0.00    -0.335 C  
HETATM    2  C   UNL     1     -10.719  15.212  66.989  1.00  0.00    -0.307 C  
ENDROOT
BRANCH   2   3
HETATM    3  C   UNL     1      -9.283  15.479  67.451  1.00  0.00    -0.209 A  
HETATM    4  C   UNL     1      -9.364  19.021  68.804  1.00  0.00    -0.405 A  
HETATM    5  C   UNL     1      -8.302  14.481  67.276  1.00  0.00    -0.232 A  
HETATM    6  C   UNL     1      -8.011  19.246  69.007  1.00  0.00    -0.299 A  
HETATM    7  C   UNL     1      -9.800  17.781  68.329  1.00  0.00    -0.340 A  
HETATM    8  C   UNL     1      -7.100  18.219  68.772  1.00  0.00    -0.291 A  
HETATM    9  C   UNL     1      -6.970  14.709  67.604  1.00  0.00    -0.205 A  
HETATM   10  C   UNL     1      -6.583  15.950  68.093  1.00  0.00    -0.133 A  
HETATM   11  C   UNL     1      -8.899  16.732  68.023  1.00  0.00    -0.216 A  
HETATM   12  C   UNL     1      -7.525  16.966  68.298  1.00  0.00    -0.192 A  
ENDBRANCH   2   3
BRANCH   2  13
HETATM   13  N   UNL     1     -11.180  16.136  65.937  1.00  0.00     0.064 NA 
HETATM   14  H   UNL     1     -10.639  17.001  65.962  1.00  0.00     0.000 HD 
BRANCH  13  15
HETATM   15  C   UNL     1     -11.176  15.571  64.592  1.00  0.00    -0.371 C  
BRANCH  15  16
HETATM   16  C   UNL     1     -12.429  14.729  64.364  1.00  0.00    -0.274 C  
BRANCH  16  17
HETATM   17  C   UNL     1     -12.116  13.573  63.410  1.00  0.00    -0.351 C  
BRANCH  17  18
HETATM   18  C   UNL     1     -11.335  12.489  64.105  1.00  0.00    -0.440 A  
HETATM   19  C   UNL     1     -10.829  11.219  66.124  1.00  0.00    -0.281 A  
HETATM   20  C   UNL     1     -11.077  10.911  67.579  1.00  0.00    -0.310 C  
HETATM   21  C   UNL     1     -11.592  12.185  65.450  1.00  0.00    -0.383 A  
HETATM   22  C   UNL     1      -9.553  10.848  64.089  1.00  0.00    -0.321 A  
HETATM   23  F   UNL     1     -12.094  11.634  68.127  1.00  0.00    -0.362 F  
HETATM   24  F   UNL     1     -11.397   9.603  67.790  1.00  0.00    -0.279 F  
HETATM   25  F   UNL     1      -9.986  11.158  68.357  1.00  0.00    -0.161 F  
HETATM   26  C   UNL     1      -9.810  10.551  65.429  1.00  0.00    -0.335 A  
HETATM   27  C   UNL     1     -10.310  11.815  63.434  1.00  0.00    -0.481 A  
ENDBRANCH  17  18
ENDBRANCH  16  17
ENDBRANCH  15  16
ENDBRANCH  13  15
ENDBRANCH   2  13
TORSDOF 6
ENDMDL
MODEL      204
REMARK 921   NORMALIZED FREE ENERGY PREDICTED BY IDOCK:   -4.06 KCAL/MOL
REMARK 922        TOTAL FREE ENERGY PREDICTED BY IDOCK:   -8.61 KCAL/MOL
REMARK 923 INTER-LIGAND FREE ENERGY PREDICTED BY IDOCK:   -6.51 KCAL/MOL
REMARK 924 INTRA-LIGAND FREE ENERGY PREDICTED BY IDOCK:   -2.10 KCAL/MOL
REMARK 927      BINDING AFFINITY PREDICTED BY RF-SCORE:    0.00 PKD
ROOT
HETATM    1  C   UNL     1      -5.422  18.110  65.880  1.00  0.00    -0.229 C  
HETATM    2  C   UNL     1      -6.264  17.173  66.764  1.00  0.00    -0.209 C  
ENDROOT
BRANCH   2   3
HETATM    3  C   UNL     1      -7.770  17.241  66.494  1.00  0.00    -0.325 A  
HETATM    4  C   UNL     1      -8.762  20.751  67.534  1.00  0.00    -0.195 A  
HETATM    5  C   UNL     1      -8.438  16.103  65.997  1.00  0.00    -0.155 A  
HETATM    6  C   UNL     1     -10.143  20.660  67.451  1.00  0.00    -0.359 A  
HETATM    7  C   UNL     1      -7.969  19.652  67.191  1.00  0.00    -0.308 A  
HETATM    8  C   UNL     1     -10.727  19.484  66.986  1.00  0.00    -0.592 A  
HETATM    9  C   UNL     1      -9.817  16.093  65.816  1.00  0.00    -0.354 A  
HETATM   10  C   UNL     1     -10.564  17.215  66.151  1.00  0.00    -0.201 A  
HETATM   11  C   UNL     1      -8.529  18.422  66.770  1.00  0.00    -0.274 A  
HETATM   12  C   UNL     1      -9.943  18.374  66.634  1.00  0.00    -0.382 A  
ENDBRANCH   2   3
BRANCH   2  13
HETATM   13  N   UNL     1      -5.917  17.269  68.193  1.00  0.00    -0.134 NA 
HETATM   14  H   UNL     1      -6.723  17.581  68.735  1.00  0.00     0.000 HD 
BRANCH  13  15
HETATM   15  C   UNL     1      -5.364  16.046  68.764  1.00  0.00    -0.104 C  
BRANCH  15  16
HETATM   16  C   UNL     1      -5.803  14.831  67.950  1.00  0.00    -0.146 C  
BRANCH  16  17
HETATM   17  C   UNL     1      -6.505  13.818  68.859  1.00  0.00    -0.100 C  
BRANCH  17  18
HETATM   18  C   UNL     1      -7.986  14.076  68.920  1.00  0.00    -0.025 A  
HETATM   19  C   UNL     1     -10.262  13.462  68.297  1.00  0.00    -0.250 A  
HETATM   20  C   UNL     1     -11.229  12.540  67.598  1.00  0.00    -0.282 C  
HETATM   21  C   UNL     1      -8.883  13.198  68.296  1.00  0.00    -0.175 A  
HETATM   22  C   UNL     1      -9.844  15.491  69.568  1.00  0.00    -0.284 A  
HETATM   23  F   UNL     1     -10.634  11.462  67.013  1.00  0.00    -0.237 F  
HETATM   24  F   UNL     1     -12.169  12.030  68.443  1.00  0.00    -0.369 F  
HETATM   25  F   UNL     1     -11.920  13.166  66.604  1.00  0.00    -0.385 F  
HETATM   26  C   UNL     1     -10.733  14.615  68.942  1.00  0.00    -0.251 A  
HETATM   27  C   UNL     1      -8.477  15.222  69.553  1.00  0.00    -0.188 A  
ENDBRANCH  17  18
ENDBRANCH  16  17
ENDBRANCH  15  16
ENDBRANCH  13  15
ENDBRANCH   2  13
TORSDOF 6
ENDMDL
MODEL      205
REMARK 921   NORMALIZED FREE ENERGY PREDICTED BY IDOCK:   -4.05 KCAL/MOL
REMARK 922        TOTAL FREE ENERGY PREDICTED BY IDOCK:   -8.60 KCAL/MOL
REMARK 923 INTER-LIGAND FREE ENERGY PREDICTED BY IDOCK:   -7.96 KCAL/MOL
REMARK 924 INTRA-LIGAND FREE ENERGY PREDICTED BY IDOCK:   -0.64 KCAL/MOL
REMARK 927      BINDING AFFINITY PREDICTED BY RF-SCORE:    0.00 PKD
ROOT
HETATM    1  C   UNL     1     -11.246   9.996  70.688  1.00  0.00    -0.425 C  
HETATM    2  C   UNL     1     -10.315   9.277  69.695  1.00  0.00    -0.217 C  
ENDROOT
BRANCH   2   3
HETATM    3  C   UNL     1      -9.340   8.294  70.350  1.00  0.00    -0.162 A  
HETATM    4  C   UNL     1     -11.557   5.907  72.292  1.00  0.00    -0.338 A  
HETATM    5  C   UNL     1      -7.953   8.462  70.157  1.00  0.00    -0.102 A  
HETATM    6  C   UNL     1     -10.603   5.194  73.000  1.00  0.00    -0.278 A  
HETATM    7  C   UNL     1     -11.159   6.902  71.393  1.00  0.00    -0.284 A  
HETATM    8  C   UNL     1      -9.251   5.448  72.781  1.00  0.00    -0.142 A  
HETATM    9  C   UNL     1      -7.028   7.645  70.798  1.00  0.00    -0.047 A  
HETATM   10  C   UNL     1      -7.469   6.655  71.667  1.00  0.00    -0.088 A  
HETATM   11  C   UNL     1      -9.797   7.229  71.187  1.00  0.00    -0.182 A  
HETATM   12  C   UNL     1      -8.836   6.442  71.878  1.00  0.00    -0.138 A  
ENDBRANCH   2   3
BRANCH   2  13
HETATM   13  N   UNL     1      -9.672  10.200  68.743  1.00  0.00    -0.165 NA 
HETATM   14  H   UNL     1      -8.905   9.733  68.260  1.00  0.00     0.000 HD 
BRANCH  13  15
HETATM   15  C   UNL     1     -10.585  10.808  67.781  1.00  0.00    -0.228 C  
BRANCH  15  16
HETATM   16  C   UNL     1     -10.483  12.331  67.837  1.00  0.00    -0.227 C  
BRANCH  16  17
HETATM   17  C   UNL     1     -11.850  12.935  68.169  1.00  0.00    -0.380 C  
BRANCH  17  18
HETATM   18  C   UNL     1     -11.746  13.932  69.292  1.00  0.00    -0.381 A  
HETATM   19  C   UNL     1     -12.421  14.687  71.510  1.00  0.00    -0.411 A  
HETATM   20  C   UNL     1     -13.216  14.497  72.777  1.00  0.00    -0.508 C  
HETATM   21  C   UNL     1     -12.463  13.734  70.480  1.00  0.00    -0.409 A  
HETATM   22  C   UNL     1     -10.922  16.040  70.157  1.00  0.00    -0.369 A  
HETATM   23  F   UNL     1     -13.929  13.335  72.807  1.00  0.00    -0.600 F  
HETATM   24  F   UNL     1     -12.430  14.479  73.890  1.00  0.00    -0.565 F  
HETATM   25  F   UNL     1     -14.124  15.493  72.977  1.00  0.00    -0.539 F  
HETATM   26  C   UNL     1     -11.641  15.840  71.337  1.00  0.00    -0.511 A  
HETATM   27  C   UNL     1     -10.980  15.091  69.139  1.00  0.00    -0.265 A  
ENDBRANCH  17  18
ENDBRANCH  16  17
ENDBRANCH  15  16
ENDBRANCH  13  15
ENDBRANCH   2  13
TORSDOF 6
ENDMDL
MODEL      206
REMARK 921   NORMALIZED FREE ENERGY PREDICTED BY IDOCK:   -4.03 KCAL/MOL
REMARK 922        TOTAL FREE ENERGY PREDICTED BY IDOCK:   -8.57 KCAL/MOL
REMARK 923 INTER-LIGAND FREE ENERGY PREDICTED BY IDOCK:   -4.87 KCAL/MOL
REMARK 924 INTRA-LIGAND FREE ENERGY PREDICTED BY IDOCK:   -3.69 KCAL/MOL
REMARK 927      BINDING AFFINITY PREDICTED BY RF-SCORE:    0.00 PKD
ROOT
HETATM    1  C   UNL     1      -7.521   7.816  65.171  1.00  0.00    -0.083 C  
HETATM    2  C   UNL     1      -8.762   7.348  65.950  1.00  0.00    -0.140 C  
ENDROOT
BRANCH   2   3
HETATM    3  C   UNL     1      -9.192   8.297  67.074  1.00  0.00    -0.187 A  
HETATM    4  C   UNL     1      -6.361   8.129  69.592  1.00  0.00    -0.033 A  
HETATM    5  C   UNL     1     -10.436   8.955  66.987  1.00  0.00    -0.326 A  
HETATM    6  C   UNL     1      -6.914   8.842  70.644  1.00  0.00    -0.064 A  
HETATM    7  C   UNL     1      -7.079   7.972  68.403  1.00  0.00    -0.084 A  
HETATM    8  C   UNL     1      -8.168   9.430  70.492  1.00  0.00    -0.221 A  
HETATM    9  C   UNL     1     -10.904   9.759  68.021  1.00  0.00    -0.276 A  
HETATM   10  C   UNL     1     -10.148   9.905  69.177  1.00  0.00    -0.210 A  
HETATM   11  C   UNL     1      -8.380   8.504  68.232  1.00  0.00    -0.124 A  
HETATM   12  C   UNL     1      -8.899   9.283  69.302  1.00  0.00    -0.146 A  
ENDBRANCH   2   3
BRANCH   2  13
HETATM   13  N   UNL     1      -8.676   5.939  66.370  1.00  0.00    -0.126 NA 
HETATM   14  H   UNL     1      -8.393   5.876  67.349  1.00  0.00     0.000 HD 
BRANCH  13  15
HETATM   15  C   UNL     1      -9.892   5.165  66.142  1.00  0.00    -0.185 C  
BRANCH  15  16
HETATM   16  C   UNL     1     -10.497   4.717  67.471  1.00  0.00     0.033 C  
BRANCH  16  17
HETATM   17  C   UNL     1      -9.497   4.952  68.607  1.00  0.00    -0.198 C  
BRANCH  17  18
HETATM   18  C   UNL     1     -10.108   5.776  69.709  1.00  0.00    -0.273 A  
HETATM   19  C   UNL     1      -9.979   6.724  71.951  1.00  0.00    -0.187 A  
HETATM   20  C   UNL     1      -9.233   6.949  73.242  1.00  0.00    -0.138 C  
HETATM   21  C   UNL     1      -9.396   6.009  70.894  1.00  0.00    -0.175 A  
HETATM   22  C   UNL     1     -11.996   6.989  70.621  1.00  0.00    -0.361 A  
HETATM   23  F   UNL     1      -7.978   6.416  73.249  1.00  0.00    -0.103 F  
HETATM   24  F   UNL     1      -9.075   8.270  73.533  1.00  0.00    -0.309 F  
HETATM   25  F   UNL     1      -9.872   6.404  74.315  1.00  0.00    -0.188 F  
HETATM   26  C   UNL     1     -11.285   7.215  71.801  1.00  0.00    -0.278 A  
HETATM   27  C   UNL     1     -11.410   6.270  69.583  1.00  0.00    -0.492 A  
ENDBRANCH  17  18
ENDBRANCH  16  17
ENDBRANCH  15  16
ENDBRANCH  13  15
ENDBRANCH   2  13
TORSDOF 6
ENDMDL
MODEL      207
REMARK 921   NORMALIZED FREE ENERGY PREDICTED BY IDOCK:   -4.02 KCAL/MOL
REMARK 922        TOTAL FREE ENERGY PREDICTED BY IDOCK:   -8.56 KCAL/MOL
REMARK 923 INTER-LIGAND FREE ENERGY PREDICTED BY IDOCK:   -7.82 KCAL/MOL
REMARK 924 INTRA-LIGAND FREE ENERGY PREDICTED BY IDOCK:   -0.75 KCAL/MOL
REMARK 927      BINDING AFFINITY PREDICTED BY RF-SCORE:    0.00 PKD
ROOT
HETATM    1  C   UNL     1      -7.703  14.312  67.158  1.00  0.00    -0.046 C  
HETATM    2  C   UNL     1      -8.804  15.363  67.388  1.00  0.00    -0.183 C  
ENDROOT
BRANCH   2   3
HETATM    3  C   UNL     1      -8.287  16.712  67.896  1.00  0.00    -0.187 A  
HETATM    4  C   UNL     1     -10.640  19.265  66.369  1.00  0.00    -0.542 A  
HETATM    5  C   UNL     1      -7.141  16.751  68.716  1.00  0.00    -0.202 A  
HETATM    6  C   UNL     1      -9.991  20.442  66.707  1.00  0.00    -0.525 A  
HETATM    7  C   UNL     1     -10.114  18.037  66.781  1.00  0.00    -0.357 A  
HETATM    8  C   UNL     1      -8.839  20.393  67.489  1.00  0.00    -0.386 A  
HETATM    9  C   UNL     1      -6.587  17.957  69.132  1.00  0.00    -0.240 A  
HETATM   10  C   UNL     1      -7.154  19.155  68.715  1.00  0.00    -0.366 A  
HETATM   11  C   UNL     1      -8.915  17.943  67.527  1.00  0.00    -0.248 A  
HETATM   12  C   UNL     1      -8.302  19.166  67.913  1.00  0.00    -0.333 A  
ENDBRANCH   2   3
BRANCH   2  13
HETATM   13  N   UNL     1      -9.942  14.838  68.164  1.00  0.00    -0.217 NA 
HETATM   14  H   UNL     1     -10.141  15.447  68.958  1.00  0.00     0.000 HD 
BRANCH  13  15
HETATM   15  C   UNL     1     -11.152  14.609  67.382  1.00  0.00    -0.326 C  
BRANCH  15  16
HETATM   16  C   UNL     1     -11.469  13.116  67.314  1.00  0.00    -0.375 C  
BRANCH  16  17
HETATM   17  C   UNL     1     -11.983  12.628  68.671  1.00  0.00    -0.264 C  
BRANCH  17  18
HETATM   18  C   UNL     1     -11.450  11.258  68.995  1.00  0.00    -0.369 A  
HETATM   19  C   UNL     1     -10.590   9.101  68.254  1.00  0.00    -0.223 A  
HETATM   20  C   UNL     1     -10.171   8.162  67.150  1.00  0.00    -0.296 C  
HETATM   21  C   UNL     1     -11.032  10.401  67.967  1.00  0.00    -0.347 A  
HETATM   22  C   UNL     1     -10.973   9.522  70.616  1.00  0.00    -0.370 A  
HETATM   23  F   UNL     1     -10.251   8.710  65.904  1.00  0.00    -0.306 F  
HETATM   24  F   UNL     1      -8.884   7.736  67.285  1.00  0.00    -0.123 F  
HETATM   25  F   UNL     1     -10.935   7.034  67.108  1.00  0.00    -0.362 F  
HETATM   26  C   UNL     1     -10.561   8.671  69.588  1.00  0.00    -0.219 A  
HETATM   27  C   UNL     1     -11.418  10.807  70.318  1.00  0.00    -0.406 A  
ENDBRANCH  17  18
ENDBRANCH  16  17
ENDBRANCH  15  16
ENDBRANCH  13  15
ENDBRANCH   2  13
TORSDOF 6
ENDMDL
MODEL      208
REMARK 921   NORMALIZED FREE ENERGY PREDICTED BY IDOCK:   -4.02 KCAL/MOL
REMARK 922        TOTAL FREE ENERGY PREDICTED BY IDOCK:   -8.56 KCAL/MOL
REMARK 923 INTER-LIGAND FREE ENERGY PREDICTED BY IDOCK:   -7.54 KCAL/MOL
REMARK 924 INTRA-LIGAND FREE ENERGY PREDICTED BY IDOCK:   -1.01 KCAL/MOL
REMARK 927      BINDING AFFINITY PREDICTED BY RF-SCORE:    0.00 PKD
ROOT
HETATM    1  C   UNL     1     -10.943   6.182  67.117  1.00  0.00    -0.420 C  
HETATM    2  C   UNL     1      -9.674   5.868  67.930  1.00  0.00    -0.119 C  
ENDROOT
BRANCH   2   3
HETATM    3  C   UNL     1      -9.939   5.540  69.403  1.00  0.00    -0.276 A  
HETATM    4  C   UNL     1     -11.131   8.813  70.904  1.00  0.00    -0.320 A  
HETATM    5  C   UNL     1      -9.686   4.237  69.879  1.00  0.00    -0.291 A  
HETATM    6  C   UNL     1     -11.151   8.483  72.250  1.00  0.00    -0.430 A  
HETATM    7  C   UNL     1     -10.771   7.851  69.956  1.00  0.00    -0.244 A  
HETATM    8  C   UNL     1     -10.849   7.181  72.643  1.00  0.00    -0.315 A  
HETATM    9  C   UNL     1      -9.832   3.916  71.225  1.00  0.00    -0.227 A  
HETATM   10  C   UNL     1     -10.212   4.899  72.130  1.00  0.00    -0.257 A  
HETATM   11  C   UNL     1     -10.401   6.534  70.322  1.00  0.00    -0.241 A  
HETATM   12  C   UNL     1     -10.489   6.203  71.701  1.00  0.00    -0.267 A  
ENDBRANCH   2   3
BRANCH   2  13
HETATM   13  N   UNL     1      -8.606   6.863  67.731  1.00  0.00    -0.122 NA 
HETATM   14  H   UNL     1      -7.830   6.684  68.369  1.00  0.00     0.000 HD 
BRANCH  13  15
HETATM   15  C   UNL     1      -8.123   6.965  66.358  1.00  0.00    -0.113 C  
BRANCH  15  16
HETATM   16  C   UNL     1      -8.400   8.358  65.796  1.00  0.00    -0.150 C  
BRANCH  16  17
HETATM   17  C   UNL     1      -8.542   9.365  66.941  1.00  0.00    -0.132 C  
BRANCH  17  18
HETATM   18  C   UNL     1      -9.696  10.302  66.702  1.00  0.00    -0.233 A  
HETATM   19  C   UNL     1     -10.957  11.756  65.206  1.00  0.00    -0.350 A  
HETATM   20  C   UNL     1     -11.183  12.360  63.843  1.00  0.00    -0.422 C  
HETATM   21  C   UNL     1      -9.921  10.835  65.425  1.00  0.00    -0.330 A  
HETATM   22  C   UNL     1     -11.556  11.599  67.556  1.00  0.00    -0.345 A  
HETATM   23  F   UNL     1     -10.315  11.908  62.893  1.00  0.00    -0.370 F  
HETATM   24  F   UNL     1     -12.430  12.103  63.357  1.00  0.00    -0.575 F  
HETATM   25  F   UNL     1     -11.056  13.716  63.846  1.00  0.00    -0.347 F  
HETATM   26  C   UNL     1     -11.774  12.130  66.283  1.00  0.00    -0.389 A  
HETATM   27  C   UNL     1     -10.519  10.693  67.763  1.00  0.00    -0.258 A  
ENDBRANCH  17  18
ENDBRANCH  16  17
ENDBRANCH  15  16
ENDBRANCH  13  15
ENDBRANCH   2  13
TORSDOF 6
ENDMDL
MODEL      209
REMARK 921   NORMALIZED FREE ENERGY PREDICTED BY IDOCK:   -3.99 KCAL/MOL
REMARK 922        TOTAL FREE ENERGY PREDICTED BY IDOCK:   -8.52 KCAL/MOL
REMARK 923 INTER-LIGAND FREE ENERGY PREDICTED BY IDOCK:   -6.36 KCAL/MOL
REMARK 924 INTRA-LIGAND FREE ENERGY PREDICTED BY IDOCK:   -2.16 KCAL/MOL
REMARK 927      BINDING AFFINITY PREDICTED BY RF-SCORE:    0.00 PKD
ROOT
HETATM    1  C   UNL     1     -13.904   7.179  71.360  1.00  0.00    -0.368 C  
HETATM    2  C   UNL     1     -12.829   8.064  72.015  1.00  0.00    -0.287 C  
ENDROOT
BRANCH   2   3
HETATM    3  C   UNL     1     -12.112   9.004  71.042  1.00  0.00    -0.304 A  
HETATM    4  C   UNL     1     -13.313  12.469  72.013  1.00  0.00    -0.528 A  
HETATM    5  C   UNL     1     -11.261   8.464  70.056  1.00  0.00    -0.085 A  
HETATM    6  C   UNL     1     -12.785  13.220  70.975  1.00  0.00    -0.374 A  
HETATM    7  C   UNL     1     -13.072  11.093  72.069  1.00  0.00    -0.433 A  
HETATM    8  C   UNL     1     -11.986  12.603  70.016  1.00  0.00    -0.377 A  
HETATM    9  C   UNL     1     -10.655   9.272  69.100  1.00  0.00    -0.228 A  
HETATM   10  C   UNL     1     -10.906  10.638  69.093  1.00  0.00    -0.279 A  
HETATM   11  C   UNL     1     -12.313  10.420  71.082  1.00  0.00    -0.505 A  
HETATM   12  C   UNL     1     -11.732  11.222  70.062  1.00  0.00    -0.428 A  
ENDBRANCH   2   3
BRANCH   2  13
HETATM   13  N   UNL     1     -11.912   7.302  72.882  1.00  0.00    -0.520 NA 
HETATM   14  H   UNL     1     -12.239   7.321  73.848  1.00  0.00     0.000 HD 
BRANCH  13  15
HETATM   15  C   UNL     1     -11.676   5.928  72.452  1.00  0.00    -0.253 C  
BRANCH  15  16
HETATM   16  C   UNL     1     -10.229   5.523  72.728  1.00  0.00    -0.216 C  
BRANCH  16  17
HETATM   17  C   UNL     1      -9.413   6.750  73.143  1.00  0.00    -0.166 C  
BRANCH  17  18
HETATM   18  C   UNL     1      -8.646   7.314  71.976  1.00  0.00    -0.117 A  
HETATM   19  C   UNL     1      -7.690   7.040  69.750  1.00  0.00    -0.109 A  
HETATM   20  C   UNL     1      -7.451   6.206  68.517  1.00  0.00    -0.087 C  
HETATM   21  C   UNL     1      -8.454   6.546  70.819  1.00  0.00    -0.134 A  
HETATM   22  C   UNL     1      -7.319   9.091  71.000  1.00  0.00    -0.125 A  
HETATM   23  F   UNL     1      -8.054   4.984  68.556  1.00  0.00    -0.084 F  
HETATM   24  F   UNL     1      -7.906   6.807  67.382  1.00  0.00    -0.102 F  
HETATM   25  F   UNL     1      -6.128   5.959  68.304  1.00  0.00    -0.017 F  
HETATM   26  C   UNL     1      -7.127   8.321  69.851  1.00  0.00    -0.055 A  
HETATM   27  C   UNL     1      -8.072   8.586  72.058  1.00  0.00    -0.175 A  
ENDBRANCH  17  18
ENDBRANCH  16  17
ENDBRANCH  15  16
ENDBRANCH  13  15
ENDBRANCH   2  13
TORSDOF 6
ENDMDL
MODEL      210
REMARK 921   NORMALIZED FREE ENERGY PREDICTED BY IDOCK:   -3.98 KCAL/MOL
REMARK 922        TOTAL FREE ENERGY PREDICTED BY IDOCK:   -8.51 KCAL/MOL
REMARK 923 INTER-LIGAND FREE ENERGY PREDICTED BY IDOCK:   -6.16 KCAL/MOL
REMARK 924 INTRA-LIGAND FREE ENERGY PREDICTED BY IDOCK:   -2.34 KCAL/MOL
REMARK 927      BINDING AFFINITY PREDICTED BY RF-SCORE:    0.00 PKD
ROOT
HETATM    1  C   UNL     1     -10.342  19.232  67.970  1.00  0.00    -0.506 C  
HETATM    2  C   UNL     1      -9.816  18.324  66.844  1.00  0.00    -0.331 C  
ENDROOT
BRANCH   2   3
HETATM    3  C   UNL     1     -10.539  16.978  66.735  1.00  0.00    -0.191 A  
HETATM    4  C   UNL     1     -11.003  15.855  70.328  1.00  0.00    -0.370 A  
HETATM    5  C   UNL     1     -10.833  16.451  65.460  1.00  0.00    -0.224 A  
HETATM    6  C   UNL     1     -11.469  14.565  70.132  1.00  0.00    -0.297 A  
HETATM    7  C   UNL     1     -10.727  16.671  69.226  1.00  0.00    -0.337 A  
HETATM    8  C   UNL     1     -11.697  14.105  68.837  1.00  0.00    -0.369 A  
HETATM    9  C   UNL     1     -11.413  15.195  65.311  1.00  0.00    -0.266 A  
HETATM   10  C   UNL     1     -11.690  14.427  66.435  1.00  0.00    -0.397 A  
HETATM   11  C   UNL     1     -10.890  16.219  67.895  1.00  0.00    -0.330 A  
HETATM   12  C   UNL     1     -11.429  14.915  67.721  1.00  0.00    -0.353 A  
ENDBRANCH   2   3
BRANCH   2  13
HETATM   13  N   UNL     1      -8.347  18.205  66.844  1.00  0.00    -0.238 NA 
HETATM   14  H   UNL     1      -7.934  18.914  66.237  1.00  0.00     0.000 HD 
BRANCH  13  15
HETATM   15  C   UNL     1      -7.737  18.252  68.168  1.00  0.00    -0.279 C  
BRANCH  15  16
HETATM   16  C   UNL     1      -7.044  16.928  68.483  1.00  0.00    -0.198 C  
BRANCH  16  17
HETATM   17  C   UNL     1      -7.303  15.921  67.359  1.00  0.00    -0.224 C  
BRANCH  17  18
HETATM   18  C   UNL     1      -7.399  14.518  67.896  1.00  0.00    -0.166 A  
HETATM   19  C   UNL     1      -8.430  12.309  67.851  1.00  0.00    -0.165 A  
HETATM   20  C   UNL     1      -9.411  11.329  67.259  1.00  0.00    -0.173 C  
HETATM   21  C   UNL     1      -8.290  13.601  67.320  1.00  0.00    -0.182 A  
HETATM   22  C   UNL     1      -6.766  12.851  69.537  1.00  0.00     0.031 A  
HETATM   23  F   UNL     1     -10.096  11.819  66.186  1.00  0.00    -0.224 F  
HETATM   24  F   UNL     1      -8.811  10.185  66.824  1.00  0.00    -0.130 F  
HETATM   25  F   UNL     1     -10.359  10.935  68.155  1.00  0.00    -0.172 F  
HETATM   26  C   UNL     1      -7.657  11.943  68.963  1.00  0.00     0.029 A  
HETATM   27  C   UNL     1      -6.642  14.133  69.006  1.00  0.00    -0.104 A  
ENDBRANCH  17  18
ENDBRANCH  16  17
ENDBRANCH  15  16
ENDBRANCH  13  15
ENDBRANCH   2  13
TORSDOF 6
ENDMDL
MODEL      211
REMARK 921   NORMALIZED FREE ENERGY PREDICTED BY IDOCK:   -3.98 KCAL/MOL
REMARK 922        TOTAL FREE ENERGY PREDICTED BY IDOCK:   -8.51 KCAL/MOL
REMARK 923 INTER-LIGAND FREE ENERGY PREDICTED BY IDOCK:   -7.38 KCAL/MOL
REMARK 924 INTRA-LIGAND FREE ENERGY PREDICTED BY IDOCK:   -1.12 KCAL/MOL
REMARK 927      BINDING AFFINITY PREDICTED BY RF-SCORE:    0.00 PKD
ROOT
HETATM    1  C   UNL     1     -11.587  10.422  68.409  1.00  0.00    -0.128 C  
HETATM    2  C   UNL     1     -10.923  11.690  67.842  1.00  0.00    -0.225 C  
ENDROOT
BRANCH   2   3
HETATM    3  C   UNL     1     -11.165  11.908  66.345  1.00  0.00    -0.387 A  
HETATM    4  C   UNL     1      -8.619   9.674  64.637  1.00  0.00    -0.201 A  
HETATM    5  C   UNL     1     -12.155  12.822  65.929  1.00  0.00    -0.485 A  
HETATM    6  C   UNL     1      -8.768  10.080  63.321  1.00  0.00    -0.223 A  
HETATM    7  C   UNL     1      -9.421  10.237  65.635  1.00  0.00    -0.274 A  
HETATM    8  C   UNL     1      -9.745  11.019  62.997  1.00  0.00    -0.381 A  
HETATM    9  C   UNL     1     -12.352  13.114  64.583  1.00  0.00    -0.463 A  
HETATM   10  C   UNL     1     -11.546  12.516  63.623  1.00  0.00    -0.580 A  
HETATM   11  C   UNL     1     -10.384  11.236  65.353  1.00  0.00    -0.328 A  
HETATM   12  C   UNL     1     -10.560  11.590  63.988  1.00  0.00    -0.437 A  
ENDBRANCH   2   3
BRANCH   2  13
HETATM   13  N   UNL     1      -9.509  11.820  68.236  1.00  0.00    -0.190 NA 
HETATM   14  H   UNL     1      -9.295  12.788  68.476  1.00  0.00     0.000 HD 
BRANCH  13  15
HETATM   15  C   UNL     1      -9.097  10.926  69.313  1.00  0.00     0.023 C  
BRANCH  15  16
HETATM   16  C   UNL     1      -7.915  10.066  68.870  1.00  0.00    -0.101 C  
BRANCH  16  17
HETATM   17  C   UNL     1      -7.817   8.818  69.751  1.00  0.00    -0.090 C  
BRANCH  17  18
HETATM   18  C   UNL     1      -9.062   7.978  69.646  1.00  0.00    -0.152 A  
HETATM   19  C   UNL     1     -11.065   7.039  70.671  1.00  0.00    -0.307 A  
HETATM   20  C   UNL     1     -11.989   6.888  71.853  1.00  0.00    -0.327 C  
HETATM   21  C   UNL     1      -9.934   7.868  70.738  1.00  0.00    -0.192 A  
HETATM   22  C   UNL     1     -10.454   6.438  68.396  1.00  0.00    -0.266 A  
HETATM   23  F   UNL     1     -11.621   7.634  72.934  1.00  0.00    -0.362 F  
HETATM   24  F   UNL     1     -13.269   7.258  71.568  1.00  0.00    -0.371 F  
HETATM   25  F   UNL     1     -12.061   5.603  72.298  1.00  0.00    -0.322 F  
HETATM   26  C   UNL     1     -11.318   6.329  69.488  1.00  0.00    -0.475 A  
HETATM   27  C   UNL     1      -9.331   7.257  68.479  1.00  0.00    -0.141 A  
ENDBRANCH  17  18
ENDBRANCH  16  17
ENDBRANCH  15  16
ENDBRANCH  13  15
ENDBRANCH   2  13
TORSDOF 6
ENDMDL
MODEL      212
REMARK 921   NORMALIZED FREE ENERGY PREDICTED BY IDOCK:   -3.98 KCAL/MOL
REMARK 922        TOTAL FREE ENERGY PREDICTED BY IDOCK:   -8.50 KCAL/MOL
REMARK 923 INTER-LIGAND FREE ENERGY PREDICTED BY IDOCK:   -6.59 KCAL/MOL
REMARK 924 INTRA-LIGAND FREE ENERGY PREDICTED BY IDOCK:   -1.91 KCAL/MOL
REMARK 927      BINDING AFFINITY PREDICTED BY RF-SCORE:    0.00 PKD
ROOT
HETATM    1  C   UNL     1      -8.598   7.726  64.964  1.00  0.00     0.015 C  
HETATM    2  C   UNL     1      -8.806   8.474  66.293  1.00  0.00    -0.156 C  
ENDROOT
BRANCH   2   3
HETATM    3  C   UNL     1      -9.655   9.743  66.173  1.00  0.00    -0.287 A  
HETATM    4  C   UNL     1     -10.822  10.443  69.714  1.00  0.00    -0.342 A  
HETATM    5  C   UNL     1      -9.851  10.329  64.905  1.00  0.00    -0.404 A  
HETATM    6  C   UNL     1     -11.729  11.465  69.485  1.00  0.00    -0.417 A  
HETATM    7  C   UNL     1     -10.108   9.892  68.645  1.00  0.00    -0.191 A  
HETATM    8  C   UNL     1     -11.894  11.962  68.194  1.00  0.00    -0.338 A  
HETATM    9  C   UNL     1     -10.681  11.431  64.737  1.00  0.00    -0.362 A  
HETATM   10  C   UNL     1     -11.355  11.960  65.830  1.00  0.00    -0.365 A  
HETATM   11  C   UNL     1     -10.291  10.331  67.311  1.00  0.00    -0.284 A  
HETATM   12  C   UNL     1     -11.180  11.421  67.111  1.00  0.00    -0.363 A  
ENDBRANCH   2   3
BRANCH   2  13
HETATM   13  N   UNL     1      -7.551   8.674  67.040  1.00  0.00    -0.084 NA 
HETATM   14  H   UNL     1      -7.749   8.889  68.017  1.00  0.00     0.000 HD 
BRANCH  13  15
HETATM   15  C   UNL     1      -6.608   7.564  66.944  1.00  0.00    -0.061 C  
BRANCH  15  16
HETATM   16  C   UNL     1      -7.132   6.352  67.711  1.00  0.00    -0.085 C  
BRANCH  16  17
HETATM   17  C   UNL     1      -7.277   6.694  69.196  1.00  0.00    -0.091 C  
BRANCH  17  18
HETATM   18  C   UNL     1      -8.719   6.657  69.626  1.00  0.00    -0.140 A  
HETATM   19  C   UNL     1     -10.445   7.181  71.266  1.00  0.00    -0.219 A  
HETATM   20  C   UNL     1     -10.869   7.798  72.575  1.00  0.00    -0.328 C  
HETATM   21  C   UNL     1      -9.114   7.261  70.827  1.00  0.00    -0.152 A  
HETATM   22  C   UNL     1     -10.992   5.894  69.278  1.00  0.00    -0.397 A  
HETATM   23  F   UNL     1      -9.858   8.431  73.236  1.00  0.00    -0.322 F  
HETATM   24  F   UNL     1     -11.850   8.732  72.419  1.00  0.00    -0.415 F  
HETATM   25  F   UNL     1     -11.365   6.878  73.449  1.00  0.00    -0.221 F  
HETATM   26  C   UNL     1     -11.380   6.494  70.478  1.00  0.00    -0.426 A  
HETATM   27  C   UNL     1      -9.667   5.973  68.858  1.00  0.00    -0.159 A  
ENDBRANCH  17  18
ENDBRANCH  16  17
ENDBRANCH  15  16
ENDBRANCH  13  15
ENDBRANCH   2  13
TORSDOF 6
ENDMDL
MODEL      213
REMARK 921   NORMALIZED FREE ENERGY PREDICTED BY IDOCK:   -3.97 KCAL/MOL
REMARK 922        TOTAL FREE ENERGY PREDICTED BY IDOCK:   -8.49 KCAL/MOL
REMARK 923 INTER-LIGAND FREE ENERGY PREDICTED BY IDOCK:   -7.88 KCAL/MOL
REMARK 924 INTRA-LIGAND FREE ENERGY PREDICTED BY IDOCK:   -0.61 KCAL/MOL
REMARK 927      BINDING AFFINITY PREDICTED BY RF-SCORE:    0.00 PKD
ROOT
HETATM    1  C   UNL     1     -11.562  14.791  69.790  1.00  0.00    -0.338 C  
HETATM    2  C   UNL     1     -11.960  13.676  68.807  1.00  0.00    -0.359 C  
ENDROOT
BRANCH   2   3
HETATM    3  C   UNL     1     -11.094  12.417  68.903  1.00  0.00    -0.307 A  
HETATM    4  C   UNL     1     -12.908  10.205  71.394  1.00  0.00    -0.530 A  
HETATM    5  C   UNL     1      -9.900  12.338  68.156  1.00  0.00    -0.212 A  
HETATM    6  C   UNL     1     -11.970   9.199  71.570  1.00  0.00    -0.422 A  
HETATM    7  C   UNL     1     -12.651  11.247  70.498  1.00  0.00    -0.331 A  
HETATM    8  C   UNL     1     -10.796   9.215  70.821  1.00  0.00    -0.331 A  
HETATM    9  C   UNL     1      -9.041  11.251  68.275  1.00  0.00    -0.173 A  
HETATM   10  C   UNL     1      -9.345  10.227  69.163  1.00  0.00    -0.214 A  
HETATM   11  C   UNL     1     -11.444  11.329  69.763  1.00  0.00    -0.386 A  
HETATM   12  C   UNL     1     -10.527  10.254  69.914  1.00  0.00    -0.304 A  
ENDBRANCH   2   3
BRANCH   2  13
HETATM   13  N   UNL     1     -12.138  14.165  67.428  1.00  0.00    -0.538 NA 
HETATM   14  H   UNL     1     -11.395  14.821  67.185  1.00  0.00     0.000 HD 
BRANCH  13  15
HETATM   15  C   UNL     1     -12.238  13.114  66.422  1.00  0.00    -0.329 C  
BRANCH  15  16
HETATM   16  C   UNL     1     -11.284  13.393  65.262  1.00  0.00    -0.305 C  
BRANCH  16  17
HETATM   17  C   UNL     1     -11.431  14.846  64.802  1.00  0.00    -0.410 C  
BRANCH  17  18
HETATM   18  C   UNL     1     -10.444  15.742  65.501  1.00  0.00    -0.425 A  
HETATM   19  C   UNL     1      -8.387  16.021  66.779  1.00  0.00    -0.305 A  
HETATM   20  C   UNL     1      -7.154  15.443  67.427  1.00  0.00    -0.196 C  
HETATM   21  C   UNL     1      -9.283  15.203  66.073  1.00  0.00    -0.273 A  
HETATM   22  C   UNL     1      -9.817  17.933  66.323  1.00  0.00    -0.307 A  
HETATM   23  F   UNL     1      -7.013  14.100  67.235  1.00  0.00    -0.194 F  
HETATM   24  F   UNL     1      -6.005  16.006  66.960  1.00  0.00    -0.176 F  
HETATM   25  F   UNL     1      -7.139  15.627  68.777  1.00  0.00    -0.110 F  
HETATM   26  C   UNL     1      -8.664  17.391  66.895  1.00  0.00    -0.265 A  
HETATM   27  C   UNL     1     -10.703  17.109  65.633  1.00  0.00    -0.140 A  
ENDBRANCH  17  18
ENDBRANCH  16  17
ENDBRANCH  15  16
ENDBRANCH  13  15
ENDBRANCH   2  13
TORSDOF 6
ENDMDL
MODEL      214
REMARK 921   NORMALIZED FREE ENERGY PREDICTED BY IDOCK:   -3.95 KCAL/MOL
REMARK 922        TOTAL FREE ENERGY PREDICTED BY IDOCK:   -8.46 KCAL/MOL
REMARK 923 INTER-LIGAND FREE ENERGY PREDICTED BY IDOCK:   -6.66 KCAL/MOL
REMARK 924 INTRA-LIGAND FREE ENERGY PREDICTED BY IDOCK:   -1.80 KCAL/MOL
REMARK 927      BINDING AFFINITY PREDICTED BY RF-SCORE:    0.00 PKD
ROOT
HETATM    1  C   UNL     1     -10.679   6.293  71.648  1.00  0.00    -0.284 C  
HETATM    2  C   UNL     1     -11.047   7.314  70.556  1.00  0.00    -0.267 C  
ENDROOT
BRANCH   2   3
HETATM    3  C   UNL     1     -11.954   8.449  71.040  1.00  0.00    -0.255 A  
HETATM    4  C   UNL     1     -10.829  11.475  69.049  1.00  0.00    -0.258 A  
HETATM    5  C   UNL     1     -12.907   8.194  72.047  1.00  0.00    -0.346 A  
HETATM    6  C   UNL     1     -11.546  12.478  69.683  1.00  0.00    -0.323 A  
HETATM    7  C   UNL     1     -10.977  10.147  69.458  1.00  0.00    -0.295 A  
HETATM    8  C   UNL     1     -12.441  12.146  70.698  1.00  0.00    -0.330 A  
HETATM    9  C   UNL     1     -13.694   9.213  72.576  1.00  0.00    -0.499 A  
HETATM   10  C   UNL     1     -13.527  10.516  72.126  1.00  0.00    -0.265 A  
HETATM   11  C   UNL     1     -11.833   9.778  70.524  1.00  0.00    -0.316 A  
HETATM   12  C   UNL     1     -12.603  10.815  71.116  1.00  0.00    -0.532 A  
ENDBRANCH   2   3
BRANCH   2  13
HETATM   13  N   UNL     1     -11.514   6.677  69.312  1.00  0.00    -0.628 NA 
HETATM   14  H   UNL     1     -11.740   7.386  68.613  1.00  0.00     0.000 HD 
BRANCH  13  15
HETATM   15  C   UNL     1     -10.594   5.691  68.756  1.00  0.00    -0.216 C  
BRANCH  15  16
HETATM   16  C   UNL     1      -9.491   6.381  67.956  1.00  0.00    -0.116 C  
BRANCH  16  17
HETATM   17  C   UNL     1     -10.107   7.231  66.841  1.00  0.00    -0.317 C  
BRANCH  17  18
HETATM   18  C   UNL     1      -9.369   8.532  66.677  1.00  0.00    -0.243 A  
HETATM   19  C   UNL     1      -7.933  10.273  67.600  1.00  0.00    -0.102 A  
HETATM   20  C   UNL     1      -7.106  10.832  68.731  1.00  0.00    -0.079 C  
HETATM   21  C   UNL     1      -8.576   9.031  67.720  1.00  0.00    -0.121 A  
HETATM   22  C   UNL     1      -8.871  10.511  65.371  1.00  0.00    -0.203 A  
HETATM   23  F   UNL     1      -7.047  10.015  69.822  1.00  0.00    -0.062 F  
HETATM   24  F   UNL     1      -5.813  11.062  68.370  1.00  0.00    -0.044 F  
HETATM   25  F   UNL     1      -7.585  12.023  69.186  1.00  0.00    -0.088 F  
HETATM   26  C   UNL     1      -8.085  11.006  66.414  1.00  0.00    -0.166 A  
HETATM   27  C   UNL     1      -9.512   9.282  65.506  1.00  0.00    -0.309 A  
ENDBRANCH  17  18
ENDBRANCH  16  17
ENDBRANCH  15  16
ENDBRANCH  13  15
ENDBRANCH   2  13
TORSDOF 6
ENDMDL
MODEL      215
REMARK 921   NORMALIZED FREE ENERGY PREDICTED BY IDOCK:   -3.92 KCAL/MOL
REMARK 922        TOTAL FREE ENERGY PREDICTED BY IDOCK:   -8.42 KCAL/MOL
REMARK 923 INTER-LIGAND FREE ENERGY PREDICTED BY IDOCK:   -7.46 KCAL/MOL
REMARK 924 INTRA-LIGAND FREE ENERGY PREDICTED BY IDOCK:   -0.97 KCAL/MOL
REMARK 927      BINDING AFFINITY PREDICTED BY RF-SCORE:    0.00 PKD
ROOT
HETATM    1  C   UNL     1      -8.741   9.142  67.494  1.00  0.00    -0.120 C  
HETATM    2  C   UNL     1     -10.052   9.430  66.741  1.00  0.00    -0.256 C  
ENDROOT
BRANCH   2   3
HETATM    3  C   UNL     1     -10.730  10.744  67.142  1.00  0.00    -0.324 A  
HETATM    4  C   UNL     1     -11.211  12.602  63.871  1.00  0.00    -0.497 A  
HETATM    5  C   UNL     1     -10.990  11.002  68.504  1.00  0.00    -0.276 A  
HETATM    6  C   UNL     1     -11.634  13.836  64.339  1.00  0.00    -0.418 A  
HETATM    7  C   UNL     1     -10.945  11.568  64.773  1.00  0.00    -0.338 A  
HETATM    8  C   UNL     1     -11.828  14.022  65.706  1.00  0.00    -0.393 A  
HETATM    9  C   UNL     1     -11.527  12.215  68.922  1.00  0.00    -0.350 A  
HETATM   10  C   UNL     1     -11.796  13.208  67.989  1.00  0.00    -0.398 A  
HETATM   11  C   UNL     1     -11.075  11.737  66.173  1.00  0.00    -0.358 A  
HETATM   12  C   UNL     1     -11.569  12.991  66.624  1.00  0.00    -0.410 A  
ENDBRANCH   2   3
BRANCH   2  13
HETATM   13  N   UNL     1     -10.968   8.276  66.724  1.00  0.00    -0.200 NA 
HETATM   14  H   UNL     1     -11.504   8.261  65.856  1.00  0.00     0.000 HD 
BRANCH  13  15
HETATM   15  C   UNL     1     -10.319   6.987  66.943  1.00  0.00    -0.268 C  
BRANCH  15  16
HETATM   16  C   UNL     1     -11.131   6.140  67.920  1.00  0.00    -0.311 C  
BRANCH  16  17
HETATM   17  C   UNL     1     -10.204   5.513  68.965  1.00  0.00    -0.298 C  
BRANCH  17  18
HETATM   18  C   UNL     1     -10.458   6.086  70.333  1.00  0.00    -0.307 A  
HETATM   19  C   UNL     1      -9.615   6.847  72.490  1.00  0.00    -0.165 A  
HETATM   20  C   UNL     1      -8.468   7.121  73.430  1.00  0.00    -0.131 C  
HETATM   21  C   UNL     1      -9.386   6.369  71.191  1.00  0.00    -0.166 A  
HETATM   22  C   UNL     1     -12.006   6.773  72.066  1.00  0.00    -0.355 A  
HETATM   23  F   UNL     1      -7.242   6.878  72.884  1.00  0.00    -0.074 F  
HETATM   24  F   UNL     1      -8.435   8.416  73.853  1.00  0.00    -0.298 F  
HETATM   25  F   UNL     1      -8.526   6.360  74.559  1.00  0.00    -0.120 F  
HETATM   26  C   UNL     1     -10.935   7.050  72.917  1.00  0.00    -0.337 A  
HETATM   27  C   UNL     1     -11.767   6.291  70.781  1.00  0.00    -0.289 A  
ENDBRANCH  17  18
ENDBRANCH  16  17
ENDBRANCH  15  16
ENDBRANCH  13  15
ENDBRANCH   2  13
TORSDOF 6
ENDMDL
MODEL      216
REMARK 921   NORMALIZED FREE ENERGY PREDICTED BY IDOCK:   -3.92 KCAL/MOL
REMARK 922        TOTAL FREE ENERGY PREDICTED BY IDOCK:   -8.42 KCAL/MOL
REMARK 923 INTER-LIGAND FREE ENERGY PREDICTED BY IDOCK:   -5.90 KCAL/MOL
REMARK 924 INTRA-LIGAND FREE ENERGY PREDICTED BY IDOCK:   -2.52 KCAL/MOL
REMARK 927      BINDING AFFINITY PREDICTED BY RF-SCORE:    0.00 PKD
ROOT
HETATM    1  C   UNL     1     -10.212  18.939  68.145  1.00  0.00    -0.454 C  
HETATM    2  C   UNL     1     -10.026  17.705  67.245  1.00  0.00    -0.322 C  
ENDROOT
BRANCH   2   3
HETATM    3  C   UNL     1     -10.747  16.450  67.744  1.00  0.00    -0.328 A  
HETATM    4  C   UNL     1     -11.793  14.635  64.582  1.00  0.00    -0.459 A  
HETATM    5  C   UNL     1     -10.900  16.243  69.131  1.00  0.00    -0.314 A  
HETATM    6  C   UNL     1     -12.598  13.641  65.114  1.00  0.00    -0.474 A  
HETATM    7  C   UNL     1     -11.151  15.542  65.431  1.00  0.00    -0.303 A  
HETATM    8  C   UNL     1     -12.729  13.528  66.496  1.00  0.00     0.020 A  
HETATM    9  C   UNL     1     -11.620  15.162  69.627  1.00  0.00    -0.335 A  
HETATM   10  C   UNL     1     -12.224  14.273  68.747  1.00  0.00    -0.226 A  
HETATM   11  C   UNL     1     -11.307  15.495  66.837  1.00  0.00    -0.079 A  
HETATM   12  C   UNL     1     -12.087  14.429  67.362  1.00  0.00    -0.348 A  
ENDBRANCH   2   3
BRANCH   2  13
HETATM   13  N   UNL     1      -8.617  17.470  66.882  1.00  0.00    -0.238 NA 
HETATM   14  H   UNL     1      -8.337  18.091  66.123  1.00  0.00     0.000 HD 
BRANCH  13  15
HETATM   15  C   UNL     1      -7.680  17.574  67.996  1.00  0.00    -0.211 C  
BRANCH  15  16
HETATM   16  C   UNL     1      -7.046  16.216  68.288  1.00  0.00    -0.130 C  
BRANCH  16  17
HETATM   17  C   UNL     1      -7.548  15.176  67.283  1.00  0.00    -0.236 C  
BRANCH  17  18
HETATM   18  C   UNL     1      -7.611  13.805  67.902  1.00  0.00    -0.157 A  
HETATM   19  C   UNL     1      -8.801  11.710  68.269  1.00  0.00    -0.167 A  
HETATM   20  C   UNL     1      -9.991  10.815  68.029  1.00  0.00    -0.164 C  
HETATM   21  C   UNL     1      -8.704  12.965  67.649  1.00  0.00    -0.185 A  
HETATM   22  C   UNL     1      -6.688  12.132  69.393  1.00  0.00    -0.056 A  
HETATM   23  F   UNL     1     -10.905  11.340  67.163  1.00  0.00    -0.249 F  
HETATM   24  F   UNL     1      -9.641   9.606  67.508  1.00  0.00    -0.155 F  
HETATM   25  F   UNL     1     -10.679  10.544  69.173  1.00  0.00    -0.181 F  
HETATM   26  C   UNL     1      -7.781  11.301  69.140  1.00  0.00    -0.047 A  
HETATM   27  C   UNL     1      -6.608  13.380  68.778  1.00  0.00    -0.102 A  
ENDBRANCH  17  18
ENDBRANCH  16  17
ENDBRANCH  15  16
ENDBRANCH  13  15
ENDBRANCH   2  13
TORSDOF 6
ENDMDL
MODEL      217
REMARK 921   NORMALIZED FREE ENERGY PREDICTED BY IDOCK:   -3.91 KCAL/MOL
REMARK 922        TOTAL FREE ENERGY PREDICTED BY IDOCK:   -8.41 KCAL/MOL
REMARK 923 INTER-LIGAND FREE ENERGY PREDICTED BY IDOCK:   -7.46 KCAL/MOL
REMARK 924 INTRA-LIGAND FREE ENERGY PREDICTED BY IDOCK:   -0.95 KCAL/MOL
REMARK 927      BINDING AFFINITY PREDICTED BY RF-SCORE:    0.00 PKD
ROOT
HETATM    1  C   UNL     1     -11.425  11.584  68.643  1.00  0.00    -0.354 C  
HETATM    2  C   UNL     1     -10.220  10.676  68.343  1.00  0.00    -0.173 C  
ENDROOT
BRANCH   2   3
HETATM    3  C   UNL     1     -10.529   9.178  68.416  1.00  0.00    -0.241 A  
HETATM    4  C   UNL     1     -10.395   8.361  72.117  1.00  0.00    -0.397 A  
HETATM    5  C   UNL     1     -10.748   8.456  67.224  1.00  0.00    -0.230 A  
HETATM    6  C   UNL     1     -10.483   6.978  72.076  1.00  0.00    -0.232 A  
HETATM    7  C   UNL     1     -10.445   9.098  70.930  1.00  0.00    -0.347 A  
HETATM    8  C   UNL     1     -10.659   6.337  70.851  1.00  0.00    -0.293 A  
HETATM    9  C   UNL     1     -10.950   7.080  67.237  1.00  0.00    -0.372 A  
HETATM   10  C   UNL     1     -10.913   6.389  68.441  1.00  0.00    -0.390 A  
HETATM   11  C   UNL     1     -10.564   8.479  69.663  1.00  0.00    -0.221 A  
HETATM   12  C   UNL     1     -10.714   7.066  69.652  1.00  0.00    -0.265 A  
ENDBRANCH   2   3
BRANCH   2  13
HETATM   13  N   UNL     1      -9.011  11.065  69.090  1.00  0.00    -0.377 NA 
HETATM   14  H   UNL     1      -8.959  10.556  69.973  1.00  0.00     0.000 HD 
BRANCH  13  15
HETATM   15  C   UNL     1      -7.765  10.916  68.344  1.00  0.00    -0.116 C  
BRANCH  15  16
HETATM   16  C   UNL     1      -7.547  12.116  67.425  1.00  0.00    -0.155 C  
BRANCH  16  17
HETATM   17  C   UNL     1      -7.517  13.406  68.247  1.00  0.00    -0.129 C  
BRANCH  17  18
HETATM   18  C   UNL     1      -8.712  14.271  67.948  1.00  0.00    -0.178 A  
HETATM   19  C   UNL     1     -10.454  15.001  66.406  1.00  0.00    -0.296 A  
HETATM   20  C   UNL     1     -11.150  14.909  65.071  1.00  0.00    -0.414 C  
HETATM   21  C   UNL     1      -9.376  14.158  66.718  1.00  0.00    -0.295 A  
HETATM   22  C   UNL     1     -10.212  16.068  68.576  1.00  0.00    -0.236 A  
HETATM   23  F   UNL     1     -10.643  13.942  64.255  1.00  0.00    -0.413 F  
HETATM   24  F   UNL     1     -12.479  14.632  65.192  1.00  0.00    -0.382 F  
HETATM   25  F   UNL     1     -11.073  16.070  64.362  1.00  0.00    -0.452 F  
HETATM   26  C   UNL     1     -10.867  15.954  67.349  1.00  0.00    -0.291 A  
HETATM   27  C   UNL     1      -9.138  15.231  68.871  1.00  0.00    -0.209 A  
ENDBRANCH  17  18
ENDBRANCH  16  17
ENDBRANCH  15  16
ENDBRANCH  13  15
ENDBRANCH   2  13
TORSDOF 6
ENDMDL
MODEL      218
REMARK 921   NORMALIZED FREE ENERGY PREDICTED BY IDOCK:   -3.89 KCAL/MOL
REMARK 922        TOTAL FREE ENERGY PREDICTED BY IDOCK:   -8.38 KCAL/MOL
REMARK 923 INTER-LIGAND FREE ENERGY PREDICTED BY IDOCK:   -4.48 KCAL/MOL
REMARK 924 INTRA-LIGAND FREE ENERGY PREDICTED BY IDOCK:   -3.90 KCAL/MOL
REMARK 927      BINDING AFFINITY PREDICTED BY RF-SCORE:    0.00 PKD
ROOT
HETATM    1  C   UNL     1      -9.139   3.039  64.470  1.00  0.00    -0.128 C  
HETATM    2  C   UNL     1      -8.874   3.378  65.947  1.00  0.00    -0.135 C  
ENDROOT
BRANCH   2   3
HETATM    3  C   UNL     1      -8.195   4.732  66.168  1.00  0.00    -0.107 A  
HETATM    4  C   UNL     1     -11.011   7.048  67.212  1.00  0.00    -0.372 A  
HETATM    5  C   UNL     1      -6.810   4.859  65.935  1.00  0.00    -0.061 A  
HETATM    6  C   UNL     1     -10.356   8.270  67.192  1.00  0.00    -0.387 A  
HETATM    7  C   UNL     1     -10.310   5.876  66.913  1.00  0.00    -0.304 A  
HETATM    8  C   UNL     1      -8.992   8.314  66.913  1.00  0.00    -0.169 A  
HETATM    9  C   UNL     1      -6.166   6.088  66.042  1.00  0.00    -0.037 A  
HETATM   10  C   UNL     1      -6.899   7.224  66.361  1.00  0.00    -0.061 A  
HETATM   11  C   UNL     1      -8.937   5.888  66.568  1.00  0.00    -0.133 A  
HETATM   12  C   UNL     1      -8.274   7.144  66.616  1.00  0.00    -0.112 A  
ENDBRANCH   2   3
BRANCH   2  13
HETATM   13  N   UNL     1      -8.235   2.272  66.682  1.00  0.00    -0.083 NA 
HETATM   14  H   UNL     1      -7.347   2.576  67.081  1.00  0.00     0.000 HD 
BRANCH  13  15
HETATM   15  C   UNL     1      -9.074   1.666  67.712  1.00  0.00    -0.150 C  
BRANCH  15  16
HETATM   16  C   UNL     1      -9.628   2.739  68.647  1.00  0.00    -0.081 C  
BRANCH  16  17
HETATM   17  C   UNL     1      -8.578   3.109  69.699  1.00  0.00    -0.113 C  
BRANCH  17  18
HETATM   18  C   UNL     1      -8.628   4.577  70.026  1.00  0.00    -0.103 A  
HETATM   19  C   UNL     1      -9.900   6.546  70.697  1.00  0.00    -0.201 A  
HETATM   20  C   UNL     1     -11.196   7.193  71.117  1.00  0.00    -0.262 C  
HETATM   21  C   UNL     1      -9.828   5.167  70.448  1.00  0.00    -0.288 A  
HETATM   22  C   UNL     1      -7.550   6.745  70.113  1.00  0.00    -0.099 A  
HETATM   23  F   UNL     1     -12.232   6.315  71.239  1.00  0.00    -0.368 F  
HETATM   24  F   UNL     1     -11.101   7.822  72.322  1.00  0.00    -0.260 F  
HETATM   25  F   UNL     1     -11.616   8.140  70.233  1.00  0.00    -0.248 F  
HETATM   26  C   UNL     1      -8.748   7.328  70.529  1.00  0.00    -0.148 A  
HETATM   27  C   UNL     1      -7.494   5.377  69.859  1.00  0.00    -0.069 A  
ENDBRANCH  17  18
ENDBRANCH  16  17
ENDBRANCH  15  16
ENDBRANCH  13  15
ENDBRANCH   2  13
TORSDOF 6
ENDMDL
MODEL      219
REMARK 921   NORMALIZED FREE ENERGY PREDICTED BY IDOCK:   -3.89 KCAL/MOL
REMARK 922        TOTAL FREE ENERGY PREDICTED BY IDOCK:   -8.38 KCAL/MOL
REMARK 923 INTER-LIGAND FREE ENERGY PREDICTED BY IDOCK:   -4.55 KCAL/MOL
REMARK 924 INTRA-LIGAND FREE ENERGY PREDICTED BY IDOCK:   -3.82 KCAL/MOL
REMARK 927      BINDING AFFINITY PREDICTED BY RF-SCORE:    0.00 PKD
ROOT
HETATM    1  C   UNL     1      -9.303   4.821  65.226  1.00  0.00    -0.148 C  
HETATM    2  C   UNL     1      -8.934   5.166  66.680  1.00  0.00    -0.115 C  
ENDROOT
BRANCH   2   3
HETATM    3  C   UNL     1      -8.078   6.428  66.826  1.00  0.00    -0.109 A  
HETATM    4  C   UNL     1     -10.592   9.259  67.054  1.00  0.00    -0.263 A  
HETATM    5  C   UNL     1      -6.672   6.317  66.816  1.00  0.00    -0.061 A  
HETATM    6  C   UNL     1      -9.747  10.356  66.980  1.00  0.00    -0.216 A  
HETATM    7  C   UNL     1     -10.059   7.967  67.040  1.00  0.00    -0.347 A  
HETATM    8  C   UNL     1      -8.369  10.159  66.933  1.00  0.00    -0.122 A  
HETATM    9  C   UNL     1      -5.856   7.442  66.863  1.00  0.00    -0.034 A  
HETATM   10  C   UNL     1      -6.428   8.708  66.896  1.00  0.00    -0.061 A  
HETATM   11  C   UNL     1      -8.668   7.727  66.934  1.00  0.00    -0.136 A  
HETATM   12  C   UNL     1      -7.820   8.867  66.923  1.00  0.00    -0.101 A  
ENDBRANCH   2   3
BRANCH   2  13
HETATM   13  N   UNL     1      -8.411   4.010  67.428  1.00  0.00    -0.098 NA 
HETATM   14  H   UNL     1      -7.469   4.203  67.767  1.00  0.00     0.000 HD 
BRANCH  13  15
HETATM   15  C   UNL     1      -9.265   3.562  68.523  1.00  0.00    -0.166 C  
BRANCH  15  16
HETATM   16  C   UNL     1      -9.798   4.759  69.307  1.00  0.00    -0.269 C  
BRANCH  16  17
HETATM   17  C   UNL     1      -8.721   5.281  70.263  1.00  0.00    -0.134 C  
BRANCH  17  18
HETATM   18  C   UNL     1      -8.802   6.776  70.412  1.00  0.00    -0.152 A  
HETATM   19  C   UNL     1     -10.136   8.801  70.668  1.00  0.00    -0.248 A  
HETATM   20  C   UNL     1     -11.472   9.483  70.823  1.00  0.00    -0.310 C  
HETATM   21  C   UNL     1     -10.044   7.402  70.588  1.00  0.00    -0.191 A  
HETATM   22  C   UNL     1      -7.725   8.947  70.407  1.00  0.00    -0.098 A  
HETATM   23  F   UNL     1     -12.524   8.618  70.894  1.00  0.00    -0.270 F  
HETATM   24  F   UNL     1     -11.543  10.245  71.950  1.00  0.00    -0.279 F  
HETATM   25  F   UNL     1     -11.753  10.322  69.787  1.00  0.00    -0.268 F  
HETATM   26  C   UNL     1      -8.964   9.566  70.579  1.00  0.00    -0.265 A  
HETATM   27  C   UNL     1      -7.647   7.559  70.320  1.00  0.00    -0.090 A  
ENDBRANCH  17  18
ENDBRANCH  16  17
ENDBRANCH  15  16
ENDBRANCH  13  15
ENDBRANCH   2  13
TORSDOF 6
ENDMDL
MODEL      220
REMARK 921   NORMALIZED FREE ENERGY PREDICTED BY IDOCK:   -3.87 KCAL/MOL
REMARK 922        TOTAL FREE ENERGY PREDICTED BY IDOCK:   -8.35 KCAL/MOL
REMARK 923 INTER-LIGAND FREE ENERGY PREDICTED BY IDOCK:   -7.53 KCAL/MOL
REMARK 924 INTRA-LIGAND FREE ENERGY PREDICTED BY IDOCK:   -0.82 KCAL/MOL
REMARK 927      BINDING AFFINITY PREDICTED BY RF-SCORE:    0.00 PKD
ROOT
HETATM    1  C   UNL     1     -11.799  12.442  66.729  1.00  0.00    -0.385 C  
HETATM    2  C   UNL     1     -11.837  12.450  68.267  1.00  0.00    -0.309 C  
ENDROOT
BRANCH   2   3
HETATM    3  C   UNL     1     -11.552  13.818  68.895  1.00  0.00    -0.358 A  
HETATM    4  C   UNL     1     -13.374  13.734  72.221  1.00  0.00    -0.617 A  
HETATM    5  C   UNL     1     -10.781  14.760  68.183  1.00  0.00    -0.247 A  
HETATM    6  C   UNL     1     -13.235  15.054  72.619  1.00  0.00    -0.528 A  
HETATM    7  C   UNL     1     -12.799  13.305  71.021  1.00  0.00    -0.311 A  
HETATM    8  C   UNL     1     -12.488  15.934  71.838  1.00  0.00    -0.524 A  
HETATM    9  C   UNL     1     -10.567  16.042  68.677  1.00  0.00    -0.266 A  
HETATM   10  C   UNL     1     -11.140  16.421  69.884  1.00  0.00    -0.313 A  
HETATM   11  C   UNL     1     -12.083  14.182  70.172  1.00  0.00    -0.411 A  
HETATM   12  C   UNL     1     -11.902  15.515  70.633  1.00  0.00    -0.400 A  
ENDBRANCH   2   3
BRANCH   2  13
HETATM   13  N   UNL     1     -11.055  11.353  68.864  1.00  0.00    -0.215 NA 
HETATM   14  H   UNL     1     -11.653  10.547  69.045  1.00  0.00     0.000 HD 
BRANCH  13  15
HETATM   15  C   UNL     1      -9.884  10.955  68.090  1.00  0.00    -0.175 C  
BRANCH  15  16
HETATM   16  C   UNL     1      -8.972  10.058  68.925  1.00  0.00    -0.152 C  
BRANCH  16  17
HETATM   17  C   UNL     1      -9.657   9.700  70.246  1.00  0.00    -0.307 C  
BRANCH  17  18
HETATM   18  C   UNL     1     -10.137   8.273  70.242  1.00  0.00    -0.195 A  
HETATM   19  C   UNL     1     -10.036   6.017  69.322  1.00  0.00    -0.235 A  
HETATM   20  C   UNL     1      -9.439   5.012  68.369  1.00  0.00    -0.134 C  
HETATM   21  C   UNL     1      -9.556   7.335  69.376  1.00  0.00    -0.154 A  
HETATM   22  C   UNL     1     -11.681   6.576  71.022  1.00  0.00    -0.402 A  
HETATM   23  F   UNL     1      -8.415   5.509  67.619  1.00  0.00    -0.104 F  
HETATM   24  F   UNL     1      -8.934   3.920  69.008  1.00  0.00    -0.115 F  
HETATM   25  F   UNL     1     -10.352   4.534  67.477  1.00  0.00    -0.177 F  
HETATM   26  C   UNL     1     -11.102   5.646  70.156  1.00  0.00    -0.206 A  
HETATM   27  C   UNL     1     -11.201   7.883  71.060  1.00  0.00    -0.288 A  
ENDBRANCH  17  18
ENDBRANCH  16  17
ENDBRANCH  15  16
ENDBRANCH  13  15
ENDBRANCH   2  13
TORSDOF 6
ENDMDL
MODEL      221
REMARK 921   NORMALIZED FREE ENERGY PREDICTED BY IDOCK:   -3.87 KCAL/MOL
REMARK 922        TOTAL FREE ENERGY PREDICTED BY IDOCK:   -8.35 KCAL/MOL
REMARK 923 INTER-LIGAND FREE ENERGY PREDICTED BY IDOCK:   -7.81 KCAL/MOL
REMARK 924 INTRA-LIGAND FREE ENERGY PREDICTED BY IDOCK:   -0.54 KCAL/MOL
REMARK 927      BINDING AFFINITY PREDICTED BY RF-SCORE:    0.00 PKD
ROOT
HETATM    1  C   UNL     1     -12.463   9.714  71.606  1.00  0.00    -0.494 C  
HETATM    2  C   UNL     1     -11.559   8.868  70.691  1.00  0.00    -0.215 C  
ENDROOT
BRANCH   2   3
HETATM    3  C   UNL     1     -10.356   8.243  71.404  1.00  0.00    -0.270 A  
HETATM    4  C   UNL     1     -11.735   5.091  73.002  1.00  0.00    -0.229 A  
HETATM    5  C   UNL     1      -9.109   8.899  71.365  1.00  0.00    -0.318 A  
HETATM    6  C   UNL     1     -10.652   4.705  73.777  1.00  0.00    -0.325 A  
HETATM    7  C   UNL     1     -11.642   6.227  72.193  1.00  0.00    -0.367 A  
HETATM    8  C   UNL     1      -9.466   5.432  73.712  1.00  0.00    -0.138 A  
HETATM    9  C   UNL     1      -8.011   8.411  72.066  1.00  0.00    -0.184 A  
HETATM   10  C   UNL     1      -8.142   7.267  72.842  1.00  0.00    -0.124 A  
HETATM   11  C   UNL     1     -10.473   7.024  72.144  1.00  0.00    -0.234 A  
HETATM   12  C   UNL     1      -9.357   6.573  72.899  1.00  0.00    -0.144 A  
ENDBRANCH   2   3
BRANCH   2  13
HETATM   13  N   UNL     1     -11.208   9.558  69.438  1.00  0.00    -0.431 NA 
HETATM   14  H   UNL     1     -11.812   9.244  68.678  1.00  0.00     0.000 HD 
BRANCH  13  15
HETATM   15  C   UNL     1     -11.217  11.015  69.526  1.00  0.00    -0.279 C  
BRANCH  15  16
HETATM   16  C   UNL     1     -11.615  11.628  68.185  1.00  0.00    -0.389 C  
BRANCH  16  17
HETATM   17  C   UNL     1     -11.934  13.115  68.365  1.00  0.00    -0.324 C  
BRANCH  17  18
HETATM   18  C   UNL     1     -11.582  13.900  67.130  1.00  0.00    -0.391 A  
HETATM   19  C   UNL     1     -10.656  15.907  66.099  1.00  0.00    -0.310 A  
HETATM   20  C   UNL     1      -9.993  17.256  66.214  1.00  0.00    -0.300 C  
HETATM   21  C   UNL     1     -10.935  15.139  67.241  1.00  0.00    -0.327 A  
HETATM   22  C   UNL     1     -11.666  14.176  64.724  1.00  0.00    -0.416 A  
HETATM   23  F   UNL     1      -9.693  17.612  67.496  1.00  0.00    -0.261 F  
HETATM   24  F   UNL     1      -8.818  17.321  65.527  1.00  0.00    -0.010 F  
HETATM   25  F   UNL     1     -10.769  18.262  65.723  1.00  0.00    -0.423 F  
HETATM   26  C   UNL     1     -11.025  15.411  64.840  1.00  0.00    -0.453 A  
HETATM   27  C   UNL     1     -11.945  13.428  65.865  1.00  0.00    -0.452 A  
ENDBRANCH  17  18
ENDBRANCH  16  17
ENDBRANCH  15  16
ENDBRANCH  13  15
ENDBRANCH   2  13
TORSDOF 6
ENDMDL
MODEL      222
REMARK 921   NORMALIZED FREE ENERGY PREDICTED BY IDOCK:   -3.86 KCAL/MOL
REMARK 922        TOTAL FREE ENERGY PREDICTED BY IDOCK:   -8.34 KCAL/MOL
REMARK 923 INTER-LIGAND FREE ENERGY PREDICTED BY IDOCK:   -6.78 KCAL/MOL
REMARK 924 INTRA-LIGAND FREE ENERGY PREDICTED BY IDOCK:   -1.57 KCAL/MOL
REMARK 927      BINDING AFFINITY PREDICTED BY RF-SCORE:    0.00 PKD
ROOT
HETATM    1  C   UNL     1     -10.810   9.193  68.991  1.00  0.00    -0.115 C  
HETATM    2  C   UNL     1     -10.214  10.550  68.576  1.00  0.00    -0.174 C  
ENDROOT
BRANCH   2   3
HETATM    3  C   UNL     1     -10.305  10.843  67.075  1.00  0.00    -0.276 A  
HETATM    4  C   UNL     1     -12.285  14.071  66.857  1.00  0.00    -0.415 A  
HETATM    5  C   UNL     1      -9.731   9.941  66.156  1.00  0.00    -0.297 A  
HETATM    6  C   UNL     1     -12.492  14.150  65.489  1.00  0.00    -0.495 A  
HETATM    7  C   UNL     1     -11.542  13.013  67.390  1.00  0.00    -0.407 A  
HETATM    8  C   UNL     1     -11.921  13.195  64.651  1.00  0.00    -0.439 A  
HETATM    9  C   UNL     1      -9.861  10.122  64.784  1.00  0.00    -0.382 A  
HETATM   10  C   UNL     1     -10.592  11.199  64.298  1.00  0.00    -0.425 A  
HETATM   11  C   UNL     1     -10.996  11.992  66.576  1.00  0.00    -0.337 A  
HETATM   12  C   UNL     1     -11.168  12.129  65.172  1.00  0.00    -0.378 A  
ENDBRANCH   2   3
BRANCH   2  13
HETATM   13  N   UNL     1      -8.872  10.782  69.140  1.00  0.00    -0.323 NA 
HETATM   14  H   UNL     1      -8.821  11.708  69.566  1.00  0.00     0.000 HD 
BRANCH  13  15
HETATM   15  C   UNL     1      -8.430   9.763  70.085  1.00  0.00    -0.174 C  
BRANCH  15  16
HETATM   16  C   UNL     1      -7.207   9.026  69.541  1.00  0.00    -0.060 C  
BRANCH  16  17
HETATM   17  C   UNL     1      -7.065   7.667  70.233  1.00  0.00    -0.058 C  
BRANCH  17  18
HETATM   18  C   UNL     1      -8.207   6.753  69.879  1.00  0.00    -0.127 A  
HETATM   19  C   UNL     1      -9.671   5.759  68.203  1.00  0.00    -0.146 A  
HETATM   20  C   UNL     1     -10.089   5.577  66.765  1.00  0.00    -0.207 C  
HETATM   21  C   UNL     1      -8.570   6.562  68.539  1.00  0.00    -0.123 A  
HETATM   22  C   UNL     1     -10.040   5.324  70.565  1.00  0.00    -0.315 A  
HETATM   23  F   UNL     1      -9.294   6.237  65.876  1.00  0.00    -0.174 F  
HETATM   24  F   UNL     1     -10.073   4.271  66.377  1.00  0.00    -0.216 F  
HETATM   25  F   UNL     1     -11.356   6.021  66.530  1.00  0.00    -0.322 F  
HETATM   26  C   UNL     1     -10.400   5.140  69.229  1.00  0.00    -0.248 A  
HETATM   27  C   UNL     1      -8.950   6.130  70.887  1.00  0.00    -0.144 A  
ENDBRANCH  17  18
ENDBRANCH  16  17
ENDBRANCH  15  16
ENDBRANCH  13  15
ENDBRANCH   2  13
TORSDOF 6
ENDMDL
MODEL      223
REMARK 921   NORMALIZED FREE ENERGY PREDICTED BY IDOCK:   -3.84 KCAL/MOL
REMARK 922        TOTAL FREE ENERGY PREDICTED BY IDOCK:   -8.32 KCAL/MOL
REMARK 923 INTER-LIGAND FREE ENERGY PREDICTED BY IDOCK:   -7.25 KCAL/MOL
REMARK 924 INTRA-LIGAND FREE ENERGY PREDICTED BY IDOCK:   -1.07 KCAL/MOL
REMARK 927      BINDING AFFINITY PREDICTED BY RF-SCORE:    0.00 PKD
ROOT
HETATM    1  C   UNL     1     -11.345  12.353  64.980  1.00  0.00    -0.363 C  
HETATM    2  C   UNL     1     -11.197  11.879  66.436  1.00  0.00    -0.331 C  
ENDROOT
BRANCH   2   3
HETATM    3  C   UNL     1     -11.379  12.986  67.478  1.00  0.00    -0.346 A  
HETATM    4  C   UNL     1     -12.410  11.158  70.637  1.00  0.00    -0.482 A  
HETATM    5  C   UNL     1     -11.184  14.331  67.102  1.00  0.00    -0.333 A  
HETATM    6  C   UNL     1     -12.745  12.228  71.452  1.00  0.00    -0.351 A  
HETATM    7  C   UNL     1     -11.928  11.390  69.345  1.00  0.00    -0.407 A  
HETATM    8  C   UNL     1     -12.559  13.529  70.990  1.00  0.00    -0.438 A  
HETATM    9  C   UNL     1     -11.419  15.375  67.991  1.00  0.00    -0.333 A  
HETATM   10  C   UNL     1     -11.878  15.097  69.272  1.00  0.00    -0.347 A  
HETATM   11  C   UNL     1     -11.781  12.696  68.820  1.00  0.00    -0.364 A  
HETATM   12  C   UNL     1     -12.072  13.777  69.696  1.00  0.00    -0.392 A  
ENDBRANCH   2   3
BRANCH   2  13
HETATM   13  N   UNL     1      -9.990  11.060  66.651  1.00  0.00    -0.203 NA 
HETATM   14  H   UNL     1      -9.893  10.823  67.639  1.00  0.00     0.000 HD 
BRANCH  13  15
HETATM   15  C   UNL     1      -9.922   9.857  65.829  1.00  0.00    -0.277 C  
BRANCH  15  16
HETATM   16  C   UNL     1      -9.181   8.746  66.570  1.00  0.00    -0.228 C  
BRANCH  16  17
HETATM   17  C   UNL     1      -9.345   8.925  68.082  1.00  0.00    -0.151 C  
BRANCH  17  18
HETATM   18  C   UNL     1      -9.769   7.639  68.740  1.00  0.00    -0.153 A  
HETATM   19  C   UNL     1      -9.551   5.223  68.982  1.00  0.00    -0.199 A  
HETATM   20  C   UNL     1      -8.885   3.920  68.616  1.00  0.00    -0.109 C  
HETATM   21  C   UNL     1      -9.124   6.436  68.420  1.00  0.00    -0.118 A  
HETATM   22  C   UNL     1     -11.270   6.428  70.206  1.00  0.00    -0.445 A  
HETATM   23  F   UNL     1      -7.856   4.060  67.732  1.00  0.00    -0.081 F  
HETATM   24  F   UNL     1      -8.359   3.279  69.697  1.00  0.00    -0.059 F  
HETATM   25  F   UNL     1      -9.749   3.037  68.041  1.00  0.00    -0.252 F  
HETATM   26  C   UNL     1     -10.628   5.232  69.881  1.00  0.00    -0.292 A  
HETATM   27  C   UNL     1     -10.843   7.624  69.634  1.00  0.00    -0.195 A  
ENDBRANCH  17  18
ENDBRANCH  16  17
ENDBRANCH  15  16
ENDBRANCH  13  15
ENDBRANCH   2  13
TORSDOF 6
ENDMDL
MODEL      224
REMARK 921   NORMALIZED FREE ENERGY PREDICTED BY IDOCK:   -3.84 KCAL/MOL
REMARK 922        TOTAL FREE ENERGY PREDICTED BY IDOCK:   -8.31 KCAL/MOL
REMARK 923 INTER-LIGAND FREE ENERGY PREDICTED BY IDOCK:   -4.58 KCAL/MOL
REMARK 924 INTRA-LIGAND FREE ENERGY PREDICTED BY IDOCK:   -3.73 KCAL/MOL
REMARK 927      BINDING AFFINITY PREDICTED BY RF-SCORE:    0.00 PKD
ROOT
HETATM    1  C   UNL     1     -12.118   6.607  71.830  1.00  0.00    -0.400 C  
HETATM    2  C   UNL     1     -10.700   7.020  71.399  1.00  0.00    -0.219 C  
ENDROOT
BRANCH   2   3
HETATM    3  C   UNL     1     -10.538   7.227  69.890  1.00  0.00    -0.244 A  
HETATM    4  C   UNL     1      -8.375  10.327  69.584  1.00  0.00    -0.139 A  
HETATM    5  C   UNL     1     -11.180   6.345  68.996  1.00  0.00    -0.402 A  
HETATM    6  C   UNL     1      -8.448  10.554  68.219  1.00  0.00    -0.123 A  
HETATM    7  C   UNL     1      -9.024   9.222  70.143  1.00  0.00    -0.239 A  
HETATM    8  C   UNL     1      -9.137   9.655  67.408  1.00  0.00    -0.144 A  
HETATM    9  C   UNL     1     -11.130   6.543  67.621  1.00  0.00    -0.380 A  
HETATM   10  C   UNL     1     -10.455   7.643  67.107  1.00  0.00    -0.412 A  
HETATM   11  C   UNL     1      -9.782   8.319  69.359  1.00  0.00    -0.177 A  
HETATM   12  C   UNL     1      -9.790   8.538  67.955  1.00  0.00    -0.202 A  
ENDBRANCH   2   3
BRANCH   2  13
HETATM   13  N   UNL     1      -9.652   6.171  71.993  1.00  0.00    -0.153 NA 
HETATM   14  H   UNL     1      -9.516   6.409  72.975  1.00  0.00     0.000 HD 
BRANCH  13  15
HETATM   15  C   UNL     1      -9.878   4.737  71.843  1.00  0.00    -0.176 C  
BRANCH  15  16
HETATM   16  C   UNL     1      -8.625   4.053  71.301  1.00  0.00    -0.116 C  
BRANCH  16  17
HETATM   17  C   UNL     1      -7.536   5.094  71.028  1.00  0.00    -0.087 C  
BRANCH  17  18
HETATM   18  C   UNL     1      -7.453   5.424  69.562  1.00  0.00    -0.069 A  
HETATM   19  C   UNL     1      -8.003   4.894  67.247  1.00  0.00    -0.095 A  
HETATM   20  C   UNL     1      -8.694   4.025  66.226  1.00  0.00    -0.116 C  
HETATM   21  C   UNL     1      -8.124   4.631  68.620  1.00  0.00    -0.082 A  
HETATM   22  C   UNL     1      -6.541   6.765  67.762  1.00  0.00    -0.058 A  
HETATM   23  F   UNL     1      -9.430   3.016  66.774  1.00  0.00    -0.186 F  
HETATM   24  F   UNL     1      -9.557   4.726  65.439  1.00  0.00    -0.158 F  
HETATM   25  F   UNL     1      -7.818   3.423  65.375  1.00  0.00    -0.078 F  
HETATM   26  C   UNL     1      -7.208   5.971  66.827  1.00  0.00    -0.071 A  
HETATM   27  C   UNL     1      -6.661   6.489  69.121  1.00  0.00    -0.049 A  
ENDBRANCH  17  18
ENDBRANCH  16  17
ENDBRANCH  15  16
ENDBRANCH  13  15
ENDBRANCH   2  13
TORSDOF 6
ENDMDL
MODEL      225
REMARK 921   NORMALIZED FREE ENERGY PREDICTED BY IDOCK:   -3.83 KCAL/MOL
REMARK 922        TOTAL FREE ENERGY PREDICTED BY IDOCK:   -8.30 KCAL/MOL
REMARK 923 INTER-LIGAND FREE ENERGY PREDICTED BY IDOCK:   -7.32 KCAL/MOL
REMARK 924 INTRA-LIGAND FREE ENERGY PREDICTED BY IDOCK:   -0.98 KCAL/MOL
REMARK 927      BINDING AFFINITY PREDICTED BY RF-SCORE:    0.00 PKD
ROOT
HETATM    1  C   UNL     1     -10.645  15.647  65.998  1.00  0.00    -0.336 C  
HETATM    2  C   UNL     1      -9.398  15.103  66.719  1.00  0.00    -0.247 C  
ENDROOT
BRANCH   2   3
HETATM    3  C   UNL     1      -8.309  16.151  66.965  1.00  0.00    -0.247 A  
HETATM    4  C   UNL     1      -6.512  14.938  70.077  1.00  0.00    -0.167 A  
HETATM    5  C   UNL     1      -8.210  17.264  66.105  1.00  0.00    -0.258 A  
HETATM    6  C   UNL     1      -5.695  16.026  70.339  1.00  0.00    -0.104 A  
HETATM    7  C   UNL     1      -7.348  14.948  68.957  1.00  0.00    -0.143 A  
HETATM    8  C   UNL     1      -5.685  17.106  69.460  1.00  0.00    -0.206 A  
HETATM    9  C   UNL     1      -7.292  18.282  66.339  1.00  0.00    -0.283 A  
HETATM   10  C   UNL     1      -6.466  18.222  67.454  1.00  0.00    -0.194 A  
HETATM   11  C   UNL     1      -7.409  16.052  68.072  1.00  0.00    -0.139 A  
HETATM   12  C   UNL     1      -6.517  17.128  68.328  1.00  0.00    -0.153 A  
ENDBRANCH   2   3
BRANCH   2  13
HETATM   13  N   UNL     1      -8.891  13.856  66.121  1.00  0.00    -0.357 NA 
HETATM   14  H   UNL     1      -7.909  13.959  65.863  1.00  0.00     0.000 HD 
BRANCH  13  15
HETATM   15  C   UNL     1      -9.077  12.669  66.949  1.00  0.00    -0.218 C  
BRANCH  15  16
HETATM   16  C   UNL     1     -10.124  11.745  66.331  1.00  0.00    -0.239 C  
BRANCH  16  17
HETATM   17  C   UNL     1     -11.530  12.241  66.679  1.00  0.00    -0.431 C  
BRANCH  17  18
HETATM   18  C   UNL     1     -11.760  12.230  68.167  1.00  0.00    -0.408 A  
HETATM   19  C   UNL     1     -11.985  10.995  70.257  1.00  0.00    -0.452 A  
HETATM   20  C   UNL     1     -11.971   9.697  71.024  1.00  0.00    -0.343 C  
HETATM   21  C   UNL     1     -11.713  11.024  68.880  1.00  0.00    -0.400 A  
HETATM   22  C   UNL     1     -12.338  13.399  70.209  1.00  0.00    -0.354 A  
HETATM   23  F   UNL     1     -11.657   8.612  70.259  1.00  0.00    -0.247 F  
HETATM   24  F   UNL     1     -11.069   9.702  72.045  1.00  0.00    -0.378 F  
HETATM   25  F   UNL     1     -13.177   9.413  71.591  1.00  0.00    -0.351 F  
HETATM   26  C   UNL     1     -12.294  12.195  70.914  1.00  0.00    -0.370 A  
HETATM   27  C   UNL     1     -12.075  13.413  68.841  1.00  0.00    -0.289 A  
ENDBRANCH  17  18
ENDBRANCH  16  17
ENDBRANCH  15  16
ENDBRANCH  13  15
ENDBRANCH   2  13
TORSDOF 6
ENDMDL
MODEL      226
REMARK 921   NORMALIZED FREE ENERGY PREDICTED BY IDOCK:   -3.81 KCAL/MOL
REMARK 922        TOTAL FREE ENERGY PREDICTED BY IDOCK:   -8.28 KCAL/MOL
REMARK 923 INTER-LIGAND FREE ENERGY PREDICTED BY IDOCK:   -5.09 KCAL/MOL
REMARK 924 INTRA-LIGAND FREE ENERGY PREDICTED BY IDOCK:   -3.19 KCAL/MOL
REMARK 927      BINDING AFFINITY PREDICTED BY RF-SCORE:    0.00 PKD
ROOT
HETATM    1  C   UNL     1     -10.263  12.779  67.858  1.00  0.00    -0.229 C  
HETATM    2  C   UNL     1      -9.886  11.291  67.740  1.00  0.00    -0.173 C  
ENDROOT
BRANCH   2   3
HETATM    3  C   UNL     1     -10.088  10.489  69.028  1.00  0.00    -0.230 A  
HETATM    4  C   UNL     1      -6.577   9.581  70.141  1.00  0.00    -0.073 A  
HETATM    5  C   UNL     1     -11.396  10.237  69.491  1.00  0.00    -0.299 A  
HETATM    6  C   UNL     1      -6.858   8.704  71.176  1.00  0.00    -0.071 A  
HETATM    7  C   UNL     1      -7.623  10.201  69.450  1.00  0.00    -0.133 A  
HETATM    8  C   UNL     1      -8.182   8.478  71.546  1.00  0.00    -0.199 A  
HETATM    9  C   UNL     1     -11.630   9.444  70.609  1.00  0.00    -0.330 A  
HETATM   10  C   UNL     1     -10.560   8.864  71.278  1.00  0.00    -0.351 A  
HETATM   11  C   UNL     1      -8.982   9.952  69.759  1.00  0.00    -0.242 A  
HETATM   12  C   UNL     1      -9.242   9.098  70.864  1.00  0.00    -0.326 A  
ENDBRANCH   2   3
BRANCH   2  13
HETATM   13  N   UNL     1      -8.567  11.083  67.117  1.00  0.00    -0.134 NA 
HETATM   14  H   UNL     1      -8.009  10.437  67.674  1.00  0.00     0.000 HD 
BRANCH  13  15
HETATM   15  C   UNL     1      -8.618  10.642  65.727  1.00  0.00    -0.181 C  
BRANCH  15  16
HETATM   16  C   UNL     1      -9.411   9.342  65.608  1.00  0.00    -0.328 C  
BRANCH  16  17
HETATM   17  C   UNL     1      -8.565   8.166  66.102  1.00  0.00    -0.154 C  
BRANCH  17  18
HETATM   18  C   UNL     1      -9.303   7.362  67.139  1.00  0.00    -0.172 A  
HETATM   19  C   UNL     1      -9.270   5.880  69.074  1.00  0.00    -0.132 A  
HETATM   20  C   UNL     1      -8.513   5.116  70.132  1.00  0.00    -0.100 C  
HETATM   21  C   UNL     1      -8.596   6.681  68.140  1.00  0.00    -0.115 A  
HETATM   22  C   UNL     1     -11.376   6.458  68.009  1.00  0.00    -0.086 A  
HETATM   23  F   UNL     1      -7.163   5.306  70.084  1.00  0.00    -0.054 F  
HETATM   24  F   UNL     1      -8.890   5.459  71.396  1.00  0.00    -0.128 F  
HETATM   25  F   UNL     1      -8.701   3.770  70.038  1.00  0.00    -0.083 F  
HETATM   26  C   UNL     1     -10.667   5.778  69.001  1.00  0.00    -0.354 A  
HETATM   27  C   UNL     1     -10.695   7.243  67.081  1.00  0.00    -0.413 A  
ENDBRANCH  17  18
ENDBRANCH  16  17
ENDBRANCH  15  16
ENDBRANCH  13  15
ENDBRANCH   2  13
TORSDOF 6
ENDMDL
MODEL      227
REMARK 921   NORMALIZED FREE ENERGY PREDICTED BY IDOCK:   -3.81 KCAL/MOL
REMARK 922        TOTAL FREE ENERGY PREDICTED BY IDOCK:   -8.27 KCAL/MOL
REMARK 923 INTER-LIGAND FREE ENERGY PREDICTED BY IDOCK:   -7.49 KCAL/MOL
REMARK 924 INTRA-LIGAND FREE ENERGY PREDICTED BY IDOCK:   -0.78 KCAL/MOL
REMARK 927      BINDING AFFINITY PREDICTED BY RF-SCORE:    0.00 PKD
ROOT
HETATM    1  C   UNL     1     -10.769  15.229  65.077  1.00  0.00    -0.461 C  
HETATM    2  C   UNL     1     -10.917  15.691  66.537  1.00  0.00    -0.206 C  
ENDROOT
BRANCH   2   3
HETATM    3  C   UNL     1      -9.666  16.362  67.112  1.00  0.00    -0.241 A  
HETATM    4  C   UNL     1     -10.144  20.052  66.374  1.00  0.00    -0.609 A  
HETATM    5  C   UNL     1      -8.666  15.568  67.711  1.00  0.00    -0.170 A  
HETATM    6  C   UNL     1      -8.901  20.547  66.737  1.00  0.00    -0.245 A  
HETATM    7  C   UNL     1     -10.423  18.690  66.524  1.00  0.00    -0.465 A  
HETATM    8  C   UNL     1      -7.953  19.687  67.286  1.00  0.00    -0.314 A  
HETATM    9  C   UNL     1      -7.478  16.124  68.172  1.00  0.00    -0.136 A  
HETATM   10  C   UNL     1      -7.251  17.486  68.021  1.00  0.00    -0.206 A  
HETATM   11  C   UNL     1      -9.464  17.776  67.023  1.00  0.00    -0.271 A  
HETATM   12  C   UNL     1      -8.220  18.317  67.446  1.00  0.00    -0.237 A  
ENDBRANCH   2   3
BRANCH   2  13
HETATM   13  N   UNL     1     -11.481  14.649  67.413  1.00  0.00    -0.356 NA 
HETATM   14  H   UNL     1     -12.322  14.993  67.878  1.00  0.00     0.000 HD 
BRANCH  13  15
HETATM   15  C   UNL     1     -11.753  13.381  66.745  1.00  0.00    -0.385 C  
BRANCH  15  16
HETATM   16  C   UNL     1     -10.981  12.247  67.417  1.00  0.00    -0.298 C  
BRANCH  16  17
HETATM   17  C   UNL     1     -11.932  11.396  68.262  1.00  0.00    -0.234 C  
BRANCH  17  18
HETATM   18  C   UNL     1     -11.200  10.266  68.935  1.00  0.00    -0.259 A  
HETATM   19  C   UNL     1     -10.920   8.775  70.844  1.00  0.00    -0.315 A  
HETATM   20  C   UNL     1     -11.358   8.278  72.199  1.00  0.00    -0.352 C  
HETATM   21  C   UNL     1     -11.631   9.787  70.180  1.00  0.00    -0.239 A  
HETATM   22  C   UNL     1      -9.342   8.711  68.997  1.00  0.00    -0.146 A  
HETATM   23  F   UNL     1     -12.485   8.887  72.667  1.00  0.00    -0.434 F  
HETATM   24  F   UNL     1     -11.630   6.943  72.204  1.00  0.00    -0.273 F  
HETATM   25  F   UNL     1     -10.409   8.470  73.156  1.00  0.00    -0.276 F  
HETATM   26  C   UNL     1      -9.774   8.240  70.238  1.00  0.00    -0.177 A  
HETATM   27  C   UNL     1     -10.051   9.722  68.352  1.00  0.00    -0.189 A  
ENDBRANCH  17  18
ENDBRANCH  16  17
ENDBRANCH  15  16
ENDBRANCH  13  15
ENDBRANCH   2  13
TORSDOF 6
ENDMDL
MODEL      228
REMARK 921   NORMALIZED FREE ENERGY PREDICTED BY IDOCK:   -3.80 KCAL/MOL
REMARK 922        TOTAL FREE ENERGY PREDICTED BY IDOCK:   -8.27 KCAL/MOL
REMARK 923 INTER-LIGAND FREE ENERGY PREDICTED BY IDOCK:   -7.62 KCAL/MOL
REMARK 924 INTRA-LIGAND FREE ENERGY PREDICTED BY IDOCK:   -0.65 KCAL/MOL
REMARK 927      BINDING AFFINITY PREDICTED BY RF-SCORE:    0.00 PKD
ROOT
HETATM    1  C   UNL     1     -11.666  11.819  68.553  1.00  0.00    -0.390 C  
HETATM    2  C   UNL     1     -10.388  11.005  68.284  1.00  0.00    -0.178 C  
ENDROOT
BRANCH   2   3
HETATM    3  C   UNL     1     -10.587   9.487  68.341  1.00  0.00    -0.261 A  
HETATM    4  C   UNL     1     -11.068   8.732  72.027  1.00  0.00    -0.441 A  
HETATM    5  C   UNL     1     -10.527   8.735  67.150  1.00  0.00    -0.354 A  
HETATM    6  C   UNL     1     -11.037   7.346  72.008  1.00  0.00    -0.279 A  
HETATM    7  C   UNL     1     -10.957   9.448  70.831  1.00  0.00    -0.391 A  
HETATM    8  C   UNL     1     -10.935   6.677  70.791  1.00  0.00    -0.318 A  
HETATM    9  C   UNL     1     -10.619   7.347  67.164  1.00  0.00    -0.413 A  
HETATM   10  C   UNL     1     -10.749   6.677  68.374  1.00  0.00    -0.314 A  
HETATM   11  C   UNL     1     -10.794   8.804  69.580  1.00  0.00    -0.175 A  
HETATM   12  C   UNL     1     -10.828   7.383  69.581  1.00  0.00    -0.222 A  
ENDBRANCH   2   3
BRANCH   2  13
HETATM   13  N   UNL     1      -9.233  11.478  69.067  1.00  0.00    -0.400 NA 
HETATM   14  H   UNL     1      -9.062  10.856  69.858  1.00  0.00     0.000 HD 
BRANCH  13  15
HETATM   15  C   UNL     1      -8.012  11.663  68.292  1.00  0.00    -0.143 C  
BRANCH  15  16
HETATM   16  C   UNL     1      -8.012  13.032  67.614  1.00  0.00    -0.169 C  
BRANCH  16  17
HETATM   17  C   UNL     1      -7.970  14.138  68.671  1.00  0.00    -0.132 C  
BRANCH  17  18
HETATM   18  C   UNL     1      -8.913  15.259  68.324  1.00  0.00    -0.176 A  
HETATM   19  C   UNL     1      -9.453  17.637  68.323  1.00  0.00    -0.295 A  
HETATM   20  C   UNL     1      -9.090  19.067  68.636  1.00  0.00    -0.359 C  
HETATM   21  C   UNL     1      -8.556  16.589  68.587  1.00  0.00    -0.243 A  
HETATM   22  C   UNL     1     -11.068  16.012  67.513  1.00  0.00    -0.207 A  
HETATM   23  F   UNL     1      -7.840  19.212  69.161  1.00  0.00    -0.365 F  
HETATM   24  F   UNL     1      -9.124  19.868  67.535  1.00  0.00    -0.353 F  
HETATM   25  F   UNL     1      -9.938  19.634  69.538  1.00  0.00    -0.472 F  
HETATM   26  C   UNL     1     -10.710  17.335  67.780  1.00  0.00    -0.333 A  
HETATM   27  C   UNL     1     -10.173  14.981  67.788  1.00  0.00    -0.236 A  
ENDBRANCH  17  18
ENDBRANCH  16  17
ENDBRANCH  15  16
ENDBRANCH  13  15
ENDBRANCH   2  13
TORSDOF 6
ENDMDL
MODEL      229
REMARK 921   NORMALIZED FREE ENERGY PREDICTED BY IDOCK:   -3.80 KCAL/MOL
REMARK 922        TOTAL FREE ENERGY PREDICTED BY IDOCK:   -8.26 KCAL/MOL
REMARK 923 INTER-LIGAND FREE ENERGY PREDICTED BY IDOCK:   -7.01 KCAL/MOL
REMARK 924 INTRA-LIGAND FREE ENERGY PREDICTED BY IDOCK:   -1.25 KCAL/MOL
REMARK 927      BINDING AFFINITY PREDICTED BY RF-SCORE:    0.00 PKD
ROOT
HETATM    1  C   UNL     1      -8.841   8.433  67.310  1.00  0.00    -0.137 C  
HETATM    2  C   UNL     1     -10.302   8.730  66.928  1.00  0.00    -0.274 C  
ENDROOT
BRANCH   2   3
HETATM    3  C   UNL     1     -10.756  10.157  67.250  1.00  0.00    -0.316 A  
HETATM    4  C   UNL     1     -11.697  10.047  70.923  1.00  0.00    -0.462 A  
HETATM    5  C   UNL     1     -10.770  11.128  66.228  1.00  0.00    -0.298 A  
HETATM    6  C   UNL     1     -12.276  11.297  71.075  1.00  0.00    -0.417 A  
HETATM    7  C   UNL     1     -11.162   9.672  69.687  1.00  0.00    -0.176 A  
HETATM    8  C   UNL     1     -12.285  12.185  70.001  1.00  0.00    -0.270 A  
HETATM    9  C   UNL     1     -11.253  12.412  66.454  1.00  0.00    -0.365 A  
HETATM   10  C   UNL     1     -11.756  12.749  67.704  1.00  0.00    -0.422 A  
HETATM   11  C   UNL     1     -11.205  10.524  68.558  1.00  0.00    -0.332 A  
HETATM   12  C   UNL     1     -11.748  11.823  68.755  1.00  0.00    -0.389 A  
ENDBRANCH   2   3
BRANCH   2  13
HETATM   13  N   UNL     1     -11.238   7.694  67.398  1.00  0.00    -0.410 NA 
HETATM   14  H   UNL     1     -11.924   7.480  66.674  1.00  0.00     0.000 HD 
BRANCH  13  15
HETATM   15  C   UNL     1     -10.598   6.470  67.869  1.00  0.00    -0.252 C  
BRANCH  15  16
HETATM   16  C   UNL     1     -11.135   6.083  69.246  1.00  0.00    -0.424 C  
BRANCH  16  17
HETATM   17  C   UNL     1     -10.023   5.440  70.079  1.00  0.00    -0.303 C  
BRANCH  17  18
HETATM   18  C   UNL     1      -9.791   6.200  71.357  1.00  0.00    -0.200 A  
HETATM   19  C   UNL     1      -8.258   7.235  72.946  1.00  0.00    -0.126 A  
HETATM   20  C   UNL     1      -6.861   7.615  73.367  1.00  0.00    -0.076 C  
HETATM   21  C   UNL     1      -8.493   6.579  71.727  1.00  0.00    -0.123 A  
HETATM   22  C   UNL     1     -10.640   7.144  73.420  1.00  0.00    -0.424 A  
HETATM   23  F   UNL     1      -5.904   7.279  72.455  1.00  0.00    -0.040 F  
HETATM   24  F   UNL     1      -6.722   8.955  73.572  1.00  0.00    -0.099 F  
HETATM   25  F   UNL     1      -6.487   7.018  74.533  1.00  0.00    -0.080 F  
HETATM   26  C   UNL     1      -9.345   7.517  73.787  1.00  0.00    -0.331 A  
HETATM   27  C   UNL     1     -10.859   6.486  72.213  1.00  0.00    -0.262 A  
ENDBRANCH  17  18
ENDBRANCH  16  17
ENDBRANCH  15  16
ENDBRANCH  13  15
ENDBRANCH   2  13
TORSDOF 6
ENDMDL
MODEL      230
REMARK 921   NORMALIZED FREE ENERGY PREDICTED BY IDOCK:   -3.80 KCAL/MOL
REMARK 922        TOTAL FREE ENERGY PREDICTED BY IDOCK:   -8.26 KCAL/MOL
REMARK 923 INTER-LIGAND FREE ENERGY PREDICTED BY IDOCK:   -7.78 KCAL/MOL
REMARK 924 INTRA-LIGAND FREE ENERGY PREDICTED BY IDOCK:   -0.48 KCAL/MOL
REMARK 927      BINDING AFFINITY PREDICTED BY RF-SCORE:    0.00 PKD
ROOT
HETATM    1  C   UNL     1      -7.879   9.934  69.013  1.00  0.00    -0.095 C  
HETATM    2  C   UNL     1      -9.378  10.166  69.278  1.00  0.00    -0.215 C  
ENDROOT
BRANCH   2   3
HETATM    3  C   UNL     1     -10.184   8.880  69.486  1.00  0.00    -0.204 A  
HETATM    4  C   UNL     1     -12.871   9.840  71.985  1.00  0.00    -0.491 A  
HETATM    5  C   UNL     1      -9.799   7.703  68.812  1.00  0.00    -0.165 A  
HETATM    6  C   UNL     1     -13.414   8.596  72.265  1.00  0.00    -0.414 A  
HETATM    7  C   UNL     1     -11.836   9.955  71.052  1.00  0.00    -0.463 A  
HETATM    8  C   UNL     1     -12.949   7.474  71.582  1.00  0.00    -0.397 A  
HETATM    9  C   UNL     1     -10.450   6.494  69.035  1.00  0.00    -0.252 A  
HETATM   10  C   UNL     1     -11.486   6.430  69.956  1.00  0.00    -0.496 A  
HETATM   11  C   UNL     1     -11.299   8.831  70.381  1.00  0.00    -0.213 A  
HETATM   12  C   UNL     1     -11.914   7.576  70.639  1.00  0.00    -0.161 A  
ENDBRANCH   2   3
BRANCH   2  13
HETATM   13  N   UNL     1      -9.992  11.096  68.314  1.00  0.00    -0.180 NA 
HETATM   14  H   UNL     1     -11.009  11.056  68.381  1.00  0.00     0.000 HD 
BRANCH  13  15
HETATM   15  C   UNL     1      -9.529  12.475  68.427  1.00  0.00    -0.167 C  
BRANCH  15  16
HETATM   16  C   UNL     1     -10.444  13.412  67.641  1.00  0.00    -0.242 C  
BRANCH  16  17
HETATM   17  C   UNL     1      -9.618  14.256  66.667  1.00  0.00    -0.302 C  
BRANCH  17  18
HETATM   18  C   UNL     1      -9.402  15.647  67.199  1.00  0.00    -0.229 A  
HETATM   19  C   UNL     1      -9.722  18.055  66.996  1.00  0.00    -0.303 A  
HETATM   20  C   UNL     1     -10.298  19.248  66.274  1.00  0.00    -0.480 C  
HETATM   21  C   UNL     1      -9.967  16.750  66.543  1.00  0.00    -0.308 A  
HETATM   22  C   UNL     1      -8.350  17.148  68.784  1.00  0.00    -0.236 A  
HETATM   23  F   UNL     1     -11.063  18.919  65.195  1.00  0.00    -0.376 F  
HETATM   24  F   UNL     1     -11.096  20.009  67.074  1.00  0.00    -0.493 F  
HETATM   25  F   UNL     1      -9.333  20.087  65.802  1.00  0.00    -0.407 F  
HETATM   26  C   UNL     1      -8.911  18.243  68.125  1.00  0.00    -0.314 A  
HETATM   27  C   UNL     1      -8.593  15.857  68.319  1.00  0.00    -0.176 A  
ENDBRANCH  17  18
ENDBRANCH  16  17
ENDBRANCH  15  16
ENDBRANCH  13  15
ENDBRANCH   2  13
TORSDOF 6
ENDMDL
MODEL      231
REMARK 921   NORMALIZED FREE ENERGY PREDICTED BY IDOCK:   -3.80 KCAL/MOL
REMARK 922        TOTAL FREE ENERGY PREDICTED BY IDOCK:   -8.25 KCAL/MOL
REMARK 923 INTER-LIGAND FREE ENERGY PREDICTED BY IDOCK:   -7.99 KCAL/MOL
REMARK 924 INTRA-LIGAND FREE ENERGY PREDICTED BY IDOCK:   -0.27 KCAL/MOL
REMARK 927      BINDING AFFINITY PREDICTED BY RF-SCORE:    0.00 PKD
ROOT
HETATM    1  C   UNL     1      -9.663  15.671  65.348  1.00  0.00    -0.193 C  
HETATM    2  C   UNL     1     -10.347  16.443  66.490  1.00  0.00    -0.303 C  
ENDROOT
BRANCH   2   3
HETATM    3  C   UNL     1      -9.758  17.833  66.748  1.00  0.00    -0.309 A  
HETATM    4  C   UNL     1      -6.749  17.192  68.967  1.00  0.00    -0.227 A  
HETATM    5  C   UNL     1     -10.393  18.967  66.202  1.00  0.00    -0.537 A  
HETATM    6  C   UNL     1      -6.405  18.490  69.310  1.00  0.00    -0.272 A  
HETATM    7  C   UNL     1      -7.822  16.961  68.101  1.00  0.00    -0.189 A  
HETATM    8  C   UNL     1      -7.110  19.557  68.757  1.00  0.00    -0.383 A  
HETATM    9  C   UNL     1      -9.942  20.254  66.479  1.00  0.00    -0.528 A  
HETATM   10  C   UNL     1      -8.859  20.436  67.329  1.00  0.00    -0.444 A  
HETATM   11  C   UNL     1      -8.598  18.016  67.565  1.00  0.00    -0.244 A  
HETATM   12  C   UNL     1      -8.187  19.339  67.882  1.00  0.00    -0.340 A  
ENDBRANCH   2   3
BRANCH   2  13
HETATM   13  N   UNL     1     -10.505  15.634  67.712  1.00  0.00    -0.267 NA 
HETATM   14  H   UNL     1     -11.423  15.793  68.127  1.00  0.00     0.000 HD 
BRANCH  13  15
HETATM   15  C   UNL     1     -10.272  14.206  67.525  1.00  0.00    -0.241 C  
BRANCH  15  16
HETATM   16  C   UNL     1     -11.590  13.437  67.590  1.00  0.00    -0.377 C  
BRANCH  16  17
HETATM   17  C   UNL     1     -11.398  12.021  67.040  1.00  0.00    -0.396 C  
BRANCH  17  18
HETATM   18  C   UNL     1     -11.200  11.027  68.152  1.00  0.00    -0.364 A  
HETATM   19  C   UNL     1     -10.634   8.773  68.890  1.00  0.00    -0.178 A  
HETATM   20  C   UNL     1     -10.199   7.361  68.586  1.00  0.00    -0.191 C  
HETATM   21  C   UNL     1     -10.764   9.725  67.867  1.00  0.00    -0.312 A  
HETATM   22  C   UNL     1     -11.366  10.442  70.497  1.00  0.00    -0.424 A  
HETATM   23  F   UNL     1      -9.941   7.140  67.265  1.00  0.00    -0.171 F  
HETATM   24  F   UNL     1      -9.062   7.009  69.249  1.00  0.00    -0.137 F  
HETATM   25  F   UNL     1     -11.138   6.439  68.939  1.00  0.00    -0.299 F  
HETATM   26  C   UNL     1     -10.936   9.145  70.208  1.00  0.00    -0.279 A  
HETATM   27  C   UNL     1     -11.500  11.375  69.472  1.00  0.00    -0.381 A  
ENDBRANCH  17  18
ENDBRANCH  16  17
ENDBRANCH  15  16
ENDBRANCH  13  15
ENDBRANCH   2  13
TORSDOF 6
ENDMDL
MODEL      232
REMARK 921   NORMALIZED FREE ENERGY PREDICTED BY IDOCK:   -3.78 KCAL/MOL
REMARK 922        TOTAL FREE ENERGY PREDICTED BY IDOCK:   -8.23 KCAL/MOL
REMARK 923 INTER-LIGAND FREE ENERGY PREDICTED BY IDOCK:   -7.02 KCAL/MOL
REMARK 924 INTRA-LIGAND FREE ENERGY PREDICTED BY IDOCK:   -1.21 KCAL/MOL
REMARK 927      BINDING AFFINITY PREDICTED BY RF-SCORE:    0.00 PKD
ROOT
HETATM    1  C   UNL     1      -9.795   7.688  66.580  1.00  0.00    -0.283 C  
HETATM    2  C   UNL     1      -9.375   8.602  67.745  1.00  0.00    -0.141 C  
ENDROOT
BRANCH   2   3
HETATM    3  C   UNL     1     -10.362   9.736  68.040  1.00  0.00    -0.250 A  
HETATM    4  C   UNL     1     -10.701  11.580  64.743  1.00  0.00    -0.366 A  
HETATM    5  C   UNL     1     -10.876   9.886  69.344  1.00  0.00    -0.265 A  
HETATM    6  C   UNL     1     -11.435  12.685  65.144  1.00  0.00    -0.363 A  
HETATM    7  C   UNL     1     -10.371  10.587  65.671  1.00  0.00    -0.274 A  
HETATM    8  C   UNL     1     -11.873  12.777  66.464  1.00  0.00    -0.471 A  
HETATM    9  C   UNL     1     -11.709  10.949  69.678  1.00  0.00    -0.403 A  
HETATM   10  C   UNL     1     -12.027  11.901  68.718  1.00  0.00    -0.307 A  
HETATM   11  C   UNL     1     -10.748  10.675  67.033  1.00  0.00    -0.317 A  
HETATM   12  C   UNL     1     -11.553  11.786  67.406  1.00  0.00    -0.352 A  
ENDBRANCH   2   3
BRANCH   2  13
HETATM   13  N   UNL     1      -7.975   9.051  67.644  1.00  0.00    -0.101 NA 
HETATM   14  H   UNL     1      -7.822   9.873  68.229  1.00  0.00     0.000 HD 
BRANCH  13  15
HETATM   15  C   UNL     1      -6.987   8.021  67.946  1.00  0.00    -0.078 C  
BRANCH  15  16
HETATM   16  C   UNL     1      -7.514   7.075  69.023  1.00  0.00    -0.095 C  
BRANCH  16  17
HETATM   17  C   UNL     1      -7.043   7.538  70.404  1.00  0.00    -0.059 C  
BRANCH  17  18
HETATM   18  C   UNL     1      -8.172   7.523  71.399  1.00  0.00    -0.106 A  
HETATM   19  C   UNL     1     -10.540   7.229  71.896  1.00  0.00    -0.238 A  
HETATM   20  C   UNL     1     -11.945   6.903  71.455  1.00  0.00    -0.349 C  
HETATM   21  C   UNL     1      -9.470   7.187  70.989  1.00  0.00    -0.159 A  
HETATM   22  C   UNL     1      -9.000   7.931  73.639  1.00  0.00    -0.337 A  
HETATM   23  F   UNL     1     -12.040   6.561  70.138  1.00  0.00    -0.468 F  
HETATM   24  F   UNL     1     -12.483   5.861  72.148  1.00  0.00    -0.347 F  
HETATM   25  F   UNL     1     -12.802   7.949  71.628  1.00  0.00    -0.306 F  
HETATM   26  C   UNL     1     -10.291   7.601  73.226  1.00  0.00    -0.405 A  
HETATM   27  C   UNL     1      -7.947   7.895  72.728  1.00  0.00    -0.175 A  
ENDBRANCH  17  18
ENDBRANCH  16  17
ENDBRANCH  15  16
ENDBRANCH  13  15
ENDBRANCH   2  13
TORSDOF 6
ENDMDL
MODEL      233
REMARK 921   NORMALIZED FREE ENERGY PREDICTED BY IDOCK:   -3.77 KCAL/MOL
REMARK 922        TOTAL FREE ENERGY PREDICTED BY IDOCK:   -8.22 KCAL/MOL
REMARK 923 INTER-LIGAND FREE ENERGY PREDICTED BY IDOCK:   -4.76 KCAL/MOL
REMARK 924 INTRA-LIGAND FREE ENERGY PREDICTED BY IDOCK:   -3.46 KCAL/MOL
REMARK 927      BINDING AFFINITY PREDICTED BY RF-SCORE:    0.00 PKD
ROOT
HETATM    1  C   UNL     1      -9.475   3.514  71.893  1.00  0.00    -0.206 C  
HETATM    2  C   UNL     1      -9.073   4.452  70.742  1.00  0.00    -0.124 C  
ENDROOT
BRANCH   2   3
HETATM    3  C   UNL     1      -8.937   5.922  71.149  1.00  0.00    -0.145 A  
HETATM    4  C   UNL     1     -12.490   7.249  71.115  1.00  0.00    -0.373 A  
HETATM    5  C   UNL     1      -7.657   6.456  71.400  1.00  0.00    -0.094 A  
HETATM    6  C   UNL     1     -12.257   8.604  71.291  1.00  0.00    -0.320 A  
HETATM    7  C   UNL     1     -11.417   6.354  71.101  1.00  0.00    -0.381 A  
HETATM    8  C   UNL     1     -10.955   9.057  71.494  1.00  0.00    -0.418 A  
HETATM    9  C   UNL     1      -7.478   7.805  71.691  1.00  0.00    -0.075 A  
HETATM   10  C   UNL     1      -8.575   8.656  71.715  1.00  0.00    -0.240 A  
HETATM   11  C   UNL     1     -10.076   6.783  71.245  1.00  0.00    -0.203 A  
HETATM   12  C   UNL     1      -9.868   8.168  71.487  1.00  0.00    -0.233 A  
ENDBRANCH   2   3
BRANCH   2  13
HETATM   13  N   UNL     1      -9.886   4.250  69.529  1.00  0.00    -0.199 NA 
HETATM   14  H   UNL     1     -10.464   5.071  69.347  1.00  0.00     0.000 HD 
BRANCH  13  15
HETATM   15  C   UNL     1      -9.118   3.896  68.340  1.00  0.00    -0.138 C  
BRANCH  15  16
HETATM   16  C   UNL     1      -9.274   4.969  67.264  1.00  0.00    -0.127 C  
BRANCH  16  17
HETATM   17  C   UNL     1     -10.382   5.949  67.660  1.00  0.00    -0.265 C  
BRANCH  17  18
HETATM   18  C   UNL     1      -9.870   7.364  67.700  1.00  0.00    -0.194 A  
HETATM   19  C   UNL     1      -8.051   8.938  68.098  1.00  0.00    -0.106 A  
HETATM   20  C   UNL     1      -6.614   9.221  68.454  1.00  0.00    -0.058 C  
HETATM   21  C   UNL     1      -8.525   7.620  67.999  1.00  0.00    -0.123 A  
HETATM   22  C   UNL     1     -10.283   9.748  67.579  1.00  0.00    -0.271 A  
HETATM   23  F   UNL     1      -5.863   8.098  68.639  1.00  0.00    -0.035 F  
HETATM   24  F   UNL     1      -5.969   9.943  67.495  1.00  0.00    -0.051 F  
HETATM   25  F   UNL     1      -6.494   9.940  69.606  1.00  0.00    -0.041 F  
HETATM   26  C   UNL     1      -8.943   9.999  67.882  1.00  0.00    -0.131 A  
HETATM   27  C   UNL     1     -10.743   8.436  67.493  1.00  0.00    -0.207 A  
ENDBRANCH  17  18
ENDBRANCH  16  17
ENDBRANCH  15  16
ENDBRANCH  13  15
ENDBRANCH   2  13
TORSDOF 6
ENDMDL
MODEL      234
REMARK 921   NORMALIZED FREE ENERGY PREDICTED BY IDOCK:   -3.75 KCAL/MOL
REMARK 922        TOTAL FREE ENERGY PREDICTED BY IDOCK:   -8.20 KCAL/MOL
REMARK 923 INTER-LIGAND FREE ENERGY PREDICTED BY IDOCK:   -8.06 KCAL/MOL
REMARK 924 INTRA-LIGAND FREE ENERGY PREDICTED BY IDOCK:   -0.14 KCAL/MOL
REMARK 927      BINDING AFFINITY PREDICTED BY RF-SCORE:    0.00 PKD
ROOT
HETATM    1  C   UNL     1     -10.671  11.934  68.929  1.00  0.00    -0.236 C  
HETATM    2  C   UNL     1     -11.888  12.653  68.320  1.00  0.00    -0.306 C  
ENDROOT
BRANCH   2   3
HETATM    3  C   UNL     1     -11.819  12.824  66.799  1.00  0.00    -0.452 A  
HETATM    4  C   UNL     1      -9.882   9.795  65.591  1.00  0.00    -0.371 A  
HETATM    5  C   UNL     1     -12.394  13.965  66.203  1.00  0.00    -0.504 A  
HETATM    6  C   UNL     1      -9.695  10.129  64.258  1.00  0.00    -0.326 A  
HETATM    7  C   UNL     1     -10.606  10.650  66.428  1.00  0.00    -0.240 A  
HETATM    8  C   UNL     1     -10.264  11.296  63.755  1.00  0.00    -0.431 A  
HETATM    9  C   UNL     1     -12.283  14.204  64.837  1.00  0.00    -0.451 A  
HETATM   10  C   UNL     1     -11.572  13.317  64.039  1.00  0.00    -0.458 A  
HETATM   11  C   UNL     1     -11.150  11.873  65.967  1.00  0.00    -0.369 A  
HETATM   12  C   UNL     1     -10.997  12.162  64.584  1.00  0.00    -0.359 A  
ENDBRANCH   2   3
BRANCH   2  13
HETATM   13  N   UNL     1     -12.238  13.892  69.037  1.00  0.00    -0.452 NA 
HETATM   14  H   UNL     1     -12.939  13.702  69.753  1.00  0.00     0.000 HD 
BRANCH  13  15
HETATM   15  C   UNL     1     -11.100  14.598  69.614  1.00  0.00    -0.253 C  
BRANCH  15  16
HETATM   16  C   UNL     1     -11.399  16.092  69.726  1.00  0.00    -0.331 C  
BRANCH  16  17
HETATM   17  C   UNL     1     -11.282  16.754  68.351  1.00  0.00    -0.176 C  
BRANCH  17  18
HETATM   18  C   UNL     1      -9.882  16.643  67.810  1.00  0.00    -0.252 A  
HETATM   19  C   UNL     1      -7.921  17.686  66.804  1.00  0.00    -0.268 A  
HETATM   20  C   UNL     1      -7.200  18.908  66.292  1.00  0.00    -0.249 C  
HETATM   21  C   UNL     1      -9.204  17.787  67.366  1.00  0.00    -0.248 A  
HETATM   22  C   UNL     1      -7.990  15.282  67.149  1.00  0.00    -0.251 A  
HETATM   23  F   UNL     1      -7.902  20.066  66.452  1.00  0.00    -0.278 F  
HETATM   24  F   UNL     1      -6.005  19.110  66.916  1.00  0.00    -0.163 F  
HETATM   25  F   UNL     1      -6.917  18.827  64.962  1.00  0.00    -0.207 F  
HETATM   26  C   UNL     1      -7.320  16.423  66.704  1.00  0.00    -0.241 A  
HETATM   27  C   UNL     1      -9.266  15.393  67.695  1.00  0.00    -0.187 A  
ENDBRANCH  17  18
ENDBRANCH  16  17
ENDBRANCH  15  16
ENDBRANCH  13  15
ENDBRANCH   2  13
TORSDOF 6
ENDMDL
MODEL      235
REMARK 921   NORMALIZED FREE ENERGY PREDICTED BY IDOCK:   -3.73 KCAL/MOL
REMARK 922        TOTAL FREE ENERGY PREDICTED BY IDOCK:   -8.16 KCAL/MOL
REMARK 923 INTER-LIGAND FREE ENERGY PREDICTED BY IDOCK:   -4.84 KCAL/MOL
REMARK 924 INTRA-LIGAND FREE ENERGY PREDICTED BY IDOCK:   -3.32 KCAL/MOL
REMARK 927      BINDING AFFINITY PREDICTED BY RF-SCORE:    0.00 PKD
ROOT
HETATM    1  C   UNL     1      -9.473   3.516  68.021  1.00  0.00    -0.217 C  
HETATM    2  C   UNL     1      -8.549   3.623  69.247  1.00  0.00    -0.072 C  
ENDROOT
BRANCH   2   3
HETATM    3  C   UNL     1      -9.287   3.835  70.572  1.00  0.00    -0.228 A  
HETATM    4  C   UNL     1     -11.656   6.717  69.887  1.00  0.00    -0.326 A  
HETATM    5  C   UNL     1      -8.960   3.033  71.684  1.00  0.00    -0.143 A  
HETATM    6  C   UNL     1     -12.125   6.970  71.166  1.00  0.00    -0.412 A  
HETATM    7  C   UNL     1     -10.753   5.672  69.669  1.00  0.00    -0.398 A  
HETATM    8  C   UNL     1     -11.722   6.153  72.220  1.00  0.00    -0.352 A  
HETATM    9  C   UNL     1      -9.544   3.245  72.928  1.00  0.00    -0.161 A  
HETATM   10  C   UNL     1     -10.452   4.283  73.095  1.00  0.00    -0.251 A  
HETATM   11  C   UNL     1     -10.276   4.857  70.724  1.00  0.00    -0.276 A  
HETATM   12  C   UNL     1     -10.819   5.097  72.016  1.00  0.00    -0.194 A  
ENDBRANCH   2   3
BRANCH   2  13
HETATM   13  N   UNL     1      -7.429   4.558  69.039  1.00  0.00    -0.056 NA 
HETATM   14  H   UNL     1      -7.729   5.516  69.220  1.00  0.00     0.000 HD 
BRANCH  13  15
HETATM   15  C   UNL     1      -6.231   4.246  69.811  1.00  0.00    -0.027 C  
BRANCH  15  16
HETATM   16  C   UNL     1      -5.678   5.507  70.472  1.00  0.00    -0.020 C  
BRANCH  16  17
HETATM   17  C   UNL     1      -6.269   5.665  71.875  1.00  0.00    -0.039 C  
BRANCH  17  18
HETATM   18  C   UNL     1      -7.313   6.750  71.908  1.00  0.00    -0.085 A  
HETATM   19  C   UNL     1      -8.545   8.525  70.780  1.00  0.00    -0.175 A  
HETATM   20  C   UNL     1      -8.852   9.329  69.542  1.00  0.00    -0.151 C  
HETATM   21  C   UNL     1      -7.618   7.472  70.746  1.00  0.00    -0.081 A  
HETATM   22  C   UNL     1      -8.875   8.120  73.154  1.00  0.00    -0.325 A  
HETATM   23  F   UNL     1      -8.170   8.916  68.437  1.00  0.00    -0.111 F  
HETATM   24  F   UNL     1     -10.171   9.282  69.202  1.00  0.00    -0.181 F  
HETATM   25  F   UNL     1      -8.552  10.650  69.690  1.00  0.00    -0.150 F  
HETATM   26  C   UNL     1      -9.172   8.840  71.995  1.00  0.00    -0.294 A  
HETATM   27  C   UNL     1      -7.946   7.083  73.109  1.00  0.00    -0.109 A  
ENDBRANCH  17  18
ENDBRANCH  16  17
ENDBRANCH  15  16
ENDBRANCH  13  15
ENDBRANCH   2  13
TORSDOF 6
ENDMDL
MODEL      236
REMARK 921   NORMALIZED FREE ENERGY PREDICTED BY IDOCK:   -3.72 KCAL/MOL
REMARK 922        TOTAL FREE ENERGY PREDICTED BY IDOCK:   -8.16 KCAL/MOL
REMARK 923 INTER-LIGAND FREE ENERGY PREDICTED BY IDOCK:   -7.43 KCAL/MOL
REMARK 924 INTRA-LIGAND FREE ENERGY PREDICTED BY IDOCK:   -0.72 KCAL/MOL
REMARK 927      BINDING AFFINITY PREDICTED BY RF-SCORE:    0.00 PKD
ROOT
HETATM    1  C   UNL     1      -7.767   4.994  68.051  1.00  0.00    -0.083 C  
HETATM    2  C   UNL     1      -8.887   5.943  68.512  1.00  0.00    -0.111 C  
ENDROOT
BRANCH   2   3
HETATM    3  C   UNL     1      -9.491   5.586  69.874  1.00  0.00    -0.203 A  
HETATM    4  C   UNL     1     -11.110   8.801  71.067  1.00  0.00    -0.328 A  
HETATM    5  C   UNL     1      -9.322   4.283  70.387  1.00  0.00    -0.219 A  
HETATM    6  C   UNL     1     -11.446   8.450  72.365  1.00  0.00    -0.451 A  
HETATM    7  C   UNL     1     -10.502   7.864  70.227  1.00  0.00    -0.225 A  
HETATM    8  C   UNL     1     -11.209   7.151  72.809  1.00  0.00    -0.314 A  
HETATM    9  C   UNL     1      -9.780   3.938  71.654  1.00  0.00    -0.240 A  
HETATM   10  C   UNL     1     -10.398   4.896  72.448  1.00  0.00    -0.262 A  
HETATM   11  C   UNL     1     -10.192   6.553  70.661  1.00  0.00    -0.220 A  
HETATM   12  C   UNL     1     -10.602   6.198  71.975  1.00  0.00    -0.259 A  
ENDBRANCH   2   3
BRANCH   2  13
HETATM   13  N   UNL     1      -9.896   6.188  67.467  1.00  0.00    -0.119 NA 
HETATM   14  H   UNL     1     -10.741   6.587  67.875  1.00  0.00     0.000 HD 
BRANCH  13  15
HETATM   15  C   UNL     1      -9.429   7.011  66.357  1.00  0.00    -0.124 C  
BRANCH  15  16
HETATM   16  C   UNL     1      -8.515   8.124  66.866  1.00  0.00    -0.119 C  
BRANCH  16  17
HETATM   17  C   UNL     1      -9.308   9.426  67.012  1.00  0.00    -0.185 C  
BRANCH  17  18
HETATM   18  C   UNL     1      -9.519  10.089  65.677  1.00  0.00    -0.278 A  
HETATM   19  C   UNL     1     -10.881  11.468  64.200  1.00  0.00    -0.435 A  
HETATM   20  C   UNL     1     -12.108  12.308  63.947  1.00  0.00    -0.506 C  
HETATM   21  C   UNL     1     -10.644  10.895  65.459  1.00  0.00    -0.240 A  
HETATM   22  C   UNL     1      -8.843  10.433  63.376  1.00  0.00    -0.218 A  
HETATM   23  F   UNL     1     -12.908  12.452  65.042  1.00  0.00    -0.541 F  
HETATM   24  F   UNL     1     -11.803  13.573  63.544  1.00  0.00    -0.462 F  
HETATM   25  F   UNL     1     -12.905  11.787  62.973  1.00  0.00    -0.698 F  
HETATM   26  C   UNL     1      -9.968  11.232  63.162  1.00  0.00    -0.398 A  
HETATM   27  C   UNL     1      -8.624   9.862  64.627  1.00  0.00    -0.195 A  
ENDBRANCH  17  18
ENDBRANCH  16  17
ENDBRANCH  15  16
ENDBRANCH  13  15
ENDBRANCH   2  13
TORSDOF 6
ENDMDL
MODEL      237
REMARK 921   NORMALIZED FREE ENERGY PREDICTED BY IDOCK:   -3.69 KCAL/MOL
REMARK 922        TOTAL FREE ENERGY PREDICTED BY IDOCK:   -8.12 KCAL/MOL
REMARK 923 INTER-LIGAND FREE ENERGY PREDICTED BY IDOCK:   -7.73 KCAL/MOL
REMARK 924 INTRA-LIGAND FREE ENERGY PREDICTED BY IDOCK:   -0.38 KCAL/MOL
REMARK 927      BINDING AFFINITY PREDICTED BY RF-SCORE:    0.00 PKD
ROOT
HETATM    1  C   UNL     1     -12.303  14.008  66.100  1.00  0.00    -0.491 C  
HETATM    2  C   UNL     1     -10.926  13.367  66.348  1.00  0.00    -0.289 C  
ENDROOT
BRANCH   2   3
HETATM    3  C   UNL     1     -10.986  11.991  67.018  1.00  0.00    -0.323 A  
HETATM    4  C   UNL     1     -12.527  12.660  70.419  1.00  0.00    -0.219 A  
HETATM    5  C   UNL     1     -10.482  10.865  66.336  1.00  0.00    -0.307 A  
HETATM    6  C   UNL     1     -12.359  11.423  71.022  1.00  0.00    -0.448 A  
HETATM    7  C   UNL     1     -12.115  12.853  69.097  1.00  0.00    -0.216 A  
HETATM    8  C   UNL     1     -11.815  10.370  70.290  1.00  0.00    -0.399 A  
HETATM    9  C   UNL     1     -10.440   9.612  66.938  1.00  0.00    -0.282 A  
HETATM   10  C   UNL     1     -10.879   9.461  68.247  1.00  0.00    -0.163 A  
HETATM   11  C   UNL     1     -11.506  11.823  68.340  1.00  0.00    -0.354 A  
HETATM   12  C   UNL     1     -11.401  10.548  68.959  1.00  0.00    -0.319 A  
ENDBRANCH   2   3
BRANCH   2  13
HETATM   13  N   UNL     1      -9.971  14.291  66.984  1.00  0.00    -0.254 NA 
HETATM   14  H   UNL     1     -10.436  14.840  67.708  1.00  0.00     0.000 HD 
BRANCH  13  15
HETATM   15  C   UNL     1      -8.776  13.650  67.522  1.00  0.00    -0.198 C  
BRANCH  15  16
HETATM   16  C   UNL     1      -8.124  14.537  68.581  1.00  0.00    -0.150 C  
BRANCH  16  17
HETATM   17  C   UNL     1      -7.012  15.377  67.947  1.00  0.00    -0.161 C  
BRANCH  17  18
HETATM   18  C   UNL     1      -7.277  16.849  68.115  1.00  0.00    -0.171 A  
HETATM   19  C   UNL     1      -8.549  18.843  67.527  1.00  0.00    -0.296 A  
HETATM   20  C   UNL     1      -9.661  19.514  66.759  1.00  0.00    -0.357 C  
HETATM   21  C   UNL     1      -8.332  17.461  67.424  1.00  0.00    -0.215 A  
HETATM   22  C   UNL     1      -6.652  19.001  69.037  1.00  0.00    -0.317 A  
HETATM   23  F   UNL     1     -10.403  18.653  66.006  1.00  0.00    -0.385 F  
HETATM   24  F   UNL     1     -10.547  20.153  67.572  1.00  0.00    -0.506 F  
HETATM   25  F   UNL     1      -9.199  20.459  65.893  1.00  0.00    -0.328 F  
HETATM   26  C   UNL     1      -7.701  19.606  68.343  1.00  0.00    -0.366 A  
HETATM   27  C   UNL     1      -6.440  17.630  68.919  1.00  0.00    -0.215 A  
ENDBRANCH  17  18
ENDBRANCH  16  17
ENDBRANCH  15  16
ENDBRANCH  13  15
ENDBRANCH   2  13
TORSDOF 6
ENDMDL
MODEL      238
REMARK 921   NORMALIZED FREE ENERGY PREDICTED BY IDOCK:   -3.69 KCAL/MOL
REMARK 922        TOTAL FREE ENERGY PREDICTED BY IDOCK:   -8.11 KCAL/MOL
REMARK 923 INTER-LIGAND FREE ENERGY PREDICTED BY IDOCK:   -7.17 KCAL/MOL
REMARK 924 INTRA-LIGAND FREE ENERGY PREDICTED BY IDOCK:   -0.93 KCAL/MOL
REMARK 927      BINDING AFFINITY PREDICTED BY RF-SCORE:    0.00 PKD
ROOT
HETATM    1  C   UNL     1     -12.404  14.584  64.308  1.00  0.00    -0.396 C  
HETATM    2  C   UNL     1     -12.243  14.104  65.761  1.00  0.00    -0.442 C  
ENDROOT
BRANCH   2   3
HETATM    3  C   UNL     1     -11.390  15.027  66.636  1.00  0.00    -0.289 A  
HETATM    4  C   UNL     1     -12.489  14.254  70.183  1.00  0.00    -0.393 A  
HETATM    5  C   UNL     1     -10.482  15.916  66.026  1.00  0.00    -0.357 A  
HETATM    6  C   UNL     1     -11.829  15.255  70.878  1.00  0.00    -0.387 A  
HETATM    7  C   UNL     1     -12.329  14.143  68.799  1.00  0.00    -0.083 A  
HETATM    8  C   UNL     1     -10.978  16.120  70.193  1.00  0.00    -0.359 A  
HETATM    9  C   UNL     1      -9.748  16.829  66.775  1.00  0.00    -0.273 A  
HETATM   10  C   UNL     1      -9.924  16.891  68.152  1.00  0.00    -0.285 A  
HETATM   11  C   UNL     1     -11.518  15.039  68.061  1.00  0.00    -0.357 A  
HETATM   12  C   UNL     1     -10.803  16.018  68.803  1.00  0.00    -0.302 A  
ENDBRANCH   2   3
BRANCH   2  13
HETATM   13  N   UNL     1     -11.861  12.684  65.855  1.00  0.00    -0.429 NA 
HETATM   14  H   UNL     1     -12.549  12.166  66.402  1.00  0.00     0.000 HD 
BRANCH  13  15
HETATM   15  C   UNL     1     -11.639  12.032  64.569  1.00  0.00    -0.317 C  
BRANCH  15  16
HETATM   16  C   UNL     1     -10.193  11.554  64.455  1.00  0.00    -0.350 C  
BRANCH  16  17
HETATM   17  C   UNL     1      -9.611  11.311  65.850  1.00  0.00    -0.249 C  
BRANCH  17  18
HETATM   18  C   UNL     1      -9.650   9.849  66.210  1.00  0.00    -0.265 A  
HETATM   19  C   UNL     1      -8.890   7.564  65.833  1.00  0.00    -0.157 A  
HETATM   20  C   UNL     1      -8.023   6.572  65.099  1.00  0.00    -0.123 C  
HETATM   21  C   UNL     1      -8.818   8.936  65.547  1.00  0.00    -0.238 A  
HETATM   22  C   UNL     1     -10.629   8.024  67.467  1.00  0.00    -0.302 A  
HETATM   23  F   UNL     1      -7.188   7.144  64.185  1.00  0.00    -0.053 F  
HETATM   24  F   UNL     1      -7.220   5.858  65.938  1.00  0.00    -0.068 F  
HETATM   25  F   UNL     1      -8.753   5.652  64.409  1.00  0.00    -0.131 F  
HETATM   26  C   UNL     1      -9.801   7.118  66.802  1.00  0.00    -0.272 A  
HETATM   27  C   UNL     1     -10.554   9.382  67.168  1.00  0.00    -0.294 A  
ENDBRANCH  17  18
ENDBRANCH  16  17
ENDBRANCH  15  16
ENDBRANCH  13  15
ENDBRANCH   2  13
TORSDOF 6
ENDMDL
MODEL      239
REMARK 921   NORMALIZED FREE ENERGY PREDICTED BY IDOCK:   -3.68 KCAL/MOL
REMARK 922        TOTAL FREE ENERGY PREDICTED BY IDOCK:   -8.09 KCAL/MOL
REMARK 923 INTER-LIGAND FREE ENERGY PREDICTED BY IDOCK:   -7.10 KCAL/MOL
REMARK 924 INTRA-LIGAND FREE ENERGY PREDICTED BY IDOCK:   -1.00 KCAL/MOL
REMARK 927      BINDING AFFINITY PREDICTED BY RF-SCORE:    0.00 PKD
ROOT
HETATM    1  C   UNL     1     -11.339  11.815  69.572  1.00  0.00    -0.317 C  
HETATM    2  C   UNL     1     -12.212  12.698  68.663  1.00  0.00     0.074 C  
ENDROOT
BRANCH   2   3
HETATM    3  C   UNL     1     -11.681  12.845  67.234  1.00  0.00    -0.431 A  
HETATM    4  C   UNL     1     -10.186   9.454  66.425  1.00  0.00    -0.300 A  
HETATM    5  C   UNL     1     -11.803  14.084  66.573  1.00  0.00    -0.439 A  
HETATM    6  C   UNL     1      -9.562   9.733  65.219  1.00  0.00    -0.368 A  
HETATM    7  C   UNL     1     -10.913  10.452  67.080  1.00  0.00    -0.263 A  
HETATM    8  C   UNL     1      -9.698  10.998  64.651  1.00  0.00    -0.315 A  
HETATM    9  C   UNL     1     -11.261  14.288  65.308  1.00  0.00    -0.337 A  
HETATM   10  C   UNL     1     -10.564  13.261  64.684  1.00  0.00    -0.421 A  
HETATM   11  C   UNL     1     -11.026  11.765  66.563  1.00  0.00    -0.342 A  
HETATM   12  C   UNL     1     -10.430  12.008  65.296  1.00  0.00    -0.323 A  
ENDBRANCH   2   3
BRANCH   2  13
HETATM   13  N   UNL     1     -12.577  13.980  69.291  1.00  0.00    -0.380 NA 
HETATM   14  H   UNL     1     -13.592  14.083  69.326  1.00  0.00     0.000 HD 
BRANCH  13  15
HETATM   15  C   UNL     1     -11.998  14.192  70.613  1.00  0.00    -0.315 C  
BRANCH  15  16
HETATM   16  C   UNL     1     -11.522  15.636  70.762  1.00  0.00    -0.409 C  
BRANCH  16  17
HETATM   17  C   UNL     1     -11.646  16.369  69.423  1.00  0.00    -0.057 C  
BRANCH  17  18
HETATM   18  C   UNL     1     -10.318  16.922  68.980  1.00  0.00    -0.333 A  
HETATM   19  C   UNL     1      -8.002  16.563  68.308  1.00  0.00    -0.177 A  
HETATM   20  C   UNL     1      -6.851  15.638  68.001  1.00  0.00    -0.132 C  
HETATM   21  C   UNL     1      -9.261  16.056  68.664  1.00  0.00    -0.216 A  
HETATM   22  C   UNL     1      -8.867  18.819  68.572  1.00  0.00    -0.378 A  
HETATM   23  F   UNL     1      -7.173  14.316  68.087  1.00  0.00    -0.090 F  
HETATM   24  F   UNL     1      -6.356  15.817  66.744  1.00  0.00    -0.082 F  
HETATM   25  F   UNL     1      -5.798  15.818  68.846  1.00  0.00    -0.100 F  
HETATM   26  C   UNL     1      -7.816  17.953  68.262  1.00  0.00    -0.285 A  
HETATM   27  C   UNL     1     -10.109  18.304  68.932  1.00  0.00    -0.358 A  
ENDBRANCH  17  18
ENDBRANCH  16  17
ENDBRANCH  15  16
ENDBRANCH  13  15
ENDBRANCH   2  13
TORSDOF 6
ENDMDL
MODEL      240
REMARK 921   NORMALIZED FREE ENERGY PREDICTED BY IDOCK:   -3.66 KCAL/MOL
REMARK 922        TOTAL FREE ENERGY PREDICTED BY IDOCK:   -8.08 KCAL/MOL
REMARK 923 INTER-LIGAND FREE ENERGY PREDICTED BY IDOCK:   -7.85 KCAL/MOL
REMARK 924 INTRA-LIGAND FREE ENERGY PREDICTED BY IDOCK:   -0.23 KCAL/MOL
REMARK 927      BINDING AFFINITY PREDICTED BY RF-SCORE:    0.00 PKD
ROOT
HETATM    1  C   UNL     1     -10.303   7.870  67.072  1.00  0.00    -0.411 C  
HETATM    2  C   UNL     1     -10.565   9.381  66.935  1.00  0.00    -0.167 C  
ENDROOT
BRANCH   2   3
HETATM    3  C   UNL     1     -10.168   9.965  65.576  1.00  0.00    -0.194 A  
HETATM    4  C   UNL     1      -6.823   8.358  64.791  1.00  0.00    -0.072 A  
HETATM    5  C   UNL     1     -11.010  10.911  64.956  1.00  0.00    -0.035 A  
HETATM    6  C   UNL     1      -6.451   9.081  63.669  1.00  0.00    -0.089 A  
HETATM    7  C   UNL     1      -8.053   8.610  65.407  1.00  0.00    -0.121 A  
HETATM    8  C   UNL     1      -7.325  10.028  63.141  1.00  0.00    -0.134 A  
HETATM    9  C   UNL     1     -10.650  11.530  63.764  1.00  0.00    -0.465 A  
HETATM   10  C   UNL     1      -9.427  11.234  63.175  1.00  0.00    -0.367 A  
HETATM   11  C   UNL     1      -8.942   9.605  64.934  1.00  0.00    -0.260 A  
HETATM   12  C   UNL     1      -8.565  10.290  63.746  1.00  0.00    -0.190 A  
ENDBRANCH   2   3
BRANCH   2  13
HETATM   13  N   UNL     1     -10.056  10.155  68.081  1.00  0.00    -0.148 NA 
HETATM   14  H   UNL     1      -9.970  11.141  67.833  1.00  0.00     0.000 HD 
BRANCH  13  15
HETATM   15  C   UNL     1     -10.834  10.004  69.306  1.00  0.00    -0.230 C  
BRANCH  15  16
HETATM   16  C   UNL     1     -11.996  10.994  69.325  1.00  0.00    -0.410 C  
BRANCH  16  17
HETATM   17  C   UNL     1     -11.654  12.220  68.474  1.00  0.00    -0.359 C  
BRANCH  17  18
HETATM   18  C   UNL     1     -11.753  13.488  69.280  1.00  0.00    -0.382 A  
HETATM   19  C   UNL     1     -12.436  14.647  71.312  1.00  0.00    -0.408 A  
HETATM   20  C   UNL     1     -13.039  14.631  72.695  1.00  0.00    -0.458 C  
HETATM   21  C   UNL     1     -12.284  13.462  70.576  1.00  0.00    -0.425 A  
HETATM   22  C   UNL     1     -11.504  15.892  69.445  1.00  0.00    -0.351 A  
HETATM   23  F   UNL     1     -13.382  13.384  73.128  1.00  0.00    -0.451 F  
HETATM   24  F   UNL     1     -12.196  15.132  73.640  1.00  0.00    -0.481 F  
HETATM   25  F   UNL     1     -14.177  15.376  72.776  1.00  0.00    -0.548 F  
HETATM   26  C   UNL     1     -12.038  15.862  70.735  1.00  0.00    -0.393 A  
HETATM   27  C   UNL     1     -11.367  14.711  68.722  1.00  0.00    -0.302 A  
ENDBRANCH  17  18
ENDBRANCH  16  17
ENDBRANCH  15  16
ENDBRANCH  13  15
ENDBRANCH   2  13
TORSDOF 6
ENDMDL
MODEL      241
REMARK 921   NORMALIZED FREE ENERGY PREDICTED BY IDOCK:   -3.66 KCAL/MOL
REMARK 922        TOTAL FREE ENERGY PREDICTED BY IDOCK:   -8.08 KCAL/MOL
REMARK 923 INTER-LIGAND FREE ENERGY PREDICTED BY IDOCK:   -6.47 KCAL/MOL
REMARK 924 INTRA-LIGAND FREE ENERGY PREDICTED BY IDOCK:   -1.60 KCAL/MOL
REMARK 927      BINDING AFFINITY PREDICTED BY RF-SCORE:    0.00 PKD
ROOT
HETATM    1  C   UNL     1     -10.505   8.178  66.760  1.00  0.00    -0.316 C  
HETATM    2  C   UNL     1      -9.423   9.248  66.532  1.00  0.00    -0.202 C  
ENDROOT
BRANCH   2   3
HETATM    3  C   UNL     1      -9.778  10.281  65.459  1.00  0.00    -0.326 A  
HETATM    4  C   UNL     1     -12.007  12.777  67.243  1.00  0.00    -0.345 A  
HETATM    5  C   UNL     1      -9.291  10.111  64.146  1.00  0.00    -0.340 A  
HETATM    6  C   UNL     1     -12.437  13.545  66.172  1.00  0.00    -0.424 A  
HETATM    7  C   UNL     1     -11.109  11.727  67.032  1.00  0.00    -0.358 A  
HETATM    8  C   UNL     1     -11.938  13.287  64.898  1.00  0.00    -0.417 A  
HETATM    9  C   UNL     1      -9.655  10.978  63.120  1.00  0.00    -0.384 A  
HETATM   10  C   UNL     1     -10.535  12.021  63.380  1.00  0.00    -0.474 A  
HETATM   11  C   UNL     1     -10.625  11.398  65.743  1.00  0.00    -0.315 A  
HETATM   12  C   UNL     1     -11.032  12.238  64.671  1.00  0.00    -0.349 A  
ENDBRANCH   2   3
BRANCH   2  13
HETATM   13  N   UNL     1      -8.075   8.674  66.375  1.00  0.00    -0.098 NA 
HETATM   14  H   UNL     1      -7.742   8.806  65.420  1.00  0.00     0.000 HD 
BRANCH  13  15
HETATM   15  C   UNL     1      -7.091   9.171  67.330  1.00  0.00    -0.079 C  
BRANCH  15  16
HETATM   16  C   UNL     1      -7.781   9.659  68.602  1.00  0.00    -0.080 C  
BRANCH  16  17
HETATM   17  C   UNL     1      -7.531   8.672  69.745  1.00  0.00    -0.060 C  
BRANCH  17  18
HETATM   18  C   UNL     1      -8.621   7.637  69.820  1.00  0.00    -0.135 A  
HETATM   19  C   UNL     1      -9.460   5.413  69.276  1.00  0.00    -0.179 A  
HETATM   20  C   UNL     1      -9.270   4.054  68.650  1.00  0.00    -0.150 C  
HETATM   21  C   UNL     1      -8.428   6.364  69.265  1.00  0.00    -0.126 A  
HETATM   22  C   UNL     1     -10.885   7.015  70.421  1.00  0.00    -0.283 A  
HETATM   23  F   UNL     1      -8.030   3.866  68.116  1.00  0.00    -0.074 F  
HETATM   24  F   UNL     1      -9.449   3.038  69.540  1.00  0.00    -0.201 F  
HETATM   25  F   UNL     1     -10.149   3.821  67.635  1.00  0.00    -0.163 F  
HETATM   26  C   UNL     1     -10.688   5.750  69.863  1.00  0.00    -0.412 A  
HETATM   27  C   UNL     1      -9.856   7.953  70.395  1.00  0.00    -0.183 A  
ENDBRANCH  17  18
ENDBRANCH  16  17
ENDBRANCH  15  16
ENDBRANCH  13  15
ENDBRANCH   2  13
TORSDOF 6
ENDMDL
MODEL      242
REMARK 921   NORMALIZED FREE ENERGY PREDICTED BY IDOCK:   -3.66 KCAL/MOL
REMARK 922        TOTAL FREE ENERGY PREDICTED BY IDOCK:   -8.07 KCAL/MOL
REMARK 923 INTER-LIGAND FREE ENERGY PREDICTED BY IDOCK:   -7.77 KCAL/MOL
REMARK 924 INTRA-LIGAND FREE ENERGY PREDICTED BY IDOCK:   -0.30 KCAL/MOL
REMARK 927      BINDING AFFINITY PREDICTED BY RF-SCORE:    0.00 PKD
ROOT
HETATM    1  C   UNL     1     -11.049  11.286  69.915  1.00  0.00    -0.183 C  
HETATM    2  C   UNL     1     -11.847  11.819  68.712  1.00  0.00    -0.320 C  
ENDROOT
BRANCH   2   3
HETATM    3  C   UNL     1     -11.277  11.409  67.351  1.00  0.00    -0.370 A  
HETATM    4  C   UNL     1     -10.448   7.728  67.737  1.00  0.00    -0.277 A  
HETATM    5  C   UNL     1     -11.150  12.377  66.333  1.00  0.00    -0.343 A  
HETATM    6  C   UNL     1      -9.765   7.496  66.554  1.00  0.00    -0.238 A  
HETATM    7  C   UNL     1     -10.981   8.995  67.997  1.00  0.00     0.002 A  
HETATM    8  C   UNL     1      -9.648   8.519  65.615  1.00  0.00     0.041 A  
HETATM    9  C   UNL     1     -10.561  12.071  65.111  1.00  0.00    -0.330 A  
HETATM   10  C   UNL     1     -10.064  10.793  64.887  1.00  0.00    -0.387 A  
HETATM   11  C   UNL     1     -10.832  10.074  67.094  1.00  0.00    -0.240 A  
HETATM   12  C   UNL     1     -10.182   9.795  65.862  1.00  0.00    -0.245 A  
ENDBRANCH   2   3
BRANCH   2  13
HETATM   13  N   UNL     1     -12.148  13.257  68.816  1.00  0.00    -0.290 NA 
HETATM   14  H   UNL     1     -13.019  13.474  68.331  1.00  0.00     0.000 HD 
BRANCH  13  15
HETATM   15  C   UNL     1     -12.186  13.769  70.182  1.00  0.00    -0.356 C  
BRANCH  15  16
HETATM   16  C   UNL     1     -12.003  15.285  70.189  1.00  0.00    -0.373 C  
BRANCH  16  17
HETATM   17  C   UNL     1     -10.545  15.638  69.886  1.00  0.00    -0.328 C  
BRANCH  17  18
HETATM   18  C   UNL     1     -10.404  16.245  68.515  1.00  0.00    -0.261 A  
HETATM   19  C   UNL     1     -10.319  18.213  67.079  1.00  0.00    -0.391 A  
HETATM   20  C   UNL     1     -10.337  19.710  66.899  1.00  0.00    -0.465 C  
HETATM   21  C   UNL     1     -10.389  17.638  68.357  1.00  0.00    -0.375 A  
HETATM   22  C   UNL     1     -10.264  15.985  66.110  1.00  0.00    -0.340 A  
HETATM   23  F   UNL     1     -10.405  20.402  68.072  1.00  0.00    -0.508 F  
HETATM   24  F   UNL     1      -9.226  20.174  66.260  1.00  0.00    -0.397 F  
HETATM   25  F   UNL     1     -11.398  20.133  66.158  1.00  0.00    -0.225 F  
HETATM   26  C   UNL     1     -10.253  17.372  65.958  1.00  0.00    -0.308 A  
HETATM   27  C   UNL     1     -10.343  15.426  67.384  1.00  0.00    -0.262 A  
ENDBRANCH  17  18
ENDBRANCH  16  17
ENDBRANCH  15  16
ENDBRANCH  13  15
ENDBRANCH   2  13
TORSDOF 6
ENDMDL
MODEL      243
REMARK 921   NORMALIZED FREE ENERGY PREDICTED BY IDOCK:   -3.66 KCAL/MOL
REMARK 922        TOTAL FREE ENERGY PREDICTED BY IDOCK:   -8.07 KCAL/MOL
REMARK 923 INTER-LIGAND FREE ENERGY PREDICTED BY IDOCK:   -6.59 KCAL/MOL
REMARK 924 INTRA-LIGAND FREE ENERGY PREDICTED BY IDOCK:   -1.48 KCAL/MOL
REMARK 927      BINDING AFFINITY PREDICTED BY RF-SCORE:    0.00 PKD
ROOT
HETATM    1  C   UNL     1     -12.157  12.867  65.798  1.00  0.00    -0.513 C  
HETATM    2  C   UNL     1     -11.428  12.417  67.077  1.00  0.00    -0.358 C  
ENDROOT
BRANCH   2   3
HETATM    3  C   UNL     1     -11.633  13.348  68.276  1.00  0.00    -0.379 A  
HETATM    4  C   UNL     1     -12.834  11.064  71.056  1.00  0.00    -0.442 A  
HETATM    5  C   UNL     1     -11.397  14.730  68.130  1.00  0.00    -0.324 A  
HETATM    6  C   UNL     1     -13.182  11.997  72.019  1.00  0.00    -0.481 A  
HETATM    7  C   UNL     1     -12.292  11.487  69.839  1.00  0.00    -0.247 A  
HETATM    8  C   UNL     1     -12.952  13.350  71.780  1.00  0.00    -0.435 A  
HETATM    9  C   UNL     1     -11.649  15.623  69.166  1.00  0.00    -0.393 A  
HETATM   10  C   UNL     1     -12.168  15.156  70.366  1.00  0.00    -0.391 A  
HETATM   11  C   UNL     1     -12.098  12.857  69.536  1.00  0.00    -0.274 A  
HETATM   12  C   UNL     1     -12.405  13.790  70.564  1.00  0.00    -0.429 A  
ENDBRANCH   2   3
BRANCH   2  13
HETATM   13  N   UNL     1     -10.017  12.067  66.838  1.00  0.00    -0.201 NA 
HETATM   14  H   UNL     1      -9.485  12.125  67.707  1.00  0.00     0.000 HD 
BRANCH  13  15
HETATM   15  C   UNL     1      -9.816  10.768  66.205  1.00  0.00    -0.221 C  
BRANCH  15  16
HETATM   16  C   UNL     1      -8.925   9.883  67.073  1.00  0.00    -0.152 C  
BRANCH  16  17
HETATM   17  C   UNL     1      -8.474  10.654  68.316  1.00  0.00    -0.127 C  
BRANCH  17  18
HETATM   18  C   UNL     1      -8.519   9.784  69.544  1.00  0.00    -0.176 A  
HETATM   19  C   UNL     1      -7.423   8.859  71.516  1.00  0.00    -0.084 A  
HETATM   20  C   UNL     1      -6.223   8.752  72.423  1.00  0.00    -0.055 C  
HETATM   21  C   UNL     1      -7.413   9.713  70.402  1.00  0.00    -0.168 A  
HETATM   22  C   UNL     1      -9.669   8.152  70.917  1.00  0.00    -0.191 A  
HETATM   23  F   UNL     1      -5.187   9.561  72.059  1.00  0.00    -0.057 F  
HETATM   24  F   UNL     1      -6.512   9.079  73.714  1.00  0.00    -0.105 F  
HETATM   25  F   UNL     1      -5.711   7.491  72.463  1.00  0.00    -0.037 F  
HETATM   26  C   UNL     1      -8.563   8.082  71.766  1.00  0.00    -0.171 A  
HETATM   27  C   UNL     1      -9.644   8.996  69.810  1.00  0.00    -0.182 A  
ENDBRANCH  17  18
ENDBRANCH  16  17
ENDBRANCH  15  16
ENDBRANCH  13  15
ENDBRANCH   2  13
TORSDOF 6
ENDMDL
MODEL      244
REMARK 921   NORMALIZED FREE ENERGY PREDICTED BY IDOCK:   -3.65 KCAL/MOL
REMARK 922        TOTAL FREE ENERGY PREDICTED BY IDOCK:   -8.06 KCAL/MOL
REMARK 923 INTER-LIGAND FREE ENERGY PREDICTED BY IDOCK:   -7.36 KCAL/MOL
REMARK 924 INTRA-LIGAND FREE ENERGY PREDICTED BY IDOCK:   -0.70 KCAL/MOL
REMARK 927      BINDING AFFINITY PREDICTED BY RF-SCORE:    0.00 PKD
ROOT
HETATM    1  C   UNL     1     -11.642  12.603  67.281  1.00  0.00    -0.428 C  
HETATM    2  C   UNL     1     -11.155  13.636  68.312  1.00  0.00    -0.256 C  
ENDROOT
BRANCH   2   3
HETATM    3  C   UNL     1      -9.822  14.300  67.954  1.00  0.00    -0.226 A  
HETATM    4  C   UNL     1     -10.649  17.990  67.658  1.00  0.00    -0.413 A  
HETATM    5  C   UNL     1      -8.673  13.501  67.787  1.00  0.00    -0.189 A  
HETATM    6  C   UNL     1      -9.458  18.477  67.143  1.00  0.00    -0.294 A  
HETATM    7  C   UNL     1     -10.773  16.631  67.962  1.00  0.00    -0.350 A  
HETATM    8  C   UNL     1      -8.380  17.612  66.970  1.00  0.00    -0.239 A  
HETATM    9  C   UNL     1      -7.461  14.050  67.380  1.00  0.00    -0.147 A  
HETATM   10  C   UNL     1      -7.377  15.409  67.108  1.00  0.00    -0.203 A  
HETATM   11  C   UNL     1      -9.719  15.711  67.745  1.00  0.00    -0.218 A  
HETATM   12  C   UNL     1      -8.489  16.245  67.275  1.00  0.00    -0.199 A  
ENDBRANCH   2   3
BRANCH   2  13
HETATM   13  N   UNL     1     -11.209  13.133  69.696  1.00  0.00    -0.474 NA 
HETATM   14  H   UNL     1     -11.231  13.910  70.357  1.00  0.00     0.000 HD 
BRANCH  13  15
HETATM   15  C   UNL     1     -12.307  12.209  69.961  1.00  0.00    -0.096 C  
BRANCH  15  16
HETATM   16  C   UNL     1     -12.316  11.797  71.431  1.00  0.00    -0.153 C  
BRANCH  16  17
HETATM   17  C   UNL     1     -13.514  10.887  71.713  1.00  0.00    -0.283 C  
BRANCH  17  18
HETATM   18  C   UNL     1     -13.104   9.439  71.745  1.00  0.00    -0.488 A  
HETATM   19  C   UNL     1     -11.364   7.745  71.954  1.00  0.00    -0.315 A  
HETATM   20  C   UNL     1      -9.922   7.363  72.174  1.00  0.00    -0.170 C  
HETATM   21  C   UNL     1     -11.768   9.089  71.982  1.00  0.00    -0.417 A  
HETATM   22  C   UNL     1     -13.654   7.096  71.463  1.00  0.00    -0.408 A  
HETATM   23  F   UNL     1      -9.103   8.427  72.411  1.00  0.00    -0.231 F  
HETATM   24  F   UNL     1      -9.758   6.526  73.237  1.00  0.00    -0.153 F  
HETATM   25  F   UNL     1      -9.385   6.715  71.102  1.00  0.00    -0.159 F  
HETATM   26  C   UNL     1     -12.321   6.752  71.696  1.00  0.00    -0.409 A  
HETATM   27  C   UNL     1     -14.041   8.434  71.484  1.00  0.00    -0.440 A  
ENDBRANCH  17  18
ENDBRANCH  16  17
ENDBRANCH  15  16
ENDBRANCH  13  15
ENDBRANCH   2  13
TORSDOF 6
ENDMDL
MODEL      245
REMARK 921   NORMALIZED FREE ENERGY PREDICTED BY IDOCK:   -3.65 KCAL/MOL
REMARK 922        TOTAL FREE ENERGY PREDICTED BY IDOCK:   -8.06 KCAL/MOL
REMARK 923 INTER-LIGAND FREE ENERGY PREDICTED BY IDOCK:   -6.48 KCAL/MOL
REMARK 924 INTRA-LIGAND FREE ENERGY PREDICTED BY IDOCK:   -1.58 KCAL/MOL
REMARK 927      BINDING AFFINITY PREDICTED BY RF-SCORE:    0.00 PKD
ROOT
HETATM    1  C   UNL     1     -11.203  10.314  68.636  1.00  0.00    -0.263 C  
HETATM    2  C   UNL     1     -10.563  11.526  67.937  1.00  0.00    -0.191 C  
ENDROOT
BRANCH   2   3
HETATM    3  C   UNL     1     -10.947  11.673  66.461  1.00  0.00    -0.349 A  
HETATM    4  C   UNL     1      -8.767   9.147  64.657  1.00  0.00    -0.199 A  
HETATM    5  C   UNL     1     -11.907  12.636  66.087  1.00  0.00    -0.477 A  
HETATM    6  C   UNL     1      -9.026   9.484  63.338  1.00  0.00    -0.205 A  
HETATM    7  C   UNL     1      -9.414   9.830  65.691  1.00  0.00    -0.307 A  
HETATM    8  C   UNL     1      -9.961  10.476  63.053  1.00  0.00    -0.160 A  
HETATM    9  C   UNL     1     -12.225  12.862  64.752  1.00  0.00    -0.499 A  
HETATM   10  C   UNL     1     -11.572  12.145  63.758  1.00  0.00    -0.557 A  
HETATM   11  C   UNL     1     -10.327  10.883  65.442  1.00  0.00    -0.326 A  
HETATM   12  C   UNL     1     -10.622  11.168  64.082  1.00  0.00    -0.436 A  
ENDBRANCH   2   3
BRANCH   2  13
HETATM   13  N   UNL     1      -9.113  11.627  68.181  1.00  0.00    -0.177 NA 
HETATM   14  H   UNL     1      -8.843  12.602  68.313  1.00  0.00     0.000 HD 
BRANCH  13  15
HETATM   15  C   UNL     1      -8.629  10.811  69.289  1.00  0.00    -0.033 C  
BRANCH  15  16
HETATM   16  C   UNL     1      -7.658   9.746  68.782  1.00  0.00    -0.076 C  
BRANCH  16  17
HETATM   17  C   UNL     1      -7.586   8.586  69.779  1.00  0.00    -0.083 C  
BRANCH  17  18
HETATM   18  C   UNL     1      -8.724   7.622  69.577  1.00  0.00    -0.136 A  
HETATM   19  C   UNL     1     -10.042   6.195  68.104  1.00  0.00    -0.181 A  
HETATM   20  C   UNL     1     -10.310   5.602  66.744  1.00  0.00    -0.262 C  
HETATM   21  C   UNL     1      -8.948   7.048  68.318  1.00  0.00    -0.128 A  
HETATM   22  C   UNL     1     -10.682   6.479  70.431  1.00  0.00    -0.306 A  
HETATM   23  F   UNL     1      -9.395   5.961  65.799  1.00  0.00    -0.172 F  
HETATM   24  F   UNL     1     -10.311   4.239  66.758  1.00  0.00    -0.236 F  
HETATM   25  F   UNL     1     -11.522   5.971  66.244  1.00  0.00    -0.142 F  
HETATM   26  C   UNL     1     -10.904   5.913  69.174  1.00  0.00    -0.406 A  
HETATM   27  C   UNL     1      -9.599   7.332  70.628  1.00  0.00    -0.172 A  
ENDBRANCH  17  18
ENDBRANCH  16  17
ENDBRANCH  15  16
ENDBRANCH  13  15
ENDBRANCH   2  13
TORSDOF 6
ENDMDL
MODEL      246
REMARK 921   NORMALIZED FREE ENERGY PREDICTED BY IDOCK:   -3.65 KCAL/MOL
REMARK 922        TOTAL FREE ENERGY PREDICTED BY IDOCK:   -8.05 KCAL/MOL
REMARK 923 INTER-LIGAND FREE ENERGY PREDICTED BY IDOCK:   -7.37 KCAL/MOL
REMARK 924 INTRA-LIGAND FREE ENERGY PREDICTED BY IDOCK:   -0.68 KCAL/MOL
REMARK 927      BINDING AFFINITY PREDICTED BY RF-SCORE:    0.00 PKD
ROOT
HETATM    1  C   UNL     1      -7.194   8.627  68.369  1.00  0.00    -0.085 C  
HETATM    2  C   UNL     1      -8.495   9.144  69.006  1.00  0.00    -0.132 C  
ENDROOT
BRANCH   2   3
HETATM    3  C   UNL     1      -9.472   8.040  69.422  1.00  0.00    -0.159 A  
HETATM    4  C   UNL     1     -11.881   9.751  71.801  1.00  0.00    -0.335 A  
HETATM    5  C   UNL     1      -9.293   6.733  68.925  1.00  0.00    -0.129 A  
HETATM    6  C   UNL     1     -12.588   8.657  72.276  1.00  0.00    -0.457 A  
HETATM    7  C   UNL     1     -10.881   9.570  70.841  1.00  0.00    -0.407 A  
HETATM    8  C   UNL     1     -12.323   7.391  71.760  1.00  0.00    -0.365 A  
HETATM    9  C   UNL     1     -10.105   5.682  69.340  1.00  0.00    -0.290 A  
HETATM   10  C   UNL     1     -11.100   5.911  70.281  1.00  0.00    -0.368 A  
HETATM   11  C   UNL     1     -10.543   8.291  70.336  1.00  0.00    -0.231 A  
HETATM   12  C   UNL     1     -11.325   7.195  70.792  1.00  0.00    -0.322 A  
ENDBRANCH   2   3
BRANCH   2  13
HETATM   13  N   UNL     1      -9.124  10.224  68.226  1.00  0.00    -0.136 NA 
HETATM   14  H   UNL     1     -10.136  10.215  68.358  1.00  0.00     0.000 HD 
BRANCH  13  15
HETATM   15  C   UNL     1      -8.588  11.555  68.494  1.00  0.00    -0.140 C  
BRANCH  15  16
HETATM   16  C   UNL     1      -8.248  12.267  67.187  1.00  0.00    -0.179 C  
BRANCH  16  17
HETATM   17  C   UNL     1      -8.720  13.722  67.245  1.00  0.00    -0.226 C  
BRANCH  17  18
HETATM   18  C   UNL     1     -10.119  13.863  66.709  1.00  0.00    -0.265 A  
HETATM   19  C   UNL     1     -11.810  13.287  65.050  1.00  0.00    -0.384 A  
HETATM   20  C   UNL     1     -12.244  12.514  63.830  1.00  0.00    -0.525 C  
HETATM   21  C   UNL     1     -10.527  13.118  65.594  1.00  0.00    -0.290 A  
HETATM   22  C   UNL     1     -12.285  14.948  66.758  1.00  0.00     0.136 A  
HETATM   23  F   UNL     1     -11.293  11.659  63.356  1.00  0.00    -0.452 F  
HETATM   24  F   UNL     1     -13.347  11.748  64.060  1.00  0.00    -0.474 F  
HETATM   25  F   UNL     1     -12.564  13.327  62.784  1.00  0.00    -0.370 F  
HETATM   26  C   UNL     1     -12.685  14.207  65.645  1.00  0.00    -0.469 A  
HETATM   27  C   UNL     1     -11.006  14.778  67.283  1.00  0.00    -0.318 A  
ENDBRANCH  17  18
ENDBRANCH  16  17
ENDBRANCH  15  16
ENDBRANCH  13  15
ENDBRANCH   2  13
TORSDOF 6
ENDMDL
MODEL      247
REMARK 921   NORMALIZED FREE ENERGY PREDICTED BY IDOCK:   -3.64 KCAL/MOL
REMARK 922        TOTAL FREE ENERGY PREDICTED BY IDOCK:   -8.05 KCAL/MOL
REMARK 923 INTER-LIGAND FREE ENERGY PREDICTED BY IDOCK:   -6.55 KCAL/MOL
REMARK 924 INTRA-LIGAND FREE ENERGY PREDICTED BY IDOCK:   -1.49 KCAL/MOL
REMARK 927      BINDING AFFINITY PREDICTED BY RF-SCORE:    0.00 PKD
ROOT
HETATM    1  C   UNL     1     -10.529   8.403  66.802  1.00  0.00    -0.315 C  
HETATM    2  C   UNL     1      -9.563   9.568  66.522  1.00  0.00    -0.201 C  
ENDROOT
BRANCH   2   3
HETATM    3  C   UNL     1      -9.992  10.473  65.363  1.00  0.00    -0.353 A  
HETATM    4  C   UNL     1     -12.193  13.106  66.980  1.00  0.00    -0.271 A  
HETATM    5  C   UNL     1      -9.565  10.173  64.053  1.00  0.00    -0.320 A  
HETATM    6  C   UNL     1     -12.691  13.746  65.856  1.00  0.00    -0.452 A  
HETATM    7  C   UNL     1     -11.281  12.056  66.837  1.00  0.00    -0.375 A  
HETATM    8  C   UNL     1     -12.246  13.362  64.593  1.00  0.00    -0.456 A  
HETATM    9  C   UNL     1      -9.997  10.917  62.961  1.00  0.00    -0.317 A  
HETATM   10  C   UNL     1     -10.887  11.966  63.151  1.00  0.00    -0.294 A  
HETATM   11  C   UNL     1     -10.851  11.599  65.568  1.00  0.00    -0.334 A  
HETATM   12  C   UNL     1     -11.328  12.311  64.435  1.00  0.00    -0.396 A  
ENDBRANCH   2   3
BRANCH   2  13
HETATM   13  N   UNL     1      -8.156   9.139  66.444  1.00  0.00    -0.106 NA 
HETATM   14  H   UNL     1      -7.851   9.094  65.471  1.00  0.00     0.000 HD 
BRANCH  13  15
HETATM   15  C   UNL     1      -7.232   9.952  67.229  1.00  0.00    -0.086 C  
BRANCH  15  16
HETATM   16  C   UNL     1      -8.002  10.863  68.183  1.00  0.00    -0.117 C  
BRANCH  16  17
HETATM   17  C   UNL     1      -7.617  10.549  69.631  1.00  0.00    -0.134 C  
BRANCH  17  18
HETATM   18  C   UNL     1      -8.031   9.154  70.015  1.00  0.00    -0.113 A  
HETATM   19  C   UNL     1      -9.768   7.577  70.678  1.00  0.00    -0.175 A  
HETATM   20  C   UNL     1     -11.212   7.262  70.978  1.00  0.00    -0.266 C  
HETATM   21  C   UNL     1      -9.379   8.859  70.261  1.00  0.00    -0.208 A  
HETATM   22  C   UNL     1      -7.443   6.874  70.586  1.00  0.00    -0.082 A  
HETATM   23  F   UNL     1     -12.054   8.317  70.786  1.00  0.00    -0.288 F  
HETATM   24  F   UNL     1     -11.700   6.253  70.204  1.00  0.00    -0.446 F  
HETATM   25  F   UNL     1     -11.402   6.868  72.269  1.00  0.00    -0.254 F  
HETATM   26  C   UNL     1      -8.787   6.586  70.834  1.00  0.00    -0.147 A  
HETATM   27  C   UNL     1      -7.069   8.153  70.182  1.00  0.00    -0.048 A  
ENDBRANCH  17  18
ENDBRANCH  16  17
ENDBRANCH  15  16
ENDBRANCH  13  15
ENDBRANCH   2  13
TORSDOF 6
ENDMDL
MODEL      248
REMARK 921   NORMALIZED FREE ENERGY PREDICTED BY IDOCK:   -3.64 KCAL/MOL
REMARK 922        TOTAL FREE ENERGY PREDICTED BY IDOCK:   -8.04 KCAL/MOL
REMARK 923 INTER-LIGAND FREE ENERGY PREDICTED BY IDOCK:   -6.68 KCAL/MOL
REMARK 924 INTRA-LIGAND FREE ENERGY PREDICTED BY IDOCK:   -1.36 KCAL/MOL
REMARK 927      BINDING AFFINITY PREDICTED BY RF-SCORE:    0.00 PKD
ROOT
HETATM    1  C   UNL     1     -12.012  14.346  68.165  1.00  0.00    -0.320 C  
HETATM    2  C   UNL     1     -10.933  14.694  67.124  1.00  0.00    -0.316 C  
ENDROOT
BRANCH   2   3
HETATM    3  C   UNL     1     -10.075  15.908  67.491  1.00  0.00    -0.247 A  
HETATM    4  C   UNL     1      -6.527  14.569  67.581  1.00  0.00    -0.153 A  
HETATM    5  C   UNL     1     -10.697  17.149  67.734  1.00  0.00    -0.329 A  
HETATM    6  C   UNL     1      -5.857  15.661  68.110  1.00  0.00    -0.136 A  
HETATM    7  C   UNL     1      -7.902  14.645  67.340  1.00  0.00    -0.225 A  
HETATM    8  C   UNL     1      -6.554  16.841  68.358  1.00  0.00    -0.149 A  
HETATM    9  C   UNL     1      -9.967  18.257  68.151  1.00  0.00    -0.377 A  
HETATM   10  C   UNL     1      -8.599  18.142  68.359  1.00  0.00    -0.310 A  
HETATM   11  C   UNL     1      -8.655  15.807  67.635  1.00  0.00    -0.173 A  
HETATM   12  C   UNL     1      -7.934  16.933  68.117  1.00  0.00    -0.195 A  
ENDBRANCH   2   3
BRANCH   2  13
HETATM   13  N   UNL     1     -11.459  14.739  65.748  1.00  0.00    -0.344 NA 
HETATM   14  H   UNL     1     -11.348  15.674  65.356  1.00  0.00     0.000 HD 
BRANCH  13  15
HETATM   15  C   UNL     1     -10.890  13.740  64.850  1.00  0.00    -0.391 C  
BRANCH  15  16
HETATM   16  C   UNL     1     -11.643  12.417  64.978  1.00  0.00    -0.392 C  
BRANCH  16  17
HETATM   17  C   UNL     1     -10.701  11.248  64.675  1.00  0.00    -0.371 C  
BRANCH  17  18
HETATM   18  C   UNL     1     -10.276  10.549  65.939  1.00  0.00    -0.311 A  
HETATM   19  C   UNL     1     -10.649  10.036  68.293  1.00  0.00    -0.264 A  
HETATM   20  C   UNL     1     -11.477  10.153  69.548  1.00  0.00    -0.168 C  
HETATM   21  C   UNL     1     -11.066  10.634  67.093  1.00  0.00    -0.267 A  
HETATM   22  C   UNL     1      -8.642   9.250  67.169  1.00  0.00    -0.130 A  
HETATM   23  F   UNL     1     -12.632  10.857  69.378  1.00  0.00    -0.376 F  
HETATM   24  F   UNL     1     -11.852   8.940  70.042  1.00  0.00    -0.087 F  
HETATM   25  F   UNL     1     -10.808  10.777  70.557  1.00  0.00    -0.304 F  
HETATM   26  C   UNL     1      -9.431   9.341  68.318  1.00  0.00    -0.148 A  
HETATM   27  C   UNL     1      -9.063   9.855  65.988  1.00  0.00    -0.195 A  
ENDBRANCH  17  18
ENDBRANCH  16  17
ENDBRANCH  15  16
ENDBRANCH  13  15
ENDBRANCH   2  13
TORSDOF 6
ENDMDL
MODEL      249
REMARK 921   NORMALIZED FREE ENERGY PREDICTED BY IDOCK:   -3.62 KCAL/MOL
REMARK 922        TOTAL FREE ENERGY PREDICTED BY IDOCK:   -8.02 KCAL/MOL
REMARK 923 INTER-LIGAND FREE ENERGY PREDICTED BY IDOCK:   -5.22 KCAL/MOL
REMARK 924 INTRA-LIGAND FREE ENERGY PREDICTED BY IDOCK:   -2.80 KCAL/MOL
REMARK 927      BINDING AFFINITY PREDICTED BY RF-SCORE:    0.00 PKD
ROOT
HETATM    1  C   UNL     1      -5.128   8.270  71.197  1.00  0.00    -0.029 C  
HETATM    2  C   UNL     1      -6.432   8.348  70.383  1.00  0.00    -0.035 C  
ENDROOT
BRANCH   2   3
HETATM    3  C   UNL     1      -7.703   8.392  71.236  1.00  0.00    -0.110 A  
HETATM    4  C   UNL     1     -10.194  10.329  69.131  1.00  0.00    -0.234 A  
HETATM    5  C   UNL     1      -7.700   7.799  72.516  1.00  0.00    -0.128 A  
HETATM    6  C   UNL     1     -11.224  10.493  70.043  1.00  0.00    -0.386 A  
HETATM    7  C   UNL     1      -9.049   9.613  69.494  1.00  0.00    -0.209 A  
HETATM    8  C   UNL     1     -11.126   9.908  71.304  1.00  0.00    -0.302 A  
HETATM    9  C   UNL     1      -8.803   7.887  73.358  1.00  0.00    -0.324 A  
HETATM   10  C   UNL     1      -9.928   8.591  72.949  1.00  0.00    -0.086 A  
HETATM   11  C   UNL     1      -8.888   9.054  70.784  1.00  0.00    -0.281 A  
HETATM   12  C   UNL     1      -9.983   9.183  71.681  1.00  0.00    -0.319 A  
ENDBRANCH   2   3
BRANCH   2  13
HETATM   13  N   UNL     1      -6.487   7.356  69.294  1.00  0.00    -0.036 NA 
HETATM   14  H   UNL     1      -5.551   7.177  68.929  1.00  0.00     0.000 HD 
BRANCH  13  15
HETATM   15  C   UNL     1      -7.142   6.102  69.652  1.00  0.00    -0.073 C  
BRANCH  15  16
HETATM   16  C   UNL     1      -8.505   5.999  68.971  1.00  0.00    -0.117 C  
BRANCH  16  17
HETATM   17  C   UNL     1      -9.209   4.710  69.402  1.00  0.00    -0.179 C  
BRANCH  17  18
HETATM   18  C   UNL     1     -10.022   4.924  70.651  1.00  0.00    -0.305 A  
HETATM   19  C   UNL     1     -11.886   6.000  71.795  1.00  0.00    -0.190 A  
HETATM   20  C   UNL     1     -13.087   6.912  71.780  1.00  0.00    -0.245 C  
HETATM   21  C   UNL     1     -11.156   5.746  70.623  1.00  0.00    -0.272 A  
HETATM   22  C   UNL     1     -10.342   4.586  73.029  1.00  0.00    -0.237 A  
HETATM   23  F   UNL     1     -13.375   7.418  70.547  1.00  0.00    -0.059 F  
HETATM   24  F   UNL     1     -14.223   6.288  72.199  1.00  0.00    -0.331 F  
HETATM   25  F   UNL     1     -12.932   7.992  72.596  1.00  0.00    -0.193 F  
HETATM   26  C   UNL     1     -11.469   5.409  72.997  1.00  0.00    -0.324 A  
HETATM   27  C   UNL     1      -9.621   4.349  71.861  1.00  0.00    -0.212 A  
ENDBRANCH  17  18
ENDBRANCH  16  17
ENDBRANCH  15  16
ENDBRANCH  13  15
ENDBRANCH   2  13
TORSDOF 6
ENDMDL
MODEL      250
REMARK 921   NORMALIZED FREE ENERGY PREDICTED BY IDOCK:   -3.62 KCAL/MOL
REMARK 922        TOTAL FREE ENERGY PREDICTED BY IDOCK:   -8.01 KCAL/MOL
REMARK 923 INTER-LIGAND FREE ENERGY PREDICTED BY IDOCK:   -7.98 KCAL/MOL
REMARK 924 INTRA-LIGAND FREE ENERGY PREDICTED BY IDOCK:   -0.04 KCAL/MOL
REMARK 927      BINDING AFFINITY PREDICTED BY RF-SCORE:    0.00 PKD
ROOT
HETATM    1  C   UNL     1     -12.215  13.836  65.733  1.00  0.00    -0.495 C  
HETATM    2  C   UNL     1     -12.131  13.354  67.192  1.00  0.00    -0.318 C  
ENDROOT
BRANCH   2   3
HETATM    3  C   UNL     1     -11.759  14.451  68.194  1.00  0.00    -0.377 A  
HETATM    4  C   UNL     1      -9.428  16.742  66.270  1.00  0.00    -0.314 A  
HETATM    5  C   UNL     1     -12.268  14.392  69.508  1.00  0.00    -0.325 A  
HETATM    6  C   UNL     1      -8.988  17.572  67.290  1.00  0.00    -0.238 A  
HETATM    7  C   UNL     1     -10.361  15.738  66.543  1.00  0.00    -0.298 A  
HETATM    8  C   UNL     1      -9.513  17.423  68.572  1.00  0.00    -0.297 A  
HETATM    9  C   UNL     1     -11.891  15.319  70.474  1.00  0.00    -0.363 A  
HETATM   10  C   UNL     1     -10.976  16.313  70.154  1.00  0.00    -0.335 A  
HETATM   11  C   UNL     1     -10.873  15.518  67.844  1.00  0.00    -0.307 A  
HETATM   12  C   UNL     1     -10.455  16.421  68.859  1.00  0.00    -0.285 A  
ENDBRANCH   2   3
BRANCH   2  13
HETATM   13  N   UNL     1     -11.335  12.123  67.344  1.00  0.00    -0.304 NA 
HETATM   14  H   UNL     1     -11.793  11.482  67.991  1.00  0.00     0.000 HD 
BRANCH  13  15
HETATM   15  C   UNL     1     -11.027  11.445  66.089  1.00  0.00    -0.236 C  
BRANCH  15  16
HETATM   16  C   UNL     1      -9.906  10.428  66.293  1.00  0.00    -0.272 C  
BRANCH  16  17
HETATM   17  C   UNL     1      -9.667  10.207  67.789  1.00  0.00    -0.176 C  
BRANCH  17  18
HETATM   18  C   UNL     1     -10.220   8.881  68.239  1.00  0.00    -0.239 A  
HETATM   19  C   UNL     1     -11.096   7.453  70.010  1.00  0.00    -0.238 A  
HETATM   20  C   UNL     1     -11.511   7.244  71.445  1.00  0.00    -0.266 C  
HETATM   21  C   UNL     1     -10.635   8.702  69.566  1.00  0.00    -0.218 A  
HETATM   22  C   UNL     1     -10.738   6.559  67.779  1.00  0.00    -0.368 A  
HETATM   23  F   UNL     1     -11.408   8.365  72.214  1.00  0.00    -0.347 F  
HETATM   24  F   UNL     1     -12.804   6.833  71.561  1.00  0.00    -0.381 F  
HETATM   25  F   UNL     1     -10.760   6.295  72.072  1.00  0.00    -0.230 F  
HETATM   26  C   UNL     1     -11.147   6.385  69.103  1.00  0.00    -0.428 A  
HETATM   27  C   UNL     1     -10.274   7.801  67.353  1.00  0.00    -0.320 A  
ENDBRANCH  17  18
ENDBRANCH  16  17
ENDBRANCH  15  16
ENDBRANCH  13  15
ENDBRANCH   2  13
TORSDOF 6
ENDMDL
MODEL      251
REMARK 921   NORMALIZED FREE ENERGY PREDICTED BY IDOCK:   -3.60 KCAL/MOL
REMARK 922        TOTAL FREE ENERGY PREDICTED BY IDOCK:   -7.98 KCAL/MOL
REMARK 923 INTER-LIGAND FREE ENERGY PREDICTED BY IDOCK:   -7.34 KCAL/MOL
REMARK 924 INTRA-LIGAND FREE ENERGY PREDICTED BY IDOCK:   -0.65 KCAL/MOL
REMARK 927      BINDING AFFINITY PREDICTED BY RF-SCORE:    0.00 PKD
ROOT
HETATM    1  C   UNL     1     -11.429  14.707  68.784  1.00  0.00    -0.322 C  
HETATM    2  C   UNL     1     -11.884  13.428  68.061  1.00  0.00    -0.357 C  
ENDROOT
BRANCH   2   3
HETATM    3  C   UNL     1     -11.052  12.187  68.397  1.00  0.00    -0.289 A  
HETATM    4  C   UNL     1      -7.454  13.362  68.149  1.00  0.00    -0.133 A  
HETATM    5  C   UNL     1     -11.705  10.967  68.671  1.00  0.00    -0.367 A  
HETATM    6  C   UNL     1      -6.784  12.155  68.265  1.00  0.00    -0.063 A  
HETATM    7  C   UNL     1      -8.850  13.395  68.225  1.00  0.00    -0.172 A  
HETATM    8  C   UNL     1      -7.507  10.987  68.496  1.00  0.00    -0.106 A  
HETATM    9  C   UNL     1     -10.989   9.797  68.899  1.00  0.00    -0.183 A  
HETATM   10  C   UNL     1      -9.601   9.815  68.834  1.00  0.00    -0.167 A  
HETATM   11  C   UNL     1      -9.622  12.221  68.401  1.00  0.00    -0.183 A  
HETATM   12  C   UNL     1      -8.909  11.005  68.580  1.00  0.00    -0.159 A  
ENDBRANCH   2   3
BRANCH   2  13
HETATM   13  N   UNL     1     -12.085  13.629  66.615  1.00  0.00    -0.415 NA 
HETATM   14  H   UNL     1     -12.208  14.620  66.407  1.00  0.00     0.000 HD 
BRANCH  13  15
HETATM   15  C   UNL     1     -11.036  13.060  65.775  1.00  0.00    -0.277 C  
BRANCH  15  16
HETATM   16  C   UNL     1     -10.631  14.050  64.683  1.00  0.00    -0.416 C  
BRANCH  16  17
HETATM   17  C   UNL     1     -11.244  15.423  64.969  1.00  0.00    -0.393 C  
BRANCH  17  18
HETATM   18  C   UNL     1     -10.284  16.302  65.725  1.00  0.00    -0.390 A  
HETATM   19  C   UNL     1      -9.817  18.374  66.922  1.00  0.00    -0.347 A  
HETATM   20  C   UNL     1     -10.269  19.701  67.477  1.00  0.00    -0.432 C  
HETATM   21  C   UNL     1     -10.718  17.520  66.267  1.00  0.00    -0.087 A  
HETATM   22  C   UNL     1      -8.038  16.773  66.501  1.00  0.00    -0.329 A  
HETATM   23  F   UNL     1     -11.598  19.948  67.293  1.00  0.00    -0.252 F  
HETATM   24  F   UNL     1     -10.056  19.808  68.818  1.00  0.00    -0.474 F  
HETATM   25  F   UNL     1      -9.615  20.753  66.910  1.00  0.00    -0.529 F  
HETATM   26  C   UNL     1      -8.474  17.987  67.036  1.00  0.00    -0.247 A  
HETATM   27  C   UNL     1      -8.940  15.938  65.846  1.00  0.00    -0.251 A  
ENDBRANCH  17  18
ENDBRANCH  16  17
ENDBRANCH  15  16
ENDBRANCH  13  15
ENDBRANCH   2  13
TORSDOF 6
ENDMDL
MODEL      252
REMARK 921   NORMALIZED FREE ENERGY PREDICTED BY IDOCK:   -3.60 KCAL/MOL
REMARK 922        TOTAL FREE ENERGY PREDICTED BY IDOCK:   -7.98 KCAL/MOL
REMARK 923 INTER-LIGAND FREE ENERGY PREDICTED BY IDOCK:   -6.55 KCAL/MOL
REMARK 924 INTRA-LIGAND FREE ENERGY PREDICTED BY IDOCK:   -1.44 KCAL/MOL
REMARK 927      BINDING AFFINITY PREDICTED BY RF-SCORE:    0.00 PKD
ROOT
HETATM    1  C   UNL     1      -6.457   7.599  68.055  1.00  0.00    -0.054 C  
HETATM    2  C   UNL     1      -7.849   7.683  67.405  1.00  0.00    -0.118 C  
ENDROOT
BRANCH   2   3
HETATM    3  C   UNL     1      -8.968   7.049  68.236  1.00  0.00    -0.128 A  
HETATM    4  C   UNL     1     -10.294   9.894  70.366  1.00  0.00    -0.322 A  
HETATM    5  C   UNL     1      -9.244   5.674  68.095  1.00  0.00    -0.114 A  
HETATM    6  C   UNL     1     -11.144   9.202  71.214  1.00  0.00    -0.405 A  
HETATM    7  C   UNL     1      -9.601   9.210  69.363  1.00  0.00    -0.165 A  
HETATM    8  C   UNL     1     -11.332   7.834  71.033  1.00  0.00    -0.287 A  
HETATM    9  C   UNL     1     -10.194   5.039  68.889  1.00  0.00    -0.184 A  
HETATM   10  C   UNL     1     -10.874   5.762  69.860  1.00  0.00    -0.417 A  
HETATM   11  C   UNL     1      -9.720   7.811  69.186  1.00  0.00    -0.161 A  
HETATM   12  C   UNL     1     -10.645   7.134  70.026  1.00  0.00    -0.248 A  
ENDBRANCH   2   3
BRANCH   2  13
HETATM   13  N   UNL     1      -7.849   7.255  65.995  1.00  0.00    -0.102 NA 
HETATM   14  H   UNL     1      -8.531   6.511  65.849  1.00  0.00     0.000 HD 
BRANCH  13  15
HETATM   15  C   UNL     1      -8.060   8.334  65.036  1.00  0.00    -0.148 C  
BRANCH  15  16
HETATM   16  C   UNL     1      -8.487   9.612  65.756  1.00  0.00    -0.142 C  
BRANCH  16  17
HETATM   17  C   UNL     1      -9.965   9.901  65.477  1.00  0.00    -0.363 C  
BRANCH  17  18
HETATM   18  C   UNL     1     -10.346  11.282  65.938  1.00  0.00    -0.304 A  
HETATM   19  C   UNL     1     -11.386  13.441  65.491  1.00  0.00    -0.310 A  
HETATM   20  C   UNL     1     -12.142  14.371  64.576  1.00  0.00    -0.481 C  
HETATM   21  C   UNL     1     -11.078  12.131  65.095  1.00  0.00    -0.369 A  
HETATM   22  C   UNL     1     -10.236  13.046  67.595  1.00  0.00    -0.216 A  
HETATM   23  F   UNL     1     -12.490  13.805  63.385  1.00  0.00    -0.515 F  
HETATM   24  F   UNL     1     -13.306  14.817  65.127  1.00  0.00    -0.105 F  
HETATM   25  F   UNL     1     -11.427  15.487  64.260  1.00  0.00    -0.366 F  
HETATM   26  C   UNL     1     -10.961  13.889  66.750  1.00  0.00    -0.301 A  
HETATM   27  C   UNL     1      -9.928  11.751  67.187  1.00  0.00    -0.221 A  
ENDBRANCH  17  18
ENDBRANCH  16  17
ENDBRANCH  15  16
ENDBRANCH  13  15
ENDBRANCH   2  13
TORSDOF 6
ENDMDL
MODEL      253
REMARK 921   NORMALIZED FREE ENERGY PREDICTED BY IDOCK:   -3.59 KCAL/MOL
REMARK 922        TOTAL FREE ENERGY PREDICTED BY IDOCK:   -7.97 KCAL/MOL
REMARK 923 INTER-LIGAND FREE ENERGY PREDICTED BY IDOCK:   -7.51 KCAL/MOL
REMARK 924 INTRA-LIGAND FREE ENERGY PREDICTED BY IDOCK:   -0.46 KCAL/MOL
REMARK 927      BINDING AFFINITY PREDICTED BY RF-SCORE:    0.00 PKD
ROOT
HETATM    1  C   UNL     1     -10.175  15.709  69.592  1.00  0.00    -0.291 C  
HETATM    2  C   UNL     1      -8.931  16.312  68.916  1.00  0.00    -0.248 C  
ENDROOT
BRANCH   2   3
HETATM    3  C   UNL     1      -9.186  17.644  68.206  1.00  0.00    -0.283 A  
HETATM    4  C   UNL     1      -5.857  19.455  68.360  1.00  0.00    -0.233 A  
HETATM    5  C   UNL     1     -10.476  17.931  67.713  1.00  0.00    -0.409 A  
HETATM    6  C   UNL     1      -6.225  20.705  67.887  1.00  0.00    -0.337 A  
HETATM    7  C   UNL     1      -6.806  18.432  68.438  1.00  0.00    -0.250 A  
HETATM    8  C   UNL     1      -7.532  20.918  67.455  1.00  0.00    -0.304 A  
HETATM    9  C   UNL     1     -10.774  19.161  67.135  1.00  0.00    -0.567 A  
HETATM   10  C   UNL     1      -9.794  20.143  67.060  1.00  0.00    -0.595 A  
HETATM   11  C   UNL     1      -8.157  18.628  68.063  1.00  0.00    -0.296 A  
HETATM   12  C   UNL     1      -8.495  19.898  67.523  1.00  0.00    -0.378 A  
ENDBRANCH   2   3
BRANCH   2  13
HETATM   13  N   UNL     1      -8.199  15.335  68.091  1.00  0.00    -0.138 NA 
HETATM   14  H   UNL     1      -7.196  15.517  68.130  1.00  0.00     0.000 HD 
BRANCH  13  15
HETATM   15  C   UNL     1      -8.476  13.940  68.418  1.00  0.00    -0.159 C  
BRANCH  15  16
HETATM   16  C   UNL     1      -9.178  13.248  67.251  1.00  0.00    -0.222 C  
BRANCH  16  17
HETATM   17  C   UNL     1      -8.650  11.820  67.095  1.00  0.00    -0.168 C  
BRANCH  17  18
HETATM   18  C   UNL     1      -9.507  10.836  67.847  1.00  0.00    -0.165 A  
HETATM   19  C   UNL     1     -11.183  10.375  69.556  1.00  0.00    -0.325 A  
HETATM   20  C   UNL     1     -12.146  10.852  70.615  1.00  0.00    -0.371 C  
HETATM   21  C   UNL     1     -10.423  11.287  68.807  1.00  0.00    -0.232 A  
HETATM   22  C   UNL     1     -10.112   8.548  68.365  1.00  0.00    -0.221 A  
HETATM   23  F   UNL     1     -12.200  12.209  70.735  1.00  0.00    -0.433 F  
HETATM   24  F   UNL     1     -13.426  10.450  70.377  1.00  0.00    -0.360 F  
HETATM   25  F   UNL     1     -11.831  10.383  71.854  1.00  0.00    -0.325 F  
HETATM   26  C   UNL     1     -11.021   9.002  69.323  1.00  0.00    -0.052 A  
HETATM   27  C   UNL     1      -9.357   9.463  67.635  1.00  0.00    -0.146 A  
ENDBRANCH  17  18
ENDBRANCH  16  17
ENDBRANCH  15  16
ENDBRANCH  13  15
ENDBRANCH   2  13
TORSDOF 6
ENDMDL
MODEL      254
REMARK 921   NORMALIZED FREE ENERGY PREDICTED BY IDOCK:   -3.58 KCAL/MOL
REMARK 922        TOTAL FREE ENERGY PREDICTED BY IDOCK:   -7.97 KCAL/MOL
REMARK 923 INTER-LIGAND FREE ENERGY PREDICTED BY IDOCK:   -7.99 KCAL/MOL
REMARK 924 INTRA-LIGAND FREE ENERGY PREDICTED BY IDOCK:    0.02 KCAL/MOL
REMARK 927      BINDING AFFINITY PREDICTED BY RF-SCORE:    0.00 PKD
ROOT
HETATM    1  C   UNL     1     -11.305  13.110  65.851  1.00  0.00    -0.338 C  
HETATM    2  C   UNL     1     -12.030  12.850  67.184  1.00  0.00    -0.310 C  
ENDROOT
BRANCH   2   3
HETATM    3  C   UNL     1     -11.819  13.942  68.236  1.00  0.00    -0.412 A  
HETATM    4  C   UNL     1     -10.133  16.767  66.348  1.00  0.00    -0.327 A  
HETATM    5  C   UNL     1     -12.215  13.707  69.569  1.00  0.00    -0.316 A  
HETATM    6  C   UNL     1      -9.801  17.611  67.397  1.00  0.00    -0.305 A  
HETATM    7  C   UNL     1     -10.825  15.579  66.602  1.00  0.00    -0.285 A  
HETATM    8  C   UNL     1     -10.196  17.285  68.692  1.00  0.00    -0.351 A  
HETATM    9  C   UNL     1     -11.967  14.635  70.574  1.00  0.00    -0.376 A  
HETATM   10  C   UNL     1     -11.295  15.813  70.273  1.00  0.00    -0.371 A  
HETATM   11  C   UNL     1     -11.192  15.186  67.912  1.00  0.00    -0.334 A  
HETATM   12  C   UNL     1     -10.895  16.097  68.962  1.00  0.00    -0.299 A  
ENDBRANCH   2   3
BRANCH   2  13
HETATM   13  N   UNL     1     -11.812  11.486  67.697  1.00  0.00    -0.629 NA 
HETATM   14  H   UNL     1     -12.528  10.853  67.340  1.00  0.00     0.000 HD 
BRANCH  13  15
HETATM   15  C   UNL     1     -10.481  10.948  67.436  1.00  0.00    -0.224 C  
BRANCH  15  16
HETATM   16  C   UNL     1      -9.815  10.515  68.740  1.00  0.00    -0.191 C  
BRANCH  16  17
HETATM   17  C   UNL     1     -10.847  10.488  69.871  1.00  0.00    -0.334 C  
BRANCH  17  18
HETATM   18  C   UNL     1     -10.782   9.194  70.637  1.00  0.00    -0.313 A  
HETATM   19  C   UNL     1     -10.162   6.839  70.750  1.00  0.00    -0.215 A  
HETATM   20  C   UNL     1      -9.540   5.612  70.130  1.00  0.00    -0.167 C  
HETATM   21  C   UNL     1     -10.174   8.066  70.069  1.00  0.00    -0.205 A  
HETATM   22  C   UNL     1     -11.362   7.880  72.589  1.00  0.00    -0.468 A  
HETATM   23  F   UNL     1      -9.001   5.835  68.898  1.00  0.00    -0.112 F  
HETATM   24  F   UNL     1      -8.532   5.097  70.888  1.00  0.00    -0.108 F  
HETATM   25  F   UNL     1     -10.438   4.601  69.964  1.00  0.00    -0.314 F  
HETATM   26  C   UNL     1     -10.759   6.758  72.017  1.00  0.00    -0.245 A  
HETATM   27  C   UNL     1     -11.376   9.090  71.899  1.00  0.00    -0.438 A  
ENDBRANCH  17  18
ENDBRANCH  16  17
ENDBRANCH  15  16
ENDBRANCH  13  15
ENDBRANCH   2  13
TORSDOF 6
ENDMDL
MODEL      255
REMARK 921   NORMALIZED FREE ENERGY PREDICTED BY IDOCK:   -3.58 KCAL/MOL
REMARK 922        TOTAL FREE ENERGY PREDICTED BY IDOCK:   -7.96 KCAL/MOL
REMARK 923 INTER-LIGAND FREE ENERGY PREDICTED BY IDOCK:   -7.45 KCAL/MOL
REMARK 924 INTRA-LIGAND FREE ENERGY PREDICTED BY IDOCK:   -0.51 KCAL/MOL
REMARK 927      BINDING AFFINITY PREDICTED BY RF-SCORE:    0.00 PKD
ROOT
HETATM    1  C   UNL     1      -7.416   9.930  65.500  1.00  0.00    -0.126 C  
HETATM    2  C   UNL     1      -8.880  10.075  65.952  1.00  0.00    -0.144 C  
ENDROOT
BRANCH   2   3
HETATM    3  C   UNL     1      -9.218   9.312  67.236  1.00  0.00    -0.149 A  
HETATM    4  C   UNL     1     -11.908  11.405  68.902  1.00  0.00    -0.413 A  
HETATM    5  C   UNL     1      -8.521   8.126  67.542  1.00  0.00    -0.126 A  
HETATM    6  C   UNL     1     -12.006  10.764  70.127  1.00  0.00    -0.432 A  
HETATM    7  C   UNL     1     -11.026  10.921  67.931  1.00  0.00    -0.325 A  
HETATM    8  C   UNL     1     -11.251   9.617  70.365  1.00  0.00    -0.342 A  
HETATM    9  C   UNL     1      -8.736   7.446  68.736  1.00  0.00    -0.128 A  
HETATM   10  C   UNL     1      -9.637   7.951  69.664  1.00  0.00    -0.164 A  
HETATM   11  C   UNL     1     -10.200   9.794  68.158  1.00  0.00    -0.220 A  
HETATM   12  C   UNL     1     -10.364   9.118  69.397  1.00  0.00    -0.220 A  
ENDBRANCH   2   3
BRANCH   2  13
HETATM   13  N   UNL     1      -9.842   9.844  64.859  1.00  0.00    -0.400 NA 
HETATM   14  H   UNL     1     -10.539   9.154  65.139  1.00  0.00     0.000 HD 
BRANCH  13  15
HETATM   15  C   UNL     1     -10.493  11.051  64.362  1.00  0.00    -0.354 C  
BRANCH  15  16
HETATM   16  C   UNL     1     -10.493  12.138  65.435  1.00  0.00    -0.305 C  
BRANCH  16  17
HETATM   17  C   UNL     1     -10.574  13.520  64.780  1.00  0.00    -0.429 C  
BRANCH  17  18
HETATM   18  C   UNL     1     -10.113  14.598  65.724  1.00  0.00    -0.364 A  
HETATM   19  C   UNL     1     -10.031  16.950  66.360  1.00  0.00    -0.321 A  
HETATM   20  C   UNL     1     -10.419  18.388  66.127  1.00  0.00    -0.395 C  
HETATM   21  C   UNL     1     -10.504  15.929  65.521  1.00  0.00    -0.425 A  
HETATM   22  C   UNL     1      -8.778  15.294  67.622  1.00  0.00    -0.179 A  
HETATM   23  F   UNL     1     -11.260  18.564  65.068  1.00  0.00    -0.190 F  
HETATM   24  F   UNL     1     -11.054  18.939  67.199  1.00  0.00    -0.483 F  
HETATM   25  F   UNL     1      -9.342  19.186  65.880  1.00  0.00    -0.319 F  
HETATM   26  C   UNL     1      -9.167  16.618  67.414  1.00  0.00    -0.216 A  
HETATM   27  C   UNL     1      -9.247  14.291  66.778  1.00  0.00    -0.282 A  
ENDBRANCH  17  18
ENDBRANCH  16  17
ENDBRANCH  15  16
ENDBRANCH  13  15
ENDBRANCH   2  13
TORSDOF 6
ENDMDL
MODEL      256
REMARK 921   NORMALIZED FREE ENERGY PREDICTED BY IDOCK:   -3.58 KCAL/MOL
REMARK 922        TOTAL FREE ENERGY PREDICTED BY IDOCK:   -7.96 KCAL/MOL
REMARK 923 INTER-LIGAND FREE ENERGY PREDICTED BY IDOCK:   -7.25 KCAL/MOL
REMARK 924 INTRA-LIGAND FREE ENERGY PREDICTED BY IDOCK:   -0.71 KCAL/MOL
REMARK 927      BINDING AFFINITY PREDICTED BY RF-SCORE:    0.00 PKD
ROOT
HETATM    1  C   UNL     1     -10.389  15.053  64.994  1.00  0.00    -0.390 C  
HETATM    2  C   UNL     1     -10.209  15.189  66.517  1.00  0.00    -0.276 C  
ENDROOT
BRANCH   2   3
HETATM    3  C   UNL     1      -9.059  16.112  66.932  1.00  0.00    -0.241 A  
HETATM    4  C   UNL     1     -10.610  19.572  67.031  1.00  0.00    -0.607 A  
HETATM    5  C   UNL     1      -7.776  15.569  67.144  1.00  0.00    -0.257 A  
HETATM    6  C   UNL     1      -9.478  20.352  67.212  1.00  0.00    -0.568 A  
HETATM    7  C   UNL     1     -10.494  18.180  66.973  1.00  0.00    -0.385 A  
HETATM    8  C   UNL     1      -8.239  19.738  67.373  1.00  0.00    -0.342 A  
HETATM    9  C   UNL     1      -6.685  16.379  67.441  1.00  0.00    -0.201 A  
HETATM   10  C   UNL     1      -6.849  17.757  67.509  1.00  0.00    -0.189 A  
HETATM   11  C   UNL     1      -9.244  17.523  67.075  1.00  0.00    -0.253 A  
HETATM   12  C   UNL     1      -8.108  18.341  67.321  1.00  0.00    -0.233 A  
ENDBRANCH   2   3
BRANCH   2  13
HETATM   13  N   UNL     1     -10.200  13.889  67.210  1.00  0.00    -0.248 NA 
HETATM   14  H   UNL     1      -9.906  14.005  68.180  1.00  0.00     0.000 HD 
BRANCH  13  15
HETATM   15  C   UNL     1     -11.464  13.162  67.146  1.00  0.00    -0.334 C  
BRANCH  15  16
HETATM   16  C   UNL     1     -11.230  11.727  66.676  1.00  0.00    -0.383 C  
BRANCH  16  17
HETATM   17  C   UNL     1     -10.023  11.128  67.402  1.00  0.00    -0.204 C  
BRANCH  17  18
HETATM   18  C   UNL     1      -9.631   9.803  66.806  1.00  0.00    -0.228 A  
HETATM   19  C   UNL     1      -9.742   7.368  66.823  1.00  0.00    -0.271 A  
HETATM   20  C   UNL     1     -10.268   6.080  67.406  1.00  0.00    -0.189 C  
HETATM   21  C   UNL     1     -10.148   8.611  67.332  1.00  0.00    -0.292 A  
HETATM   22  C   UNL     1      -8.301   8.518  65.240  1.00  0.00    -0.168 A  
HETATM   23  F   UNL     1     -11.157   6.263  68.424  1.00  0.00    -0.301 F  
HETATM   24  F   UNL     1     -10.914   5.313  66.484  1.00  0.00    -0.323 F  
HETATM   25  F   UNL     1      -9.278   5.296  67.916  1.00  0.00    -0.109 F  
HETATM   26  C   UNL     1      -8.816   7.334  65.769  1.00  0.00    -0.095 A  
HETATM   27  C   UNL     1      -8.705   9.746  65.760  1.00  0.00    -0.160 A  
ENDBRANCH  17  18
ENDBRANCH  16  17
ENDBRANCH  15  16
ENDBRANCH  13  15
ENDBRANCH   2  13
TORSDOF 6
ENDMDL
MODEL      257
REMARK 921   NORMALIZED FREE ENERGY PREDICTED BY IDOCK:   -3.58 KCAL/MOL
REMARK 922        TOTAL FREE ENERGY PREDICTED BY IDOCK:   -7.96 KCAL/MOL
REMARK 923 INTER-LIGAND FREE ENERGY PREDICTED BY IDOCK:   -6.01 KCAL/MOL
REMARK 924 INTRA-LIGAND FREE ENERGY PREDICTED BY IDOCK:   -1.95 KCAL/MOL
REMARK 927      BINDING AFFINITY PREDICTED BY RF-SCORE:    0.00 PKD
ROOT
HETATM    1  C   UNL     1      -8.665   6.077  68.187  1.00  0.00    -0.113 C  
HETATM    2  C   UNL     1      -8.160   7.465  68.617  1.00  0.00    -0.125 C  
ENDROOT
BRANCH   2   3
HETATM    3  C   UNL     1      -8.121   8.497  67.486  1.00  0.00    -0.107 A  
HETATM    4  C   UNL     1     -11.197  10.643  68.053  1.00  0.00    -0.373 A  
HETATM    5  C   UNL     1      -7.084   8.442  66.532  1.00  0.00    -0.072 A  
HETATM    6  C   UNL     1     -11.194  11.403  66.893  1.00  0.00    -0.331 A  
HETATM    7  C   UNL     1     -10.179   9.712  68.279  1.00  0.00    -0.216 A  
HETATM    8  C   UNL     1     -10.152  11.259  65.981  1.00  0.00    -0.283 A  
HETATM    9  C   UNL     1      -7.055   9.305  65.442  1.00  0.00    -0.086 A  
HETATM   10  C   UNL     1      -8.077  10.229  65.267  1.00  0.00    -0.151 A  
HETATM   11  C   UNL     1      -9.135   9.497  67.347  1.00  0.00    -0.144 A  
HETATM   12  C   UNL     1      -9.120  10.331  66.197  1.00  0.00    -0.181 A  
ENDBRANCH   2   3
BRANCH   2  13
HETATM   13  N   UNL     1      -6.914   7.403  69.401  1.00  0.00    -0.059 NA 
HETATM   14  H   UNL     1      -6.123   7.188  68.793  1.00  0.00     0.000 HD 
BRANCH  13  15
HETATM   15  C   UNL     1      -6.637   8.597  70.193  1.00  0.00    -0.038 C  
BRANCH  15  16
HETATM   16  C   UNL     1      -7.852   8.968  71.041  1.00  0.00    -0.174 C  
BRANCH  16  17
HETATM   17  C   UNL     1      -8.331   7.747  71.831  1.00  0.00    -0.136 C  
BRANCH  17  18
HETATM   18  C   UNL     1      -9.830   7.622  71.785  1.00  0.00    -0.200 A  
HETATM   19  C   UNL     1     -12.028   8.660  71.602  1.00  0.00    -0.388 A  
HETATM   20  C   UNL     1     -12.893   9.883  71.425  1.00  0.00    -0.405 C  
HETATM   21  C   UNL     1     -10.628   8.757  71.587  1.00  0.00    -0.401 A  
HETATM   22  C   UNL     1     -11.830   6.271  72.002  1.00  0.00    -0.370 A  
HETATM   23  F   UNL     1     -12.185  11.033  71.236  1.00  0.00    -0.424 F  
HETATM   24  F   UNL     1     -13.728   9.782  70.352  1.00  0.00    -0.208 F  
HETATM   25  F   UNL     1     -13.695  10.115  72.501  1.00  0.00    -0.419 F  
HETATM   26  C   UNL     1     -12.621   7.406  71.808  1.00  0.00    -0.367 A  
HETATM   27  C   UNL     1     -10.442   6.382  71.994  1.00  0.00    -0.236 A  
ENDBRANCH  17  18
ENDBRANCH  16  17
ENDBRANCH  15  16
ENDBRANCH  13  15
ENDBRANCH   2  13
TORSDOF 6
ENDMDL
MODEL      258
REMARK 921   NORMALIZED FREE ENERGY PREDICTED BY IDOCK:   -3.57 KCAL/MOL
REMARK 922        TOTAL FREE ENERGY PREDICTED BY IDOCK:   -7.94 KCAL/MOL
REMARK 923 INTER-LIGAND FREE ENERGY PREDICTED BY IDOCK:   -6.82 KCAL/MOL
REMARK 924 INTRA-LIGAND FREE ENERGY PREDICTED BY IDOCK:   -1.13 KCAL/MOL
REMARK 927      BINDING AFFINITY PREDICTED BY RF-SCORE:    0.00 PKD
ROOT
HETATM    1  C   UNL     1      -7.983   7.063  72.767  1.00  0.00    -0.110 C  
HETATM    2  C   UNL     1      -9.304   7.144  71.982  1.00  0.00    -0.137 C  
ENDROOT
BRANCH   2   3
HETATM    3  C   UNL     1      -9.141   7.010  70.465  1.00  0.00    -0.156 A  
HETATM    4  C   UNL     1      -9.391   3.283  69.808  1.00  0.00    -0.229 A  
HETATM    5  C   UNL     1      -8.919   8.165  69.687  1.00  0.00    -0.154 A  
HETATM    6  C   UNL     1      -9.036   3.237  68.469  1.00  0.00    -0.185 A  
HETATM    7  C   UNL     1      -9.464   4.514  70.468  1.00  0.00    -0.246 A  
HETATM    8  C   UNL     1      -8.794   4.423  67.781  1.00  0.00    -0.122 A  
HETATM    9  C   UNL     1      -8.683   8.084  68.319  1.00  0.00    -0.130 A  
HETATM   10  C   UNL     1      -8.639   6.841  67.701  1.00  0.00    -0.121 A  
HETATM   11  C   UNL     1      -9.168   5.736  69.817  1.00  0.00    -0.161 A  
HETATM   12  C   UNL     1      -8.868   5.667  68.429  1.00  0.00    -0.108 A  
ENDBRANCH   2   3
BRANCH   2  13
HETATM   13  N   UNL     1     -10.141   8.287  72.386  1.00  0.00    -0.290 NA 
HETATM   14  H   UNL     1      -9.909   9.111  71.830  1.00  0.00     0.000 HD 
BRANCH  13  15
HETATM   15  C   UNL     1     -11.576   8.031  72.342  1.00  0.00    -0.390 C  
BRANCH  15  16
HETATM   16  C   UNL     1     -12.343   9.328  72.092  1.00  0.00    -0.398 C  
BRANCH  16  17
HETATM   17  C   UNL     1     -12.313   9.674  70.601  1.00  0.00    -0.201 C  
BRANCH  17  18
HETATM   18  C   UNL     1     -12.217  11.161  70.388  1.00  0.00    -0.457 A  
HETATM   19  C   UNL     1     -12.462  13.433  71.239  1.00  0.00    -0.368 A  
HETATM   20  C   UNL     1     -12.789  14.389  72.359  1.00  0.00    -0.354 C  
HETATM   21  C   UNL     1     -12.490  12.045  71.442  1.00  0.00    -0.240 A  
HETATM   22  C   UNL     1     -11.870  13.052  68.913  1.00  0.00    -0.358 A  
HETATM   23  F   UNL     1     -13.079  13.770  73.539  1.00  0.00    -0.259 F  
HETATM   24  F   UNL     1     -11.765  15.244  72.632  1.00  0.00    -0.441 F  
HETATM   25  F   UNL     1     -13.867  15.173  72.077  1.00  0.00    -0.401 F  
HETATM   26  C   UNL     1     -12.146  13.927  69.965  1.00  0.00    -0.411 A  
HETATM   27  C   UNL     1     -11.910  11.676  69.125  1.00  0.00    -0.390 A  
ENDBRANCH  17  18
ENDBRANCH  16  17
ENDBRANCH  15  16
ENDBRANCH  13  15
ENDBRANCH   2  13
TORSDOF 6
ENDMDL
MODEL      259
REMARK 921   NORMALIZED FREE ENERGY PREDICTED BY IDOCK:   -3.56 KCAL/MOL
REMARK 922        TOTAL FREE ENERGY PREDICTED BY IDOCK:   -7.94 KCAL/MOL
REMARK 923 INTER-LIGAND FREE ENERGY PREDICTED BY IDOCK:   -6.84 KCAL/MOL
REMARK 924 INTRA-LIGAND FREE ENERGY PREDICTED BY IDOCK:   -1.09 KCAL/MOL
REMARK 927      BINDING AFFINITY PREDICTED BY RF-SCORE:    0.00 PKD
ROOT
HETATM    1  C   UNL     1     -12.552  15.713  69.958  1.00  0.00    -0.181 C  
HETATM    2  C   UNL     1     -11.671  14.457  69.838  1.00  0.00    -0.303 C  
ENDROOT
BRANCH   2   3
HETATM    3  C   UNL     1     -12.190  13.249  70.623  1.00  0.00    -0.417 A  
HETATM    4  C   UNL     1     -10.555  10.260  68.955  1.00  0.00    -0.247 A  
HETATM    5  C   UNL     1     -13.103  13.448  71.679  1.00  0.00    -0.463 A  
HETATM    6  C   UNL     1     -11.224   9.221  69.583  1.00  0.00    -0.061 A  
HETATM    7  C   UNL     1     -10.834  11.583  69.309  1.00  0.00    -0.217 A  
HETATM    8  C   UNL     1     -12.143   9.505  70.592  1.00  0.00    -0.230 A  
HETATM    9  C   UNL     1     -13.664  12.376  72.365  1.00  0.00    -0.192 A  
HETATM   10  C   UNL     1     -13.343  11.077  71.993  1.00  0.00    -0.393 A  
HETATM   11  C   UNL     1     -11.802  11.913  70.288  1.00  0.00    -0.368 A  
HETATM   12  C   UNL     1     -12.430  10.830  70.960  1.00  0.00    -0.522 A  
ENDBRANCH   2   3
BRANCH   2  13
HETATM   13  N   UNL     1     -10.242  14.737  70.064  1.00  0.00    -0.453 NA 
HETATM   14  H   UNL     1      -9.705  13.869  70.062  1.00  0.00     0.000 HD 
BRANCH  13  15
HETATM   15  C   UNL     1      -9.660  15.698  69.134  1.00  0.00    -0.251 C  
BRANCH  15  16
HETATM   16  C   UNL     1      -8.159  15.840  69.382  1.00  0.00    -0.209 C  
BRANCH  16  17
HETATM   17  C   UNL     1      -7.385  15.538  68.096  1.00  0.00    -0.121 C  
BRANCH  17  18
HETATM   18  C   UNL     1      -7.783  14.206  67.520  1.00  0.00    -0.201 A  
HETATM   19  C   UNL     1      -9.330  12.852  66.209  1.00  0.00    -0.148 A  
HETATM   20  C   UNL     1     -10.568  12.726  65.357  1.00  0.00    -0.287 C  
HETATM   21  C   UNL     1      -8.916  14.100  66.702  1.00  0.00    -0.193 A  
HETATM   22  C   UNL     1      -7.454  11.811  67.350  1.00  0.00    -0.143 A  
HETATM   23  F   UNL     1     -11.193  13.914  65.119  1.00  0.00    -0.300 F  
HETATM   24  F   UNL     1     -10.307  12.193  64.131  1.00  0.00    -0.286 F  
HETATM   25  F   UNL     1     -11.510  11.920  65.923  1.00  0.00    -0.366 F  
HETATM   26  C   UNL     1      -8.586  11.710  66.539  1.00  0.00    -0.164 A  
HETATM   27  C   UNL     1      -7.059  13.053  67.841  1.00  0.00    -0.128 A  
ENDBRANCH  17  18
ENDBRANCH  16  17
ENDBRANCH  15  16
ENDBRANCH  13  15
ENDBRANCH   2  13
TORSDOF 6
ENDMDL
MODEL      260
REMARK 921   NORMALIZED FREE ENERGY PREDICTED BY IDOCK:   -3.53 KCAL/MOL
REMARK 922        TOTAL FREE ENERGY PREDICTED BY IDOCK:   -7.90 KCAL/MOL
REMARK 923 INTER-LIGAND FREE ENERGY PREDICTED BY IDOCK:   -3.78 KCAL/MOL
REMARK 924 INTRA-LIGAND FREE ENERGY PREDICTED BY IDOCK:   -4.12 KCAL/MOL
REMARK 927      BINDING AFFINITY PREDICTED BY RF-SCORE:    0.00 PKD
ROOT
HETATM    1  C   UNL     1     -10.033   2.594  71.913  1.00  0.00    -0.212 C  
HETATM    2  C   UNL     1      -9.458   3.785  71.126  1.00  0.00    -0.166 C  
ENDROOT
BRANCH   2   3
HETATM    3  C   UNL     1      -9.785   5.153  71.732  1.00  0.00    -0.212 A  
HETATM    4  C   UNL     1      -6.459   6.974  71.815  1.00  0.00    -0.048 A  
HETATM    5  C   UNL     1     -11.108   5.436  72.132  1.00  0.00    -0.234 A  
HETATM    6  C   UNL     1      -6.804   8.099  72.549  1.00  0.00    -0.096 A  
HETATM    7  C   UNL     1      -7.431   6.017  71.509  1.00  0.00    -0.094 A  
HETATM    8  C   UNL     1      -8.127   8.285  72.941  1.00  0.00    -0.211 A  
HETATM    9  C   UNL     1     -11.434   6.632  72.762  1.00  0.00    -0.167 A  
HETATM   10  C   UNL     1     -10.440   7.564  73.029  1.00  0.00    -0.396 A  
HETATM   11  C   UNL     1      -8.774   6.143  71.940  1.00  0.00    -0.137 A  
HETATM   12  C   UNL     1      -9.115   7.334  72.636  1.00  0.00    -0.169 A  
ENDBRANCH   2   3
BRANCH   2  13
HETATM   13  N   UNL     1      -9.730   3.700  69.681  1.00  0.00    -0.149 NA 
HETATM   14  H   UNL     1     -10.398   4.419  69.402  1.00  0.00     0.000 HD 
BRANCH  13  15
HETATM   15  C   UNL     1      -8.540   3.758  68.838  1.00  0.00    -0.085 C  
BRANCH  15  16
HETATM   16  C   UNL     1      -8.448   5.111  68.135  1.00  0.00    -0.099 C  
BRANCH  16  17
HETATM   17  C   UNL     1      -9.833   5.761  68.070  1.00  0.00    -0.155 C  
BRANCH  17  18
HETATM   18  C   UNL     1      -9.805   7.159  68.628  1.00  0.00    -0.154 A  
HETATM   19  C   UNL     1      -8.556   9.163  69.236  1.00  0.00    -0.137 A  
HETATM   20  C   UNL     1      -7.261   9.932  69.308  1.00  0.00    -0.073 C  
HETATM   21  C   UNL     1      -8.604   7.882  68.663  1.00  0.00    -0.128 A  
HETATM   22  C   UNL     1     -10.930   9.001  69.730  1.00  0.00    -0.177 A  
HETATM   23  F   UNL     1      -6.201   9.274  68.757  1.00  0.00    -0.043 F  
HETATM   24  F   UNL     1      -7.328  11.131  68.663  1.00  0.00    -0.082 F  
HETATM   25  F   UNL     1      -6.894  10.218  70.589  1.00  0.00    -0.136 F  
HETATM   26  C   UNL     1      -9.731   9.716  69.766  1.00  0.00    -0.247 A  
HETATM   27  C   UNL     1     -10.963   7.727  69.167  1.00  0.00     0.029 A  
ENDBRANCH  17  18
ENDBRANCH  16  17
ENDBRANCH  15  16
ENDBRANCH  13  15
ENDBRANCH   2  13
TORSDOF 6
ENDMDL
MODEL      261
REMARK 921   NORMALIZED FREE ENERGY PREDICTED BY IDOCK:   -3.52 KCAL/MOL
REMARK 922        TOTAL FREE ENERGY PREDICTED BY IDOCK:   -7.88 KCAL/MOL
REMARK 923 INTER-LIGAND FREE ENERGY PREDICTED BY IDOCK:   -5.59 KCAL/MOL
REMARK 924 INTRA-LIGAND FREE ENERGY PREDICTED BY IDOCK:   -2.28 KCAL/MOL
REMARK 927      BINDING AFFINITY PREDICTED BY RF-SCORE:    0.00 PKD
ROOT
HETATM    1  C   UNL     1      -7.377   7.796  73.307  1.00  0.00    -0.131 C  
HETATM    2  C   UNL     1      -7.888   7.985  71.868  1.00  0.00    -0.106 C  
ENDROOT
BRANCH   2   3
HETATM    3  C   UNL     1      -9.391   8.260  71.767  1.00  0.00    -0.266 A  
HETATM    4  C   UNL     1      -9.743  10.511  68.735  1.00  0.00    -0.187 A  
HETATM    5  C   UNL     1     -10.262   7.713  72.731  1.00  0.00    -0.336 A  
HETATM    6  C   UNL     1     -11.079  10.868  68.837  1.00  0.00    -0.307 A  
HETATM    7  C   UNL     1      -9.184   9.631  69.666  1.00  0.00    -0.225 A  
HETATM    8  C   UNL     1     -11.864  10.312  69.845  1.00  0.00    -0.267 A  
HETATM    9  C   UNL     1     -11.622   8.003  72.728  1.00  0.00    -0.390 A  
HETATM   10  C   UNL     1     -12.139   8.868  71.772  1.00  0.00    -0.432 A  
HETATM   11  C   UNL     1      -9.935   9.091  70.738  1.00  0.00    -0.307 A  
HETATM   12  C   UNL     1     -11.316   9.423  70.784  1.00  0.00    -0.363 A  
ENDBRANCH   2   3
BRANCH   2  13
HETATM   13  N   UNL     1      -7.418   6.931  70.951  1.00  0.00    -0.081 NA 
HETATM   14  H   UNL     1      -6.440   7.083  70.707  1.00  0.00     0.000 HD 
BRANCH  13  15
HETATM   15  C   UNL     1      -7.615   5.572  71.442  1.00  0.00    -0.103 C  
BRANCH  15  16
HETATM   16  C   UNL     1      -8.064   4.653  70.307  1.00  0.00    -0.067 C  
BRANCH  16  17
HETATM   17  C   UNL     1      -9.591   4.553  70.288  1.00  0.00    -0.263 C  
BRANCH  17  18
HETATM   18  C   UNL     1     -10.157   5.101  69.005  1.00  0.00    -0.257 A  
HETATM   19  C   UNL     1     -10.290   5.059  66.571  1.00  0.00    -0.325 A  
HETATM   20  C   UNL     1      -9.898   4.459  65.244  1.00  0.00    -0.199 C  
HETATM   21  C   UNL     1      -9.815   4.519  67.777  1.00  0.00    -0.169 A  
HETATM   22  C   UNL     1     -11.469   6.768  67.834  1.00  0.00     0.213 A  
HETATM   23  F   UNL     1      -9.084   3.371  65.354  1.00  0.00    -0.125 F  
HETATM   24  F   UNL     1     -10.974   4.045  64.519  1.00  0.00    -0.308 F  
HETATM   25  F   UNL     1      -9.230   5.342  64.450  1.00  0.00    -0.032 F  
HETATM   26  C   UNL     1     -11.123   6.187  66.613  1.00  0.00    -0.124 A  
HETATM   27  C   UNL     1     -10.985   6.228  69.023  1.00  0.00    -0.437 A  
ENDBRANCH  17  18
ENDBRANCH  16  17
ENDBRANCH  15  16
ENDBRANCH  13  15
ENDBRANCH   2  13
TORSDOF 6
ENDMDL
MODEL      262
REMARK 921   NORMALIZED FREE ENERGY PREDICTED BY IDOCK:   -3.51 KCAL/MOL
REMARK 922        TOTAL FREE ENERGY PREDICTED BY IDOCK:   -7.86 KCAL/MOL
REMARK 923 INTER-LIGAND FREE ENERGY PREDICTED BY IDOCK:   -7.32 KCAL/MOL
REMARK 924 INTRA-LIGAND FREE ENERGY PREDICTED BY IDOCK:   -0.54 KCAL/MOL
REMARK 927      BINDING AFFINITY PREDICTED BY RF-SCORE:    0.00 PKD
ROOT
HETATM    1  C   UNL     1      -7.396   9.923  65.504  1.00  0.00    -0.122 C  
HETATM    2  C   UNL     1      -8.844  10.298  65.868  1.00  0.00    -0.159 C  
ENDROOT
BRANCH   2   3
HETATM    3  C   UNL     1      -9.301   9.779  67.234  1.00  0.00    -0.161 A  
HETATM    4  C   UNL     1     -10.153   6.133  66.627  1.00  0.00    -0.218 A  
HETATM    5  C   UNL     1      -9.347  10.662  68.332  1.00  0.00    -0.163 A  
HETATM    6  C   UNL     1     -10.738   5.803  67.839  1.00  0.00    -0.295 A  
HETATM    7  C   UNL     1      -9.645   7.420  66.425  1.00  0.00    -0.181 A  
HETATM    8  C   UNL     1     -10.779   6.748  68.862  1.00  0.00    -0.276 A  
HETATM    9  C   UNL     1      -9.834  10.256  69.570  1.00  0.00    -0.244 A  
HETATM   10  C   UNL     1     -10.310   8.961  69.732  1.00  0.00    -0.213 A  
HETATM   11  C   UNL     1      -9.722   8.424  67.419  1.00  0.00    -0.222 A  
HETATM   12  C   UNL     1     -10.270   8.044  68.674  1.00  0.00    -0.225 A  
ENDBRANCH   2   3
BRANCH   2  13
HETATM   13  N   UNL     1      -9.798  10.017  64.781  1.00  0.00    -0.373 NA 
HETATM   14  H   UNL     1     -10.455   9.290  65.065  1.00  0.00     0.000 HD 
BRANCH  13  15
HETATM   15  C   UNL     1     -10.516  11.188  64.290  1.00  0.00    -0.362 C  
BRANCH  15  16
HETATM   16  C   UNL     1     -10.630  12.244  65.387  1.00  0.00    -0.309 C  
BRANCH  16  17
HETATM   17  C   UNL     1     -10.674  13.642  64.765  1.00  0.00    -0.420 C  
BRANCH  17  18
HETATM   18  C   UNL     1     -10.252  14.693  65.757  1.00  0.00    -0.360 A  
HETATM   19  C   UNL     1     -10.076  17.039  66.396  1.00  0.00    -0.325 A  
HETATM   20  C   UNL     1     -10.329  18.500  66.118  1.00  0.00    -0.426 C  
HETATM   21  C   UNL     1     -10.519  16.047  65.508  1.00  0.00    -0.426 A  
HETATM   22  C   UNL     1      -9.105  15.309  67.800  1.00  0.00    -0.182 A  
HETATM   23  F   UNL     1     -11.023  18.725  64.966  1.00  0.00    -0.317 F  
HETATM   24  F   UNL     1     -11.045  19.104  67.107  1.00  0.00    -0.530 F  
HETATM   25  F   UNL     1      -9.175  19.215  66.001  1.00  0.00    -0.329 F  
HETATM   26  C   UNL     1      -9.370  16.656  67.546  1.00  0.00    -0.219 A  
HETATM   27  C   UNL     1      -9.542  14.334  66.906  1.00  0.00    -0.268 A  
ENDBRANCH  17  18
ENDBRANCH  16  17
ENDBRANCH  15  16
ENDBRANCH  13  15
ENDBRANCH   2  13
TORSDOF 6
ENDMDL
MODEL      263
REMARK 921   NORMALIZED FREE ENERGY PREDICTED BY IDOCK:   -3.50 KCAL/MOL
REMARK 922        TOTAL FREE ENERGY PREDICTED BY IDOCK:   -7.85 KCAL/MOL
REMARK 923 INTER-LIGAND FREE ENERGY PREDICTED BY IDOCK:   -6.22 KCAL/MOL
REMARK 924 INTRA-LIGAND FREE ENERGY PREDICTED BY IDOCK:   -1.63 KCAL/MOL
REMARK 927      BINDING AFFINITY PREDICTED BY RF-SCORE:    0.00 PKD
ROOT
HETATM    1  C   UNL     1      -8.077  10.950  65.015  1.00  0.00     0.130 C  
HETATM    2  C   UNL     1      -9.518  10.855  65.547  1.00  0.00    -0.211 C  
ENDROOT
BRANCH   2   3
HETATM    3  C   UNL     1     -10.511  11.780  64.838  1.00  0.00    -0.334 A  
HETATM    4  C   UNL     1      -9.508  15.270  65.936  1.00  0.00    -0.351 A  
HETATM    5  C   UNL     1     -11.521  11.223  64.027  1.00  0.00    -0.036 A  
HETATM    6  C   UNL     1     -10.561  16.010  65.422  1.00  0.00    -0.428 A  
HETATM    7  C   UNL     1      -9.458  13.889  65.723  1.00  0.00    -0.016 A  
HETATM    8  C   UNL     1     -11.542  15.376  64.663  1.00  0.00    -0.311 A  
HETATM    9  C   UNL     1     -12.494  12.018  63.431  1.00  0.00    -0.625 A  
HETATM   10  C   UNL     1     -12.494  13.389  63.653  1.00  0.00    -0.316 A  
HETATM   11  C   UNL     1     -10.467  13.200  65.007  1.00  0.00    -0.358 A  
HETATM   12  C   UNL     1     -11.502  13.990  64.438  1.00  0.00    -0.357 A  
ENDBRANCH   2   3
BRANCH   2  13
HETATM   13  N   UNL     1      -9.591  10.929  67.017  1.00  0.00    -0.172 NA 
HETATM   14  H   UNL     1      -9.429  11.885  67.334  1.00  0.00     0.000 HD 
BRANCH  13  15
HETATM   15  C   UNL     1     -10.828  10.407  67.588  1.00  0.00    -0.306 C  
BRANCH  15  16
HETATM   16  C   UNL     1     -11.163  11.133  68.890  1.00  0.00    -0.317 C  
BRANCH  16  17
HETATM   17  C   UNL     1     -12.097  12.312  68.606  1.00  0.00    -0.139 C  
BRANCH  17  18
HETATM   18  C   UNL     1     -11.525  13.600  69.134  1.00  0.00    -0.346 A  
HETATM   19  C   UNL     1      -9.627  15.102  69.426  1.00  0.00    -0.195 A  
HETATM   20  C   UNL     1      -8.178  15.449  69.192  1.00  0.00    -0.243 C  
HETATM   21  C   UNL     1     -10.186  13.933  68.886  1.00  0.00    -0.135 A  
HETATM   22  C   UNL     1     -11.766  15.617  70.456  1.00  0.00    -0.392 A  
HETATM   23  F   UNL     1      -7.516  14.544  68.415  1.00  0.00    -0.096 F  
HETATM   24  F   UNL     1      -8.021  16.652  68.573  1.00  0.00    -0.182 F  
HETATM   25  F   UNL     1      -7.467  15.529  70.352  1.00  0.00     0.065 F  
HETATM   26  C   UNL     1     -10.431  15.942  70.210  1.00  0.00    -0.186 A  
HETATM   27  C   UNL     1     -12.307  14.449  69.923  1.00  0.00    -0.365 A  
ENDBRANCH  17  18
ENDBRANCH  16  17
ENDBRANCH  15  16
ENDBRANCH  13  15
ENDBRANCH   2  13
TORSDOF 6
ENDMDL
MODEL      264
REMARK 921   NORMALIZED FREE ENERGY PREDICTED BY IDOCK:   -3.50 KCAL/MOL
REMARK 922        TOTAL FREE ENERGY PREDICTED BY IDOCK:   -7.85 KCAL/MOL
REMARK 923 INTER-LIGAND FREE ENERGY PREDICTED BY IDOCK:   -7.06 KCAL/MOL
REMARK 924 INTRA-LIGAND FREE ENERGY PREDICTED BY IDOCK:   -0.80 KCAL/MOL
REMARK 927      BINDING AFFINITY PREDICTED BY RF-SCORE:    0.00 PKD
ROOT
HETATM    1  C   UNL     1      -7.991   9.018  71.207  1.00  0.00    -0.139 C  
HETATM    2  C   UNL     1      -9.365   8.811  70.546  1.00  0.00    -0.187 C  
ENDROOT
BRANCH   2   3
HETATM    3  C   UNL     1      -9.303   8.169  69.157  1.00  0.00    -0.151 A  
HETATM    4  C   UNL     1      -9.024   4.449  69.843  1.00  0.00    -0.147 A  
HETATM    5  C   UNL     1      -9.324   8.991  68.012  1.00  0.00    -0.153 A  
HETATM    6  C   UNL     1      -8.772   3.973  68.565  1.00  0.00    -0.128 A  
HETATM    7  C   UNL     1      -9.235   5.816  70.049  1.00  0.00    -0.168 A  
HETATM    8  C   UNL     1      -8.771   4.859  67.490  1.00  0.00    -0.103 A  
HETATM    9  C   UNL     1      -9.186   8.459  66.735  1.00  0.00    -0.214 A  
HETATM   10  C   UNL     1      -8.999   7.092  66.575  1.00  0.00    -0.165 A  
HETATM   11  C   UNL     1      -9.184   6.754  68.990  1.00  0.00    -0.136 A  
HETATM   12  C   UNL     1      -8.986   6.234  67.682  1.00  0.00    -0.115 A  
ENDBRANCH   2   3
BRANCH   2  13
HETATM   13  N   UNL     1     -10.213  10.015  70.602  1.00  0.00    -0.375 NA 
HETATM   14  H   UNL     1     -10.319  10.418  69.671  1.00  0.00     0.000 HD 
BRANCH  13  15
HETATM   15  C   UNL     1     -11.520   9.805  71.216  1.00  0.00    -0.385 C  
BRANCH  15  16
HETATM   16  C   UNL     1     -12.528  10.825  70.688  1.00  0.00    -0.461 C  
BRANCH  16  17
HETATM   17  C   UNL     1     -13.189  11.560  71.857  1.00  0.00    -0.479 C  
BRANCH  17  18
HETATM   18  C   UNL     1     -12.851  13.027  71.840  1.00  0.00    -0.316 A  
HETATM   19  C   UNL     1     -11.796  14.935  70.748  1.00  0.00    -0.368 A  
HETATM   20  C   UNL     1     -11.033  15.531  69.592  1.00  0.00    -0.286 C  
HETATM   21  C   UNL     1     -12.169  13.582  70.747  1.00  0.00    -0.417 A  
HETATM   22  C   UNL     1     -12.807  15.183  72.945  1.00  0.00    -0.535 A  
HETATM   23  F   UNL     1     -10.780  14.644  68.588  1.00  0.00    -0.224 F  
HETATM   24  F   UNL     1     -11.693  16.571  69.010  1.00  0.00    -0.277 F  
HETATM   25  F   UNL     1      -9.818  16.021  69.967  1.00  0.00    -0.234 F  
HETATM   26  C   UNL     1     -12.125  15.730  71.856  1.00  0.00    -0.548 A  
HETATM   27  C   UNL     1     -13.163  13.836  72.936  1.00  0.00    -0.345 A  
ENDBRANCH  17  18
ENDBRANCH  16  17
ENDBRANCH  15  16
ENDBRANCH  13  15
ENDBRANCH   2  13
TORSDOF 6
ENDMDL
MODEL      265
REMARK 921   NORMALIZED FREE ENERGY PREDICTED BY IDOCK:   -3.48 KCAL/MOL
REMARK 922        TOTAL FREE ENERGY PREDICTED BY IDOCK:   -7.82 KCAL/MOL
REMARK 923 INTER-LIGAND FREE ENERGY PREDICTED BY IDOCK:   -7.47 KCAL/MOL
REMARK 924 INTRA-LIGAND FREE ENERGY PREDICTED BY IDOCK:   -0.35 KCAL/MOL
REMARK 927      BINDING AFFINITY PREDICTED BY RF-SCORE:    0.00 PKD
ROOT
HETATM    1  C   UNL     1     -11.964  10.741  68.874  1.00  0.00    -0.210 C  
HETATM    2  C   UNL     1     -10.619  11.299  68.378  1.00  0.00    -0.197 C  
ENDROOT
BRANCH   2   3
HETATM    3  C   UNL     1     -10.381  11.120  66.876  1.00  0.00    -0.272 A  
HETATM    4  C   UNL     1     -12.334  13.943  65.262  1.00  0.00    -0.485 A  
HETATM    5  C   UNL     1      -9.596  10.040  66.422  1.00  0.00    -0.248 A  
HETATM    6  C   UNL     1     -12.232  13.591  63.926  1.00  0.00    -0.458 A  
HETATM    7  C   UNL     1     -11.704  13.165  66.238  1.00  0.00    -0.424 A  
HETATM    8  C   UNL     1     -11.468  12.484  63.563  1.00  0.00    -0.570 A  
HETATM    9  C   UNL     1      -9.422   9.790  65.065  1.00  0.00    -0.337 A  
HETATM   10  C   UNL     1     -10.050  10.602  64.129  1.00  0.00    -0.402 A  
HETATM   11  C   UNL     1     -10.968  12.000  65.913  1.00  0.00    -0.342 A  
HETATM   12  C   UNL     1     -10.827  11.695  64.532  1.00  0.00    -0.383 A  
ENDBRANCH   2   3
BRANCH   2  13
HETATM   13  N   UNL     1      -9.480  10.871  69.210  1.00  0.00    -0.410 NA 
HETATM   14  H   UNL     1      -9.165  11.639  69.803  1.00  0.00     0.000 HD 
BRANCH  13  15
HETATM   15  C   UNL     1      -9.733   9.679  70.013  1.00  0.00    -0.241 C  
BRANCH  15  16
HETATM   16  C   UNL     1      -8.429   8.931  70.283  1.00  0.00    -0.168 C  
BRANCH  16  17
HETATM   17  C   UNL     1      -8.679   7.421  70.264  1.00  0.00    -0.146 C  
BRANCH  17  18
HETATM   18  C   UNL     1      -9.220   6.942  71.585  1.00  0.00    -0.146 A  
HETATM   19  C   UNL     1      -9.985   5.122  73.015  1.00  0.00    -0.190 A  
HETATM   20  C   UNL     1     -10.241   3.654  73.250  1.00  0.00    -0.151 C  
HETATM   21  C   UNL     1      -9.425   5.574  71.810  1.00  0.00    -0.175 A  
HETATM   22  C   UNL     1     -10.121   7.424  73.781  1.00  0.00    -0.329 A  
HETATM   23  F   UNL     1      -9.862   2.858  72.210  1.00  0.00    -0.183 F  
HETATM   24  F   UNL     1      -9.580   3.176  74.341  1.00  0.00    -0.103 F  
HETATM   25  F   UNL     1     -11.559   3.383  73.463  1.00  0.00    -0.321 F  
HETATM   26  C   UNL     1     -10.328   6.060  73.999  1.00  0.00    -0.301 A  
HETATM   27  C   UNL     1      -9.573   7.860  72.578  1.00  0.00    -0.278 A  
ENDBRANCH  17  18
ENDBRANCH  16  17
ENDBRANCH  15  16
ENDBRANCH  13  15
ENDBRANCH   2  13
TORSDOF 6
ENDMDL
MODEL      266
REMARK 921   NORMALIZED FREE ENERGY PREDICTED BY IDOCK:   -3.47 KCAL/MOL
REMARK 922        TOTAL FREE ENERGY PREDICTED BY IDOCK:   -7.82 KCAL/MOL
REMARK 923 INTER-LIGAND FREE ENERGY PREDICTED BY IDOCK:   -4.60 KCAL/MOL
REMARK 924 INTRA-LIGAND FREE ENERGY PREDICTED BY IDOCK:   -3.22 KCAL/MOL
REMARK 927      BINDING AFFINITY PREDICTED BY RF-SCORE:    0.00 PKD
ROOT
HETATM    1  C   UNL     1     -12.244   7.528  72.170  1.00  0.00    -0.283 C  
HETATM    2  C   UNL     1     -11.180   8.622  71.970  1.00  0.00    -0.364 C  
ENDROOT
BRANCH   2   3
HETATM    3  C   UNL     1     -11.012   9.076  70.517  1.00  0.00    -0.295 A  
HETATM    4  C   UNL     1     -10.668   5.853  68.549  1.00  0.00    -0.327 A  
HETATM    5  C   UNL     1     -10.987  10.455  70.220  1.00  0.00    -0.353 A  
HETATM    6  C   UNL     1     -10.323   6.352  67.302  1.00  0.00    -0.274 A  
HETATM    7  C   UNL     1     -10.931   6.732  69.603  1.00  0.00    -0.336 A  
HETATM    8  C   UNL     1     -10.282   7.730  67.101  1.00  0.00    -0.365 A  
HETATM    9  C   UNL     1     -10.754  10.914  68.928  1.00  0.00    -0.252 A  
HETATM   10  C   UNL     1     -10.518  10.004  67.906  1.00  0.00    -0.276 A  
HETATM   11  C   UNL     1     -10.842   8.137  69.452  1.00  0.00    -0.096 A  
HETATM   12  C   UNL     1     -10.548   8.625  68.150  1.00  0.00    -0.189 A  
ENDBRANCH   2   3
BRANCH   2  13
HETATM   13  N   UNL     1      -9.905   8.309  72.640  1.00  0.00    -0.288 NA 
HETATM   14  H   UNL     1      -9.915   8.652  73.601  1.00  0.00     0.000 HD 
BRANCH  13  15
HETATM   15  C   UNL     1      -9.536   6.898  72.608  1.00  0.00    -0.145 C  
BRANCH  15  16
HETATM   16  C   UNL     1      -8.035   6.744  72.369  1.00  0.00    -0.098 C  
BRANCH  16  17
HETATM   17  C   UNL     1      -7.454   8.054  71.831  1.00  0.00    -0.093 C  
BRANCH  17  18
HETATM   18  C   UNL     1      -7.233   7.983  70.344  1.00  0.00    -0.049 A  
HETATM   19  C   UNL     1      -6.795   6.670  68.338  1.00  0.00    -0.074 A  
HETATM   20  C   UNL     1      -6.574   5.341  67.659  1.00  0.00    -0.053 C  
HETATM   21  C   UNL     1      -7.061   6.743  69.714  1.00  0.00    -0.068 A  
HETATM   22  C   UNL     1      -6.889   9.095  68.219  1.00  0.00    -0.065 A  
HETATM   23  F   UNL     1      -6.679   4.273  68.500  1.00  0.00    -0.042 F  
HETATM   24  F   UNL     1      -7.466   5.111  66.655  1.00  0.00    -0.081 F  
HETATM   25  F   UNL     1      -5.339   5.245  67.091  1.00  0.00    -0.007 F  
HETATM   26  C   UNL     1      -6.714   7.858  67.596  1.00  0.00    -0.068 A  
HETATM   27  C   UNL     1      -7.144   9.155  69.587  1.00  0.00    -0.059 A  
ENDBRANCH  17  18
ENDBRANCH  16  17
ENDBRANCH  15  16
ENDBRANCH  13  15
ENDBRANCH   2  13
TORSDOF 6
ENDMDL
MODEL      267
REMARK 921   NORMALIZED FREE ENERGY PREDICTED BY IDOCK:   -3.46 KCAL/MOL
REMARK 922        TOTAL FREE ENERGY PREDICTED BY IDOCK:   -7.79 KCAL/MOL
REMARK 923 INTER-LIGAND FREE ENERGY PREDICTED BY IDOCK:   -7.51 KCAL/MOL
REMARK 924 INTRA-LIGAND FREE ENERGY PREDICTED BY IDOCK:   -0.28 KCAL/MOL
REMARK 927      BINDING AFFINITY PREDICTED BY RF-SCORE:    0.00 PKD
ROOT
HETATM    1  C   UNL     1     -12.080  13.265  68.392  1.00  0.00    -0.244 C  
HETATM    2  C   UNL     1     -10.698  13.293  67.715  1.00  0.00    -0.244 C  
ENDROOT
BRANCH   2   3
HETATM    3  C   UNL     1     -10.522  12.252  66.606  1.00  0.00    -0.247 A  
HETATM    4  C   UNL     1     -10.549   8.920  68.418  1.00  0.00    -0.190 A  
HETATM    5  C   UNL     1     -10.366  12.680  65.271  1.00  0.00    -0.309 A  
HETATM    6  C   UNL     1     -10.187   8.067  67.386  1.00  0.00    -0.330 A  
HETATM    7  C   UNL     1     -10.697  10.288  68.171  1.00  0.00    -0.287 A  
HETATM    8  C   UNL     1     -10.013   8.577  66.102  1.00  0.00    -0.160 A  
HETATM    9  C   UNL     1     -10.120  11.776  64.243  1.00  0.00    -0.326 A  
HETATM   10  C   UNL     1     -10.001  10.422  64.531  1.00  0.00    -0.401 A  
HETATM   11  C   UNL     1     -10.472  10.851  66.892  1.00  0.00    -0.299 A  
HETATM   12  C   UNL     1     -10.163   9.948  65.838  1.00  0.00    -0.264 A  
ENDBRANCH   2   3
BRANCH   2  13
HETATM   13  N   UNL     1      -9.587  13.315  68.683  1.00  0.00    -0.404 NA 
HETATM   14  H   UNL     1      -9.247  12.369  68.856  1.00  0.00     0.000 HD 
BRANCH  13  15
HETATM   15  C   UNL     1      -8.482  14.194  68.315  1.00  0.00    -0.169 C  
BRANCH  15  16
HETATM   16  C   UNL     1      -8.983  15.346  67.447  1.00  0.00    -0.202 C  
BRANCH  16  17
HETATM   17  C   UNL     1      -9.830  16.305  68.287  1.00  0.00    -0.227 C  
BRANCH  17  18
HETATM   18  C   UNL     1      -9.741  17.713  67.764  1.00  0.00    -0.280 A  
HETATM   19  C   UNL     1      -8.410  19.551  66.873  1.00  0.00    -0.314 A  
HETATM   20  C   UNL     1      -7.089  20.114  66.413  1.00  0.00    -0.265 C  
HETATM   21  C   UNL     1      -8.517  18.221  67.307  1.00  0.00    -0.250 A  
HETATM   22  C   UNL     1     -10.773  19.865  67.345  1.00  0.00    -0.447 A  
HETATM   23  F   UNL     1      -6.067  19.212  66.447  1.00  0.00    -0.167 F  
HETATM   24  F   UNL     1      -7.134  20.573  65.130  1.00  0.00    -0.309 F  
HETATM   25  F   UNL     1      -6.678  21.168  67.172  1.00  0.00    -0.337 F  
HETATM   26  C   UNL     1      -9.551  20.367  66.894  1.00  0.00    -0.546 A  
HETATM   27  C   UNL     1     -10.864  18.545  67.781  1.00  0.00    -0.289 A  
ENDBRANCH  17  18
ENDBRANCH  16  17
ENDBRANCH  15  16
ENDBRANCH  13  15
ENDBRANCH   2  13
TORSDOF 6
ENDMDL
MODEL      268
REMARK 921   NORMALIZED FREE ENERGY PREDICTED BY IDOCK:   -3.45 KCAL/MOL
REMARK 922        TOTAL FREE ENERGY PREDICTED BY IDOCK:   -7.79 KCAL/MOL
REMARK 923 INTER-LIGAND FREE ENERGY PREDICTED BY IDOCK:   -7.75 KCAL/MOL
REMARK 924 INTRA-LIGAND FREE ENERGY PREDICTED BY IDOCK:   -0.04 KCAL/MOL
REMARK 927      BINDING AFFINITY PREDICTED BY RF-SCORE:    0.00 PKD
ROOT
HETATM    1  C   UNL     1     -12.857  14.212  70.760  1.00  0.00    -0.378 C  
HETATM    2  C   UNL     1     -11.711  13.524  69.998  1.00  0.00    -0.241 C  
ENDROOT
BRANCH   2   3
HETATM    3  C   UNL     1     -10.999  14.428  68.987  1.00  0.00    -0.274 A  
HETATM    4  C   UNL     1     -12.722  13.701  65.686  1.00  0.00    -0.505 A  
HETATM    5  C   UNL     1      -9.933  15.245  69.417  1.00  0.00    -0.257 A  
HETATM    6  C   UNL     1     -11.899  14.392  64.812  1.00  0.00    -0.439 A  
HETATM    7  C   UNL     1     -12.462  13.731  67.060  1.00  0.00    -0.146 A  
HETATM    8  C   UNL     1     -10.840  15.146  65.315  1.00  0.00    -0.414 A  
HETATM    9  C   UNL     1      -9.205  16.018  68.519  1.00  0.00    -0.206 A  
HETATM   10  C   UNL     1      -9.510  15.973  67.165  1.00  0.00    -0.225 A  
HETATM   11  C   UNL     1     -11.362  14.437  67.603  1.00  0.00    -0.348 A  
HETATM   12  C   UNL     1     -10.570  15.189  66.693  1.00  0.00    -0.304 A  
ENDBRANCH   2   3
BRANCH   2  13
HETATM   13  N   UNL     1     -12.097  12.213  69.447  1.00  0.00    -0.237 NA 
HETATM   14  H   UNL     1     -11.746  12.111  68.494  1.00  0.00     0.000 HD 
BRANCH  13  15
HETATM   15  C   UNL     1     -11.693  11.073  70.262  1.00  0.00    -0.355 C  
BRANCH  15  16
HETATM   16  C   UNL     1     -12.752  10.771  71.321  1.00  0.00    -0.546 C  
BRANCH  16  17
HETATM   17  C   UNL     1     -13.229   9.323  71.186  1.00  0.00    -0.244 C  
BRANCH  17  18
HETATM   18  C   UNL     1     -12.132   8.353  71.535  1.00  0.00    -0.342 A  
HETATM   19  C   UNL     1     -10.727   6.454  70.934  1.00  0.00    -0.301 A  
HETATM   20  C   UNL     1     -10.289   5.405  69.943  1.00  0.00    -0.307 C  
HETATM   21  C   UNL     1     -11.707   7.401  70.598  1.00  0.00    -0.270 A  
HETATM   22  C   UNL     1     -10.587   7.428  73.156  1.00  0.00    -0.424 A  
HETATM   23  F   UNL     1     -10.915   5.497  68.735  1.00  0.00    -0.299 F  
HETATM   24  F   UNL     1      -8.955   5.463  69.674  1.00  0.00    -0.105 F  
HETATM   25  F   UNL     1     -10.526   4.138  70.386  1.00  0.00    -0.138 F  
HETATM   26  C   UNL     1     -10.170   6.479  72.221  1.00  0.00    -0.203 A  
HETATM   27  C   UNL     1     -11.567   8.357  72.814  1.00  0.00    -0.244 A  
ENDBRANCH  17  18
ENDBRANCH  16  17
ENDBRANCH  15  16
ENDBRANCH  13  15
ENDBRANCH   2  13
TORSDOF 6
ENDMDL
MODEL      269
REMARK 921   NORMALIZED FREE ENERGY PREDICTED BY IDOCK:   -3.45 KCAL/MOL
REMARK 922        TOTAL FREE ENERGY PREDICTED BY IDOCK:   -7.79 KCAL/MOL
REMARK 923 INTER-LIGAND FREE ENERGY PREDICTED BY IDOCK:   -6.92 KCAL/MOL
REMARK 924 INTRA-LIGAND FREE ENERGY PREDICTED BY IDOCK:   -0.88 KCAL/MOL
REMARK 927      BINDING AFFINITY PREDICTED BY RF-SCORE:    0.00 PKD
ROOT
HETATM    1  C   UNL     1      -9.134  14.803  66.618  1.00  0.00    -0.300 C  
HETATM    2  C   UNL     1      -9.263  14.981  68.141  1.00  0.00    -0.183 C  
ENDROOT
BRANCH   2   3
HETATM    3  C   UNL     1      -7.953  15.353  68.842  1.00  0.00    -0.177 A  
HETATM    4  C   UNL     1      -7.712  19.120  68.467  1.00  0.00    -0.376 A  
HETATM    5  C   UNL     1      -7.155  14.336  69.404  1.00  0.00    -0.086 A  
HETATM    6  C   UNL     1      -6.428  19.340  68.940  1.00  0.00    -0.308 A  
HETATM    7  C   UNL     1      -8.240  17.825  68.461  1.00  0.00    -0.296 A  
HETATM    8  C   UNL     1      -5.687  18.273  69.442  1.00  0.00    -0.230 A  
HETATM    9  C   UNL     1      -5.919  14.617  69.976  1.00  0.00    -0.141 A  
HETATM   10  C   UNL     1      -5.442  15.922  69.979  1.00  0.00    -0.149 A  
HETATM   11  C   UNL     1      -7.496  16.707  68.910  1.00  0.00    -0.232 A  
HETATM   12  C   UNL     1      -6.206  16.967  69.447  1.00  0.00    -0.232 A  
ENDBRANCH   2   3
BRANCH   2  13
HETATM   13  N   UNL     1      -9.983  13.870  68.787  1.00  0.00    -0.366 NA 
HETATM   14  H   UNL     1     -10.491  14.205  69.607  1.00  0.00     0.000 HD 
BRANCH  13  15
HETATM   15  C   UNL     1     -10.878  13.133  67.902  1.00  0.00    -0.242 C  
BRANCH  15  16
HETATM   16  C   UNL     1     -11.127  11.727  68.444  1.00  0.00    -0.286 C  
BRANCH  16  17
HETATM   17  C   UNL     1      -9.826  11.144  69.003  1.00  0.00    -0.132 C  
BRANCH  17  18
HETATM   18  C   UNL     1     -10.103  10.111  70.062  1.00  0.00    -0.241 A  
HETATM   19  C   UNL     1     -11.692   8.789  71.354  1.00  0.00    -0.369 A  
HETATM   20  C   UNL     1     -13.108   8.374  71.668  1.00  0.00    -0.334 C  
HETATM   21  C   UNL     1     -11.419   9.706  70.328  1.00  0.00    -0.288 A  
HETATM   22  C   UNL     1      -9.315   8.670  71.844  1.00  0.00    -0.357 A  
HETATM   23  F   UNL     1     -14.041   8.955  70.860  1.00  0.00    -0.288 F  
HETATM   24  F   UNL     1     -13.299   7.031  71.548  1.00  0.00    -0.400 F  
HETATM   25  F   UNL     1     -13.474   8.691  72.942  1.00  0.00    -0.346 F  
HETATM   26  C   UNL     1     -10.627   8.273  72.107  1.00  0.00    -0.380 A  
HETATM   27  C   UNL     1      -9.057   9.588  70.829  1.00  0.00    -0.176 A  
ENDBRANCH  17  18
ENDBRANCH  16  17
ENDBRANCH  15  16
ENDBRANCH  13  15
ENDBRANCH   2  13
TORSDOF 6
ENDMDL
MODEL      270
REMARK 921   NORMALIZED FREE ENERGY PREDICTED BY IDOCK:   -3.45 KCAL/MOL
REMARK 922        TOTAL FREE ENERGY PREDICTED BY IDOCK:   -7.79 KCAL/MOL
REMARK 923 INTER-LIGAND FREE ENERGY PREDICTED BY IDOCK:   -7.06 KCAL/MOL
REMARK 924 INTRA-LIGAND FREE ENERGY PREDICTED BY IDOCK:   -0.73 KCAL/MOL
REMARK 927      BINDING AFFINITY PREDICTED BY RF-SCORE:    0.00 PKD
ROOT
HETATM    1  C   UNL     1      -6.415   6.927  67.932  1.00  0.00    -0.050 C  
HETATM    2  C   UNL     1      -7.285   7.746  68.903  1.00  0.00    -0.081 C  
ENDROOT
BRANCH   2   3
HETATM    3  C   UNL     1      -8.451   6.963  69.512  1.00  0.00    -0.133 A  
HETATM    4  C   UNL     1      -8.717   8.267  73.064  1.00  0.00    -0.287 A  
HETATM    5  C   UNL     1      -9.113   5.989  68.736  1.00  0.00    -0.124 A  
HETATM    6  C   UNL     1      -9.642   7.379  73.592  1.00  0.00    -0.337 A  
HETATM    7  C   UNL     1      -8.343   8.166  71.721  1.00  0.00    -0.181 A  
HETATM    8  C   UNL     1     -10.221   6.418  72.766  1.00  0.00    -0.204 A  
HETATM    9  C   UNL     1     -10.122   5.196  69.274  1.00  0.00    -0.283 A  
HETATM   10  C   UNL     1     -10.476   5.344  70.608  1.00  0.00    -0.329 A  
HETATM   11  C   UNL     1      -8.866   7.166  70.866  1.00  0.00    -0.150 A  
HETATM   12  C   UNL     1      -9.858   6.308  71.414  1.00  0.00    -0.195 A  
ENDBRANCH   2   3
BRANCH   2  13
HETATM   13  N   UNL     1      -7.677   9.055  68.353  1.00  0.00    -0.097 NA 
HETATM   14  H   UNL     1      -7.030   9.341  67.618  1.00  0.00     0.000 HD 
BRANCH  13  15
HETATM   15  C   UNL     1      -9.053   9.121  67.873  1.00  0.00    -0.127 C  
BRANCH  15  16
HETATM   16  C   UNL     1      -9.856  10.132  68.690  1.00  0.00    -0.170 C  
BRANCH  16  17
HETATM   17  C   UNL     1     -11.242  10.323  68.070  1.00  0.00    -0.303 C  
BRANCH  17  18
HETATM   18  C   UNL     1     -11.510  11.774  67.770  1.00  0.00    -0.381 A  
HETATM   19  C   UNL     1     -11.657  13.603  66.164  1.00  0.00    -0.369 A  
HETATM   20  C   UNL     1     -11.580  14.118  64.749  1.00  0.00    -0.396 C  
HETATM   21  C   UNL     1     -11.469  12.241  66.449  1.00  0.00    -0.434 A  
HETATM   22  C   UNL     1     -11.946  14.030  68.539  1.00  0.00    -0.383 A  
HETATM   23  F   UNL     1     -11.336  13.146  63.824  1.00  0.00    -0.397 F  
HETATM   24  F   UNL     1     -12.731  14.728  64.350  1.00  0.00    -0.459 F  
HETATM   25  F   UNL     1     -10.591  15.041  64.584  1.00  0.00    -0.410 F  
HETATM   26  C   UNL     1     -11.900  14.491  67.222  1.00  0.00    -0.419 A  
HETATM   27  C   UNL     1     -11.748  12.678  68.809  1.00  0.00    -0.364 A  
ENDBRANCH  17  18
ENDBRANCH  16  17
ENDBRANCH  15  16
ENDBRANCH  13  15
ENDBRANCH   2  13
TORSDOF 6
ENDMDL
MODEL      271
REMARK 921   NORMALIZED FREE ENERGY PREDICTED BY IDOCK:   -3.45 KCAL/MOL
REMARK 922        TOTAL FREE ENERGY PREDICTED BY IDOCK:   -7.79 KCAL/MOL
REMARK 923 INTER-LIGAND FREE ENERGY PREDICTED BY IDOCK:   -6.68 KCAL/MOL
REMARK 924 INTRA-LIGAND FREE ENERGY PREDICTED BY IDOCK:   -1.10 KCAL/MOL
REMARK 927      BINDING AFFINITY PREDICTED BY RF-SCORE:    0.00 PKD
ROOT
HETATM    1  C   UNL     1     -12.652  13.793  65.567  1.00  0.00    -0.551 C  
HETATM    2  C   UNL     1     -11.150  13.505  65.395  1.00  0.00    -0.293 C  
ENDROOT
BRANCH   2   3
HETATM    3  C   UNL     1     -10.753  12.055  65.686  1.00  0.00    -0.313 A  
HETATM    4  C   UNL     1     -11.759  11.501  69.301  1.00  0.00    -0.397 A  
HETATM    5  C   UNL     1     -10.127  11.292  64.679  1.00  0.00    -0.343 A  
HETATM    6  C   UNL     1     -11.190  10.260  69.536  1.00  0.00    -0.314 A  
HETATM    7  C   UNL     1     -11.655  12.087  68.036  1.00  0.00    -0.407 A  
HETATM    8  C   UNL     1     -10.552   9.587  68.495  1.00  0.00    -0.247 A  
HETATM    9  C   UNL     1      -9.674  10.000  64.924  1.00  0.00    -0.377 A  
HETATM   10  C   UNL     1      -9.816   9.449  66.190  1.00  0.00    -0.356 A  
HETATM   11  C   UNL     1     -10.965  11.461  66.970  1.00  0.00    -0.347 A  
HETATM   12  C   UNL     1     -10.445  10.162  67.218  1.00  0.00    -0.313 A  
ENDBRANCH   2   3
BRANCH   2  13
HETATM   13  N   UNL     1     -10.296  14.497  66.072  1.00  0.00    -0.296 NA 
HETATM   14  H   UNL     1      -9.383  14.547  65.620  1.00  0.00     0.000 HD 
BRANCH  13  15
HETATM   15  C   UNL     1     -10.885  15.827  66.180  1.00  0.00    -0.240 C  
BRANCH  15  16
HETATM   16  C   UNL     1      -9.866  16.817  66.742  1.00  0.00    -0.282 C  
BRANCH  16  17
HETATM   17  C   UNL     1      -9.708  16.606  68.250  1.00  0.00    -0.244 C  
BRANCH  17  18
HETATM   18  C   UNL     1      -8.374  15.990  68.577  1.00  0.00    -0.191 A  
HETATM   19  C   UNL     1      -6.995  14.011  68.933  1.00  0.00    -0.110 A  
HETATM   20  C   UNL     1      -6.830  12.513  68.962  1.00  0.00    -0.089 C  
HETATM   21  C   UNL     1      -8.218  14.597  68.571  1.00  0.00    -0.152 A  
HETATM   22  C   UNL     1      -6.073  16.230  69.296  1.00  0.00    -0.161 A  
HETATM   23  F   UNL     1      -7.952  11.831  68.593  1.00  0.00    -0.134 F  
HETATM   24  F   UNL     1      -5.843  12.078  68.130  1.00  0.00    -0.049 F  
HETATM   25  F   UNL     1      -6.506  12.048  70.202  1.00  0.00    -0.141 F  
HETATM   26  C   UNL     1      -5.923  14.842  69.292  1.00  0.00    -0.103 A  
HETATM   27  C   UNL     1      -7.294  16.799  68.944  1.00  0.00    -0.235 A  
ENDBRANCH  17  18
ENDBRANCH  16  17
ENDBRANCH  15  16
ENDBRANCH  13  15
ENDBRANCH   2  13
TORSDOF 6
ENDMDL
MODEL      272
REMARK 921   NORMALIZED FREE ENERGY PREDICTED BY IDOCK:   -3.45 KCAL/MOL
REMARK 922        TOTAL FREE ENERGY PREDICTED BY IDOCK:   -7.78 KCAL/MOL
REMARK 923 INTER-LIGAND FREE ENERGY PREDICTED BY IDOCK:   -6.23 KCAL/MOL
REMARK 924 INTRA-LIGAND FREE ENERGY PREDICTED BY IDOCK:   -1.55 KCAL/MOL
REMARK 927      BINDING AFFINITY PREDICTED BY RF-SCORE:    0.00 PKD
ROOT
HETATM    1  C   UNL     1      -7.926   5.664  67.386  1.00  0.00    -0.102 C  
HETATM    2  C   UNL     1      -9.045   6.713  67.258  1.00  0.00    -0.118 C  
ENDROOT
BRANCH   2   3
HETATM    3  C   UNL     1      -8.848   7.951  68.138  1.00  0.00    -0.125 A  
HETATM    4  C   UNL     1     -10.301  10.803  66.102  1.00  0.00    -0.300 A  
HETATM    5  C   UNL     1      -8.205   7.820  69.386  1.00  0.00    -0.131 A  
HETATM    6  C   UNL     1      -9.904  11.889  66.867  1.00  0.00    -0.217 A  
HETATM    7  C   UNL     1      -9.993   9.505  66.522  1.00  0.00    -0.329 A  
HETATM    8  C   UNL     1      -9.237  11.674  68.071  1.00  0.00    -0.178 A  
HETATM    9  C   UNL     1      -7.930   8.928  70.181  1.00  0.00    -0.111 A  
HETATM   10  C   UNL     1      -8.272  10.198  69.733  1.00  0.00    -0.161 A  
HETATM   11  C   UNL     1      -9.266   9.250  67.710  1.00  0.00    -0.141 A  
HETATM   12  C   UNL     1      -8.925  10.376  68.507  1.00  0.00    -0.139 A  
ENDBRANCH   2   3
BRANCH   2  13
HETATM   13  N   UNL     1     -10.393   6.126  67.361  1.00  0.00    -0.181 NA 
HETATM   14  H   UNL     1     -10.354   5.118  67.212  1.00  0.00     0.000 HD 
BRANCH  13  15
HETATM   15  C   UNL     1     -11.092   6.431  68.605  1.00  0.00    -0.311 C  
BRANCH  15  16
HETATM   16  C   UNL     1     -10.830   5.342  69.644  1.00  0.00    -0.158 C  
BRANCH  16  17
HETATM   17  C   UNL     1     -10.853   5.946  71.051  1.00  0.00    -0.339 C  
BRANCH  17  18
HETATM   18  C   UNL     1     -11.985   6.926  71.205  1.00  0.00    -0.413 A  
HETATM   19  C   UNL     1     -12.796   9.225  71.224  1.00  0.00    -0.354 A  
HETATM   20  C   UNL     1     -12.553  10.705  71.066  1.00  0.00    -0.416 C  
HETATM   21  C   UNL     1     -11.761   8.298  71.024  1.00  0.00    -0.293 A  
HETATM   22  C   UNL     1     -14.293   7.392  71.775  1.00  0.00    -0.586 A  
HETATM   23  F   UNL     1     -11.276  11.015  70.703  1.00  0.00    -0.340 F  
HETATM   24  F   UNL     1     -13.354  11.268  70.118  1.00  0.00     0.061 F  
HETATM   25  F   UNL     1     -12.790  11.398  72.215  1.00  0.00    -0.461 F  
HETATM   26  C   UNL     1     -14.064   8.758  71.598  1.00  0.00    -0.437 A  
HETATM   27  C   UNL     1     -13.256   6.483  71.582  1.00  0.00     0.055 A  
ENDBRANCH  17  18
ENDBRANCH  16  17
ENDBRANCH  15  16
ENDBRANCH  13  15
ENDBRANCH   2  13
TORSDOF 6
ENDMDL
MODEL      273
REMARK 921   NORMALIZED FREE ENERGY PREDICTED BY IDOCK:   -3.45 KCAL/MOL
REMARK 922        TOTAL FREE ENERGY PREDICTED BY IDOCK:   -7.78 KCAL/MOL
REMARK 923 INTER-LIGAND FREE ENERGY PREDICTED BY IDOCK:   -6.23 KCAL/MOL
REMARK 924 INTRA-LIGAND FREE ENERGY PREDICTED BY IDOCK:   -1.55 KCAL/MOL
REMARK 927      BINDING AFFINITY PREDICTED BY RF-SCORE:    0.00 PKD
ROOT
HETATM    1  C   UNL     1     -10.667   8.704  69.081  1.00  0.00    -0.136 C  
HETATM    2  C   UNL     1     -10.439  10.178  68.700  1.00  0.00    -0.202 C  
ENDROOT
BRANCH   2   3
HETATM    3  C   UNL     1      -9.136  10.434  67.936  1.00  0.00    -0.132 A  
HETATM    4  C   UNL     1     -10.194  10.645  64.300  1.00  0.00    -0.391 A  
HETATM    5  C   UNL     1      -7.919  10.502  68.645  1.00  0.00    -0.124 A  
HETATM    6  C   UNL     1      -8.956  10.673  63.677  1.00  0.00    -0.211 A  
HETATM    7  C   UNL     1     -10.271  10.602  65.695  1.00  0.00    -0.319 A  
HETATM    8  C   UNL     1      -7.797  10.699  64.450  1.00  0.00     0.116 A  
HETATM    9  C   UNL     1      -6.704  10.650  67.986  1.00  0.00    -0.064 A  
HETATM   10  C   UNL     1      -6.675  10.709  66.598  1.00  0.00    -0.106 A  
HETATM   11  C   UNL     1      -9.115  10.568  66.512  1.00  0.00    -0.175 A  
HETATM   12  C   UNL     1      -7.860  10.660  65.853  1.00  0.00    -0.150 A  
ENDBRANCH   2   3
BRANCH   2  13
HETATM   13  N   UNL     1     -10.651  11.100  69.829  1.00  0.00    -0.455 NA 
HETATM   14  H   UNL     1      -9.757  11.444  70.180  1.00  0.00     0.000 HD 
BRANCH  13  15
HETATM   15  C   UNL     1     -11.547  12.214  69.539  1.00  0.00    -0.315 C  
BRANCH  15  16
HETATM   16  C   UNL     1     -11.728  12.375  68.031  1.00  0.00    -0.414 C  
BRANCH  16  17
HETATM   17  C   UNL     1     -12.019  13.840  67.693  1.00  0.00    -0.392 C  
BRANCH  17  18
HETATM   18  C   UNL     1     -10.745  14.620  67.510  1.00  0.00    -0.268 A  
HETATM   19  C   UNL     1      -9.525  16.726  67.644  1.00  0.00    -0.234 A  
HETATM   20  C   UNL     1      -9.468  18.192  67.993  1.00  0.00    -0.285 C  
HETATM   21  C   UNL     1     -10.689  15.975  67.866  1.00  0.00    -0.316 A  
HETATM   22  C   UNL     1      -8.460  14.749  66.714  1.00  0.00    -0.179 A  
HETATM   23  F   UNL     1     -10.622  18.669  68.542  1.00  0.00    -0.356 F  
HETATM   24  F   UNL     1      -8.485  18.479  68.891  1.00  0.00    -0.327 F  
HETATM   25  F   UNL     1      -9.224  18.978  66.907  1.00  0.00    -0.275 F  
HETATM   26  C   UNL     1      -8.410  16.099  67.068  1.00  0.00    -0.247 A  
HETATM   27  C   UNL     1      -9.624  14.016  66.932  1.00  0.00    -0.275 A  
ENDBRANCH  17  18
ENDBRANCH  16  17
ENDBRANCH  15  16
ENDBRANCH  13  15
ENDBRANCH   2  13
TORSDOF 6
ENDMDL
MODEL      274
REMARK 921   NORMALIZED FREE ENERGY PREDICTED BY IDOCK:   -3.43 KCAL/MOL
REMARK 922        TOTAL FREE ENERGY PREDICTED BY IDOCK:   -7.75 KCAL/MOL
REMARK 923 INTER-LIGAND FREE ENERGY PREDICTED BY IDOCK:   -5.52 KCAL/MOL
REMARK 924 INTRA-LIGAND FREE ENERGY PREDICTED BY IDOCK:   -2.23 KCAL/MOL
REMARK 927      BINDING AFFINITY PREDICTED BY RF-SCORE:    0.00 PKD
ROOT
HETATM    1  C   UNL     1      -7.520   8.131  66.303  1.00  0.00    -0.082 C  
HETATM    2  C   UNL     1      -7.540   8.815  67.681  1.00  0.00    -0.097 C  
ENDROOT
BRANCH   2   3
HETATM    3  C   UNL     1      -7.587  10.345  67.622  1.00  0.00    -0.089 A  
HETATM    4  C   UNL     1     -11.135  11.145  66.545  1.00  0.00    -0.233 A  
HETATM    5  C   UNL     1      -6.423  11.085  67.913  1.00  0.00    -0.062 A  
HETATM    6  C   UNL     1     -11.031  12.509  66.324  1.00  0.00    -0.311 A  
HETATM    7  C   UNL     1     -10.026  10.428  67.004  1.00  0.00    -0.252 A  
HETATM    8  C   UNL     1      -9.831  13.161  66.599  1.00  0.00    -0.261 A  
HETATM    9  C   UNL     1      -6.395  12.471  67.790  1.00  0.00    -0.121 A  
HETATM   10  C   UNL     1      -7.527  13.146  67.351  1.00  0.00    -0.131 A  
HETATM   11  C   UNL     1      -8.774  11.045  67.239  1.00  0.00    -0.129 A  
HETATM   12  C   UNL     1      -8.710  12.454  67.065  1.00  0.00    -0.207 A  
ENDBRANCH   2   3
BRANCH   2  13
HETATM   13  N   UNL     1      -6.509   8.292  68.595  1.00  0.00    -0.053 NA 
HETATM   14  H   UNL     1      -6.176   9.030  69.214  1.00  0.00     0.000 HD 
BRANCH  13  15
HETATM   15  C   UNL     1      -6.923   7.127  69.369  1.00  0.00    -0.062 C  
BRANCH  15  16
HETATM   16  C   UNL     1      -8.385   7.257  69.790  1.00  0.00    -0.135 C  
BRANCH  16  17
HETATM   17  C   UNL     1      -8.492   8.114  71.054  1.00  0.00    -0.144 C  
BRANCH  17  18
HETATM   18  C   UNL     1      -9.900   8.603  71.264  1.00  0.00    -0.307 A  
HETATM   19  C   UNL     1     -11.608  10.312  70.943  1.00  0.00    -0.454 A  
HETATM   20  C   UNL     1     -12.052  11.636  70.372  1.00  0.00    -0.373 C  
HETATM   21  C   UNL     1     -10.317   9.818  70.703  1.00  0.00    -0.330 A  
HETATM   22  C   UNL     1     -12.075   8.352  72.302  1.00  0.00    -0.456 A  
HETATM   23  F   UNL     1     -11.100  12.253  69.616  1.00  0.00    -0.250 F  
HETATM   24  F   UNL     1     -13.145  11.519  69.567  1.00  0.00     0.199 F  
HETATM   25  F   UNL     1     -12.394  12.532  71.339  1.00  0.00    -0.384 F  
HETATM   26  C   UNL     1     -12.484   9.565  71.745  1.00  0.00    -0.484 A  
HETATM   27  C   UNL     1     -10.788   7.877  72.064  1.00  0.00    -0.312 A  
ENDBRANCH  17  18
ENDBRANCH  16  17
ENDBRANCH  15  16
ENDBRANCH  13  15
ENDBRANCH   2  13
TORSDOF 6
ENDMDL
MODEL      275
REMARK 921   NORMALIZED FREE ENERGY PREDICTED BY IDOCK:   -3.42 KCAL/MOL
REMARK 922        TOTAL FREE ENERGY PREDICTED BY IDOCK:   -7.75 KCAL/MOL
REMARK 923 INTER-LIGAND FREE ENERGY PREDICTED BY IDOCK:   -7.31 KCAL/MOL
REMARK 924 INTRA-LIGAND FREE ENERGY PREDICTED BY IDOCK:   -0.43 KCAL/MOL
REMARK 927      BINDING AFFINITY PREDICTED BY RF-SCORE:    0.00 PKD
ROOT
HETATM    1  C   UNL     1      -8.407  10.803  65.453  1.00  0.00    -0.104 C  
HETATM    2  C   UNL     1      -9.724  11.237  66.121  1.00  0.00    -0.220 C  
ENDROOT
BRANCH   2   3
HETATM    3  C   UNL     1     -10.543  12.238  65.301  1.00  0.00    -0.322 A  
HETATM    4  C   UNL     1      -9.174  15.630  66.303  1.00  0.00    -0.365 A  
HETATM    5  C   UNL     1     -11.562  11.767  64.448  1.00  0.00    -0.325 A  
HETATM    6  C   UNL     1     -10.088  16.467  65.683  1.00  0.00    -0.314 A  
HETATM    7  C   UNL     1      -9.288  14.244  66.159  1.00  0.00    -0.191 A  
HETATM    8  C   UNL     1     -11.092  15.918  64.887  1.00  0.00    -0.400 A  
HETATM    9  C   UNL     1     -12.386  12.643  63.749  1.00  0.00    -0.568 A  
HETATM   10  C   UNL     1     -12.224  14.013  63.906  1.00  0.00    -0.336 A  
HETATM   11  C   UNL     1     -10.328  13.648  65.407  1.00  0.00    -0.345 A  
HETATM   12  C   UNL     1     -11.216  14.528  64.730  1.00  0.00    -0.395 A  
ENDBRANCH   2   3
BRANCH   2  13
HETATM   13  N   UNL     1      -9.548  11.632  67.529  1.00  0.00    -0.170 NA 
HETATM   14  H   UNL     1     -10.230  11.156  68.120  1.00  0.00     0.000 HD 
BRANCH  13  15
HETATM   15  C   UNL     1      -8.199  11.434  68.048  1.00  0.00    -0.140 C  
BRANCH  15  16
HETATM   16  C   UNL     1      -8.201  10.375  69.149  1.00  0.00    -0.157 C  
BRANCH  16  17
HETATM   17  C   UNL     1      -8.130   8.977  68.530  1.00  0.00    -0.107 C  
BRANCH  17  18
HETATM   18  C   UNL     1      -9.337   8.156  68.898  1.00  0.00    -0.147 A  
HETATM   19  C   UNL     1     -11.017   7.492  70.536  1.00  0.00    -0.266 A  
HETATM   20  C   UNL     1     -11.636   7.613  71.905  1.00  0.00    -0.280 C  
HETATM   21  C   UNL     1      -9.929   8.296  70.161  1.00  0.00    -0.187 A  
HETATM   22  C   UNL     1     -10.930   6.411  68.361  1.00  0.00    -0.390 A  
HETATM   23  F   UNL     1     -11.052   8.565  72.688  1.00  0.00    -0.413 F  
HETATM   24  F   UNL     1     -12.959   7.936  71.855  1.00  0.00    -0.307 F  
HETATM   25  F   UNL     1     -11.561   6.453  72.616  1.00  0.00    -0.290 F  
HETATM   26  C   UNL     1     -11.513   6.551  69.622  1.00  0.00    -0.417 A  
HETATM   27  C   UNL     1      -9.845   7.208  68.005  1.00  0.00    -0.158 A  
ENDBRANCH  17  18
ENDBRANCH  16  17
ENDBRANCH  15  16
ENDBRANCH  13  15
ENDBRANCH   2  13
TORSDOF 6
ENDMDL
MODEL      276
REMARK 921   NORMALIZED FREE ENERGY PREDICTED BY IDOCK:   -3.42 KCAL/MOL
REMARK 922        TOTAL FREE ENERGY PREDICTED BY IDOCK:   -7.74 KCAL/MOL
REMARK 923 INTER-LIGAND FREE ENERGY PREDICTED BY IDOCK:   -6.12 KCAL/MOL
REMARK 924 INTRA-LIGAND FREE ENERGY PREDICTED BY IDOCK:   -1.62 KCAL/MOL
REMARK 927      BINDING AFFINITY PREDICTED BY RF-SCORE:    0.00 PKD
ROOT
HETATM    1  C   UNL     1      -7.982   5.296  66.980  1.00  0.00    -0.101 C  
HETATM    2  C   UNL     1      -9.398   5.793  67.320  1.00  0.00    -0.113 C  
ENDROOT
BRANCH   2   3
HETATM    3  C   UNL     1      -9.475   7.285  67.656  1.00  0.00    -0.149 A  
HETATM    4  C   UNL     1      -6.760   7.815  70.250  1.00  0.00    -0.038 A  
HETATM    5  C   UNL     1     -10.454   8.086  67.032  1.00  0.00    -0.410 A  
HETATM    6  C   UNL     1      -7.030   9.118  70.638  1.00  0.00    -0.090 A  
HETATM    7  C   UNL     1      -7.529   7.212  69.250  1.00  0.00    -0.093 A  
HETATM    8  C   UNL     1      -8.043   9.830  69.999  1.00  0.00    -0.203 A  
HETATM    9  C   UNL     1     -10.615   9.426  67.368  1.00  0.00    -0.326 A  
HETATM   10  C   UNL     1      -9.815   9.991  68.354  1.00  0.00    -0.169 A  
HETATM   11  C   UNL     1      -8.603   7.884  68.618  1.00  0.00    -0.128 A  
HETATM   12  C   UNL     1      -8.820   9.238  68.989  1.00  0.00    -0.136 A  
ENDBRANCH   2   3
BRANCH   2  13
HETATM   13  N   UNL     1     -10.087   4.932  68.298  1.00  0.00    -0.114 NA 
HETATM   14  H   UNL     1      -9.437   4.254  68.694  1.00  0.00     0.000 HD 
BRANCH  13  15
HETATM   15  C   UNL     1     -10.776   5.657  69.360  1.00  0.00    -0.295 C  
BRANCH  15  16
HETATM   16  C   UNL     1     -10.229   5.248  70.726  1.00  0.00    -0.317 C  
BRANCH  16  17
HETATM   17  C   UNL     1     -10.162   6.468  71.649  1.00  0.00    -0.216 C  
BRANCH  17  18
HETATM   18  C   UNL     1     -11.448   7.250  71.613  1.00  0.00    -0.297 A  
HETATM   19  C   UNL     1     -12.616   9.379  71.397  1.00  0.00    -0.430 A  
HETATM   20  C   UNL     1     -12.599  10.870  71.174  1.00  0.00    -0.428 C  
HETATM   21  C   UNL     1     -11.429   8.631  71.373  1.00  0.00    -0.352 A  
HETATM   22  C   UNL     1     -13.853   7.346  71.891  1.00  0.00    -0.352 A  
HETATM   23  F   UNL     1     -11.355  11.375  70.937  1.00  0.00    -0.138 F  
HETATM   24  F   UNL     1     -13.360  11.249  70.109  1.00  0.00     0.061 F  
HETATM   25  F   UNL     1     -13.082  11.563  72.243  1.00  0.00    -0.587 F  
HETATM   26  C   UNL     1     -13.829   8.722  71.655  1.00  0.00    -0.443 A  
HETATM   27  C   UNL     1     -12.667   6.617  71.873  1.00  0.00    -0.260 A  
ENDBRANCH  17  18
ENDBRANCH  16  17
ENDBRANCH  15  16
ENDBRANCH  13  15
ENDBRANCH   2  13
TORSDOF 6
ENDMDL
MODEL      277
REMARK 921   NORMALIZED FREE ENERGY PREDICTED BY IDOCK:   -3.41 KCAL/MOL
REMARK 922        TOTAL FREE ENERGY PREDICTED BY IDOCK:   -7.73 KCAL/MOL
REMARK 923 INTER-LIGAND FREE ENERGY PREDICTED BY IDOCK:   -7.12 KCAL/MOL
REMARK 924 INTRA-LIGAND FREE ENERGY PREDICTED BY IDOCK:   -0.61 KCAL/MOL
REMARK 927      BINDING AFFINITY PREDICTED BY RF-SCORE:    0.00 PKD
ROOT
HETATM    1  C   UNL     1      -9.986  15.662  69.493  1.00  0.00    -0.285 C  
HETATM    2  C   UNL     1      -8.701  16.465  69.224  1.00  0.00    -0.108 C  
ENDROOT
BRANCH   2   3
HETATM    3  C   UNL     1      -8.890  17.650  68.271  1.00  0.00    -0.276 A  
HETATM    4  C   UNL     1      -5.779  19.765  68.760  1.00  0.00    -0.252 A  
HETATM    5  C   UNL     1     -10.068  17.740  67.502  1.00  0.00    -0.340 A  
HETATM    6  C   UNL     1      -6.121  20.892  68.029  1.00  0.00    -0.389 A  
HETATM    7  C   UNL     1      -6.659  18.680  68.820  1.00  0.00    -0.281 A  
HETATM    8  C   UNL     1      -7.324  20.917  67.327  1.00  0.00    -0.378 A  
HETATM    9  C   UNL     1     -10.319  18.838  66.687  1.00  0.00    -0.472 A  
HETATM   10  C   UNL     1      -9.407  19.885  66.641  1.00  0.00    -0.500 A  
HETATM   11  C   UNL     1      -7.916  18.692  68.169  1.00  0.00    -0.312 A  
HETATM   12  C   UNL     1      -8.216  19.833  67.376  1.00  0.00    -0.342 A  
ENDBRANCH   2   3
BRANCH   2  13
HETATM   13  N   UNL     1      -7.553  15.609  68.879  1.00  0.00    -0.158 NA 
HETATM   14  H   UNL     1      -6.822  15.693  69.586  1.00  0.00     0.000 HD 
BRANCH  13  15
HETATM   15  C   UNL     1      -7.889  14.206  68.660  1.00  0.00    -0.137 C  
BRANCH  15  16
HETATM   16  C   UNL     1      -7.223  13.691  67.386  1.00  0.00    -0.108 C  
BRANCH  16  17
HETATM   17  C   UNL     1      -7.063  12.170  67.458  1.00  0.00    -0.135 C  
BRANCH  17  18
HETATM   18  C   UNL     1      -8.328  11.468  67.042  1.00  0.00    -0.165 A  
HETATM   19  C   UNL     1     -10.442  11.475  65.827  1.00  0.00    -0.308 A  
HETATM   20  C   UNL     1     -11.434  12.159  64.920  1.00  0.00    -0.325 C  
HETATM   21  C   UNL     1      -9.231  12.096  66.173  1.00  0.00    -0.155 A  
HETATM   22  C   UNL     1      -9.834   9.578  67.219  1.00  0.00    -0.228 A  
HETATM   23  F   UNL     1     -11.022  13.383  64.483  1.00  0.00    -0.319 F  
HETATM   24  F   UNL     1     -11.701  11.436  63.797  1.00  0.00    -0.465 F  
HETATM   25  F   UNL     1     -12.636  12.367  65.526  1.00  0.00    -0.484 F  
HETATM   26  C   UNL     1     -10.732  10.209  66.356  1.00  0.00    -0.077 A  
HETATM   27  C   UNL     1      -8.640  10.208  67.562  1.00  0.00    -0.118 A  
ENDBRANCH  17  18
ENDBRANCH  16  17
ENDBRANCH  15  16
ENDBRANCH  13  15
ENDBRANCH   2  13
TORSDOF 6
ENDMDL
MODEL      278
REMARK 921   NORMALIZED FREE ENERGY PREDICTED BY IDOCK:   -3.40 KCAL/MOL
REMARK 922        TOTAL FREE ENERGY PREDICTED BY IDOCK:   -7.72 KCAL/MOL
REMARK 923 INTER-LIGAND FREE ENERGY PREDICTED BY IDOCK:   -6.77 KCAL/MOL
REMARK 924 INTRA-LIGAND FREE ENERGY PREDICTED BY IDOCK:   -0.95 KCAL/MOL
REMARK 927      BINDING AFFINITY PREDICTED BY RF-SCORE:    0.00 PKD
ROOT
HETATM    1  C   UNL     1      -6.979  10.792  69.508  1.00  0.00    -0.130 C  
HETATM    2  C   UNL     1      -8.371  11.109  68.934  1.00  0.00    -0.099 C  
ENDROOT
BRANCH   2   3
HETATM    3  C   UNL     1      -8.821  10.160  67.819  1.00  0.00    -0.125 A  
HETATM    4  C   UNL     1     -10.744   7.429  69.616  1.00  0.00    -0.245 A  
HETATM    5  C   UNL     1      -8.450  10.431  66.486  1.00  0.00    -0.132 A  
HETATM    6  C   UNL     1     -10.934   6.528  68.580  1.00  0.00    -0.360 A  
HETATM    7  C   UNL     1     -10.085   8.638  69.376  1.00  0.00    -0.204 A  
HETATM    8  C   UNL     1     -10.501   6.855  67.297  1.00  0.00    -0.357 A  
HETATM    9  C   UNL     1      -8.764   9.554  65.453  1.00  0.00    -0.190 A  
HETATM   10  C   UNL     1      -9.439   8.373  65.734  1.00  0.00    -0.088 A  
HETATM   11  C   UNL     1      -9.579   8.980  68.099  1.00  0.00    -0.164 A  
HETATM   12  C   UNL     1      -9.842   8.068  67.040  1.00  0.00    -0.295 A  
ENDBRANCH   2   3
BRANCH   2  13
HETATM   13  N   UNL     1      -8.541  12.534  68.599  1.00  0.00    -0.362 NA 
HETATM   14  H   UNL     1      -8.004  12.769  67.764  1.00  0.00     0.000 HD 
BRANCH  13  15
HETATM   15  C   UNL     1      -9.929  12.958  68.448  1.00  0.00    -0.211 C  
BRANCH  15  16
HETATM   16  C   UNL     1     -10.073  13.893  67.249  1.00  0.00    -0.242 C  
BRANCH  16  17
HETATM   17  C   UNL     1      -8.730  14.559  66.940  1.00  0.00    -0.237 C  
BRANCH  17  18
HETATM   18  C   UNL     1      -8.740  16.014  67.325  1.00  0.00    -0.204 A  
HETATM   19  C   UNL     1      -9.528  18.290  66.947  1.00  0.00    -0.290 A  
HETATM   20  C   UNL     1     -10.378  19.277  66.186  1.00  0.00    -0.494 C  
HETATM   21  C   UNL     1      -9.556  16.921  66.635  1.00  0.00    -0.282 A  
HETATM   22  C   UNL     1      -7.866  17.837  68.661  1.00  0.00    -0.278 A  
HETATM   23  F   UNL     1     -11.152  18.703  65.221  1.00  0.00    -0.383 F  
HETATM   24  F   UNL     1     -11.237  19.959  66.993  1.00  0.00    -0.506 F  
HETATM   25  F   UNL     1      -9.633  20.223  65.549  1.00  0.00    -0.384 F  
HETATM   26  C   UNL     1      -8.678  18.737  67.969  1.00  0.00    -0.324 A  
HETATM   27  C   UNL     1      -7.896  16.483  68.336  1.00  0.00    -0.187 A  
ENDBRANCH  17  18
ENDBRANCH  16  17
ENDBRANCH  15  16
ENDBRANCH  13  15
ENDBRANCH   2  13
TORSDOF 6
ENDMDL
MODEL      279
REMARK 921   NORMALIZED FREE ENERGY PREDICTED BY IDOCK:   -3.39 KCAL/MOL
REMARK 922        TOTAL FREE ENERGY PREDICTED BY IDOCK:   -7.71 KCAL/MOL
REMARK 923 INTER-LIGAND FREE ENERGY PREDICTED BY IDOCK:   -5.50 KCAL/MOL
REMARK 924 INTRA-LIGAND FREE ENERGY PREDICTED BY IDOCK:   -2.21 KCAL/MOL
REMARK 927      BINDING AFFINITY PREDICTED BY RF-SCORE:    0.00 PKD
ROOT
HETATM    1  C   UNL     1      -5.684  17.317  67.392  1.00  0.00    -0.159 C  
HETATM    2  C   UNL     1      -6.989  16.683  67.904  1.00  0.00    -0.144 C  
ENDROOT
BRANCH   2   3
HETATM    3  C   UNL     1      -8.261  17.381  67.411  1.00  0.00    -0.212 A  
HETATM    4  C   UNL     1      -9.952  14.814  65.188  1.00  0.00    -0.279 A  
HETATM    5  C   UNL     1      -8.519  18.710  67.805  1.00  0.00    -0.293 A  
HETATM    6  C   UNL     1     -10.964  15.584  64.636  1.00  0.00    -0.341 A  
HETATM    7  C   UNL     1      -9.080  15.378  66.125  1.00  0.00    -0.339 A  
HETATM    8  C   UNL     1     -11.127  16.904  65.050  1.00  0.00     0.004 A  
HETATM    9  C   UNL     1      -9.616  19.411  67.316  1.00  0.00    -0.415 A  
HETATM   10  C   UNL     1     -10.469  18.805  66.402  1.00  0.00    -0.485 A  
HETATM   11  C   UNL     1      -9.178  16.732  66.527  1.00  0.00    -0.294 A  
HETATM   12  C   UNL     1     -10.261  17.482  65.994  1.00  0.00    -0.306 A  
ENDBRANCH   2   3
BRANCH   2  13
HETATM   13  N   UNL     1      -6.976  16.440  69.357  1.00  0.00    -0.223 NA 
HETATM   14  H   UNL     1      -7.888  16.653  69.761  1.00  0.00     0.000 HD 
BRANCH  13  15
HETATM   15  C   UNL     1      -6.551  15.098  69.741  1.00  0.00    -0.177 C  
BRANCH  15  16
HETATM   16  C   UNL     1      -6.917  14.090  68.654  1.00  0.00    -0.106 C  
BRANCH  16  17
HETATM   17  C   UNL     1      -7.648  12.895  69.272  1.00  0.00     0.383 C  
BRANCH  17  18
HETATM   18  C   UNL     1      -8.866  12.526  68.469  1.00  0.00    -0.046 A  
HETATM   19  C   UNL     1      -9.855  11.579  66.452  1.00  0.00    -0.233 A  
HETATM   20  C   UNL     1      -9.712  10.908  65.109  1.00  0.00    -0.262 C  
HETATM   21  C   UNL     1      -8.729  11.873  67.236  1.00  0.00    -0.171 A  
HETATM   22  C   UNL     1     -11.268  12.586  68.153  1.00  0.00    -0.312 A  
HETATM   23  F   UNL     1      -8.422  10.618  64.776  1.00  0.00    -0.171 F  
HETATM   24  F   UNL     1     -10.386   9.726  65.040  1.00  0.00    -0.338 F  
HETATM   25  F   UNL     1     -10.194  11.673  64.090  1.00  0.00    -0.269 F  
HETATM   26  C   UNL     1     -11.126  11.939  66.924  1.00  0.00    -0.356 A  
HETATM   27  C   UNL     1     -10.142  12.880  68.918  1.00  0.00     0.043 A  
ENDBRANCH  17  18
ENDBRANCH  16  17
ENDBRANCH  15  16
ENDBRANCH  13  15
ENDBRANCH   2  13
TORSDOF 6
ENDMDL
MODEL      280
REMARK 921   NORMALIZED FREE ENERGY PREDICTED BY IDOCK:   -3.38 KCAL/MOL
REMARK 922        TOTAL FREE ENERGY PREDICTED BY IDOCK:   -7.70 KCAL/MOL
REMARK 923 INTER-LIGAND FREE ENERGY PREDICTED BY IDOCK:   -7.17 KCAL/MOL
REMARK 924 INTRA-LIGAND FREE ENERGY PREDICTED BY IDOCK:   -0.53 KCAL/MOL
REMARK 927      BINDING AFFINITY PREDICTED BY RF-SCORE:    0.00 PKD
ROOT
HETATM    1  C   UNL     1     -12.488  12.424  63.817  1.00  0.00    -0.593 C  
HETATM    2  C   UNL     1     -11.404  12.287  64.901  1.00  0.00    -0.325 C  
ENDROOT
BRANCH   2   3
HETATM    3  C   UNL     1     -11.118  13.582  65.668  1.00  0.00    -0.299 A  
HETATM    4  C   UNL     1     -12.097  12.799  69.248  1.00  0.00    -0.224 A  
HETATM    5  C   UNL     1     -10.630  14.707  64.972  1.00  0.00    -0.461 A  
HETATM    6  C   UNL     1     -12.001  14.058  69.818  1.00  0.00    -0.393 A  
HETATM    7  C   UNL     1     -11.778  12.619  67.898  1.00  0.00    -0.412 A  
HETATM    8  C   UNL     1     -11.548  15.128  69.050  1.00  0.00    -0.350 A  
HETATM    9  C   UNL     1     -10.436  15.927  65.612  1.00  0.00    -0.411 A  
HETATM   10  C   UNL     1     -10.747  16.055  66.959  1.00  0.00    -0.277 A  
HETATM   11  C   UNL     1     -11.370  13.693  67.071  1.00  0.00    -0.344 A  
HETATM   12  C   UNL     1     -11.220  14.961  67.695  1.00  0.00    -0.330 A  
ENDBRANCH   2   3
BRANCH   2  13
HETATM   13  N   UNL     1     -10.189  11.611  64.413  1.00  0.00    -0.280 NA 
HETATM   14  H   UNL     1      -9.362  12.169  64.626  1.00  0.00     0.000 HD 
BRANCH  13  15
HETATM   15  C   UNL     1     -10.021  10.246  64.899  1.00  0.00    -0.323 C  
BRANCH  15  16
HETATM   16  C   UNL     1      -8.539   9.880  64.961  1.00  0.00    -0.174 C  
BRANCH  16  17
HETATM   17  C   UNL     1      -8.187   9.356  66.356  1.00  0.00    -0.111 C  
BRANCH  17  18
HETATM   18  C   UNL     1      -9.011   8.146  66.707  1.00  0.00    -0.172 A  
HETATM   19  C   UNL     1      -9.390   5.741  66.571  1.00  0.00    -0.162 A  
HETATM   20  C   UNL     1      -8.971   4.369  66.106  1.00  0.00    -0.121 C  
HETATM   21  C   UNL     1      -8.599   6.869  66.300  1.00  0.00    -0.138 A  
HETATM   22  C   UNL     1     -11.010   7.177  67.676  1.00  0.00    -0.226 A  
HETATM   23  F   UNL     1      -7.780   4.356  65.443  1.00  0.00    -0.081 F  
HETATM   24  F   UNL     1      -8.831   3.488  67.135  1.00  0.00    -0.103 F  
HETATM   25  F   UNL     1      -9.875   3.809  65.254  1.00  0.00    -0.165 F  
HETATM   26  C   UNL     1     -10.597   5.908  67.265  1.00  0.00    -0.365 A  
HETATM   27  C   UNL     1     -10.220   8.290  67.394  1.00  0.00    -0.326 A  
ENDBRANCH  17  18
ENDBRANCH  16  17
ENDBRANCH  15  16
ENDBRANCH  13  15
ENDBRANCH   2  13
TORSDOF 6
ENDMDL
MODEL      281
REMARK 921   NORMALIZED FREE ENERGY PREDICTED BY IDOCK:   -3.37 KCAL/MOL
REMARK 922        TOTAL FREE ENERGY PREDICTED BY IDOCK:   -7.68 KCAL/MOL
REMARK 923 INTER-LIGAND FREE ENERGY PREDICTED BY IDOCK:   -5.26 KCAL/MOL
REMARK 924 INTRA-LIGAND FREE ENERGY PREDICTED BY IDOCK:   -2.43 KCAL/MOL
REMARK 927      BINDING AFFINITY PREDICTED BY RF-SCORE:    0.00 PKD
ROOT
HETATM    1  C   UNL     1      -9.622   7.001  74.223  1.00  0.00    -0.265 C  
HETATM    2  C   UNL     1     -10.480   6.878  72.952  1.00  0.00    -0.244 C  
ENDROOT
BRANCH   2   3
HETATM    3  C   UNL     1      -9.735   6.301  71.745  1.00  0.00    -0.168 A  
HETATM    4  C   UNL     1      -7.334   9.048  70.709  1.00  0.00    -0.109 A  
HETATM    5  C   UNL     1     -10.066   5.013  71.277  1.00  0.00    -0.276 A  
HETATM    6  C   UNL     1      -6.857   8.532  69.514  1.00  0.00    -0.044 A  
HETATM    7  C   UNL     1      -8.250   8.315  71.469  1.00  0.00    -0.164 A  
HETATM    8  C   UNL     1      -7.266   7.266  69.101  1.00  0.00    -0.085 A  
HETATM    9  C   UNL     1      -9.475   4.482  70.135  1.00  0.00    -0.237 A  
HETATM   10  C   UNL     1      -8.554   5.238  69.421  1.00  0.00    -0.102 A  
HETATM   11  C   UNL     1      -8.733   7.051  71.053  1.00  0.00    -0.139 A  
HETATM   12  C   UNL     1      -8.182   6.516  69.857  1.00  0.00    -0.126 A  
ENDBRANCH   2   3
BRANCH   2  13
HETATM   13  N   UNL     1     -11.230   8.110  72.647  1.00  0.00    -0.385 NA 
HETATM   14  H   UNL     1     -10.619   8.797  72.205  1.00  0.00     0.000 HD 
BRANCH  13  15
HETATM   15  C   UNL     1     -12.429   7.904  71.843  1.00  0.00    -0.321 C  
BRANCH  15  16
HETATM   16  C   UNL     1     -12.639   9.077  70.887  1.00  0.00    -0.074 C  
BRANCH  16  17
HETATM   17  C   UNL     1     -11.288   9.671  70.483  1.00  0.00    -0.360 C  
BRANCH  17  18
HETATM   18  C   UNL     1     -10.896   9.241  69.095  1.00  0.00    -0.154 A  
HETATM   19  C   UNL     1     -10.183   9.808  66.834  1.00  0.00    -0.310 A  
HETATM   20  C   UNL     1      -9.781  10.831  65.800  1.00  0.00    -0.228 C  
HETATM   21  C   UNL     1     -10.492  10.192  68.148  1.00  0.00    -0.243 A  
HETATM   22  C   UNL     1     -10.672   7.502  67.422  1.00  0.00    -0.331 A  
HETATM   23  F   UNL     1      -9.737  12.107  66.280  1.00  0.00    -0.215 F  
HETATM   24  F   UNL     1      -8.546  10.589  65.278  1.00  0.00    -0.157 F  
HETATM   25  F   UNL     1     -10.636  10.864  64.740  1.00  0.00    -0.368 F  
HETATM   26  C   UNL     1     -10.274   8.454  66.481  1.00  0.00    -0.277 A  
HETATM   27  C   UNL     1     -10.985   7.896  68.721  1.00  0.00     0.127 A  
ENDBRANCH  17  18
ENDBRANCH  16  17
ENDBRANCH  15  16
ENDBRANCH  13  15
ENDBRANCH   2  13
TORSDOF 6
ENDMDL
MODEL      282
REMARK 921   NORMALIZED FREE ENERGY PREDICTED BY IDOCK:   -3.37 KCAL/MOL
REMARK 922        TOTAL FREE ENERGY PREDICTED BY IDOCK:   -7.68 KCAL/MOL
REMARK 923 INTER-LIGAND FREE ENERGY PREDICTED BY IDOCK:   -6.73 KCAL/MOL
REMARK 924 INTRA-LIGAND FREE ENERGY PREDICTED BY IDOCK:   -0.94 KCAL/MOL
REMARK 927      BINDING AFFINITY PREDICTED BY RF-SCORE:    0.00 PKD
ROOT
HETATM    1  C   UNL     1      -7.883   8.472  67.237  1.00  0.00    -0.098 C  
HETATM    2  C   UNL     1      -9.098   8.523  66.293  1.00  0.00    -0.185 C  
ENDROOT
BRANCH   2   3
HETATM    3  C   UNL     1      -9.808   9.879  66.257  1.00  0.00    -0.308 A  
HETATM    4  C   UNL     1     -10.991  10.427  69.819  1.00  0.00    -0.345 A  
HETATM    5  C   UNL     1      -9.907  10.577  65.036  1.00  0.00    -0.369 A  
HETATM    6  C   UNL     1     -11.781  11.553  69.653  1.00  0.00    -0.419 A  
HETATM    7  C   UNL     1     -10.309   9.887  68.724  1.00  0.00    -0.222 A  
HETATM    8  C   UNL     1     -11.858  12.162  68.403  1.00  0.00    -0.360 A  
HETATM    9  C   UNL     1     -10.614  11.771  64.938  1.00  0.00    -0.344 A  
HETATM   10  C   UNL     1     -11.259  12.283  66.057  1.00  0.00    -0.375 A  
HETATM   11  C   UNL     1     -10.410  10.443  67.426  1.00  0.00    -0.275 A  
HETATM   12  C   UNL     1     -11.176  11.633  67.295  1.00  0.00    -0.365 A  
ENDBRANCH   2   3
BRANCH   2  13
HETATM   13  N   UNL     1     -10.013   7.383  66.478  1.00  0.00    -0.421 NA 
HETATM   14  H   UNL     1     -10.344   7.043  65.574  1.00  0.00     0.000 HD 
BRANCH  13  15
HETATM   15  C   UNL     1      -9.461   6.285  67.264  1.00  0.00    -0.119 C  
BRANCH  15  16
HETATM   16  C   UNL     1     -10.443   5.862  68.354  1.00  0.00    -0.294 C  
BRANCH  16  17
HETATM   17  C   UNL     1      -9.874   4.678  69.141  1.00  0.00    -0.242 C  
BRANCH  17  18
HETATM   18  C   UNL     1      -9.337   5.119  70.476  1.00  0.00    -0.210 A  
HETATM   19  C   UNL     1      -9.464   6.585  72.420  1.00  0.00    -0.147 A  
HETATM   20  C   UNL     1     -10.142   7.690  73.190  1.00  0.00    -0.323 C  
HETATM   21  C   UNL     1      -9.990   6.125  71.203  1.00  0.00    -0.218 A  
HETATM   22  C   UNL     1      -7.627   5.011  72.189  1.00  0.00    -0.094 A  
HETATM   23  F   UNL     1     -11.281   8.150  72.600  1.00  0.00    -0.368 F  
HETATM   24  F   UNL     1     -10.505   7.306  74.446  1.00  0.00    -0.268 F  
HETATM   25  F   UNL     1      -9.341   8.781  73.350  1.00  0.00    -0.165 F  
HETATM   26  C   UNL     1      -8.278   6.015  72.907  1.00  0.00    -0.117 A  
HETATM   27  C   UNL     1      -8.154   4.569  70.978  1.00  0.00    -0.081 A  
ENDBRANCH  17  18
ENDBRANCH  16  17
ENDBRANCH  15  16
ENDBRANCH  13  15
ENDBRANCH   2  13
TORSDOF 6
ENDMDL
MODEL      283
REMARK 921   NORMALIZED FREE ENERGY PREDICTED BY IDOCK:   -3.37 KCAL/MOL
REMARK 922        TOTAL FREE ENERGY PREDICTED BY IDOCK:   -7.68 KCAL/MOL
REMARK 923 INTER-LIGAND FREE ENERGY PREDICTED BY IDOCK:   -6.64 KCAL/MOL
REMARK 924 INTRA-LIGAND FREE ENERGY PREDICTED BY IDOCK:   -1.04 KCAL/MOL
REMARK 927      BINDING AFFINITY PREDICTED BY RF-SCORE:    0.00 PKD
ROOT
HETATM    1  C   UNL     1     -12.562  10.241  70.348  1.00  0.00    -0.277 C  
HETATM    2  C   UNL     1     -11.506  10.818  69.388  1.00  0.00    -0.295 C  
ENDROOT
BRANCH   2   3
HETATM    3  C   UNL     1     -10.212  10.003  69.317  1.00  0.00    -0.229 A  
HETATM    4  C   UNL     1      -9.764   9.255  65.625  1.00  0.00    -0.302 A  
HETATM    5  C   UNL     1      -9.523   9.689  70.507  1.00  0.00    -0.243 A  
HETATM    6  C   UNL     1      -8.705   8.362  65.673  1.00  0.00    -0.204 A  
HETATM    7  C   UNL     1     -10.246   9.829  66.805  1.00  0.00    -0.300 A  
HETATM    8  C   UNL     1      -8.104   8.074  66.897  1.00  0.00    -0.108 A  
HETATM    9  C   UNL     1      -8.391   8.881  70.498  1.00  0.00    -0.177 A  
HETATM   10  C   UNL     1      -7.934   8.349  69.299  1.00  0.00    -0.113 A  
HETATM   11  C   UNL     1      -9.699   9.516  68.073  1.00  0.00    -0.168 A  
HETATM   12  C   UNL     1      -8.576   8.646  68.090  1.00  0.00    -0.141 A  
ENDBRANCH   2   3
BRANCH   2  13
HETATM   13  N   UNL     1     -11.283  12.262  69.584  1.00  0.00    -0.479 NA 
HETATM   14  H   UNL     1     -10.566  12.417  70.293  1.00  0.00     0.000 HD 
BRANCH  13  15
HETATM   15  C   UNL     1     -10.960  12.994  68.364  1.00  0.00    -0.262 C  
BRANCH  15  16
HETATM   16  C   UNL     1      -9.469  13.324  68.319  1.00  0.00    -0.209 C  
BRANCH  16  17
HETATM   17  C   UNL     1      -9.114  13.955  66.970  1.00  0.00    -0.259 C  
BRANCH  17  18
HETATM   18  C   UNL     1      -8.583  15.352  67.145  1.00  0.00    -0.235 A  
HETATM   19  C   UNL     1      -8.984  17.742  67.413  1.00  0.00    -0.240 A  
HETATM   20  C   UNL     1      -9.930  18.908  67.556  1.00  0.00    -0.345 C  
HETATM   21  C   UNL     1      -9.466  16.428  67.310  1.00  0.00    -0.231 A  
HETATM   22  C   UNL     1      -6.716  16.896  67.200  1.00  0.00    -0.221 A  
HETATM   23  F   UNL     1     -11.244  18.545  67.591  1.00  0.00    -0.370 F  
HETATM   24  F   UNL     1      -9.713  19.622  68.696  1.00  0.00    -0.396 F  
HETATM   25  F   UNL     1      -9.819  19.798  66.531  1.00  0.00    -0.390 F  
HETATM   26  C   UNL     1      -7.600  17.964  67.360  1.00  0.00    -0.217 A  
HETATM   27  C   UNL     1      -7.207  15.597  67.089  1.00  0.00    -0.230 A  
ENDBRANCH  17  18
ENDBRANCH  16  17
ENDBRANCH  15  16
ENDBRANCH  13  15
ENDBRANCH   2  13
TORSDOF 6
ENDMDL
MODEL      284
REMARK 921   NORMALIZED FREE ENERGY PREDICTED BY IDOCK:   -3.36 KCAL/MOL
REMARK 922        TOTAL FREE ENERGY PREDICTED BY IDOCK:   -7.67 KCAL/MOL
REMARK 923 INTER-LIGAND FREE ENERGY PREDICTED BY IDOCK:   -7.07 KCAL/MOL
REMARK 924 INTRA-LIGAND FREE ENERGY PREDICTED BY IDOCK:   -0.59 KCAL/MOL
REMARK 927      BINDING AFFINITY PREDICTED BY RF-SCORE:    0.00 PKD
ROOT
HETATM    1  C   UNL     1     -11.752  11.190  69.238  1.00  0.00    -0.401 C  
HETATM    2  C   UNL     1     -10.721  10.416  68.397  1.00  0.00    -0.225 C  
ENDROOT
BRANCH   2   3
HETATM    3  C   UNL     1     -10.829   8.894  68.519  1.00  0.00    -0.038 A  
HETATM    4  C   UNL     1     -10.916   8.244  72.255  1.00  0.00    -0.418 A  
HETATM    5  C   UNL     1     -10.840   8.104  67.351  1.00  0.00    -0.125 A  
HETATM    6  C   UNL     1     -10.810   6.863  72.275  1.00  0.00    -0.262 A  
HETATM    7  C   UNL     1     -10.959   8.922  71.032  1.00  0.00    -0.341 A  
HETATM    8  C   UNL     1     -10.787   6.157  71.074  1.00  0.00    -0.338 A  
HETATM    9  C   UNL     1     -10.853   6.714  67.415  1.00  0.00    -0.434 A  
HETATM   10  C   UNL     1     -10.830   6.082  68.652  1.00  0.00    -0.379 A  
HETATM   11  C   UNL     1     -10.879   8.245  69.792  1.00  0.00    -0.186 A  
HETATM   12  C   UNL     1     -10.834   6.825  69.839  1.00  0.00    -0.310 A  
ENDBRANCH   2   3
BRANCH   2  13
HETATM   13  N   UNL     1      -9.349  10.925  68.564  1.00  0.00    -0.174 NA 
HETATM   14  H   UNL     1      -8.804  10.291  69.149  1.00  0.00     0.000 HD 
BRANCH  13  15
HETATM   15  C   UNL     1      -8.647  11.193  67.314  1.00  0.00    -0.140 C  
BRANCH  15  16
HETATM   16  C   UNL     1      -8.585  12.696  67.048  1.00  0.00    -0.181 C  
BRANCH  16  17
HETATM   17  C   UNL     1      -8.141  13.434  68.314  1.00  0.00    -0.152 C  
BRANCH  17  18
HETATM   18  C   UNL     1      -9.019  14.626  68.586  1.00  0.00    -0.184 A  
HETATM   19  C   UNL     1     -10.782  15.692  69.890  1.00  0.00    -0.328 A  
HETATM   20  C   UNL     1     -11.774  15.668  71.025  1.00  0.00    -0.403 C  
HETATM   21  C   UNL     1      -9.917  14.610  69.663  1.00  0.00     0.117 A  
HETATM   22  C   UNL     1      -9.834  16.818  67.956  1.00  0.00    -0.265 A  
HETATM   23  F   UNL     1     -11.716  14.533  71.779  1.00  0.00    -0.386 F  
HETATM   24  F   UNL     1     -11.597  16.700  71.896  1.00  0.00    -0.511 F  
HETATM   25  F   UNL     1     -13.063  15.760  70.593  1.00  0.00    -0.501 F  
HETATM   26  C   UNL     1     -10.729  16.797  69.027  1.00  0.00    -0.331 A  
HETATM   27  C   UNL     1      -8.987  15.735  67.736  1.00  0.00    -0.176 A  
ENDBRANCH  17  18
ENDBRANCH  16  17
ENDBRANCH  15  16
ENDBRANCH  13  15
ENDBRANCH   2  13
TORSDOF 6
ENDMDL
MODEL      285
REMARK 921   NORMALIZED FREE ENERGY PREDICTED BY IDOCK:   -3.35 KCAL/MOL
REMARK 922        TOTAL FREE ENERGY PREDICTED BY IDOCK:   -7.65 KCAL/MOL
REMARK 923 INTER-LIGAND FREE ENERGY PREDICTED BY IDOCK:   -6.81 KCAL/MOL
REMARK 924 INTRA-LIGAND FREE ENERGY PREDICTED BY IDOCK:   -0.84 KCAL/MOL
REMARK 927      BINDING AFFINITY PREDICTED BY RF-SCORE:    0.00 PKD
ROOT
HETATM    1  C   UNL     1     -10.991   6.291  67.031  1.00  0.00    -0.442 C  
HETATM    2  C   UNL     1      -9.885   6.701  68.018  1.00  0.00    -0.131 C  
ENDROOT
BRANCH   2   3
HETATM    3  C   UNL     1     -10.291   6.603  69.492  1.00  0.00    -0.232 A  
HETATM    4  C   UNL     1     -11.692  10.029  70.320  1.00  0.00    -0.327 A  
HETATM    5  C   UNL     1     -10.064   5.402  70.195  1.00  0.00    -0.322 A  
HETATM    6  C   UNL     1     -11.842   9.917  71.693  1.00  0.00    -0.374 A  
HETATM    7  C   UNL     1     -11.219   8.942  69.579  1.00  0.00     0.087 A  
HETATM    8  C   UNL     1     -11.557   8.706  72.319  1.00  0.00    -0.424 A  
HETATM    9  C   UNL     1     -10.340   5.295  71.554  1.00  0.00    -0.287 A  
HETATM   10  C   UNL     1     -10.828   6.395  72.247  1.00  0.00    -0.272 A  
HETATM   11  C   UNL     1     -10.863   7.714  70.188  1.00  0.00    -0.255 A  
HETATM   12  C   UNL     1     -11.085   7.604  71.587  1.00  0.00    -0.274 A  
ENDBRANCH   2   3
BRANCH   2  13
HETATM   13  N   UNL     1      -9.251   7.984  67.666  1.00  0.00    -0.133 NA 
HETATM   14  H   UNL     1      -8.311   8.036  68.060  1.00  0.00     0.000 HD 
BRANCH  13  15
HETATM   15  C   UNL     1      -9.219   8.269  66.236  1.00  0.00    -0.203 C  
BRANCH  15  16
HETATM   16  C   UNL     1      -9.708   9.690  65.965  1.00  0.00    -0.331 C  
BRANCH  16  17
HETATM   17  C   UNL     1      -9.264  10.622  67.095  1.00  0.00    -0.161 C  
BRANCH  17  18
HETATM   18  C   UNL     1     -10.009  11.929  67.050  1.00  0.00    -0.219 A  
HETATM   19  C   UNL     1     -10.008  14.349  66.753  1.00  0.00    -0.265 A  
HETATM   20  C   UNL     1      -9.280  15.635  66.453  1.00  0.00    -0.311 C  
HETATM   21  C   UNL     1      -9.334  13.117  66.739  1.00  0.00    -0.244 A  
HETATM   22  C   UNL     1     -12.051  13.192  67.379  1.00  0.00    -0.316 A  
HETATM   23  F   UNL     1      -7.959  15.462  66.162  1.00  0.00    -0.088 F  
HETATM   24  F   UNL     1      -9.810  16.301  65.389  1.00  0.00    -0.322 F  
HETATM   25  F   UNL     1      -9.317  16.510  67.497  1.00  0.00    -0.212 F  
HETATM   26  C   UNL     1     -11.373  14.373  67.073  1.00  0.00    -0.357 A  
HETATM   27  C   UNL     1     -11.369  11.977  67.371  1.00  0.00    -0.393 A  
ENDBRANCH  17  18
ENDBRANCH  16  17
ENDBRANCH  15  16
ENDBRANCH  13  15
ENDBRANCH   2  13
TORSDOF 6
ENDMDL
MODEL      286
REMARK 921   NORMALIZED FREE ENERGY PREDICTED BY IDOCK:   -3.33 KCAL/MOL
REMARK 922        TOTAL FREE ENERGY PREDICTED BY IDOCK:   -7.62 KCAL/MOL
REMARK 923 INTER-LIGAND FREE ENERGY PREDICTED BY IDOCK:   -6.64 KCAL/MOL
REMARK 924 INTRA-LIGAND FREE ENERGY PREDICTED BY IDOCK:   -0.98 KCAL/MOL
REMARK 927      BINDING AFFINITY PREDICTED BY RF-SCORE:    0.00 PKD
ROOT
HETATM    1  C   UNL     1      -9.301   6.983  67.544  1.00  0.00    -0.134 C  
HETATM    2  C   UNL     1      -9.173   8.494  67.280  1.00  0.00    -0.141 C  
ENDROOT
BRANCH   2   3
HETATM    3  C   UNL     1      -8.220   8.852  66.135  1.00  0.00    -0.116 A  
HETATM    4  C   UNL     1     -10.305  10.996  63.802  1.00  0.00    -0.427 A  
HETATM    5  C   UNL     1      -6.904   8.346  66.145  1.00  0.00    -0.065 A  
HETATM    6  C   UNL     1      -9.446  11.102  62.720  1.00  0.00    -0.357 A  
HETATM    7  C   UNL     1      -9.905  10.292  64.943  1.00  0.00    -0.404 A  
HETATM    8  C   UNL     1      -8.174  10.539  62.794  1.00  0.00    -0.171 A  
HETATM    9  C   UNL     1      -6.031   8.576  65.086  1.00  0.00    -0.048 A  
HETATM   10  C   UNL     1      -6.464   9.299  63.982  1.00  0.00    -0.091 A  
HETATM   11  C   UNL     1      -8.643   9.657  65.032  1.00  0.00    -0.180 A  
HETATM   12  C   UNL     1      -7.757   9.833  63.934  1.00  0.00    -0.136 A  
ENDBRANCH   2   3
BRANCH   2  13
HETATM   13  N   UNL     1      -8.935   9.271  68.509  1.00  0.00    -0.129 NA 
HETATM   14  H   UNL     1      -7.939   9.292  68.729  1.00  0.00     0.000 HD 
BRANCH  13  15
HETATM   15  C   UNL     1      -9.479  10.625  68.483  1.00  0.00    -0.176 C  
BRANCH  15  16
HETATM   16  C   UNL     1     -11.005  10.587  68.518  1.00  0.00    -0.300 C  
BRANCH  16  17
HETATM   17  C   UNL     1     -11.520  11.355  69.738  1.00  0.00    -0.376 C  
BRANCH  17  18
HETATM   18  C   UNL     1     -12.052  10.416  70.788  1.00  0.00    -0.463 A  
HETATM   19  C   UNL     1     -11.759   8.459  72.211  1.00  0.00    -0.453 A  
HETATM   20  C   UNL     1     -10.915   7.315  72.715  1.00  0.00    -0.323 C  
HETATM   21  C   UNL     1     -11.251   9.375  71.277  1.00  0.00    -0.437 A  
HETATM   22  C   UNL     1     -13.881   9.643  72.177  1.00  0.00    -0.319 A  
HETATM   23  F   UNL     1      -9.654   7.294  72.195  1.00  0.00    -0.147 F  
HETATM   24  F   UNL     1     -10.756   7.339  74.068  1.00  0.00    -0.403 F  
HETATM   25  F   UNL     1     -11.456   6.099  72.424  1.00  0.00    -0.291 F  
HETATM   26  C   UNL     1     -13.080   8.605  72.658  1.00  0.00    -0.265 A  
HETATM   27  C   UNL     1     -13.368  10.541  71.244  1.00  0.00    -0.290 A  
ENDBRANCH  17  18
ENDBRANCH  16  17
ENDBRANCH  15  16
ENDBRANCH  13  15
ENDBRANCH   2  13
TORSDOF 6
ENDMDL
MODEL      287
REMARK 921   NORMALIZED FREE ENERGY PREDICTED BY IDOCK:   -3.33 KCAL/MOL
REMARK 922        TOTAL FREE ENERGY PREDICTED BY IDOCK:   -7.62 KCAL/MOL
REMARK 923 INTER-LIGAND FREE ENERGY PREDICTED BY IDOCK:   -7.21 KCAL/MOL
REMARK 924 INTRA-LIGAND FREE ENERGY PREDICTED BY IDOCK:   -0.41 KCAL/MOL
REMARK 927      BINDING AFFINITY PREDICTED BY RF-SCORE:    0.00 PKD
ROOT
HETATM    1  C   UNL     1     -12.801  12.058  63.650  1.00  0.00    -0.472 C  
HETATM    2  C   UNL     1     -11.401  12.043  64.288  1.00  0.00    -0.364 C  
ENDROOT
BRANCH   2   3
HETATM    3  C   UNL     1     -11.120  13.230  65.214  1.00  0.00    -0.306 A  
HETATM    4  C   UNL     1     -11.898  11.926  68.690  1.00  0.00    -0.365 A  
HETATM    5  C   UNL     1     -10.705  14.458  64.660  1.00  0.00    -0.357 A  
HETATM    6  C   UNL     1     -11.816  13.098  69.425  1.00  0.00    -0.383 A  
HETATM    7  C   UNL     1     -11.639  11.946  67.316  1.00  0.00    -0.364 A  
HETATM    8  C   UNL     1     -11.436  14.281  68.794  1.00  0.00    -0.327 A  
HETATM    9  C   UNL     1     -10.520  15.586  65.454  1.00  0.00    -0.429 A  
HETATM   10  C   UNL     1     -10.769  15.516  66.818  1.00  0.00    -0.305 A  
HETATM   11  C   UNL     1     -11.307  13.138  66.629  1.00  0.00    -0.361 A  
HETATM   12  C   UNL     1     -11.169  14.314  67.415  1.00  0.00    -0.330 A  
ENDBRANCH   2   3
BRANCH   2  13
HETATM   13  N   UNL     1     -10.328  11.794  63.308  1.00  0.00    -0.587 NA 
HETATM   14  H   UNL     1      -9.662  12.567  63.306  1.00  0.00     0.000 HD 
BRANCH  13  15
HETATM   15  C   UNL     1      -9.633  10.524  63.484  1.00  0.00    -0.326 C  
BRANCH  15  16
HETATM   16  C   UNL     1      -8.331  10.513  62.685  1.00  0.00    -0.208 C  
BRANCH  16  17
HETATM   17  C   UNL     1      -7.224   9.836  63.497  1.00  0.00    -0.117 C  
BRANCH  17  18
HETATM   18  C   UNL     1      -7.732   8.596  64.183  1.00  0.00    -0.129 A  
HETATM   19  C   UNL     1      -8.911   7.548  66.042  1.00  0.00    -0.179 A  
HETATM   20  C   UNL     1      -9.689   7.651  67.330  1.00  0.00    -0.161 C  
HETATM   21  C   UNL     1      -8.483   8.699  65.362  1.00  0.00    -0.189 A  
HETATM   22  C   UNL     1      -7.840   6.181  64.343  1.00  0.00    -0.114 A  
HETATM   23  F   UNL     1      -9.933   8.934  67.722  1.00  0.00    -0.179 F  
HETATM   24  F   UNL     1     -10.909   7.050  67.253  1.00  0.00    -0.309 F  
HETATM   25  F   UNL     1      -9.047   7.060  68.376  1.00  0.00    -0.129 F  
HETATM   26  C   UNL     1      -8.584   6.289  65.519  1.00  0.00    -0.124 A  
HETATM   27  C   UNL     1      -7.414   7.330  63.682  1.00  0.00    -0.097 A  
ENDBRANCH  17  18
ENDBRANCH  16  17
ENDBRANCH  15  16
ENDBRANCH  13  15
ENDBRANCH   2  13
TORSDOF 6
ENDMDL
MODEL      288
REMARK 921   NORMALIZED FREE ENERGY PREDICTED BY IDOCK:   -3.29 KCAL/MOL
REMARK 922        TOTAL FREE ENERGY PREDICTED BY IDOCK:   -7.58 KCAL/MOL
REMARK 923 INTER-LIGAND FREE ENERGY PREDICTED BY IDOCK:   -7.39 KCAL/MOL
REMARK 924 INTRA-LIGAND FREE ENERGY PREDICTED BY IDOCK:   -0.19 KCAL/MOL
REMARK 927      BINDING AFFINITY PREDICTED BY RF-SCORE:    0.00 PKD
ROOT
HETATM    1  C   UNL     1     -11.688  10.722  69.150  1.00  0.00    -0.368 C  
HETATM    2  C   UNL     1     -10.924  11.766  68.317  1.00  0.00    -0.229 C  
ENDROOT
BRANCH   2   3
HETATM    3  C   UNL     1     -10.588  11.309  66.894  1.00  0.00    -0.300 A  
HETATM    4  C   UNL     1     -12.221  13.899  64.655  1.00  0.00    -0.449 A  
HETATM    5  C   UNL     1      -9.846  10.125  66.703  1.00  0.00    -0.253 A  
HETATM    6  C   UNL     1     -12.044  13.309  63.414  1.00  0.00    -0.508 A  
HETATM    7  C   UNL     1     -11.719  13.275  65.801  1.00  0.00    -0.395 A  
HETATM    8  C   UNL     1     -11.332  12.116  63.315  1.00  0.00    -0.410 A  
HETATM    9  C   UNL     1      -9.589   9.628  65.430  1.00  0.00    -0.361 A  
HETATM   10  C   UNL     1     -10.090  10.292  64.317  1.00  0.00    -0.191 A  
HETATM   11  C   UNL     1     -11.041  12.033  65.747  1.00  0.00    -0.371 A  
HETATM   12  C   UNL     1     -10.819  11.479  64.457  1.00  0.00    -0.390 A  
ENDBRANCH   2   3
BRANCH   2  13
HETATM   13  N   UNL     1      -9.775  12.342  69.037  1.00  0.00    -0.387 NA 
HETATM   14  H   UNL     1      -9.158  11.602  69.373  1.00  0.00     0.000 HD 
BRANCH  13  15
HETATM   15  C   UNL     1      -9.017  13.328  68.274  1.00  0.00    -0.176 C  
BRANCH  15  16
HETATM   16  C   UNL     1      -7.691  13.635  68.968  1.00  0.00     0.087 C  
BRANCH  16  17
HETATM   17  C   UNL     1      -7.732  15.039  69.578  1.00  0.00    -0.168 C  
BRANCH  17  18
HETATM   18  C   UNL     1      -7.585  16.098  68.518  1.00  0.00    -0.170 A  
HETATM   19  C   UNL     1      -7.075  18.398  67.892  1.00  0.00    -0.229 A  
HETATM   20  C   UNL     1      -6.648  19.797  68.261  1.00  0.00    -0.268 C  
HETATM   21  C   UNL     1      -7.157  17.388  68.862  1.00  0.00    -0.251 A  
HETATM   22  C   UNL     1      -7.841  16.813  66.217  1.00  0.00    -0.334 A  
HETATM   23  F   UNL     1      -6.347  19.946  69.582  1.00  0.00    -0.312 F  
HETATM   24  F   UNL     1      -5.539  20.202  67.581  1.00  0.00    -0.183 F  
HETATM   25  F   UNL     1      -7.610  20.723  67.993  1.00  0.00    -0.253 F  
HETATM   26  C   UNL     1      -7.418  18.097  66.565  1.00  0.00    -0.269 A  
HETATM   27  C   UNL     1      -7.927  15.821  67.191  1.00  0.00    -0.250 A  
ENDBRANCH  17  18
ENDBRANCH  16  17
ENDBRANCH  15  16
ENDBRANCH  13  15
ENDBRANCH   2  13
TORSDOF 6
ENDMDL
MODEL      289
REMARK 921   NORMALIZED FREE ENERGY PREDICTED BY IDOCK:   -3.29 KCAL/MOL
REMARK 922        TOTAL FREE ENERGY PREDICTED BY IDOCK:   -7.57 KCAL/MOL
REMARK 923 INTER-LIGAND FREE ENERGY PREDICTED BY IDOCK:   -6.89 KCAL/MOL
REMARK 924 INTRA-LIGAND FREE ENERGY PREDICTED BY IDOCK:   -0.68 KCAL/MOL
REMARK 927      BINDING AFFINITY PREDICTED BY RF-SCORE:    0.00 PKD
ROOT
HETATM    1  C   UNL     1     -11.680  12.570  65.172  1.00  0.00    -0.422 C  
HETATM    2  C   UNL     1     -11.918  12.861  66.664  1.00  0.00    -0.366 C  
ENDROOT
BRANCH   2   3
HETATM    3  C   UNL     1     -11.039  13.979  67.233  1.00  0.00    -0.314 A  
HETATM    4  C   UNL     1     -12.501  14.684  70.661  1.00  0.00    -0.408 A  
HETATM    5  C   UNL     1      -9.988  14.501  66.451  1.00  0.00    -0.304 A  
HETATM    6  C   UNL     1     -11.789  15.820  71.012  1.00  0.00    -0.460 A  
HETATM    7  C   UNL     1     -12.243  14.048  69.443  1.00  0.00    -0.336 A  
HETATM    8  C   UNL     1     -10.793  16.297  70.163  1.00  0.00    -0.299 A  
HETATM    9  C   UNL     1      -9.218  15.571  66.893  1.00  0.00    -0.257 A  
HETATM   10  C   UNL     1      -9.496  16.160  68.120  1.00  0.00    -0.209 A  
HETATM   11  C   UNL     1     -11.279  14.536  68.528  1.00  0.00    -0.285 A  
HETATM   12  C   UNL     1     -10.520  15.666  68.938  1.00  0.00    -0.220 A  
ENDBRANCH   2   3
BRANCH   2  13
HETATM   13  N   UNL     1     -11.928  11.641  67.490  1.00  0.00    -0.621 NA 
HETATM   14  H   UNL     1     -12.656  11.002  67.170  1.00  0.00     0.000 HD 
BRANCH  13  15
HETATM   15  C   UNL     1     -10.644  10.953  67.567  1.00  0.00    -0.230 C  
BRANCH  15  16
HETATM   16  C   UNL     1     -10.273  10.675  69.022  1.00  0.00    -0.231 C  
BRANCH  16  17
HETATM   17  C   UNL     1      -8.790  10.311  69.124  1.00  0.00    -0.182 C  
BRANCH  17  18
HETATM   18  C   UNL     1      -8.540   8.905  68.648  1.00  0.00    -0.133 A  
HETATM   19  C   UNL     1      -9.301   6.605  68.374  1.00  0.00    -0.123 A  
HETATM   20  C   UNL     1     -10.364   5.546  68.523  1.00  0.00    -0.178 C  
HETATM   21  C   UNL     1      -9.544   7.932  68.759  1.00  0.00    -0.152 A  
HETATM   22  C   UNL     1      -7.038   7.231  67.747  1.00  0.00    -0.089 A  
HETATM   23  F   UNL     1     -11.538   6.016  69.033  1.00  0.00    -0.437 F  
HETATM   24  F   UNL     1     -10.686   4.956  67.338  1.00  0.00    -0.178 F  
HETATM   25  F   UNL     1      -9.980   4.534  69.351  1.00  0.00    -0.253 F  
HETATM   26  C   UNL     1      -8.039   6.265  67.864  1.00  0.00    -0.114 A  
HETATM   27  C   UNL     1      -7.288   8.543  68.142  1.00  0.00    -0.092 A  
ENDBRANCH  17  18
ENDBRANCH  16  17
ENDBRANCH  15  16
ENDBRANCH  13  15
ENDBRANCH   2  13
TORSDOF 6
ENDMDL
MODEL      290
REMARK 921   NORMALIZED FREE ENERGY PREDICTED BY IDOCK:   -3.28 KCAL/MOL
REMARK 922        TOTAL FREE ENERGY PREDICTED BY IDOCK:   -7.56 KCAL/MOL
REMARK 923 INTER-LIGAND FREE ENERGY PREDICTED BY IDOCK:   -3.91 KCAL/MOL
REMARK 924 INTRA-LIGAND FREE ENERGY PREDICTED BY IDOCK:   -3.65 KCAL/MOL
REMARK 927      BINDING AFFINITY PREDICTED BY RF-SCORE:    0.00 PKD
ROOT
HETATM    1  C   UNL     1      -6.233  10.125  71.184  1.00  0.00     0.095 C  
HETATM    2  C   UNL     1      -7.379   9.274  70.610  1.00  0.00    -0.123 C  
ENDROOT
BRANCH   2   3
HETATM    3  C   UNL     1      -8.153   8.473  71.662  1.00  0.00    -0.195 A  
HETATM    4  C   UNL     1     -11.289   7.325  69.864  1.00  0.00    -0.145 A  
HETATM    5  C   UNL     1      -7.630   8.355  72.966  1.00  0.00    -0.115 A  
HETATM    6  C   UNL     1     -12.010   6.795  70.923  1.00  0.00    -0.437 A  
HETATM    7  C   UNL     1     -10.010   7.847  70.083  1.00  0.00    -0.190 A  
HETATM    8  C   UNL     1     -11.435   6.751  72.191  1.00  0.00    -0.319 A  
HETATM    9  C   UNL     1      -8.337   7.709  73.975  1.00  0.00    -0.262 A  
HETATM   10  C   UNL     1      -9.596   7.187  73.708  1.00  0.00    -0.309 A  
HETATM   11  C   UNL     1      -9.417   7.873  71.368  1.00  0.00    -0.182 A  
HETATM   12  C   UNL     1     -10.150   7.267  72.425  1.00  0.00    -0.218 A  
ENDBRANCH   2   3
BRANCH   2  13
HETATM   13  N   UNL     1      -6.968   8.471  69.445  1.00  0.00    -0.049 NA 
HETATM   14  H   UNL     1      -7.207   8.955  68.579  1.00  0.00     0.000 HD 
BRANCH  13  15
HETATM   15  C   UNL     1      -5.561   8.088  69.441  1.00  0.00    -0.027 C  
BRANCH  15  16
HETATM   16  C   UNL     1      -5.421   6.572  69.318  1.00  0.00    -0.013 C  
BRANCH  16  17
HETATM   17  C   UNL     1      -5.865   5.898  70.619  1.00  0.00    -0.021 C  
BRANCH  17  18
HETATM   18  C   UNL     1      -7.153   5.143  70.429  1.00  0.00    -0.057 A  
HETATM   19  C   UNL     1      -8.988   4.430  68.990  1.00  0.00    -0.154 A  
HETATM   20  C   UNL     1      -9.659   4.389  67.640  1.00  0.00    -0.166 C  
HETATM   21  C   UNL     1      -7.756   5.080  69.165  1.00  0.00    -0.076 A  
HETATM   22  C   UNL     1      -9.006   3.888  71.359  1.00  0.00    -0.159 A  
HETATM   23  F   UNL     1      -8.949   5.011  66.656  1.00  0.00    -0.115 F  
HETATM   24  F   UNL     1      -9.868   3.117  67.198  1.00  0.00    -0.188 F  
HETATM   25  F   UNL     1     -10.883   4.987  67.649  1.00  0.00    -0.139 F  
HETATM   26  C   UNL     1      -9.605   3.832  70.099  1.00  0.00    -0.258 A  
HETATM   27  C   UNL     1      -7.788   4.544  71.522  1.00  0.00    -0.087 A  
ENDBRANCH  17  18
ENDBRANCH  16  17
ENDBRANCH  15  16
ENDBRANCH  13  15
ENDBRANCH   2  13
TORSDOF 6
ENDMDL
MODEL      291
REMARK 921   NORMALIZED FREE ENERGY PREDICTED BY IDOCK:   -3.28 KCAL/MOL
REMARK 922        TOTAL FREE ENERGY PREDICTED BY IDOCK:   -7.56 KCAL/MOL
REMARK 923 INTER-LIGAND FREE ENERGY PREDICTED BY IDOCK:   -5.53 KCAL/MOL
REMARK 924 INTRA-LIGAND FREE ENERGY PREDICTED BY IDOCK:   -2.03 KCAL/MOL
REMARK 927      BINDING AFFINITY PREDICTED BY RF-SCORE:    0.00 PKD
ROOT
HETATM    1  C   UNL     1     -10.309   8.035  68.642  1.00  0.00    -0.224 C  
HETATM    2  C   UNL     1     -10.431   9.566  68.738  1.00  0.00    -0.219 C  
ENDROOT
BRANCH   2   3
HETATM    3  C   UNL     1     -10.429  10.281  67.384  1.00  0.00    -0.303 A  
HETATM    4  C   UNL     1     -11.921  13.692  68.111  1.00  0.00    -0.390 A  
HETATM    5  C   UNL     1      -9.958   9.602  66.241  1.00  0.00    -0.335 A  
HETATM    6  C   UNL     1     -12.068  14.185  66.823  1.00  0.00    -0.474 A  
HETATM    7  C   UNL     1     -11.354  12.430  68.313  1.00  0.00    -0.332 A  
HETATM    8  C   UNL     1     -11.611  13.433  65.743  1.00  0.00    -0.358 A  
HETATM    9  C   UNL     1     -10.015  10.182  64.978  1.00  0.00    -0.375 A  
HETATM   10  C   UNL     1     -10.568  11.446  64.825  1.00  0.00    -0.377 A  
HETATM   11  C   UNL     1     -10.932  11.612  67.238  1.00  0.00    -0.318 A  
HETATM   12  C   UNL     1     -11.035  12.165  65.933  1.00  0.00    -0.332 A  
ENDBRANCH   2   3
BRANCH   2  13
HETATM   13  N   UNL     1      -9.498  10.153  69.715  1.00  0.00    -0.359 NA 
HETATM   14  H   UNL     1      -9.399   9.541  70.525  1.00  0.00     0.000 HD 
BRANCH  13  15
HETATM   15  C   UNL     1      -8.187  10.492  69.171  1.00  0.00    -0.150 C  
BRANCH  15  16
HETATM   16  C   UNL     1      -7.121   9.543  69.717  1.00  0.00    -0.075 C  
BRANCH  16  17
HETATM   17  C   UNL     1      -5.976   9.408  68.710  1.00  0.00    -0.043 C  
BRANCH  17  18
HETATM   18  C   UNL     1      -6.452   8.791  67.422  1.00  0.00    -0.057 A  
HETATM   19  C   UNL     1      -7.475   6.927  66.229  1.00  0.00    -0.077 A  
HETATM   20  C   UNL     1      -8.122   5.565  66.227  1.00  0.00    -0.106 C  
HETATM   21  C   UNL     1      -7.082   7.538  67.430  1.00  0.00    -0.085 A  
HETATM   22  C   UNL     1      -6.615   8.843  65.005  1.00  0.00    -0.069 A  
HETATM   23  F   UNL     1      -8.288   5.035  67.472  1.00  0.00    -0.105 F  
HETATM   24  F   UNL     1      -9.361   5.575  65.661  1.00  0.00    -0.165 F  
HETATM   25  F   UNL     1      -7.399   4.646  65.527  1.00  0.00    -0.070 F  
HETATM   26  C   UNL     1      -7.239   7.593  65.018  1.00  0.00    -0.066 A  
HETATM   27  C   UNL     1      -6.222   9.435  66.203  1.00  0.00    -0.067 A  
ENDBRANCH  17  18
ENDBRANCH  16  17
ENDBRANCH  15  16
ENDBRANCH  13  15
ENDBRANCH   2  13
TORSDOF 6
ENDMDL
MODEL      292
REMARK 921   NORMALIZED FREE ENERGY PREDICTED BY IDOCK:   -3.27 KCAL/MOL
REMARK 922        TOTAL FREE ENERGY PREDICTED BY IDOCK:   -7.54 KCAL/MOL
REMARK 923 INTER-LIGAND FREE ENERGY PREDICTED BY IDOCK:   -6.69 KCAL/MOL
REMARK 924 INTRA-LIGAND FREE ENERGY PREDICTED BY IDOCK:   -0.85 KCAL/MOL
REMARK 927      BINDING AFFINITY PREDICTED BY RF-SCORE:    0.00 PKD
ROOT
HETATM    1  C   UNL     1      -7.065  11.799  66.960  1.00  0.00    -0.132 C  
HETATM    2  C   UNL     1      -8.498  12.172  67.381  1.00  0.00    -0.173 C  
ENDROOT
BRANCH   2   3
HETATM    3  C   UNL     1      -8.951  13.556  66.907  1.00  0.00    -0.219 A  
HETATM    4  C   UNL     1     -12.153  12.900  64.982  1.00  0.00    -0.480 A  
HETATM    5  C   UNL     1      -8.163  14.685  67.212  1.00  0.00    -0.235 A  
HETATM    6  C   UNL     1     -12.377  14.151  64.429  1.00  0.00    -0.410 A  
HETATM    7  C   UNL     1     -11.055  12.697  65.824  1.00  0.00    -0.332 A  
HETATM    8  C   UNL     1     -11.528  15.207  64.750  1.00  0.00    -0.383 A  
HETATM    9  C   UNL     1      -8.491  15.949  66.732  1.00  0.00    -0.297 A  
HETATM   10  C   UNL     1      -9.603  16.108  65.915  1.00  0.00    -0.359 A  
HETATM   11  C   UNL     1     -10.137  13.731  66.126  1.00  0.00    -0.314 A  
HETATM   12  C   UNL     1     -10.424  15.019  65.598  1.00  0.00    -0.368 A  
ENDBRANCH   2   3
BRANCH   2  13
HETATM   13  N   UNL     1      -8.757  11.924  68.810  1.00  0.00    -0.363 NA 
HETATM   14  H   UNL     1      -9.729  11.647  68.952  1.00  0.00     0.000 HD 
BRANCH  13  15
HETATM   15  C   UNL     1      -7.857  10.957  69.429  1.00  0.00    -0.040 C  
BRANCH  15  16
HETATM   16  C   UNL     1      -8.653   9.883  70.167  1.00  0.00    -0.141 C  
BRANCH  16  17
HETATM   17  C   UNL     1      -9.991   9.646  69.461  1.00  0.00    -0.223 C  
BRANCH  17  18
HETATM   18  C   UNL     1     -10.299   8.176  69.357  1.00  0.00    -0.219 A  
HETATM   19  C   UNL     1     -10.326   6.114  68.056  1.00  0.00    -0.245 A  
HETATM   20  C   UNL     1     -10.026   5.357  66.787  1.00  0.00    -0.192 C  
HETATM   21  C   UNL     1      -9.988   7.470  68.186  1.00  0.00    -0.198 A  
HETATM   22  C   UNL     1     -11.279   6.166  70.291  1.00  0.00    -0.439 A  
HETATM   23  F   UNL     1      -9.400   6.108  65.836  1.00  0.00    -0.176 F  
HETATM   24  F   UNL     1      -9.219   4.280  66.998  1.00  0.00    -0.117 F  
HETATM   25  F   UNL     1     -11.151   4.871  66.192  1.00  0.00    -0.313 F  
HETATM   26  C   UNL     1     -10.971   5.469  69.122  1.00  0.00    -0.058 A  
HETATM   27  C   UNL     1     -10.947   7.514  70.405  1.00  0.00    -0.264 A  
ENDBRANCH  17  18
ENDBRANCH  16  17
ENDBRANCH  15  16
ENDBRANCH  13  15
ENDBRANCH   2  13
TORSDOF 6
ENDMDL
MODEL      293
REMARK 921   NORMALIZED FREE ENERGY PREDICTED BY IDOCK:   -3.24 KCAL/MOL
REMARK 922        TOTAL FREE ENERGY PREDICTED BY IDOCK:   -7.50 KCAL/MOL
REMARK 923 INTER-LIGAND FREE ENERGY PREDICTED BY IDOCK:   -6.11 KCAL/MOL
REMARK 924 INTRA-LIGAND FREE ENERGY PREDICTED BY IDOCK:   -1.39 KCAL/MOL
REMARK 927      BINDING AFFINITY PREDICTED BY RF-SCORE:    0.00 PKD
ROOT
HETATM    1  C   UNL     1      -6.814   7.862  69.211  1.00  0.00    -0.048 C  
HETATM    2  C   UNL     1      -8.109   7.427  68.502  1.00  0.00    -0.125 C  
ENDROOT
BRANCH   2   3
HETATM    3  C   UNL     1      -9.059   6.605  69.379  1.00  0.00    -0.143 A  
HETATM    4  C   UNL     1     -11.014   9.194  71.345  1.00  0.00    -0.414 A  
HETATM    5  C   UNL     1      -9.011   5.197  69.322  1.00  0.00    -0.126 A  
HETATM    6  C   UNL     1     -11.688   8.377  72.239  1.00  0.00    -0.453 A  
HETATM    7  C   UNL     1     -10.176   8.627  70.379  1.00  0.00    -0.218 A  
HETATM    8  C   UNL     1     -11.556   6.994  72.141  1.00  0.00    -0.320 A  
HETATM    9  C   UNL     1      -9.795   4.411  70.159  1.00  0.00    -0.288 A  
HETATM   10  C   UNL     1     -10.629   5.016  71.091  1.00  0.00    -0.147 A  
HETATM   11  C   UNL     1      -9.971   7.230  70.286  1.00  0.00    -0.188 A  
HETATM   12  C   UNL     1     -10.721   6.411  71.173  1.00  0.00    -0.293 A  
ENDBRANCH   2   3
BRANCH   2  13
HETATM   13  N   UNL     1      -7.863   6.829  67.178  1.00  0.00    -0.110 NA 
HETATM   14  H   UNL     1      -8.401   5.968  67.072  1.00  0.00     0.000 HD 
BRANCH  13  15
HETATM   15  C   UNL     1      -8.111   7.725  66.054  1.00  0.00    -0.117 C  
BRANCH  15  16
HETATM   16  C   UNL     1      -8.664   9.060  66.548  1.00  0.00    -0.144 C  
BRANCH  16  17
HETATM   17  C   UNL     1     -10.034   9.325  65.918  1.00  0.00    -0.289 C  
BRANCH  17  18
HETATM   18  C   UNL     1     -10.452  10.759  66.103  1.00  0.00    -0.278 A  
HETATM   19  C   UNL     1     -11.081  12.599  67.574  1.00  0.00    -0.313 A  
HETATM   20  C   UNL     1     -11.313  13.156  68.956  1.00  0.00    -0.282 C  
HETATM   21  C   UNL     1     -10.634  11.281  67.392  1.00  0.00    -0.262 A  
HETATM   22  C   UNL     1     -11.151  12.879  65.161  1.00  0.00    -0.321 A  
HETATM   23  F   UNL     1     -11.029  12.274  69.957  1.00  0.00    -0.045 F  
HETATM   24  F   UNL     1     -10.555  14.259  69.209  1.00  0.00    -0.235 F  
HETATM   25  F   UNL     1     -12.606  13.537  69.154  1.00  0.00    -0.265 F  
HETATM   26  C   UNL     1     -11.334  13.393  66.446  1.00  0.00    -0.338 A  
HETATM   27  C   UNL     1     -10.715  11.567  64.993  1.00  0.00    -0.350 A  
ENDBRANCH  17  18
ENDBRANCH  16  17
ENDBRANCH  15  16
ENDBRANCH  13  15
ENDBRANCH   2  13
TORSDOF 6
ENDMDL
MODEL      294
REMARK 921   NORMALIZED FREE ENERGY PREDICTED BY IDOCK:   -3.23 KCAL/MOL
REMARK 922        TOTAL FREE ENERGY PREDICTED BY IDOCK:   -7.49 KCAL/MOL
REMARK 923 INTER-LIGAND FREE ENERGY PREDICTED BY IDOCK:   -5.64 KCAL/MOL
REMARK 924 INTRA-LIGAND FREE ENERGY PREDICTED BY IDOCK:   -1.85 KCAL/MOL
REMARK 927      BINDING AFFINITY PREDICTED BY RF-SCORE:    0.00 PKD
ROOT
HETATM    1  C   UNL     1      -9.058  10.294  67.858  1.00  0.00    -0.133 C  
HETATM    2  C   UNL     1      -8.208   9.011  67.822  1.00  0.00    -0.109 C  
ENDROOT
BRANCH   2   3
HETATM    3  C   UNL     1      -8.994   7.749  67.456  1.00  0.00    -0.126 A  
HETATM    4  C   UNL     1      -6.479   5.555  65.654  1.00  0.00    -0.040 A  
HETATM    5  C   UNL     1     -10.361   7.662  67.790  1.00  0.00    -0.282 A  
HETATM    6  C   UNL     1      -7.309   4.546  65.190  1.00  0.00    -0.072 A  
HETATM    7  C   UNL     1      -7.009   6.592  66.427  1.00  0.00    -0.062 A  
HETATM    8  C   UNL     1      -8.659   4.554  65.532  1.00  0.00    -0.123 A  
HETATM    9  C   UNL     1     -11.134   6.571  67.405  1.00  0.00    -0.411 A  
HETATM   10  C   UNL     1     -10.561   5.552  66.655  1.00  0.00    -0.365 A  
HETATM   11  C   UNL     1      -8.386   6.666  66.747  1.00  0.00    -0.115 A  
HETATM   12  C   UNL     1      -9.204   5.588  66.312  1.00  0.00    -0.161 A  
ENDBRANCH   2   3
BRANCH   2  13
HETATM   13  N   UNL     1      -7.361   8.852  69.017  1.00  0.00    -0.072 NA 
HETATM   14  H   UNL     1      -6.374   8.877  68.758  1.00  0.00     0.000 HD 
BRANCH  13  15
HETATM   15  C   UNL     1      -7.632   9.813  70.081  1.00  0.00    -0.171 C  
BRANCH  15  16
HETATM   16  C   UNL     1      -7.622   9.118  71.442  1.00  0.00    -0.012 C  
BRANCH  16  17
HETATM   17  C   UNL     1      -8.042   7.654  71.284  1.00  0.00    -0.095 C  
BRANCH  17  18
HETATM   18  C   UNL     1      -9.539   7.506  71.352  1.00  0.00    -0.168 A  
HETATM   19  C   UNL     1     -11.755   8.516  71.461  1.00  0.00    -0.354 A  
HETATM   20  C   UNL     1     -12.644   9.734  71.481  1.00  0.00    -0.398 C  
HETATM   21  C   UNL     1     -10.362   8.641  71.338  1.00  0.00    -0.331 A  
HETATM   22  C   UNL     1     -11.499   6.103  71.598  1.00  0.00    -0.331 A  
HETATM   23  F   UNL     1     -11.966  10.910  71.352  1.00  0.00    -0.389 F  
HETATM   24  F   UNL     1     -13.566   9.726  70.478  1.00  0.00    -0.276 F  
HETATM   25  F   UNL     1     -13.353   9.842  72.640  1.00  0.00    -0.440 F  
HETATM   26  C   UNL     1     -12.315   7.237  71.587  1.00  0.00    -0.387 A  
HETATM   27  C   UNL     1     -10.118   6.240  71.484  1.00  0.00    -0.218 A  
ENDBRANCH  17  18
ENDBRANCH  16  17
ENDBRANCH  15  16
ENDBRANCH  13  15
ENDBRANCH   2  13
TORSDOF 6
ENDMDL
MODEL      295
REMARK 921   NORMALIZED FREE ENERGY PREDICTED BY IDOCK:   -3.21 KCAL/MOL
REMARK 922        TOTAL FREE ENERGY PREDICTED BY IDOCK:   -7.46 KCAL/MOL
REMARK 923 INTER-LIGAND FREE ENERGY PREDICTED BY IDOCK:   -6.77 KCAL/MOL
REMARK 924 INTRA-LIGAND FREE ENERGY PREDICTED BY IDOCK:   -0.69 KCAL/MOL
REMARK 927      BINDING AFFINITY PREDICTED BY RF-SCORE:    0.00 PKD
ROOT
HETATM    1  C   UNL     1     -12.050   8.684  71.072  1.00  0.00    -0.247 C  
HETATM    2  C   UNL     1     -10.833   9.440  70.508  1.00  0.00    -0.277 C  
ENDROOT
BRANCH   2   3
HETATM    3  C   UNL     1      -9.508   9.093  71.192  1.00  0.00    -0.331 A  
HETATM    4  C   UNL     1      -6.848  10.316  68.780  1.00  0.00    -0.058 A  
HETATM    5  C   UNL     1      -9.522   8.429  72.436  1.00  0.00    -0.365 A  
HETATM    6  C   UNL     1      -5.709   9.790  69.370  1.00  0.00    -0.034 A  
HETATM    7  C   UNL     1      -8.095  10.127  69.383  1.00  0.00    -0.163 A  
HETATM    8  C   UNL     1      -5.814   9.110  70.581  1.00  0.00    -0.041 A  
HETATM    9  C   UNL     1      -8.344   8.020  73.053  1.00  0.00    -0.243 A  
HETATM   10  C   UNL     1      -7.125   8.247  72.428  1.00  0.00    -0.117 A  
HETATM   11  C   UNL     1      -8.249   9.392  70.583  1.00  0.00    -0.207 A  
HETATM   12  C   UNL     1      -7.060   8.917  71.200  1.00  0.00    -0.103 A  
ENDBRANCH   2   3
BRANCH   2  13
HETATM   13  N   UNL     1     -11.070  10.889  70.381  1.00  0.00    -0.459 NA 
HETATM   14  H   UNL     1     -10.183  11.391  70.334  1.00  0.00     0.000 HD 
BRANCH  13  15
HETATM   15  C   UNL     1     -11.927  11.266  69.263  1.00  0.00    -0.342 C  
BRANCH  15  16
HETATM   16  C   UNL     1     -11.088  11.557  68.021  1.00  0.00    -0.313 C  
BRANCH  16  17
HETATM   17  C   UNL     1     -11.905  12.373  67.016  1.00  0.00    -0.368 C  
BRANCH  17  18
HETATM   18  C   UNL     1     -11.192  13.644  66.637  1.00  0.00    -0.324 A  
HETATM   19  C   UNL     1     -10.563  15.942  67.151  1.00  0.00    -0.316 A  
HETATM   20  C   UNL     1     -10.569  17.130  68.081  1.00  0.00    -0.380 C  
HETATM   21  C   UNL     1     -11.173  14.733  67.519  1.00  0.00    -0.339 A  
HETATM   22  C   UNL     1      -9.974  14.960  65.008  1.00  0.00    -0.205 A  
HETATM   23  F   UNL     1     -11.190  16.890  69.271  1.00  0.00    -0.252 F  
HETATM   24  F   UNL     1      -9.313  17.553  68.397  1.00  0.00    -0.251 F  
HETATM   25  F   UNL     1     -11.203  18.209  67.544  1.00  0.00    -0.328 F  
HETATM   26  C   UNL     1      -9.961  16.043  65.888  1.00  0.00    -0.380 A  
HETATM   27  C   UNL     1     -10.591  13.768  65.381  1.00  0.00    -0.330 A  
ENDBRANCH  17  18
ENDBRANCH  16  17
ENDBRANCH  15  16
ENDBRANCH  13  15
ENDBRANCH   2  13
TORSDOF 6
ENDMDL
MODEL      296
REMARK 921   NORMALIZED FREE ENERGY PREDICTED BY IDOCK:   -3.21 KCAL/MOL
REMARK 922        TOTAL FREE ENERGY PREDICTED BY IDOCK:   -7.46 KCAL/MOL
REMARK 923 INTER-LIGAND FREE ENERGY PREDICTED BY IDOCK:   -6.58 KCAL/MOL
REMARK 924 INTRA-LIGAND FREE ENERGY PREDICTED BY IDOCK:   -0.88 KCAL/MOL
REMARK 927      BINDING AFFINITY PREDICTED BY RF-SCORE:    0.00 PKD
ROOT
HETATM    1  C   UNL     1      -6.200   7.609  69.362  1.00  0.00    -0.034 C  
HETATM    2  C   UNL     1      -7.693   7.239  69.406  1.00  0.00    -0.107 C  
ENDROOT
BRANCH   2   3
HETATM    3  C   UNL     1      -8.131   6.550  70.702  1.00  0.00    -0.113 A  
HETATM    4  C   UNL     1     -11.915   6.808  70.682  1.00  0.00    -0.418 A  
HETATM    5  C   UNL     1      -7.153   6.036  71.578  1.00  0.00    -0.078 A  
HETATM    6  C   UNL     1     -12.207   6.352  71.958  1.00  0.00    -0.320 A  
HETATM    7  C   UNL     1     -10.588   6.845  70.242  1.00  0.00    -0.246 A  
HETATM    8  C   UNL     1     -11.177   5.898  72.778  1.00  0.00    -0.317 A  
HETATM    9  C   UNL     1      -7.500   5.478  72.804  1.00  0.00    -0.097 A  
HETATM   10  C   UNL     1      -8.833   5.442  73.192  1.00  0.00    -0.119 A  
HETATM   11  C   UNL     1      -9.509   6.447  71.068  1.00  0.00    -0.181 A  
HETATM   12  C   UNL     1      -9.840   5.926  72.348  1.00  0.00    -0.182 A  
ENDBRANCH   2   3
BRANCH   2  13
HETATM   13  N   UNL     1      -8.145   6.544  68.188  1.00  0.00    -0.113 NA 
HETATM   14  H   UNL     1      -8.854   5.847  68.418  1.00  0.00     0.000 HD 
BRANCH  13  15
HETATM   15  C   UNL     1      -8.627   7.428  67.132  1.00  0.00    -0.118 C  
BRANCH  15  16
HETATM   16  C   UNL     1      -9.242   8.691  67.732  1.00  0.00    -0.146 C  
BRANCH  16  17
HETATM   17  C   UNL     1     -10.535   9.046  66.993  1.00  0.00    -0.316 C  
BRANCH  17  18
HETATM   18  C   UNL     1     -11.016  10.423  67.365  1.00  0.00    -0.335 A  
HETATM   19  C   UNL     1     -11.654  12.683  66.710  1.00  0.00    -0.438 A  
HETATM   20  C   UNL     1     -11.888  13.725  65.646  1.00  0.00    -0.365 C  
HETATM   21  C   UNL     1     -11.263  11.378  66.369  1.00  0.00    -0.250 A  
HETATM   22  C   UNL     1     -11.562  12.067  69.059  1.00  0.00    -0.370 A  
HETATM   23  F   UNL     1     -11.704  13.263  64.376  1.00  0.00    -0.348 F  
HETATM   24  F   UNL     1     -13.154  14.229  65.676  1.00  0.00    -0.538 F  
HETATM   25  F   UNL     1     -11.056  14.797  65.774  1.00  0.00    -0.310 F  
HETATM   26  C   UNL     1     -11.804  13.016  68.064  1.00  0.00    -0.391 A  
HETATM   27  C   UNL     1     -11.166  10.778  68.709  1.00  0.00    -0.331 A  
ENDBRANCH  17  18
ENDBRANCH  16  17
ENDBRANCH  15  16
ENDBRANCH  13  15
ENDBRANCH   2  13
TORSDOF 6
ENDMDL
MODEL      297
REMARK 921   NORMALIZED FREE ENERGY PREDICTED BY IDOCK:   -3.20 KCAL/MOL
REMARK 922        TOTAL FREE ENERGY PREDICTED BY IDOCK:   -7.44 KCAL/MOL
REMARK 923 INTER-LIGAND FREE ENERGY PREDICTED BY IDOCK:   -6.45 KCAL/MOL
REMARK 924 INTRA-LIGAND FREE ENERGY PREDICTED BY IDOCK:   -1.00 KCAL/MOL
REMARK 927      BINDING AFFINITY PREDICTED BY RF-SCORE:    0.00 PKD
ROOT
HETATM    1  C   UNL     1     -10.240  10.236  67.035  1.00  0.00    -0.282 C  
HETATM    2  C   UNL     1      -9.604  11.492  66.415  1.00  0.00    -0.209 C  
ENDROOT
BRANCH   2   3
HETATM    3  C   UNL     1     -10.438  12.134  65.303  1.00  0.00    -0.311 A  
HETATM    4  C   UNL     1     -10.064  15.866  65.869  1.00  0.00    -0.376 A  
HETATM    5  C   UNL     1     -11.138  11.310  64.398  1.00  0.00    -0.273 A  
HETATM    6  C   UNL     1     -10.994  16.355  64.965  1.00  0.00    -0.265 A  
HETATM    7  C   UNL     1      -9.844  14.489  65.967  1.00  0.00    -0.342 A  
HETATM    8  C   UNL     1     -11.674  15.469  64.132  1.00  0.00    -0.093 A  
HETATM    9  C   UNL     1     -11.974  11.848  63.425  1.00  0.00    -0.528 A  
HETATM   10  C   UNL     1     -12.147  13.224  63.350  1.00  0.00    -0.508 A  
HETATM   11  C   UNL     1     -10.558  13.554  65.180  1.00  0.00    -0.364 A  
HETATM   12  C   UNL     1     -11.460  14.083  64.217  1.00  0.00    -0.314 A  
ENDBRANCH   2   3
BRANCH   2  13
HETATM   13  N   UNL     1      -8.189  11.297  66.053  1.00  0.00    -0.338 NA 
HETATM   14  H   UNL     1      -7.672  12.171  66.156  1.00  0.00     0.000 HD 
BRANCH  13  15
HETATM   15  C   UNL     1      -7.522  10.222  66.779  1.00  0.00    -0.107 C  
BRANCH  15  16
HETATM   16  C   UNL     1      -7.053   9.136  65.813  1.00  0.00    -0.085 C  
BRANCH  16  17
HETATM   17  C   UNL     1      -6.738   7.851  66.583  1.00  0.00    -0.063 C  
BRANCH  17  18
HETATM   18  C   UNL     1      -7.985   7.046  66.834  1.00  0.00    -0.115 A  
HETATM   19  C   UNL     1      -9.765   6.331  68.339  1.00  0.00    -0.130 A  
HETATM   20  C   UNL     1     -10.451   6.382  69.681  1.00  0.00    -0.227 C  
HETATM   21  C   UNL     1      -8.637   7.122  68.073  1.00  0.00    -0.128 A  
HETATM   22  C   UNL     1      -9.598   5.392  66.104  1.00  0.00    -0.169 A  
HETATM   23  F   UNL     1      -9.881   7.261  70.554  1.00  0.00    -0.181 F  
HETATM   24  F   UNL     1     -11.759   6.749  69.587  1.00  0.00    -0.325 F  
HETATM   25  F   UNL     1     -10.446   5.176  70.315  1.00  0.00    -0.316 F  
HETATM   26  C   UNL     1     -10.241   5.468  67.340  1.00  0.00    -0.253 A  
HETATM   27  C   UNL     1      -8.473   6.176  65.855  1.00  0.00    -0.145 A  
ENDBRANCH  17  18
ENDBRANCH  16  17
ENDBRANCH  15  16
ENDBRANCH  13  15
ENDBRANCH   2  13
TORSDOF 6
ENDMDL
MODEL      298
REMARK 921   NORMALIZED FREE ENERGY PREDICTED BY IDOCK:   -3.19 KCAL/MOL
REMARK 922        TOTAL FREE ENERGY PREDICTED BY IDOCK:   -7.44 KCAL/MOL
REMARK 923 INTER-LIGAND FREE ENERGY PREDICTED BY IDOCK:   -7.39 KCAL/MOL
REMARK 924 INTRA-LIGAND FREE ENERGY PREDICTED BY IDOCK:   -0.05 KCAL/MOL
REMARK 927      BINDING AFFINITY PREDICTED BY RF-SCORE:    0.00 PKD
ROOT
HETATM    1  C   UNL     1     -12.972  14.208  70.120  1.00  0.00     0.039 C  
HETATM    2  C   UNL     1     -11.767  13.479  69.498  1.00  0.00    -0.322 C  
ENDROOT
BRANCH   2   3
HETATM    3  C   UNL     1     -10.890  14.363  68.607  1.00  0.00    -0.260 A  
HETATM    4  C   UNL     1     -12.485  14.125  65.173  1.00  0.00    -0.453 A  
HETATM    5  C   UNL     1      -9.761  15.002  69.159  1.00  0.00    -0.212 A  
HETATM    6  C   UNL     1     -11.531  14.775  64.405  1.00  0.00    -0.261 A  
HETATM    7  C   UNL     1     -12.307  14.012  66.555  1.00  0.00    -0.442 A  
HETATM    8  C   UNL     1     -10.422  15.346  65.024  1.00  0.00    -0.411 A  
HETATM    9  C   UNL     1      -8.891  15.746  68.370  1.00  0.00    -0.185 A  
HETATM   10  C   UNL     1      -9.117  15.849  67.004  1.00  0.00    -0.236 A  
HETATM   11  C   UNL     1     -11.164  14.529  67.213  1.00  0.00    -0.341 A  
HETATM   12  C   UNL     1     -10.233  15.244  66.413  1.00  0.00    -0.287 A  
ENDBRANCH   2   3
BRANCH   2  13
HETATM   13  N   UNL     1     -12.135  12.195  68.875  1.00  0.00    -0.219 NA 
HETATM   14  H   UNL     1     -11.683  12.099  67.966  1.00  0.00     0.000 HD 
BRANCH  13  15
HETATM   15  C   UNL     1     -11.866  11.023  69.703  1.00  0.00    -0.342 C  
BRANCH  15  16
HETATM   16  C   UNL     1     -11.957  11.384  71.184  1.00  0.00    -0.031 C  
BRANCH  16  17
HETATM   17  C   UNL     1     -13.185  10.717  71.810  1.00  0.00    -0.523 C  
BRANCH  17  18
HETATM   18  C   UNL     1     -12.992   9.230  71.938  1.00  0.00    -0.489 A  
HETATM   19  C   UNL     1     -11.623   7.332  72.621  1.00  0.00    -0.259 A  
HETATM   20  C   UNL     1     -10.371   6.773  73.249  1.00  0.00    -0.269 C  
HETATM   21  C   UNL     1     -11.841   8.716  72.551  1.00  0.00    -0.342 A  
HETATM   22  C   UNL     1     -13.731   6.971  71.468  1.00  0.00    -0.355 A  
HETATM   23  F   UNL     1      -9.528   7.729  73.734  1.00  0.00    -0.299 F  
HETATM   24  F   UNL     1     -10.635   5.946  74.299  1.00  0.00    -0.267 F  
HETATM   25  F   UNL     1      -9.631   6.039  72.372  1.00  0.00    -0.152 F  
HETATM   26  C   UNL     1     -12.581   6.464  72.076  1.00  0.00    -0.141 A  
HETATM   27  C   UNL     1     -13.932   8.347  71.396  1.00  0.00    -0.333 A  
ENDBRANCH  17  18
ENDBRANCH  16  17
ENDBRANCH  15  16
ENDBRANCH  13  15
ENDBRANCH   2  13
TORSDOF 6
ENDMDL
MODEL      299
REMARK 921   NORMALIZED FREE ENERGY PREDICTED BY IDOCK:   -3.19 KCAL/MOL
REMARK 922        TOTAL FREE ENERGY PREDICTED BY IDOCK:   -7.44 KCAL/MOL
REMARK 923 INTER-LIGAND FREE ENERGY PREDICTED BY IDOCK:   -6.55 KCAL/MOL
REMARK 924 INTRA-LIGAND FREE ENERGY PREDICTED BY IDOCK:   -0.89 KCAL/MOL
REMARK 927      BINDING AFFINITY PREDICTED BY RF-SCORE:    0.00 PKD
ROOT
HETATM    1  C   UNL     1     -12.375  13.602  69.380  1.00  0.00    -0.199 C  
HETATM    2  C   UNL     1     -11.507  12.927  68.304  1.00  0.00    -0.311 C  
ENDROOT
BRANCH   2   3
HETATM    3  C   UNL     1     -11.187  13.823  67.104  1.00  0.00    -0.327 A  
HETATM    4  C   UNL     1      -8.259  15.941  68.257  1.00  0.00    -0.152 A  
HETATM    5  C   UNL     1     -11.974  13.728  65.937  1.00  0.00    -0.433 A  
HETATM    6  C   UNL     1      -8.169  16.843  67.208  1.00  0.00    -0.205 A  
HETATM    7  C   UNL     1      -9.219  14.925  68.222  1.00  0.00    -0.187 A  
HETATM    8  C   UNL     1      -9.012  16.703  66.107  1.00  0.00    -0.321 A  
HETATM    9  C   UNL     1     -11.772  14.578  64.856  1.00  0.00    -0.402 A  
HETATM   10  C   UNL     1     -10.794  15.561  64.925  1.00  0.00    -0.447 A  
HETATM   11  C   UNL     1     -10.131  14.786  67.148  1.00  0.00    -0.240 A  
HETATM   12  C   UNL     1      -9.978  15.684  66.057  1.00  0.00    -0.359 A  
ENDBRANCH   2   3
BRANCH   2  13
HETATM   13  N   UNL     1     -12.001  11.591  67.926  1.00  0.00    -0.641 NA 
HETATM   14  H   UNL     1     -12.728  11.668  67.214  1.00  0.00     0.000 HD 
BRANCH  13  15
HETATM   15  C   UNL     1     -10.961  10.663  67.492  1.00  0.00    -0.310 C  
BRANCH  15  16
HETATM   16  C   UNL     1      -9.627  11.013  68.147  1.00  0.00    -0.175 C  
BRANCH  16  17
HETATM   17  C   UNL     1      -9.403  10.133  69.380  1.00  0.00    -0.235 C  
BRANCH  17  18
HETATM   18  C   UNL     1      -8.871   8.779  68.994  1.00  0.00    -0.137 A  
HETATM   19  C   UNL     1      -9.103   6.352  68.965  1.00  0.00    -0.130 A  
HETATM   20  C   UNL     1      -9.884   5.103  69.287  1.00  0.00    -0.190 C  
HETATM   21  C   UNL     1      -9.616   7.623  69.266  1.00  0.00    -0.159 A  
HETATM   22  C   UNL     1      -7.090   7.401  68.098  1.00  0.00    -0.085 A  
HETATM   23  F   UNL     1     -11.098   5.348  69.859  1.00  0.00    -0.380 F  
HETATM   24  F   UNL     1     -10.142   4.347  68.183  1.00  0.00    -0.190 F  
HETATM   25  F   UNL     1      -9.225   4.285  70.154  1.00  0.00    -0.139 F  
HETATM   26  C   UNL     1      -7.835   6.253  68.375  1.00  0.00    -0.105 A  
HETATM   27  C   UNL     1      -7.606   8.657  68.410  1.00  0.00    -0.096 A  
ENDBRANCH  17  18
ENDBRANCH  16  17
ENDBRANCH  15  16
ENDBRANCH  13  15
ENDBRANCH   2  13
TORSDOF 6
ENDMDL
MODEL      300
REMARK 921   NORMALIZED FREE ENERGY PREDICTED BY IDOCK:   -3.19 KCAL/MOL
REMARK 922        TOTAL FREE ENERGY PREDICTED BY IDOCK:   -7.44 KCAL/MOL
REMARK 923 INTER-LIGAND FREE ENERGY PREDICTED BY IDOCK:   -7.06 KCAL/MOL
REMARK 924 INTRA-LIGAND FREE ENERGY PREDICTED BY IDOCK:   -0.37 KCAL/MOL
REMARK 927      BINDING AFFINITY PREDICTED BY RF-SCORE:    0.00 PKD
ROOT
HETATM    1  C   UNL     1     -11.089   9.422  71.551  1.00  0.00    -0.446 C  
HETATM    2  C   UNL     1     -10.567   8.054  71.076  1.00  0.00    -0.213 C  
ENDROOT
BRANCH   2   3
HETATM    3  C   UNL     1     -10.256   7.073  72.210  1.00  0.00    -0.207 A  
HETATM    4  C   UNL     1      -6.820   8.105  73.441  1.00  0.00    -0.138 A  
HETATM    5  C   UNL     1     -11.186   6.062  72.528  1.00  0.00    -0.333 A  
HETATM    6  C   UNL     1      -6.537   7.062  74.308  1.00  0.00    -0.082 A  
HETATM    7  C   UNL     1      -8.048   8.142  72.773  1.00  0.00    -0.221 A  
HETATM    8  C   UNL     1      -7.497   6.079  74.537  1.00  0.00    -0.093 A  
HETATM    9  C   UNL     1     -10.910   5.100  73.493  1.00  0.00    -0.360 A  
HETATM   10  C   UNL     1      -9.685   5.112  74.147  1.00  0.00    -0.165 A  
HETATM   11  C   UNL     1      -9.025   7.131  72.935  1.00  0.00    -0.156 A  
HETATM   12  C   UNL     1      -8.736   6.106  73.877  1.00  0.00    -0.124 A  
ENDBRANCH   2   3
BRANCH   2  13
HETATM   13  N   UNL     1      -9.485   8.168  70.082  1.00  0.00    -0.166 NA 
HETATM   14  H   UNL     1      -8.832   7.390  70.177  1.00  0.00     0.000 HD 
BRANCH  13  15
HETATM   15  C   UNL     1      -9.943   8.282  68.702  1.00  0.00    -0.190 C  
BRANCH  15  16
HETATM   16  C   UNL     1      -9.939   9.743  68.257  1.00  0.00    -0.175 C  
BRANCH  16  17
HETATM   17  C   UNL     1     -11.375  10.228  68.039  1.00  0.00    -0.219 C  
BRANCH  17  18
HETATM   18  C   UNL     1     -11.524  11.678  68.416  1.00  0.00    -0.360 A  
HETATM   19  C   UNL     1     -12.226  13.380  70.013  1.00  0.00    -0.367 A  
HETATM   20  C   UNL     1     -12.799  13.768  71.353  1.00  0.00    -0.369 C  
HETATM   21  C   UNL     1     -12.027  12.033  69.675  1.00  0.00    -0.360 A  
HETATM   22  C   UNL     1     -11.399  14.023  67.820  1.00  0.00    -0.328 A  
HETATM   23  F   UNL     1     -13.067  12.705  72.163  1.00  0.00    -0.500 F  
HETATM   24  F   UNL     1     -11.964  14.575  72.066  1.00  0.00    -0.381 F  
HETATM   25  F   UNL     1     -13.972  14.452  71.240  1.00  0.00    -0.412 F  
HETATM   26  C   UNL     1     -11.904  14.372  69.074  1.00  0.00    -0.358 A  
HETATM   27  C   UNL     1     -11.214  12.682  67.493  1.00  0.00    -0.335 A  
ENDBRANCH  17  18
ENDBRANCH  16  17
ENDBRANCH  15  16
ENDBRANCH  13  15
ENDBRANCH   2  13
TORSDOF 6
ENDMDL
MODEL      301
REMARK 921   NORMALIZED FREE ENERGY PREDICTED BY IDOCK:   -3.19 KCAL/MOL
REMARK 922        TOTAL FREE ENERGY PREDICTED BY IDOCK:   -7.44 KCAL/MOL
REMARK 923 INTER-LIGAND FREE ENERGY PREDICTED BY IDOCK:   -5.90 KCAL/MOL
REMARK 924 INTRA-LIGAND FREE ENERGY PREDICTED BY IDOCK:   -1.54 KCAL/MOL
REMARK 927      BINDING AFFINITY PREDICTED BY RF-SCORE:    0.00 PKD
ROOT
HETATM    1  C   UNL     1      -6.195   7.350  70.185  1.00  0.00    -0.027 C  
HETATM    2  C   UNL     1      -7.715   7.278  69.960  1.00  0.00    -0.096 C  
ENDROOT
BRANCH   2   3
HETATM    3  C   UNL     1      -8.540   7.256  71.251  1.00  0.00    -0.119 A  
HETATM    4  C   UNL     1     -12.118   6.784  70.084  1.00  0.00    -0.139 A  
HETATM    5  C   UNL     1      -7.891   7.430  72.491  1.00  0.00    -0.108 A  
HETATM    6  C   UNL     1     -12.801   6.977  71.274  1.00  0.00    -0.376 A  
HETATM    7  C   UNL     1     -10.721   6.838  70.065  1.00  0.00    -0.287 A  
HETATM    8  C   UNL     1     -12.085   7.183  72.452  1.00  0.00    -0.134 A  
HETATM    9  C   UNL     1      -8.608   7.500  73.681  1.00  0.00    -0.242 A  
HETATM   10  C   UNL     1      -9.995   7.422  73.655  1.00  0.00    -0.379 A  
HETATM   11  C   UNL     1      -9.962   7.102  71.231  1.00  0.00    -0.192 A  
HETATM   12  C   UNL     1     -10.682   7.234  72.449  1.00  0.00    -0.283 A  
ENDBRANCH   2   3
BRANCH   2  13
HETATM   13  N   UNL     1      -8.102   6.233  68.996  1.00  0.00    -0.109 NA 
HETATM   14  H   UNL     1      -8.955   5.764  69.303  1.00  0.00     0.000 HD 
BRANCH  13  15
HETATM   15  C   UNL     1      -8.246   6.702  67.622  1.00  0.00    -0.122 C  
BRANCH  15  16
HETATM   16  C   UNL     1      -8.415   8.220  67.591  1.00  0.00    -0.130 C  
BRANCH  16  17
HETATM   17  C   UNL     1      -9.459   8.609  66.541  1.00  0.00    -0.278 C  
BRANCH  17  18
HETATM   18  C   UNL     1     -10.236   9.825  66.969  1.00  0.00    -0.292 A  
HETATM   19  C   UNL     1     -11.469  11.044  68.683  1.00  0.00    -0.375 A  
HETATM   20  C   UNL     1     -11.992  11.160  70.093  1.00  0.00    -0.365 C  
HETATM   21  C   UNL     1     -10.692   9.943  68.290  1.00  0.00    -0.276 A  
HETATM   22  C   UNL     1     -11.319  11.922  66.422  1.00  0.00    -0.400 A  
HETATM   23  F   UNL     1     -11.620  10.128  70.902  1.00  0.00    -0.336 F  
HETATM   24  F   UNL     1     -11.565  12.293  70.718  1.00  0.00    -0.220 F  
HETATM   25  F   UNL     1     -13.353  11.198  70.142  1.00  0.00    -0.012 F  
HETATM   26  C   UNL     1     -11.774  12.034  67.738  1.00  0.00    -0.379 A  
HETATM   27  C   UNL     1     -10.557  10.820  66.042  1.00  0.00    -0.224 A  
ENDBRANCH  17  18
ENDBRANCH  16  17
ENDBRANCH  15  16
ENDBRANCH  13  15
ENDBRANCH   2  13
TORSDOF 6
ENDMDL
MODEL      302
REMARK 921   NORMALIZED FREE ENERGY PREDICTED BY IDOCK:   -3.18 KCAL/MOL
REMARK 922        TOTAL FREE ENERGY PREDICTED BY IDOCK:   -7.43 KCAL/MOL
REMARK 923 INTER-LIGAND FREE ENERGY PREDICTED BY IDOCK:   -6.36 KCAL/MOL
REMARK 924 INTRA-LIGAND FREE ENERGY PREDICTED BY IDOCK:   -1.07 KCAL/MOL
REMARK 927      BINDING AFFINITY PREDICTED BY RF-SCORE:    0.00 PKD
ROOT
HETATM    1  C   UNL     1     -11.703  15.539  69.372  1.00  0.00    -0.382 C  
HETATM    2  C   UNL     1     -11.003  15.810  68.028  1.00  0.00    -0.330 C  
ENDROOT
BRANCH   2   3
HETATM    3  C   UNL     1     -10.334  17.185  67.936  1.00  0.00    -0.350 A  
HETATM    4  C   UNL     1      -6.735  16.560  68.956  1.00  0.00    -0.200 A  
HETATM    5  C   UNL     1     -11.103  18.307  67.563  1.00  0.00     0.048 A  
HETATM    6  C   UNL     1      -6.265  17.861  69.040  1.00  0.00    -0.222 A  
HETATM    7  C   UNL     1      -8.054  16.320  68.562  1.00  0.00    -0.193 A  
HETATM    8  C   UNL     1      -7.102  18.919  68.691  1.00  0.00    -0.327 A  
HETATM    9  C   UNL     1     -10.558  19.586  67.546  1.00  0.00    -0.599 A  
HETATM   10  C   UNL     1      -9.236  19.777  67.926  1.00  0.00    -0.427 A  
HETATM   11  C   UNL     1      -8.952  17.371  68.256  1.00  0.00    -0.268 A  
HETATM   12  C   UNL     1      -8.429  18.692  68.289  1.00  0.00    -0.350 A  
ENDBRANCH   2   3
BRANCH   2  13
HETATM   13  N   UNL     1     -11.850  15.488  66.867  1.00  0.00     0.203 NA 
HETATM   14  H   UNL     1     -12.413  16.296  66.602  1.00  0.00     0.000 HD 
BRANCH  13  15
HETATM   15  C   UNL     1     -11.121  14.977  65.711  1.00  0.00    -0.346 C  
BRANCH  15  16
HETATM   16  C   UNL     1     -11.595  13.567  65.361  1.00  0.00    -0.334 C  
BRANCH  16  17
HETATM   17  C   UNL     1     -10.501  12.823  64.591  1.00  0.00    -0.373 C  
BRANCH  17  18
HETATM   18  C   UNL     1      -9.925  11.700  65.412  1.00  0.00    -0.287 A  
HETATM   19  C   UNL     1      -8.533  10.940  67.263  1.00  0.00    -0.125 A  
HETATM   20  C   UNL     1      -7.641  11.233  68.443  1.00  0.00    -0.120 C  
HETATM   21  C   UNL     1      -9.123  11.979  66.527  1.00  0.00    -0.202 A  
HETATM   22  C   UNL     1      -9.565   9.330  65.764  1.00  0.00    -0.341 A  
HETATM   23  F   UNL     1      -7.503  12.564  68.708  1.00  0.00    -0.107 F  
HETATM   24  F   UNL     1      -8.099  10.673  69.597  1.00  0.00    -0.155 F  
HETATM   25  F   UNL     1      -6.376  10.757  68.272  1.00  0.00    -0.055 F  
HETATM   26  C   UNL     1      -8.765   9.613  66.872  1.00  0.00    -0.139 A  
HETATM   27  C   UNL     1     -10.139  10.370  65.037  1.00  0.00    -0.379 A  
ENDBRANCH  17  18
ENDBRANCH  16  17
ENDBRANCH  15  16
ENDBRANCH  13  15
ENDBRANCH   2  13
TORSDOF 6
ENDMDL
MODEL      303
REMARK 921   NORMALIZED FREE ENERGY PREDICTED BY IDOCK:   -3.18 KCAL/MOL
REMARK 922        TOTAL FREE ENERGY PREDICTED BY IDOCK:   -7.42 KCAL/MOL
REMARK 923 INTER-LIGAND FREE ENERGY PREDICTED BY IDOCK:   -6.78 KCAL/MOL
REMARK 924 INTRA-LIGAND FREE ENERGY PREDICTED BY IDOCK:   -0.64 KCAL/MOL
REMARK 927      BINDING AFFINITY PREDICTED BY RF-SCORE:    0.00 PKD
ROOT
HETATM    1  C   UNL     1      -7.217   7.316  70.786  1.00  0.00    -0.069 C  
HETATM    2  C   UNL     1      -8.488   7.308  69.918  1.00  0.00    -0.140 C  
ENDROOT
BRANCH   2   3
HETATM    3  C   UNL     1      -9.791   7.191  70.716  1.00  0.00    -0.180 A  
HETATM    4  C   UNL     1      -9.335   4.072  72.825  1.00  0.00    -0.150 A  
HETATM    5  C   UNL     1     -10.815   8.139  70.514  1.00  0.00    -0.247 A  
HETATM    6  C   UNL     1     -10.611   3.931  73.349  1.00  0.00    -0.277 A  
HETATM    7  C   UNL     1      -9.041   5.153  71.989  1.00  0.00    -0.152 A  
HETATM    8  C   UNL     1     -11.579   4.893  73.069  1.00  0.00    -0.284 A  
HETATM    9  C   UNL     1     -12.044   8.026  71.153  1.00  0.00    -0.284 A  
HETATM   10  C   UNL     1     -12.287   6.945  71.992  1.00  0.00    -0.305 A  
HETATM   11  C   UNL     1     -10.014   6.119  71.635  1.00  0.00    -0.203 A  
HETATM   12  C   UNL     1     -11.296   5.987  72.235  1.00  0.00    -0.353 A  
ENDBRANCH   2   3
BRANCH   2  13
HETATM   13  N   UNL     1      -8.403   6.367  68.788  1.00  0.00    -0.120 NA 
HETATM   14  H   UNL     1      -9.250   5.800  68.732  1.00  0.00     0.000 HD 
BRANCH  13  15
HETATM   15  C   UNL     1      -8.127   6.994  67.500  1.00  0.00    -0.113 C  
BRANCH  15  16
HETATM   16  C   UNL     1      -8.587   8.450  67.505  1.00  0.00    -0.129 C  
BRANCH  16  17
HETATM   17  C   UNL     1      -9.401   8.746  66.242  1.00  0.00    -0.283 C  
BRANCH  17  18
HETATM   18  C   UNL     1     -10.126  10.061  66.356  1.00  0.00    -0.307 A  
HETATM   19  C   UNL     1     -10.748  12.215  65.400  1.00  0.00    -0.323 A  
HETATM   20  C   UNL     1     -10.723  13.204  64.262  1.00  0.00    -0.409 C  
HETATM   21  C   UNL     1     -10.127  10.962  65.283  1.00  0.00    -0.340 A  
HETATM   22  C   UNL     1     -11.385  11.654  67.678  1.00  0.00    -0.362 A  
HETATM   23  F   UNL     1     -10.074  12.747  63.153  1.00  0.00    -0.160 F  
HETATM   24  F   UNL     1     -11.972  13.551  63.842  1.00  0.00    -0.432 F  
HETATM   25  F   UNL     1     -10.105  14.371  64.598  1.00  0.00    -0.428 F  
HETATM   26  C   UNL     1     -11.380  12.550  66.607  1.00  0.00    -0.389 A  
HETATM   27  C   UNL     1     -10.757  10.417  67.552  1.00  0.00    -0.339 A  
ENDBRANCH  17  18
ENDBRANCH  16  17
ENDBRANCH  15  16
ENDBRANCH  13  15
ENDBRANCH   2  13
TORSDOF 6
ENDMDL
MODEL      304
REMARK 921   NORMALIZED FREE ENERGY PREDICTED BY IDOCK:   -3.17 KCAL/MOL
REMARK 922        TOTAL FREE ENERGY PREDICTED BY IDOCK:   -7.41 KCAL/MOL
REMARK 923 INTER-LIGAND FREE ENERGY PREDICTED BY IDOCK:   -6.91 KCAL/MOL
REMARK 924 INTRA-LIGAND FREE ENERGY PREDICTED BY IDOCK:   -0.50 KCAL/MOL
REMARK 927      BINDING AFFINITY PREDICTED BY RF-SCORE:    0.00 PKD
ROOT
HETATM    1  C   UNL     1      -6.916   9.813  65.382  1.00  0.00    -0.105 C  
HETATM    2  C   UNL     1      -8.391  10.138  65.678  1.00  0.00    -0.152 C  
ENDROOT
BRANCH   2   3
HETATM    3  C   UNL     1      -8.841   9.772  67.095  1.00  0.00    -0.141 A  
HETATM    4  C   UNL     1     -10.324   6.298  66.754  1.00  0.00    -0.285 A  
HETATM    5  C   UNL     1      -8.671  10.705  68.139  1.00  0.00    -0.130 A  
HETATM    6  C   UNL     1     -10.878   6.133  68.013  1.00  0.00    -0.398 A  
HETATM    7  C   UNL     1      -9.623   7.469  66.448  1.00  0.00    -0.194 A  
HETATM    8  C   UNL     1     -10.698   7.122  68.978  1.00  0.00    -0.204 A  
HETATM    9  C   UNL     1      -9.140  10.450  69.423  1.00  0.00    -0.170 A  
HETATM   10  C   UNL     1      -9.813   9.264  69.688  1.00  0.00    -0.196 A  
HETATM   11  C   UNL     1      -9.469   8.520  67.384  1.00  0.00    -0.188 A  
HETATM   12  C   UNL     1      -9.993   8.301  68.687  1.00  0.00    -0.203 A  
ENDBRANCH   2   3
BRANCH   2  13
HETATM   13  N   UNL     1      -9.304   9.655  64.627  1.00  0.00    -0.389 NA 
HETATM   14  H   UNL     1      -9.719   8.764  64.898  1.00  0.00     0.000 HD 
BRANCH  13  15
HETATM   15  C   UNL     1     -10.344  10.606  64.247  1.00  0.00    -0.255 C  
BRANCH  15  16
HETATM   16  C   UNL     1     -10.469  11.708  65.297  1.00  0.00    -0.323 C  
BRANCH  16  17
HETATM   17  C   UNL     1     -10.631  13.068  64.612  1.00  0.00    -0.397 C  
BRANCH  17  18
HETATM   18  C   UNL     1     -10.631  14.188  65.618  1.00  0.00    -0.317 A  
HETATM   19  C   UNL     1     -11.022  14.982  67.889  1.00  0.00    -0.291 A  
HETATM   20  C   UNL     1     -11.409  14.723  69.324  1.00  0.00    -0.294 C  
HETATM   21  C   UNL     1     -10.960  13.935  66.957  1.00  0.00    -0.301 A  
HETATM   22  C   UNL     1     -10.408  16.545  66.132  1.00  0.00    -0.344 A  
HETATM   23  F   UNL     1     -11.658  13.410  69.595  1.00  0.00    -0.309 F  
HETATM   24  F   UNL     1     -10.441  15.106  70.204  1.00  0.00    -0.271 F  
HETATM   25  F   UNL     1     -12.535  15.397  69.690  1.00  0.00    -0.336 F  
HETATM   26  C   UNL     1     -10.739  16.289  67.464  1.00  0.00    -0.300 A  
HETATM   27  C   UNL     1     -10.358  15.498  65.215  1.00  0.00    -0.416 A  
ENDBRANCH  17  18
ENDBRANCH  16  17
ENDBRANCH  15  16
ENDBRANCH  13  15
ENDBRANCH   2  13
TORSDOF 6
ENDMDL
MODEL      305
REMARK 921   NORMALIZED FREE ENERGY PREDICTED BY IDOCK:   -3.15 KCAL/MOL
REMARK 922        TOTAL FREE ENERGY PREDICTED BY IDOCK:   -7.38 KCAL/MOL
REMARK 923 INTER-LIGAND FREE ENERGY PREDICTED BY IDOCK:   -5.92 KCAL/MOL
REMARK 924 INTRA-LIGAND FREE ENERGY PREDICTED BY IDOCK:   -1.47 KCAL/MOL
REMARK 927      BINDING AFFINITY PREDICTED BY RF-SCORE:    0.00 PKD
ROOT
HETATM    1  C   UNL     1      -8.745  10.879  68.939  1.00  0.00    -0.144 C  
HETATM    2  C   UNL     1     -10.226  11.030  68.550  1.00  0.00    -0.192 C  
ENDROOT
BRANCH   2   3
HETATM    3  C   UNL     1     -11.200  10.893  69.724  1.00  0.00    -0.351 A  
HETATM    4  C   UNL     1     -11.011   7.231  70.694  1.00  0.00    -0.278 A  
HETATM    5  C   UNL     1     -11.929  12.021  70.155  1.00  0.00    -0.401 A  
HETATM    6  C   UNL     1     -12.050   7.156  71.608  1.00  0.00    -0.371 A  
HETATM    7  C   UNL     1     -10.697   8.455  70.095  1.00  0.00    -0.238 A  
HETATM    8  C   UNL     1     -12.749   8.312  71.951  1.00  0.00    -0.373 A  
HETATM    9  C   UNL     1     -12.884  11.926  71.162  1.00  0.00    -0.346 A  
HETATM   10  C   UNL     1     -13.150  10.693  71.745  1.00  0.00    -0.571 A  
HETATM   11  C   UNL     1     -11.421   9.639  70.374  1.00  0.00    -0.325 A  
HETATM   12  C   UNL     1     -12.441   9.549  71.360  1.00  0.00    -0.450 A  
ENDBRANCH   2   3
BRANCH   2  13
HETATM   13  N   UNL     1     -10.597  10.214  67.380  1.00  0.00    -0.256 NA 
HETATM   14  H   UNL     1     -11.610  10.195  67.267  1.00  0.00     0.000 HD 
BRANCH  13  15
HETATM   15  C   UNL     1      -9.953  10.617  66.134  1.00  0.00    -0.228 C  
BRANCH  15  16
HETATM   16  C   UNL     1      -9.450   9.393  65.373  1.00  0.00    -0.322 C  
BRANCH  16  17
HETATM   17  C   UNL     1      -8.161   8.872  66.013  1.00  0.00    -0.111 C  
BRANCH  17  18
HETATM   18  C   UNL     1      -8.330   7.460  66.508  1.00  0.00    -0.124 A  
HETATM   19  C   UNL     1      -8.087   5.804  68.280  1.00  0.00    -0.108 A  
HETATM   20  C   UNL     1      -7.689   5.433  69.687  1.00  0.00    -0.074 C  
HETATM   21  C   UNL     1      -7.990   7.128  67.827  1.00  0.00    -0.114 A  
HETATM   22  C   UNL     1      -8.885   5.140  66.083  1.00  0.00    -0.132 A  
HETATM   23  F   UNL     1      -7.265   6.492  70.434  1.00  0.00    -0.070 F  
HETATM   24  F   UNL     1      -8.713   4.872  70.390  1.00  0.00    -0.093 F  
HETATM   25  F   UNL     1      -6.673   4.527  69.720  1.00  0.00    -0.033 F  
HETATM   26  C   UNL     1      -8.541   4.814  67.396  1.00  0.00    -0.104 A  
HETATM   27  C   UNL     1      -8.776   6.457  65.642  1.00  0.00    -0.108 A  
ENDBRANCH  17  18
ENDBRANCH  16  17
ENDBRANCH  15  16
ENDBRANCH  13  15
ENDBRANCH   2  13
TORSDOF 6
ENDMDL
MODEL      306
REMARK 921   NORMALIZED FREE ENERGY PREDICTED BY IDOCK:   -3.15 KCAL/MOL
REMARK 922        TOTAL FREE ENERGY PREDICTED BY IDOCK:   -7.38 KCAL/MOL
REMARK 923 INTER-LIGAND FREE ENERGY PREDICTED BY IDOCK:   -5.04 KCAL/MOL
REMARK 924 INTRA-LIGAND FREE ENERGY PREDICTED BY IDOCK:   -2.34 KCAL/MOL
REMARK 927      BINDING AFFINITY PREDICTED BY RF-SCORE:    0.00 PKD
ROOT
HETATM    1  C   UNL     1      -8.279  10.146  67.253  1.00  0.00    -0.117 C  
HETATM    2  C   UNL     1      -9.373  11.122  67.722  1.00  0.00    -0.164 C  
ENDROOT
BRANCH   2   3
HETATM    3  C   UNL     1      -9.293  12.509  67.079  1.00  0.00    -0.210 A  
HETATM    4  C   UNL     1     -12.606  12.911  65.276  1.00  0.00    -0.502 A  
HETATM    5  C   UNL     1      -8.121  13.278  67.232  1.00  0.00    -0.150 A  
HETATM    6  C   UNL     1     -12.370  14.080  64.570  1.00  0.00    -0.409 A  
HETATM    7  C   UNL     1     -11.622  12.402  66.129  1.00  0.00    -0.452 A  
HETATM    8  C   UNL     1     -11.168  14.760  64.747  1.00  0.00    -0.392 A  
HETATM    9  C   UNL     1      -7.972  14.507  66.597  1.00  0.00     0.433 A  
HETATM   10  C   UNL     1      -8.984  14.984  65.774  1.00  0.00     0.320 A  
HETATM   11  C   UNL     1     -10.365  13.034  66.291  1.00  0.00    -0.291 A  
HETATM   12  C   UNL     1     -10.172  14.263  65.604  1.00  0.00    -0.366 A  
ENDBRANCH   2   3
BRANCH   2  13
HETATM   13  N   UNL     1      -9.515  11.159  69.188  1.00  0.00    -0.407 NA 
HETATM   14  H   UNL     1      -9.019  11.964  69.573  1.00  0.00     0.000 HD 
BRANCH  13  15
HETATM   15  C   UNL     1     -10.895  11.138  69.663  1.00  0.00    -0.142 C  
BRANCH  15  16
HETATM   16  C   UNL     1     -11.648  12.372  69.169  1.00  0.00    -0.369 C  
BRANCH  16  17
HETATM   17  C   UNL     1     -11.433  13.538  70.137  1.00  0.00    -0.083 C  
BRANCH  17  18
HETATM   18  C   UNL     1     -10.993  14.779  69.406  1.00  0.00    -0.282 A  
HETATM   19  C   UNL     1      -9.276  16.436  68.909  1.00  0.00    -0.259 A  
HETATM   20  C   UNL     1      -7.874  16.965  69.074  1.00  0.00    -0.184 C  
HETATM   21  C   UNL     1      -9.679  15.248  69.538  1.00  0.00    -0.224 A  
HETATM   22  C   UNL     1     -11.516  16.680  67.999  1.00  0.00     0.087 A  
HETATM   23  F   UNL     1      -7.079  16.177  69.853  1.00  0.00    -0.190 F  
HETATM   24  F   UNL     1      -7.219  17.092  67.886  1.00  0.00    -0.144 F  
HETATM   25  F   UNL     1      -7.847  18.200  69.649  1.00  0.00     0.105 F  
HETATM   26  C   UNL     1     -10.207  17.146  68.136  1.00  0.00    -0.332 A  
HETATM   27  C   UNL     1     -11.906  15.504  68.635  1.00  0.00    -0.318 A  
ENDBRANCH  17  18
ENDBRANCH  16  17
ENDBRANCH  15  16
ENDBRANCH  13  15
ENDBRANCH   2  13
TORSDOF 6
ENDMDL
MODEL      307
REMARK 921   NORMALIZED FREE ENERGY PREDICTED BY IDOCK:   -3.13 KCAL/MOL
REMARK 922        TOTAL FREE ENERGY PREDICTED BY IDOCK:   -7.36 KCAL/MOL
REMARK 923 INTER-LIGAND FREE ENERGY PREDICTED BY IDOCK:   -6.51 KCAL/MOL
REMARK 924 INTRA-LIGAND FREE ENERGY PREDICTED BY IDOCK:   -0.85 KCAL/MOL
REMARK 927      BINDING AFFINITY PREDICTED BY RF-SCORE:    0.00 PKD
ROOT
HETATM    1  C   UNL     1     -11.320  13.289  66.698  1.00  0.00    -0.353 C  
HETATM    2  C   UNL     1     -10.704  13.846  67.993  1.00  0.00    -0.247 C  
ENDROOT
BRANCH   2   3
HETATM    3  C   UNL     1      -9.223  14.216  67.875  1.00  0.00    -0.196 A  
HETATM    4  C   UNL     1      -9.234  17.722  66.426  1.00  0.00    -0.257 A  
HETATM    5  C   UNL     1      -8.241  13.277  68.252  1.00  0.00    -0.156 A  
HETATM    6  C   UNL     1      -7.884  17.894  66.167  1.00  0.00    -0.257 A  
HETATM    7  C   UNL     1      -9.685  16.538  67.017  1.00  0.00    -0.255 A  
HETATM    8  C   UNL     1      -6.981  16.899  66.536  1.00  0.00    -0.262 A  
HETATM    9  C   UNL     1      -6.885  13.538  68.084  1.00  0.00    -0.119 A  
HETATM   10  C   UNL     1      -6.481  14.737  67.511  1.00  0.00    -0.090 A  
HETATM   11  C   UNL     1      -8.805  15.481  67.352  1.00  0.00    -0.203 A  
HETATM   12  C   UNL     1      -7.419  15.706  67.134  1.00  0.00    -0.253 A  
ENDBRANCH   2   3
BRANCH   2  13
HETATM   13  N   UNL     1     -11.013  13.020  69.174  1.00  0.00    -0.409 NA 
HETATM   14  H   UNL     1     -11.372  13.602  69.931  1.00  0.00     0.000 HD 
BRANCH  13  15
HETATM   15  C   UNL     1     -11.920  11.908  68.914  1.00  0.00    -0.254 C  
BRANCH  15  16
HETATM   16  C   UNL     1     -11.910  10.926  70.083  1.00  0.00    -0.438 C  
BRANCH  16  17
HETATM   17  C   UNL     1     -10.560  10.206  70.151  1.00  0.00    -0.337 C  
BRANCH  17  18
HETATM   18  C   UNL     1     -10.728   8.718  70.002  1.00  0.00    -0.236 A  
HETATM   19  C   UNL     1     -10.291   6.659  68.772  1.00  0.00    -0.214 A  
HETATM   20  C   UNL     1      -9.638   5.926  67.627  1.00  0.00    -0.111 C  
HETATM   21  C   UNL     1     -10.092   8.036  68.955  1.00  0.00    -0.209 A  
HETATM   22  C   UNL     1     -11.760   6.642  70.707  1.00  0.00    -0.445 A  
HETATM   23  F   UNL     1      -8.854   6.720  66.843  1.00  0.00    -0.111 F  
HETATM   24  F   UNL     1      -8.832   4.911  68.047  1.00  0.00    -0.102 F  
HETATM   25  F   UNL     1     -10.546   5.357  66.786  1.00  0.00    -0.239 F  
HETATM   26  C   UNL     1     -11.128   5.968  69.660  1.00  0.00    -0.474 A  
HETATM   27  C   UNL     1     -11.563   8.011  70.873  1.00  0.00    -0.284 A  
ENDBRANCH  17  18
ENDBRANCH  16  17
ENDBRANCH  15  16
ENDBRANCH  13  15
ENDBRANCH   2  13
TORSDOF 6
ENDMDL
MODEL      308
REMARK 921   NORMALIZED FREE ENERGY PREDICTED BY IDOCK:   -3.12 KCAL/MOL
REMARK 922        TOTAL FREE ENERGY PREDICTED BY IDOCK:   -7.34 KCAL/MOL
REMARK 923 INTER-LIGAND FREE ENERGY PREDICTED BY IDOCK:   -6.62 KCAL/MOL
REMARK 924 INTRA-LIGAND FREE ENERGY PREDICTED BY IDOCK:   -0.72 KCAL/MOL
REMARK 927      BINDING AFFINITY PREDICTED BY RF-SCORE:    0.00 PKD
ROOT
HETATM    1  C   UNL     1     -11.858  12.436  66.545  1.00  0.00    -0.407 C  
HETATM    2  C   UNL     1     -11.891  12.217  68.068  1.00  0.00    -0.285 C  
ENDROOT
BRANCH   2   3
HETATM    3  C   UNL     1     -11.528  13.458  68.888  1.00  0.00    -0.347 A  
HETATM    4  C   UNL     1     -13.311  12.962  72.200  1.00  0.00    -0.615 A  
HETATM    5  C   UNL     1     -10.718  14.457  68.312  1.00  0.00    -0.246 A  
HETATM    6  C   UNL     1     -13.099  14.198  72.790  1.00  0.00    -0.573 A  
HETATM    7  C   UNL     1     -12.773  12.691  70.938  1.00  0.00    -0.274 A  
HETATM    8  C   UNL     1     -12.318  15.148  72.135  1.00  0.00    -0.435 A  
HETATM    9  C   UNL     1     -10.431  15.638  68.988  1.00  0.00    -0.229 A  
HETATM   10  C   UNL     1     -10.970  15.858  70.250  1.00  0.00    -0.370 A  
HETATM   11  C   UNL     1     -12.023  13.651  70.216  1.00  0.00    -0.397 A  
HETATM   12  C   UNL     1     -11.768  14.888  70.869  1.00  0.00    -0.374 A  
ENDBRANCH   2   3
BRANCH   2  13
HETATM   13  N   UNL     1     -11.170  11.002  68.487  1.00  0.00    -0.244 NA 
HETATM   14  H   UNL     1     -11.574  10.177  68.043  1.00  0.00     0.000 HD 
BRANCH  13  15
HETATM   15  C   UNL     1      -9.729  11.047  68.261  1.00  0.00    -0.177 C  
BRANCH  15  16
HETATM   16  C   UNL     1      -9.058   9.805  68.846  1.00  0.00    -0.148 C  
BRANCH  16  17
HETATM   17  C   UNL     1     -10.109   8.732  69.140  1.00  0.00    -0.203 C  
BRANCH  17  18
HETATM   18  C   UNL     1      -9.837   7.474  68.360  1.00  0.00    -0.173 A  
HETATM   19  C   UNL     1      -8.311   6.090  67.057  1.00  0.00    -0.105 A  
HETATM   20  C   UNL     1      -6.948   5.839  66.461  1.00  0.00    -0.064 C  
HETATM   21  C   UNL     1      -8.560   7.230  67.836  1.00  0.00    -0.120 A  
HETATM   22  C   UNL     1     -10.631   5.424  67.340  1.00  0.00    -0.228 A  
HETATM   23  F   UNL     1      -6.029   6.796  66.773  1.00  0.00    -0.021 F  
HETATM   24  F   UNL     1      -6.407   4.658  66.871  1.00  0.00    -0.032 F  
HETATM   25  F   UNL     1      -6.977   5.783  65.100  1.00  0.00    -0.053 F  
HETATM   26  C   UNL     1      -9.358   5.188  66.817  1.00  0.00    -0.134 A  
HETATM   27  C   UNL     1     -10.868   6.564  68.105  1.00  0.00    -0.370 A  
ENDBRANCH  17  18
ENDBRANCH  16  17
ENDBRANCH  15  16
ENDBRANCH  13  15
ENDBRANCH   2  13
TORSDOF 6
ENDMDL
MODEL      309
REMARK 921   NORMALIZED FREE ENERGY PREDICTED BY IDOCK:   -3.11 KCAL/MOL
REMARK 922        TOTAL FREE ENERGY PREDICTED BY IDOCK:   -7.33 KCAL/MOL
REMARK 923 INTER-LIGAND FREE ENERGY PREDICTED BY IDOCK:   -5.49 KCAL/MOL
REMARK 924 INTRA-LIGAND FREE ENERGY PREDICTED BY IDOCK:   -1.85 KCAL/MOL
REMARK 927      BINDING AFFINITY PREDICTED BY RF-SCORE:    0.00 PKD
ROOT
HETATM    1  C   UNL     1     -10.881   6.173  67.582  1.00  0.00    -0.421 C  
HETATM    2  C   UNL     1     -10.616   7.409  68.460  1.00  0.00    -0.153 C  
ENDROOT
BRANCH   2   3
HETATM    3  C   UNL     1     -10.508   8.722  67.679  1.00  0.00    -0.310 A  
HETATM    4  C   UNL     1     -11.819  11.358  70.070  1.00  0.00    -0.440 A  
HETATM    5  C   UNL     1     -10.028   8.703  66.353  1.00  0.00    -0.331 A  
HETATM    6  C   UNL     1     -11.876  12.458  69.229  1.00  0.00    -0.361 A  
HETATM    7  C   UNL     1     -11.340  10.136  69.588  1.00  0.00    -0.289 A  
HETATM    8  C   UNL     1     -11.418  12.346  67.919  1.00  0.00    -0.385 A  
HETATM    9  C   UNL     1      -9.992   9.857  65.579  1.00  0.00    -0.363 A  
HETATM   10  C   UNL     1     -10.458  11.055  66.105  1.00  0.00    -0.301 A  
HETATM   11  C   UNL     1     -10.921   9.968  68.247  1.00  0.00    -0.278 A  
HETATM   12  C   UNL     1     -10.930  11.126  67.422  1.00  0.00    -0.347 A  
ENDBRANCH   2   3
BRANCH   2  13
HETATM   13  N   UNL     1      -9.517   7.203  69.420  1.00  0.00    -0.154 NA 
HETATM   14  H   UNL     1      -9.484   6.228  69.720  1.00  0.00     0.000 HD 
BRANCH  13  15
HETATM   15  C   UNL     1      -8.207   7.630  68.939  1.00  0.00    -0.128 C  
BRANCH  15  16
HETATM   16  C   UNL     1      -7.388   6.426  68.478  1.00  0.00    -0.087 C  
BRANCH  16  17
HETATM   17  C   UNL     1      -6.468   6.830  67.323  1.00  0.00    -0.049 C  
BRANCH  17  18
HETATM   18  C   UNL     1      -7.125   6.584  65.991  1.00  0.00    -0.063 A  
HETATM   19  C   UNL     1      -8.483   5.174  64.539  1.00  0.00    -0.141 A  
HETATM   20  C   UNL     1      -9.306   3.931  64.309  1.00  0.00    -0.152 C  
HETATM   21  C   UNL     1      -7.916   5.443  65.794  1.00  0.00    -0.106 A  
HETATM   22  C   UNL     1      -7.472   7.208  63.676  1.00  0.00    -0.100 A  
HETATM   23  F   UNL     1      -9.443   3.152  65.420  1.00  0.00    -0.153 F  
HETATM   24  F   UNL     1     -10.574   4.212  63.897  1.00  0.00    -0.210 F  
HETATM   25  F   UNL     1      -8.773   3.121  63.352  1.00  0.00    -0.088 F  
HETATM   26  C   UNL     1      -8.256   6.069  63.483  1.00  0.00    -0.029 A  
HETATM   27  C   UNL     1      -6.907   7.460  64.924  1.00  0.00    -0.050 A  
ENDBRANCH  17  18
ENDBRANCH  16  17
ENDBRANCH  15  16
ENDBRANCH  13  15
ENDBRANCH   2  13
TORSDOF 6
ENDMDL
MODEL      310
REMARK 921   NORMALIZED FREE ENERGY PREDICTED BY IDOCK:   -3.11 KCAL/MOL
REMARK 922        TOTAL FREE ENERGY PREDICTED BY IDOCK:   -7.33 KCAL/MOL
REMARK 923 INTER-LIGAND FREE ENERGY PREDICTED BY IDOCK:   -6.80 KCAL/MOL
REMARK 924 INTRA-LIGAND FREE ENERGY PREDICTED BY IDOCK:   -0.53 KCAL/MOL
REMARK 927      BINDING AFFINITY PREDICTED BY RF-SCORE:    0.00 PKD
ROOT
HETATM    1  C   UNL     1     -10.027  15.852  69.668  1.00  0.00    -0.255 C  
HETATM    2  C   UNL     1      -9.372  15.977  68.281  1.00  0.00    -0.199 C  
ENDROOT
BRANCH   2   3
HETATM    3  C   UNL     1      -9.522  17.359  67.638  1.00  0.00    -0.251 A  
HETATM    4  C   UNL     1      -6.248  17.912  65.804  1.00  0.00    -0.252 A  
HETATM    5  C   UNL     1     -10.702  18.099  67.853  1.00  0.00    -0.331 A  
HETATM    6  C   UNL     1      -6.387  19.240  65.431  1.00  0.00    -0.303 A  
HETATM    7  C   UNL     1      -7.280  17.271  66.496  1.00  0.00    -0.305 A  
HETATM    8  C   UNL     1      -7.572  19.913  65.716  1.00  0.00    -0.309 A  
HETATM    9  C   UNL     1     -10.848  19.391  67.359  1.00  0.00    -0.555 A  
HETATM   10  C   UNL     1      -9.804  19.983  66.659  1.00  0.00    -0.577 A  
HETATM   11  C   UNL     1      -8.475  17.939  66.855  1.00  0.00    -0.260 A  
HETATM   12  C   UNL     1      -8.619  19.281  66.408  1.00  0.00    -0.355 A  
ENDBRANCH   2   3
BRANCH   2  13
HETATM   13  N   UNL     1      -9.727  14.867  67.379  1.00  0.00    -0.216 NA 
HETATM   14  H   UNL     1      -9.061  14.808  66.608  1.00  0.00     0.000 HD 
BRANCH  13  15
HETATM   15  C   UNL     1      -9.857  13.571  68.037  1.00  0.00    -0.238 C  
BRANCH  15  16
HETATM   16  C   UNL     1      -8.601  12.731  67.816  1.00  0.00    -0.184 C  
BRANCH  16  17
HETATM   17  C   UNL     1      -8.622  11.506  68.734  1.00  0.00    -0.055 C  
BRANCH  17  18
HETATM   18  C   UNL     1      -9.293  10.336  68.067  1.00  0.00    -0.145 A  
HETATM   19  C   UNL     1     -10.034   8.014  68.127  1.00  0.00    -0.217 A  
HETATM   20  C   UNL     1     -10.188   6.703  68.855  1.00  0.00    -0.177 C  
HETATM   21  C   UNL     1      -9.463   9.129  68.760  1.00  0.00    -0.147 A  
HETATM   22  C   UNL     1     -10.279   9.327  66.097  1.00  0.00    -0.229 A  
HETATM   23  F   UNL     1      -9.747   6.737  70.145  1.00  0.00    -0.165 F  
HETATM   24  F   UNL     1     -11.484   6.288  68.919  1.00  0.00    -0.425 F  
HETATM   25  F   UNL     1      -9.501   5.690  68.256  1.00  0.00    -0.110 F  
HETATM   26  C   UNL     1     -10.443   8.126  66.790  1.00  0.00    -0.316 A  
HETATM   27  C   UNL     1      -9.704  10.424  66.733  1.00  0.00    -0.224 A  
ENDBRANCH  17  18
ENDBRANCH  16  17
ENDBRANCH  15  16
ENDBRANCH  13  15
ENDBRANCH   2  13
TORSDOF 6
ENDMDL
MODEL      311
REMARK 921   NORMALIZED FREE ENERGY PREDICTED BY IDOCK:   -3.10 KCAL/MOL
REMARK 922        TOTAL FREE ENERGY PREDICTED BY IDOCK:   -7.31 KCAL/MOL
REMARK 923 INTER-LIGAND FREE ENERGY PREDICTED BY IDOCK:   -5.24 KCAL/MOL
REMARK 924 INTRA-LIGAND FREE ENERGY PREDICTED BY IDOCK:   -2.07 KCAL/MOL
REMARK 927      BINDING AFFINITY PREDICTED BY RF-SCORE:    0.00 PKD
ROOT
HETATM    1  C   UNL     1      -5.495   9.600  64.832  1.00  0.00    -0.057 C  
HETATM    2  C   UNL     1      -6.992   9.946  64.905  1.00  0.00    -0.131 C  
ENDROOT
BRANCH   2   3
HETATM    3  C   UNL     1      -7.828   8.950  65.714  1.00  0.00    -0.099 A  
HETATM    4  C   UNL     1      -8.460  10.705  69.017  1.00  0.00    -0.148 A  
HETATM    5  C   UNL     1      -8.143   7.694  65.156  1.00  0.00    -0.134 A  
HETATM    6  C   UNL     1      -9.034   9.676  69.746  1.00  0.00    -0.226 A  
HETATM    7  C   UNL     1      -8.092  10.495  67.684  1.00  0.00    -0.107 A  
HETATM    8  C   UNL     1      -9.276   8.450  69.130  1.00  0.00    -0.150 A  
HETATM    9  C   UNL     1      -8.827   6.728  65.885  1.00  0.00    -0.127 A  
HETATM   10  C   UNL     1      -9.192   6.987  67.200  1.00  0.00    -0.153 A  
HETATM   11  C   UNL     1      -8.268   9.245  67.043  1.00  0.00    -0.116 A  
HETATM   12  C   UNL     1      -8.915   8.225  67.792  1.00  0.00    -0.139 A  
ENDBRANCH   2   3
BRANCH   2  13
HETATM   13  N   UNL     1      -7.570  10.266  63.587  1.00  0.00    -0.248 NA 
HETATM   14  H   UNL     1      -8.006   9.439  63.180  1.00  0.00     0.000 HD 
BRANCH  13  15
HETATM   15  C   UNL     1      -8.507  11.384  63.594  1.00  0.00     0.562 C  
BRANCH  15  16
HETATM   16  C   UNL     1      -9.932  10.888  63.355  1.00  0.00    -0.414 C  
BRANCH  16  17
HETATM   17  C   UNL     1     -10.626  10.625  64.694  1.00  0.00    -0.166 C  
BRANCH  17  18
HETATM   18  C   UNL     1     -11.156  11.900  65.293  1.00  0.00    -0.354 A  
HETATM   19  C   UNL     1     -11.603  13.284  67.249  1.00  0.00    -0.404 A  
HETATM   20  C   UNL     1     -11.531  13.518  68.737  1.00  0.00    -0.311 C  
HETATM   21  C   UNL     1     -11.058  12.126  66.673  1.00  0.00    -0.353 A  
HETATM   22  C   UNL     1     -12.337  14.001  65.046  1.00  0.00    -0.458 A  
HETATM   23  F   UNL     1     -10.886  12.528  69.417  1.00  0.00    -0.209 F  
HETATM   24  F   UNL     1     -10.877  14.671  69.055  1.00  0.00    -0.215 F  
HETATM   25  F   UNL     1     -12.764  13.618  69.309  1.00  0.00    -0.232 F  
HETATM   26  C   UNL     1     -12.240  14.220  66.422  1.00  0.00    -0.426 A  
HETATM   27  C   UNL     1     -11.800  12.843  64.488  1.00  0.00    -0.429 A  
ENDBRANCH  17  18
ENDBRANCH  16  17
ENDBRANCH  15  16
ENDBRANCH  13  15
ENDBRANCH   2  13
TORSDOF 6
ENDMDL
MODEL      312
REMARK 921   NORMALIZED FREE ENERGY PREDICTED BY IDOCK:   -3.08 KCAL/MOL
REMARK 922        TOTAL FREE ENERGY PREDICTED BY IDOCK:   -7.29 KCAL/MOL
REMARK 923 INTER-LIGAND FREE ENERGY PREDICTED BY IDOCK:   -5.69 KCAL/MOL
REMARK 924 INTRA-LIGAND FREE ENERGY PREDICTED BY IDOCK:   -1.61 KCAL/MOL
REMARK 927      BINDING AFFINITY PREDICTED BY RF-SCORE:    0.00 PKD
ROOT
HETATM    1  C   UNL     1      -7.560  11.177  66.655  1.00  0.00    -0.147 C  
HETATM    2  C   UNL     1      -8.849  11.623  67.368  1.00  0.00    -0.160 C  
ENDROOT
BRANCH   2   3
HETATM    3  C   UNL     1      -9.434  12.937  66.843  1.00  0.00    -0.237 A  
HETATM    4  C   UNL     1     -11.734  11.888  64.015  1.00  0.00    -0.469 A  
HETATM    5  C   UNL     1      -9.028  14.158  67.421  1.00  0.00    -0.205 A  
HETATM    6  C   UNL     1     -12.055  13.124  63.477  1.00  0.00    -0.585 A  
HETATM    7  C   UNL     1     -10.905  11.811  65.139  1.00  0.00    -0.351 A  
HETATM    8  C   UNL     1     -11.580  14.283  64.085  1.00  0.00    -0.215 A  
HETATM    9  C   UNL     1      -9.469  15.379  66.922  1.00  0.00    -0.246 A  
HETATM   10  C   UNL     1     -10.308  15.408  65.815  1.00  0.00    -0.381 A  
HETATM   11  C   UNL     1     -10.356  12.964  65.750  1.00  0.00    -0.297 A  
HETATM   12  C   UNL     1     -10.750  14.221  65.217  1.00  0.00    -0.377 A  
ENDBRANCH   2   3
BRANCH   2  13
HETATM   13  N   UNL     1      -8.735  11.575  68.837  1.00  0.00    -0.368 NA 
HETATM   14  H   UNL     1      -9.607  11.241  69.250  1.00  0.00     0.000 HD 
BRANCH  13  15
HETATM   15  C   UNL     1      -7.607  10.792  69.330  1.00  0.00    -0.112 C  
BRANCH  15  16
HETATM   16  C   UNL     1      -8.067   9.812  70.407  1.00  0.00    -0.134 C  
BRANCH  16  17
HETATM   17  C   UNL     1      -7.882   8.373  69.918  1.00  0.00    -0.101 C  
BRANCH  17  18
HETATM   18  C   UNL     1      -8.697   8.108  68.680  1.00  0.00    -0.134 A  
HETATM   19  C   UNL     1      -8.812   7.676  66.284  1.00  0.00    -0.182 A  
HETATM   20  C   UNL     1      -8.135   7.447  64.956  1.00  0.00    -0.122 C  
HETATM   21  C   UNL     1      -8.062   7.864  67.455  1.00  0.00    -0.123 A  
HETATM   22  C   UNL     1     -10.849   7.965  67.577  1.00  0.00    -0.152 A  
HETATM   23  F   UNL     1      -6.774   7.426  65.032  1.00  0.00    -0.042 F  
HETATM   24  F   UNL     1      -8.492   6.264  64.383  1.00  0.00    -0.119 F  
HETATM   25  F   UNL     1      -8.439   8.411  64.042  1.00  0.00    -0.165 F  
HETATM   26  C   UNL     1     -10.212   7.725  66.358  1.00  0.00    -0.053 A  
HETATM   27  C   UNL     1     -10.093   8.158  68.730  1.00  0.00    -0.211 A  
ENDBRANCH  17  18
ENDBRANCH  16  17
ENDBRANCH  15  16
ENDBRANCH  13  15
ENDBRANCH   2  13
TORSDOF 6
ENDMDL
MODEL      313
REMARK 921   NORMALIZED FREE ENERGY PREDICTED BY IDOCK:   -3.07 KCAL/MOL
REMARK 922        TOTAL FREE ENERGY PREDICTED BY IDOCK:   -7.28 KCAL/MOL
REMARK 923 INTER-LIGAND FREE ENERGY PREDICTED BY IDOCK:   -6.40 KCAL/MOL
REMARK 924 INTRA-LIGAND FREE ENERGY PREDICTED BY IDOCK:   -0.88 KCAL/MOL
REMARK 927      BINDING AFFINITY PREDICTED BY RF-SCORE:    0.00 PKD
ROOT
HETATM    1  C   UNL     1      -7.285   9.663  71.251  1.00  0.00     0.293 C  
HETATM    2  C   UNL     1      -8.732   9.780  70.741  1.00  0.00     0.332 C  
ENDROOT
BRANCH   2   3
HETATM    3  C   UNL     1      -9.645   8.629  71.174  1.00  0.00    -0.281 A  
HETATM    4  C   UNL     1     -13.068  10.219  71.545  1.00  0.00    -0.534 A  
HETATM    5  C   UNL     1      -9.096   7.344  71.365  1.00  0.00    -0.146 A  
HETATM    6  C   UNL     1     -13.772   9.174  72.124  1.00  0.00    -0.531 A  
HETATM    7  C   UNL     1     -11.726  10.045  71.196  1.00  0.00    -0.472 A  
HETATM    8  C   UNL     1     -13.145   7.945  72.315  1.00  0.00    -0.099 A  
HETATM    9  C   UNL     1      -9.869   6.288  71.837  1.00  0.00    -0.172 A  
HETATM   10  C   UNL     1     -11.205   6.500  72.152  1.00  0.00    -0.308 A  
HETATM   11  C   UNL     1     -11.038   8.830  71.429  1.00  0.00    -0.361 A  
HETATM   12  C   UNL     1     -11.798   7.755  71.965  1.00  0.00    -0.351 A  
ENDBRANCH   2   3
BRANCH   2  13
HETATM   13  N   UNL     1      -8.809  10.083  69.301  1.00  0.00    -0.166 NA 
HETATM   14  H   UNL     1      -8.274  10.925  69.086  1.00  0.00     0.000 HD 
BRANCH  13  15
HETATM   15  C   UNL     1      -8.402   8.986  68.430  1.00  0.00    -0.124 C  
BRANCH  15  16
HETATM   16  C   UNL     1      -9.540   8.604  67.486  1.00  0.00    -0.196 C  
BRANCH  16  17
HETATM   17  C   UNL     1     -10.867   9.149  68.018  1.00  0.00    -0.135 C  
BRANCH  17  18
HETATM   18  C   UNL     1     -11.228  10.451  67.354  1.00  0.00    -0.205 A  
HETATM   19  C   UNL     1     -11.346  11.833  65.349  1.00  0.00    -0.284 A  
HETATM   20  C   UNL     1     -11.145  12.016  63.866  1.00  0.00    -0.405 C  
HETATM   21  C   UNL     1     -11.070  10.605  65.969  1.00  0.00     0.169 A  
HETATM   22  C   UNL     1     -11.957  12.756  67.512  1.00  0.00    -0.342 A  
HETATM   23  F   UNL     1     -10.704  10.894  63.230  1.00  0.00    -0.381 F  
HETATM   24  F   UNL     1     -12.290  12.380  63.223  1.00  0.00    -0.554 F  
HETATM   25  F   UNL     1     -10.232  12.986  63.579  1.00  0.00    -0.301 F  
HETATM   26  C   UNL     1     -11.794  12.906  66.134  1.00  0.00    -0.487 A  
HETATM   27  C   UNL     1     -11.671  11.535  68.118  1.00  0.00    -0.357 A  
ENDBRANCH  17  18
ENDBRANCH  16  17
ENDBRANCH  15  16
ENDBRANCH  13  15
ENDBRANCH   2  13
TORSDOF 6
ENDMDL
MODEL      314
REMARK 921   NORMALIZED FREE ENERGY PREDICTED BY IDOCK:   -3.06 KCAL/MOL
REMARK 922        TOTAL FREE ENERGY PREDICTED BY IDOCK:   -7.26 KCAL/MOL
REMARK 923 INTER-LIGAND FREE ENERGY PREDICTED BY IDOCK:   -6.99 KCAL/MOL
REMARK 924 INTRA-LIGAND FREE ENERGY PREDICTED BY IDOCK:   -0.28 KCAL/MOL
REMARK 927      BINDING AFFINITY PREDICTED BY RF-SCORE:    0.00 PKD
ROOT
HETATM    1  C   UNL     1     -10.621   9.486  71.113  1.00  0.00    -0.388 C  
HETATM    2  C   UNL     1     -10.267   8.068  70.631  1.00  0.00    -0.196 C  
ENDROOT
BRANCH   2   3
HETATM    3  C   UNL     1     -10.173   7.030  71.753  1.00  0.00    -0.209 A  
HETATM    4  C   UNL     1      -9.563   3.745  69.957  1.00  0.00    -0.259 A  
HETATM    5  C   UNL     1     -10.344   7.438  73.092  1.00  0.00    -0.384 A  
HETATM    6  C   UNL     1      -9.693   2.852  71.009  1.00  0.00    -0.166 A  
HETATM    7  C   UNL     1      -9.683   5.119  70.189  1.00  0.00    -0.274 A  
HETATM    8  C   UNL     1      -9.901   3.336  72.299  1.00  0.00    -0.232 A  
HETATM    9  C   UNL     1     -10.349   6.518  74.135  1.00  0.00    -0.351 A  
HETATM   10  C   UNL     1     -10.207   5.164  73.860  1.00  0.00    -0.256 A  
HETATM   11  C   UNL     1      -9.953   5.644  71.476  1.00  0.00    -0.230 A  
HETATM   12  C   UNL     1     -10.019   4.713  72.548  1.00  0.00    -0.220 A  
ENDBRANCH   2   3
BRANCH   2  13
HETATM   13  N   UNL     1      -9.116   8.048  69.711  1.00  0.00    -0.149 NA 
HETATM   14  H   UNL     1      -8.555   7.209  69.863  1.00  0.00     0.000 HD 
BRANCH  13  15
HETATM   15  C   UNL     1      -9.468   8.176  68.301  1.00  0.00    -0.141 C  
BRANCH  15  16
HETATM   16  C   UNL     1      -9.129   9.575  67.791  1.00  0.00    -0.133 C  
BRANCH  16  17
HETATM   17  C   UNL     1     -10.407  10.406  67.655  1.00  0.00    -0.260 C  
BRANCH  17  18
HETATM   18  C   UNL     1     -10.347  11.306  66.450  1.00  0.00    -0.291 A  
HETATM   19  C   UNL     1     -10.484  13.536  65.474  1.00  0.00    -0.304 A  
HETATM   20  C   UNL     1     -10.661  15.026  65.622  1.00  0.00    -0.346 C  
HETATM   21  C   UNL     1     -10.479  12.694  66.597  1.00  0.00    -0.261 A  
HETATM   22  C   UNL     1     -10.209  11.588  64.047  1.00  0.00    -0.394 A  
HETATM   23  F   UNL     1     -10.788  15.437  66.916  1.00  0.00    -0.299 F  
HETATM   24  F   UNL     1      -9.613  15.731  65.111  1.00  0.00    -0.244 F  
HETATM   25  F   UNL     1     -11.770  15.486  64.977  1.00  0.00    -0.291 F  
HETATM   26  C   UNL     1     -10.344  12.969  64.198  1.00  0.00    -0.345 A  
HETATM   27  C   UNL     1     -10.214  10.762  65.169  1.00  0.00    -0.365 A  
ENDBRANCH  17  18
ENDBRANCH  16  17
ENDBRANCH  15  16
ENDBRANCH  13  15
ENDBRANCH   2  13
TORSDOF 6
ENDMDL
MODEL      315
REMARK 921   NORMALIZED FREE ENERGY PREDICTED BY IDOCK:   -3.06 KCAL/MOL
REMARK 922        TOTAL FREE ENERGY PREDICTED BY IDOCK:   -7.26 KCAL/MOL
REMARK 923 INTER-LIGAND FREE ENERGY PREDICTED BY IDOCK:   -5.96 KCAL/MOL
REMARK 924 INTRA-LIGAND FREE ENERGY PREDICTED BY IDOCK:   -1.30 KCAL/MOL
REMARK 927      BINDING AFFINITY PREDICTED BY RF-SCORE:    0.00 PKD
ROOT
HETATM    1  C   UNL     1     -12.938  12.240  63.890  1.00  0.00    -0.309 C  
HETATM    2  C   UNL     1     -11.514  12.265  64.471  1.00  0.00    -0.341 C  
ENDROOT
BRANCH   2   3
HETATM    3  C   UNL     1     -11.198  13.511  65.304  1.00  0.00    -0.304 A  
HETATM    4  C   UNL     1     -12.008  12.501  68.869  1.00  0.00    -0.282 A  
HETATM    5  C   UNL     1     -10.747  14.681  64.658  1.00  0.00    -0.309 A  
HETATM    6  C   UNL     1     -11.890  13.723  69.512  1.00  0.00    -0.394 A  
HETATM    7  C   UNL     1     -11.750  12.408  67.498  1.00  0.00    -0.425 A  
HETATM    8  C   UNL     1     -11.477  14.842  68.792  1.00  0.00    -0.328 A  
HETATM    9  C   UNL     1     -10.528  15.860  65.362  1.00  0.00    -0.429 A  
HETATM   10  C   UNL     1     -10.778  15.903  66.728  1.00  0.00    -0.281 A  
HETATM   11  C   UNL     1     -11.385  13.534  66.721  1.00  0.00    -0.351 A  
HETATM   12  C   UNL     1     -11.211  14.762  67.415  1.00  0.00    -0.346 A  
ENDBRANCH   2   3
BRANCH   2  13
HETATM   13  N   UNL     1     -10.481  11.949  63.469  1.00  0.00    -0.428 NA 
HETATM   14  H   UNL     1      -9.783  12.692  63.430  1.00  0.00     0.000 HD 
BRANCH  13  15
HETATM   15  C   UNL     1      -9.835  10.654  63.654  1.00  0.00    -0.333 C  
BRANCH  15  16
HETATM   16  C   UNL     1      -8.605  10.537  62.756  1.00  0.00    -0.218 C  
BRANCH  16  17
HETATM   17  C   UNL     1      -7.556   9.640  63.418  1.00  0.00    -0.124 C  
BRANCH  17  18
HETATM   18  C   UNL     1      -7.553   9.817  64.913  1.00  0.00    -0.128 A  
HETATM   19  C   UNL     1      -7.689  11.272  66.864  1.00  0.00    -0.152 A  
HETATM   20  C   UNL     1      -7.865  12.641  67.473  1.00  0.00    -0.175 C  
HETATM   21  C   UNL     1      -7.750  11.087  65.475  1.00  0.00     0.153 A  
HETATM   22  C   UNL     1      -7.246   8.898  67.133  1.00  0.00    -0.083 A  
HETATM   23  F   UNL     1      -8.099  13.622  66.557  1.00  0.00     0.048 F  
HETATM   24  F   UNL     1      -8.909  12.694  68.348  1.00  0.00    -0.177 F  
HETATM   25  F   UNL     1      -6.769  13.044  68.175  1.00  0.00    -0.070 F  
HETATM   26  C   UNL     1      -7.438  10.165  67.688  1.00  0.00    -0.090 A  
HETATM   27  C   UNL     1      -7.300   8.728  65.752  1.00  0.00    -0.085 A  
ENDBRANCH  17  18
ENDBRANCH  16  17
ENDBRANCH  15  16
ENDBRANCH  13  15
ENDBRANCH   2  13
TORSDOF 6
ENDMDL
MODEL      316
REMARK 921   NORMALIZED FREE ENERGY PREDICTED BY IDOCK:   -3.06 KCAL/MOL
REMARK 922        TOTAL FREE ENERGY PREDICTED BY IDOCK:   -7.26 KCAL/MOL
REMARK 923 INTER-LIGAND FREE ENERGY PREDICTED BY IDOCK:   -6.46 KCAL/MOL
REMARK 924 INTRA-LIGAND FREE ENERGY PREDICTED BY IDOCK:   -0.80 KCAL/MOL
REMARK 927      BINDING AFFINITY PREDICTED BY RF-SCORE:    0.00 PKD
ROOT
HETATM    1  C   UNL     1     -11.373  14.882  65.514  1.00  0.00    -0.339 C  
HETATM    2  C   UNL     1     -11.190  15.129  67.022  1.00  0.00    -0.308 C  
ENDROOT
BRANCH   2   3
HETATM    3  C   UNL     1      -9.857  15.784  67.393  1.00  0.00    -0.233 A  
HETATM    4  C   UNL     1     -10.533  19.509  67.160  1.00  0.00    -0.592 A  
HETATM    5  C   UNL     1      -8.743  14.971  67.686  1.00  0.00    -0.182 A  
HETATM    6  C   UNL     1      -9.249  20.010  67.308  1.00  0.00    -0.481 A  
HETATM    7  C   UNL     1     -10.754  18.130  67.220  1.00  0.00    -0.336 A  
HETATM    8  C   UNL     1      -8.194  19.135  67.557  1.00  0.00    -0.310 A  
HETATM    9  C   UNL     1      -7.492  15.522  67.947  1.00  0.00    -0.150 A  
HETATM   10  C   UNL     1      -7.322  16.899  67.896  1.00  0.00    -0.176 A  
HETATM   11  C   UNL     1      -9.699  17.206  67.413  1.00  0.00    -0.253 A  
HETATM   12  C   UNL     1      -8.402  17.747  67.624  1.00  0.00    -0.228 A  
ENDBRANCH   2   3
BRANCH   2  13
HETATM   13  N   UNL     1     -11.512  13.945  67.838  1.00  0.00    -0.299 NA 
HETATM   14  H   UNL     1     -12.240  14.169  68.517  1.00  0.00     0.000 HD 
BRANCH  13  15
HETATM   15  C   UNL     1     -11.883  12.763  67.067  1.00  0.00    -0.361 C  
BRANCH  15  16
HETATM   16  C   UNL     1     -10.843  11.659  67.251  1.00  0.00    -0.302 C  
BRANCH  16  17
HETATM   17  C   UNL     1     -11.390  10.575  68.183  1.00  0.00    -0.324 C  
BRANCH  17  18
HETATM   18  C   UNL     1     -10.431   9.420  68.297  1.00  0.00    -0.260 A  
HETATM   19  C   UNL     1      -8.980   7.771  67.239  1.00  0.00    -0.136 A  
HETATM   20  C   UNL     1      -8.356   7.170  66.005  1.00  0.00    -0.134 C  
HETATM   21  C   UNL     1      -9.828   8.886  67.150  1.00  0.00    -0.267 A  
HETATM   22  C   UNL     1      -9.328   7.734  69.644  1.00  0.00    -0.153 A  
HETATM   23  F   UNL     1      -8.683   7.821  64.852  1.00  0.00    -0.108 F  
HETATM   24  F   UNL     1      -6.994   7.168  66.055  1.00  0.00    -0.058 F  
HETATM   25  F   UNL     1      -8.724   5.872  65.814  1.00  0.00    -0.135 F  
HETATM   26  C   UNL     1      -8.733   7.203  68.498  1.00  0.00    -0.126 A  
HETATM   27  C   UNL     1     -10.175   8.835  69.541  1.00  0.00    -0.208 A  
ENDBRANCH  17  18
ENDBRANCH  16  17
ENDBRANCH  15  16
ENDBRANCH  13  15
ENDBRANCH   2  13
TORSDOF 6
ENDMDL
MODEL      317
REMARK 921   NORMALIZED FREE ENERGY PREDICTED BY IDOCK:   -3.06 KCAL/MOL
REMARK 922        TOTAL FREE ENERGY PREDICTED BY IDOCK:   -7.26 KCAL/MOL
REMARK 923 INTER-LIGAND FREE ENERGY PREDICTED BY IDOCK:   -6.66 KCAL/MOL
REMARK 924 INTRA-LIGAND FREE ENERGY PREDICTED BY IDOCK:   -0.59 KCAL/MOL
REMARK 927      BINDING AFFINITY PREDICTED BY RF-SCORE:    0.00 PKD
ROOT
HETATM    1  C   UNL     1     -12.558  10.283  70.547  1.00  0.00    -0.338 C  
HETATM    2  C   UNL     1     -11.378  10.242  69.561  1.00  0.00    -0.241 C  
ENDROOT
BRANCH   2   3
HETATM    3  C   UNL     1     -10.301   9.213  69.913  1.00  0.00    -0.229 A  
HETATM    4  C   UNL     1      -9.909   7.132  66.766  1.00  0.00    -0.272 A  
HETATM    5  C   UNL     1      -9.742   9.210  71.208  1.00  0.00    -0.351 A  
HETATM    6  C   UNL     1      -9.083   6.121  67.231  1.00  0.00    -0.115 A  
HETATM    7  C   UNL     1     -10.289   8.171  67.622  1.00  0.00    -0.313 A  
HETATM    8  C   UNL     1      -8.605   6.171  68.539  1.00  0.00    -0.113 A  
HETATM    9  C   UNL     1      -8.822   8.242  71.599  1.00  0.00    -0.224 A  
HETATM   10  C   UNL     1      -8.458   7.239  70.709  1.00  0.00    -0.132 A  
HETATM   11  C   UNL     1      -9.871   8.224  68.973  1.00  0.00    -0.176 A  
HETATM   12  C   UNL     1      -8.974   7.211  69.408  1.00  0.00    -0.136 A  
ENDBRANCH   2   3
BRANCH   2  13
HETATM   13  N   UNL     1     -10.839  11.580  69.259  1.00  0.00    -0.362 NA 
HETATM   14  H   UNL     1     -10.296  11.930  70.048  1.00  0.00     0.000 HD 
BRANCH  13  15
HETATM   15  C   UNL     1     -10.055  11.653  68.030  1.00  0.00    -0.189 C  
BRANCH  15  16
HETATM   16  C   UNL     1      -9.731  13.106  67.689  1.00  0.00    -0.213 C  
BRANCH  16  17
HETATM   17  C   UNL     1     -11.014  13.942  67.691  1.00  0.00    -0.278 C  
BRANCH  17  18
HETATM   18  C   UNL     1     -10.834  15.217  66.912  1.00  0.00    -0.317 A  
HETATM   19  C   UNL     1     -10.576  17.641  66.866  1.00  0.00    -0.235 A  
HETATM   20  C   UNL     1     -10.448  18.963  67.581  1.00  0.00    -0.443 C  
HETATM   21  C   UNL     1     -10.683  16.439  67.583  1.00  0.00    -0.312 A  
HETATM   22  C   UNL     1     -10.755  16.387  64.792  1.00  0.00    -0.100 A  
HETATM   23  F   UNL     1     -10.431  18.851  68.940  1.00  0.00    -0.373 F  
HETATM   24  F   UNL     1      -9.307  19.629  67.250  1.00  0.00    -0.343 F  
HETATM   25  F   UNL     1     -11.474  19.812  67.292  1.00  0.00    -0.415 F  
HETATM   26  C   UNL     1     -10.610  17.602  65.464  1.00  0.00    -0.072 A  
HETATM   27  C   UNL     1     -10.871  15.202  65.515  1.00  0.00    -0.373 A  
ENDBRANCH  17  18
ENDBRANCH  16  17
ENDBRANCH  15  16
ENDBRANCH  13  15
ENDBRANCH   2  13
TORSDOF 6
ENDMDL
MODEL      318
REMARK 921   NORMALIZED FREE ENERGY PREDICTED BY IDOCK:   -3.02 KCAL/MOL
REMARK 922        TOTAL FREE ENERGY PREDICTED BY IDOCK:   -7.21 KCAL/MOL
REMARK 923 INTER-LIGAND FREE ENERGY PREDICTED BY IDOCK:   -5.11 KCAL/MOL
REMARK 924 INTRA-LIGAND FREE ENERGY PREDICTED BY IDOCK:   -2.10 KCAL/MOL
REMARK 927      BINDING AFFINITY PREDICTED BY RF-SCORE:    0.00 PKD
ROOT
HETATM    1  C   UNL     1      -6.110   9.855  70.374  1.00  0.00    -0.082 C  
HETATM    2  C   UNL     1      -7.077   9.894  69.177  1.00  0.00    -0.069 C  
ENDROOT
BRANCH   2   3
HETATM    3  C   UNL     1      -8.556   9.967  69.568  1.00  0.00    -0.194 A  
HETATM    4  C   UNL     1     -10.171  11.990  66.795  1.00  0.00    -0.225 A  
HETATM    5  C   UNL     1      -8.987   9.365  70.768  1.00  0.00    -0.254 A  
HETATM    6  C   UNL     1     -11.439  12.176  67.322  1.00  0.00    -0.413 A  
HETATM    7  C   UNL     1      -9.226  11.239  67.501  1.00  0.00    -0.159 A  
HETATM    8  C   UNL     1     -11.774  11.579  68.535  1.00  0.00    -0.379 A  
HETATM    9  C   UNL     1     -10.303   9.477  71.203  1.00  0.00    -0.330 A  
HETATM   10  C   UNL     1     -11.214  10.216  70.460  1.00  0.00    -0.411 A  
HETATM   11  C   UNL     1      -9.511  10.666  68.764  1.00  0.00    -0.186 A  
HETATM   12  C   UNL     1     -10.836  10.819  69.254  1.00  0.00    -0.287 A  
ENDBRANCH   2   3
BRANCH   2  13
HETATM   13  N   UNL     1      -6.784   8.858  68.171  1.00  0.00    -0.064 NA 
HETATM   14  H   UNL     1      -6.211   9.243  67.420  1.00  0.00     0.000 HD 
BRANCH  13  15
HETATM   15  C   UNL     1      -6.169   7.649  68.710  1.00  0.00    -0.036 C  
BRANCH  15  16
HETATM   16  C   UNL     1      -7.237   6.613  69.051  1.00  0.00    -0.091 C  
BRANCH  16  17
HETATM   17  C   UNL     1      -6.730   5.681  70.155  1.00  0.00    -0.048 C  
BRANCH  17  18
HETATM   18  C   UNL     1      -7.483   5.898  71.440  1.00  0.00    -0.096 A  
HETATM   19  C   UNL     1      -9.597   6.106  72.636  1.00  0.00    -0.160 A  
HETATM   20  C   UNL     1     -11.105   6.085  72.652  1.00  0.00    -0.275 C  
HETATM   21  C   UNL     1      -8.884   5.846  71.455  1.00  0.00    -0.136 A  
HETATM   22  C   UNL     1      -7.492   6.459  73.797  1.00  0.00    -0.085 A  
HETATM   23  F   UNL     1     -11.662   5.778  71.445  1.00  0.00    -0.287 F  
HETATM   24  F   UNL     1     -11.607   5.175  73.533  1.00  0.00    -0.350 F  
HETATM   25  F   UNL     1     -11.639   7.286  73.011  1.00  0.00    -0.284 F  
HETATM   26  C   UNL     1      -8.887   6.410  73.807  1.00  0.00    -0.134 A  
HETATM   27  C   UNL     1      -6.796   6.208  72.617  1.00  0.00    -0.074 A  
ENDBRANCH  17  18
ENDBRANCH  16  17
ENDBRANCH  15  16
ENDBRANCH  13  15
ENDBRANCH   2  13
TORSDOF 6
ENDMDL
MODEL      319
REMARK 921   NORMALIZED FREE ENERGY PREDICTED BY IDOCK:   -3.02 KCAL/MOL
REMARK 922        TOTAL FREE ENERGY PREDICTED BY IDOCK:   -7.20 KCAL/MOL
REMARK 923 INTER-LIGAND FREE ENERGY PREDICTED BY IDOCK:   -4.44 KCAL/MOL
REMARK 924 INTRA-LIGAND FREE ENERGY PREDICTED BY IDOCK:   -2.76 KCAL/MOL
REMARK 927      BINDING AFFINITY PREDICTED BY RF-SCORE:    0.00 PKD
ROOT
HETATM    1  C   UNL     1      -9.043   2.759  66.032  1.00  0.00    -0.122 C  
HETATM    2  C   UNL     1      -8.587   3.280  67.406  1.00  0.00    -0.108 C  
ENDROOT
BRANCH   2   3
HETATM    3  C   UNL     1      -8.053   4.716  67.386  1.00  0.00    -0.101 A  
HETATM    4  C   UNL     1     -11.160   6.885  67.564  1.00  0.00    -0.283 A  
HETATM    5  C   UNL     1      -6.665   4.938  67.283  1.00  0.00    -0.055 A  
HETATM    6  C   UNL     1     -10.608   8.137  67.339  1.00  0.00    -0.325 A  
HETATM    7  C   UNL     1     -10.333   5.759  67.617  1.00  0.00    -0.270 A  
HETATM    8  C   UNL     1      -9.228   8.267  67.208  1.00  0.00    -0.165 A  
HETATM    9  C   UNL     1      -6.142   6.223  67.178  1.00  0.00    -0.025 A  
HETATM   10  C   UNL     1      -6.999   7.315  67.149  1.00  0.00    -0.078 A  
HETATM   11  C   UNL     1      -8.932   5.844  67.430  1.00  0.00    -0.108 A  
HETATM   12  C   UNL     1      -8.384   7.145  67.264  1.00  0.00    -0.119 A  
ENDBRANCH   2   3
BRANCH   2  13
HETATM   13  N   UNL     1      -7.706   2.334  68.113  1.00  0.00    -0.054 NA 
HETATM   14  H   UNL     1      -6.818   2.780  68.343  1.00  0.00     0.000 HD 
BRANCH  13  15
HETATM   15  C   UNL     1      -8.297   1.734  69.304  1.00  0.00    -0.048 C  
BRANCH  15  16
HETATM   16  C   UNL     1      -9.318   2.682  69.929  1.00  0.00    -0.191 C  
BRANCH  16  17
HETATM   17  C   UNL     1      -8.670   3.470  71.071  1.00  0.00    -0.122 C  
BRANCH  17  18
HETATM   18  C   UNL     1      -9.552   4.606  71.518  1.00  0.00    -0.225 A  
HETATM   19  C   UNL     1     -10.060   6.990  71.564  1.00  0.00    -0.197 A  
HETATM   20  C   UNL     1      -9.751   8.407  71.150  1.00  0.00    -0.186 C  
HETATM   21  C   UNL     1      -9.280   5.917  71.104  1.00  0.00    -0.163 A  
HETATM   22  C   UNL     1     -11.402   5.425  72.851  1.00  0.00    -0.365 A  
HETATM   23  F   UNL     1      -8.689   8.511  70.301  1.00  0.00    -0.125 F  
HETATM   24  F   UNL     1     -10.796   9.004  70.511  1.00  0.00    -0.231 F  
HETATM   25  F   UNL     1      -9.456   9.207  72.213  1.00  0.00    -0.310 F  
HETATM   26  C   UNL     1     -11.125   6.730  72.439  1.00  0.00    -0.292 A  
HETATM   27  C   UNL     1     -10.616   4.370  72.395  1.00  0.00    -0.172 A  
ENDBRANCH  17  18
ENDBRANCH  16  17
ENDBRANCH  15  16
ENDBRANCH  13  15
ENDBRANCH   2  13
TORSDOF 6
ENDMDL
MODEL      320
REMARK 921   NORMALIZED FREE ENERGY PREDICTED BY IDOCK:   -3.01 KCAL/MOL
REMARK 922        TOTAL FREE ENERGY PREDICTED BY IDOCK:   -7.19 KCAL/MOL
REMARK 923 INTER-LIGAND FREE ENERGY PREDICTED BY IDOCK:   -6.86 KCAL/MOL
REMARK 924 INTRA-LIGAND FREE ENERGY PREDICTED BY IDOCK:   -0.33 KCAL/MOL
REMARK 927      BINDING AFFINITY PREDICTED BY RF-SCORE:    0.00 PKD
ROOT
HETATM    1  C   UNL     1     -10.169  14.839  65.089  1.00  0.00    -0.410 C  
HETATM    2  C   UNL     1     -11.156  14.471  66.211  1.00  0.00    -0.332 C  
ENDROOT
BRANCH   2   3
HETATM    3  C   UNL     1     -10.979  15.288  67.494  1.00  0.00    -0.315 A  
HETATM    4  C   UNL     1     -10.535  18.858  66.292  1.00  0.00    -0.510 A  
HETATM    5  C   UNL     1     -10.981  14.630  68.741  1.00  0.00    -0.268 A  
HETATM    6  C   UNL     1     -10.185  19.484  67.478  1.00  0.00    -0.546 A  
HETATM    7  C   UNL     1     -10.832  17.492  66.286  1.00  0.00     0.062 A  
HETATM    8  C   UNL     1     -10.172  18.752  68.663  1.00  0.00    -0.366 A  
HETATM    9  C   UNL     1     -10.741  15.320  69.925  1.00  0.00    -0.300 A  
HETATM   10  C   UNL     1     -10.470  16.681  69.886  1.00  0.00    -0.105 A  
HETATM   11  C   UNL     1     -10.773  16.703  67.460  1.00  0.00    -0.278 A  
HETATM   12  C   UNL     1     -10.473  17.380  68.673  1.00  0.00    -0.355 A  
ENDBRANCH   2   3
BRANCH   2  13
HETATM   13  N   UNL     1     -11.241  13.019  66.445  1.00  0.00    -0.291 NA 
HETATM   14  H   UNL     1     -12.198  12.752  66.676  1.00  0.00     0.000 HD 
BRANCH  13  15
HETATM   15  C   UNL     1     -10.737  12.200  65.348  1.00  0.00    -0.284 C  
BRANCH  15  16
HETATM   16  C   UNL     1     -10.364  10.806  65.850  1.00  0.00    -0.302 C  
BRANCH  16  17
HETATM   17  C   UNL     1     -11.159  10.476  67.116  1.00  0.00    -0.232 C  
BRANCH  17  18
HETATM   18  C   UNL     1     -10.346   9.641  68.068  1.00  0.00    -0.262 A  
HETATM   19  C   UNL     1      -9.801   7.469  69.032  1.00  0.00    -0.170 A  
HETATM   20  C   UNL     1      -9.999   5.976  69.102  1.00  0.00    -0.162 C  
HETATM   21  C   UNL     1     -10.511   8.250  68.106  1.00  0.00    -0.226 A  
HETATM   22  C   UNL     1      -8.743   9.486  69.879  1.00  0.00    -0.224 A  
HETATM   23  F   UNL     1     -10.892   5.498  68.188  1.00  0.00    -0.264 F  
HETATM   24  F   UNL     1      -8.845   5.284  68.888  1.00  0.00    -0.093 F  
HETATM   25  F   UNL     1     -10.460   5.567  70.317  1.00  0.00    -0.278 F  
HETATM   26  C   UNL     1      -8.914   8.101  69.915  1.00  0.00    -0.143 A  
HETATM   27  C   UNL     1      -9.460  10.251  68.962  1.00  0.00    -0.206 A  
ENDBRANCH  17  18
ENDBRANCH  16  17
ENDBRANCH  15  16
ENDBRANCH  13  15
ENDBRANCH   2  13
TORSDOF 6
ENDMDL
MODEL      321
REMARK 921   NORMALIZED FREE ENERGY PREDICTED BY IDOCK:   -3.00 KCAL/MOL
REMARK 922        TOTAL FREE ENERGY PREDICTED BY IDOCK:   -7.17 KCAL/MOL
REMARK 923 INTER-LIGAND FREE ENERGY PREDICTED BY IDOCK:   -7.13 KCAL/MOL
REMARK 924 INTRA-LIGAND FREE ENERGY PREDICTED BY IDOCK:   -0.04 KCAL/MOL
REMARK 927      BINDING AFFINITY PREDICTED BY RF-SCORE:    0.00 PKD
ROOT
HETATM    1  C   UNL     1     -10.192   5.452  73.593  1.00  0.00    -0.237 C  
HETATM    2  C   UNL     1     -11.109   5.775  72.399  1.00  0.00    -0.281 C  
ENDROOT
BRANCH   2   3
HETATM    3  C   UNL     1     -10.367   5.983  71.076  1.00  0.00    -0.270 A  
HETATM    4  C   UNL     1      -6.740   6.446  72.085  1.00  0.00    -0.064 A  
HETATM    5  C   UNL     1     -11.093   5.995  69.868  1.00  0.00    -0.469 A  
HETATM    6  C   UNL     1      -6.185   6.823  70.872  1.00  0.00    -0.040 A  
HETATM    7  C   UNL     1      -8.100   6.133  72.162  1.00  0.00    -0.110 A  
HETATM    8  C   UNL     1      -6.982   6.848  69.730  1.00  0.00    -0.062 A  
HETATM    9  C   UNL     1     -10.474   6.263  68.652  1.00  0.00    -0.274 A  
HETATM   10  C   UNL     1      -9.115   6.548  68.619  1.00  0.00    -0.128 A  
HETATM   11  C   UNL     1      -8.954   6.204  71.035  1.00  0.00    -0.144 A  
HETATM   12  C   UNL     1      -8.349   6.532  69.791  1.00  0.00    -0.127 A  
ENDBRANCH   2   3
BRANCH   2  13
HETATM   13  N   UNL     1     -12.086   6.836  72.700  1.00  0.00    -0.494 NA 
HETATM   14  H   UNL     1     -11.625   7.746  72.731  1.00  0.00     0.000 HD 
BRANCH  13  15
HETATM   15  C   UNL     1     -13.230   6.878  71.795  1.00  0.00    -0.217 C  
BRANCH  15  16
HETATM   16  C   UNL     1     -13.841   8.278  71.771  1.00  0.00    -0.450 C  
BRANCH  16  17
HETATM   17  C   UNL     1     -12.843   9.294  72.332  1.00  0.00    -0.418 C  
BRANCH  17  18
HETATM   18  C   UNL     1     -12.562  10.388  71.337  1.00  0.00    -0.539 A  
HETATM   19  C   UNL     1     -11.564  11.126  69.239  1.00  0.00    -0.388 A  
HETATM   20  C   UNL     1     -10.804  10.830  67.970  1.00  0.00    -0.255 C  
HETATM   21  C   UNL     1     -11.884  10.102  70.144  1.00  0.00    -0.299 A  
HETATM   22  C   UNL     1     -12.623  12.732  70.724  1.00  0.00    -0.308 A  
HETATM   23  F   UNL     1     -10.499   9.511  67.809  1.00  0.00    -0.234 F  
HETATM   24  F   UNL     1     -11.494  11.190  66.851  1.00  0.00    -0.356 F  
HETATM   25  F   UNL     1      -9.617  11.495  67.907  1.00  0.00    -0.161 F  
HETATM   26  C   UNL     1     -11.944  12.442  69.539  1.00  0.00    -0.324 A  
HETATM   27  C   UNL     1     -12.926  11.709  71.619  1.00  0.00    -0.483 A  
ENDBRANCH  17  18
ENDBRANCH  16  17
ENDBRANCH  15  16
ENDBRANCH  13  15
ENDBRANCH   2  13
TORSDOF 6
ENDMDL
MODEL      322
REMARK 921   NORMALIZED FREE ENERGY PREDICTED BY IDOCK:   -2.98 KCAL/MOL
REMARK 922        TOTAL FREE ENERGY PREDICTED BY IDOCK:   -7.16 KCAL/MOL
REMARK 923 INTER-LIGAND FREE ENERGY PREDICTED BY IDOCK:   -6.10 KCAL/MOL
REMARK 924 INTRA-LIGAND FREE ENERGY PREDICTED BY IDOCK:   -1.06 KCAL/MOL
REMARK 927      BINDING AFFINITY PREDICTED BY RF-SCORE:    0.00 PKD
ROOT
HETATM    1  C   UNL     1     -10.658   8.478  68.379  1.00  0.00    -0.161 C  
HETATM    2  C   UNL     1     -10.879   9.810  69.118  1.00  0.00    -0.207 C  
ENDROOT
BRANCH   2   3
HETATM    3  C   UNL     1      -9.865  10.900  68.762  1.00  0.00    -0.203 A  
HETATM    4  C   UNL     1     -11.582  12.951  66.073  1.00  0.00    -0.424 A  
HETATM    5  C   UNL     1      -8.610  10.917  69.404  1.00  0.00     0.092 A  
HETATM    6  C   UNL     1     -10.538  13.771  65.673  1.00  0.00    -0.302 A  
HETATM    7  C   UNL     1     -11.388  12.030  67.106  1.00  0.00    -0.396 A  
HETATM    8  C   UNL     1      -9.314  13.698  66.335  1.00  0.00    -0.203 A  
HETATM    9  C   UNL     1      -7.627  11.837  69.053  1.00  0.00     0.004 A  
HETATM   10  C   UNL     1      -7.870  12.748  68.034  1.00  0.00    -0.150 A  
HETATM   11  C   UNL     1     -10.142  11.885  67.763  1.00  0.00    -0.200 A  
HETATM   12  C   UNL     1      -9.107  12.780  67.378  1.00  0.00    -0.192 A  
ENDBRANCH   2   3
BRANCH   2  13
HETATM   13  N   UNL     1     -11.071   9.634  70.568  1.00  0.00    -0.283 NA 
HETATM   14  H   UNL     1     -10.516  10.317  71.085  1.00  0.00     0.000 HD 
BRANCH  13  15
HETATM   15  C   UNL     1     -12.463   9.677  71.004  1.00  0.00    -0.296 C  
BRANCH  15  16
HETATM   16  C   UNL     1     -12.695   8.689  72.145  1.00  0.00    -0.447 C  
BRANCH  16  17
HETATM   17  C   UNL     1     -13.059   7.313  71.581  1.00  0.00    -0.417 C  
BRANCH  17  18
HETATM   18  C   UNL     1     -11.876   6.383  71.607  1.00  0.00    -0.361 A  
HETATM   19  C   UNL     1     -10.268   4.983  70.425  1.00  0.00    -0.324 A  
HETATM   20  C   UNL     1      -9.702   4.429  69.141  1.00  0.00    -0.170 C  
HETATM   21  C   UNL     1     -11.333   5.897  70.409  1.00  0.00    -0.219 A  
HETATM   22  C   UNL     1     -10.280   5.053  72.854  1.00  0.00    -0.220 A  
HETATM   23  F   UNL     1     -10.307   4.917  68.020  1.00  0.00    -0.204 F  
HETATM   24  F   UNL     1      -8.376   4.702  68.994  1.00  0.00    -0.079 F  
HETATM   25  F   UNL     1      -9.816   3.074  69.063  1.00  0.00    -0.193 F  
HETATM   26  C   UNL     1      -9.746   4.568  71.658  1.00  0.00    -0.241 A  
HETATM   27  C   UNL     1     -11.343   5.953  72.826  1.00  0.00    -0.305 A  
ENDBRANCH  17  18
ENDBRANCH  16  17
ENDBRANCH  15  16
ENDBRANCH  13  15
ENDBRANCH   2  13
TORSDOF 6
ENDMDL
MODEL      323
REMARK 921   NORMALIZED FREE ENERGY PREDICTED BY IDOCK:   -2.98 KCAL/MOL
REMARK 922        TOTAL FREE ENERGY PREDICTED BY IDOCK:   -7.15 KCAL/MOL
REMARK 923 INTER-LIGAND FREE ENERGY PREDICTED BY IDOCK:   -6.83 KCAL/MOL
REMARK 924 INTRA-LIGAND FREE ENERGY PREDICTED BY IDOCK:   -0.32 KCAL/MOL
REMARK 927      BINDING AFFINITY PREDICTED BY RF-SCORE:    0.00 PKD
ROOT
HETATM    1  C   UNL     1     -11.866  11.198  69.554  1.00  0.00    -0.423 C  
HETATM    2  C   UNL     1     -10.665  10.528  68.863  1.00  0.00    -0.220 C  
ENDROOT
BRANCH   2   3
HETATM    3  C   UNL     1     -10.768   9.003  68.765  1.00  0.00    -0.140 A  
HETATM    4  C   UNL     1     -10.951   7.831  72.368  1.00  0.00    -0.368 A  
HETATM    5  C   UNL     1     -10.745   8.386  67.497  1.00  0.00    -0.207 A  
HETATM    6  C   UNL     1     -10.838   6.460  72.195  1.00  0.00    -0.272 A  
HETATM    7  C   UNL     1     -10.965   8.675  71.253  1.00  0.00    -0.333 A  
HETATM    8  C   UNL     1     -10.780   5.932  70.907  1.00  0.00    -0.338 A  
HETATM    9  C   UNL     1     -10.753   7.002  67.364  1.00  0.00    -0.383 A  
HETATM   10  C   UNL     1     -10.759   6.201  68.498  1.00  0.00    -0.365 A  
HETATM   11  C   UNL     1     -10.849   8.180  69.932  1.00  0.00    -0.215 A  
HETATM   12  C   UNL     1     -10.798   6.768  69.778  1.00  0.00    -0.316 A  
ENDBRANCH   2   3
BRANCH   2  13
HETATM   13  N   UNL     1      -9.370  10.998  69.385  1.00  0.00    -0.403 NA 
HETATM   14  H   UNL     1      -8.995  10.331  70.060  1.00  0.00     0.000 HD 
BRANCH  13  15
HETATM   15  C   UNL     1      -8.376  11.294  68.358  1.00  0.00    -0.152 C  
BRANCH  15  16
HETATM   16  C   UNL     1      -8.575  12.708  67.816  1.00  0.00    -0.179 C  
BRANCH  16  17
HETATM   17  C   UNL     1      -7.228  13.433  67.738  1.00  0.00    -0.156 C  
BRANCH  17  18
HETATM   18  C   UNL     1      -7.378  14.898  68.048  1.00  0.00    -0.138 A  
HETATM   19  C   UNL     1      -8.610  16.989  67.807  1.00  0.00    -0.213 A  
HETATM   20  C   UNL     1      -9.785  17.767  67.272  1.00  0.00    -0.285 C  
HETATM   21  C   UNL     1      -8.490  15.609  67.575  1.00  0.00    -0.182 A  
HETATM   22  C   UNL     1      -6.496  16.941  69.006  1.00  0.00    -0.202 A  
HETATM   23  F   UNL     1     -10.683  17.002  66.588  1.00  0.00    -0.302 F  
HETATM   24  F   UNL     1     -10.498  18.382  68.257  1.00  0.00    -0.363 F  
HETATM   25  F   UNL     1      -9.409  18.754  66.412  1.00  0.00    -0.298 F  
HETATM   26  C   UNL     1      -7.603  17.646  68.530  1.00  0.00    -0.272 A  
HETATM   27  C   UNL     1      -6.385  15.575  68.762  1.00  0.00    -0.103 A  
ENDBRANCH  17  18
ENDBRANCH  16  17
ENDBRANCH  15  16
ENDBRANCH  13  15
ENDBRANCH   2  13
TORSDOF 6
ENDMDL
MODEL      324
REMARK 921   NORMALIZED FREE ENERGY PREDICTED BY IDOCK:   -2.97 KCAL/MOL
REMARK 922        TOTAL FREE ENERGY PREDICTED BY IDOCK:   -7.13 KCAL/MOL
REMARK 923 INTER-LIGAND FREE ENERGY PREDICTED BY IDOCK:   -5.03 KCAL/MOL
REMARK 924 INTRA-LIGAND FREE ENERGY PREDICTED BY IDOCK:   -2.10 KCAL/MOL
REMARK 927      BINDING AFFINITY PREDICTED BY RF-SCORE:    0.00 PKD
ROOT
HETATM    1  C   UNL     1     -10.573   8.386  69.589  1.00  0.00    -0.219 C  
HETATM    2  C   UNL     1     -10.267   9.790  69.038  1.00  0.00    -0.203 C  
ENDROOT
BRANCH   2   3
HETATM    3  C   UNL     1      -8.801  10.008  68.654  1.00  0.00    -0.132 A  
HETATM    4  C   UNL     1      -8.651   9.153  64.961  1.00  0.00    -0.204 A  
HETATM    5  C   UNL     1      -7.877  10.408  69.641  1.00  0.00    -0.138 A  
HETATM    6  C   UNL     1      -7.282   9.179  64.750  1.00  0.00    -0.097 A  
HETATM    7  C   UNL     1      -9.167   9.456  66.225  1.00  0.00    -0.229 A  
HETATM    8  C   UNL     1      -6.432   9.547  65.791  1.00  0.00    -0.074 A  
HETATM    9  C   UNL     1      -6.522  10.537  69.356  1.00  0.00    -0.062 A  
HETATM   10  C   UNL     1      -6.055  10.245  68.081  1.00  0.00    -0.047 A  
HETATM   11  C   UNL     1      -8.332   9.778  67.322  1.00  0.00    -0.121 A  
HETATM   12  C   UNL     1      -6.937   9.859  67.064  1.00  0.00    -0.088 A  
ENDBRANCH   2   3
BRANCH   2  13
HETATM   13  N   UNL     1     -10.822  10.867  69.877  1.00  0.00    -0.446 NA 
HETATM   14  H   UNL     1     -10.071  11.432  70.273  1.00  0.00     0.000 HD 
BRANCH  13  15
HETATM   15  C   UNL     1     -11.797  11.718  69.202  1.00  0.00    -0.326 C  
BRANCH  15  16
HETATM   16  C   UNL     1     -11.815  11.423  67.703  1.00  0.00    -0.157 C  
BRANCH  16  17
HETATM   17  C   UNL     1     -11.940  12.729  66.914  1.00  0.00    -0.380 C  
BRANCH  17  18
HETATM   18  C   UNL     1     -11.010  13.783  67.453  1.00  0.00    -0.296 A  
HETATM   19  C   UNL     1      -8.746  14.556  67.923  1.00  0.00    -0.165 A  
HETATM   20  C   UNL     1      -7.252  14.358  67.869  1.00  0.00    -0.160 C  
HETATM   21  C   UNL     1      -9.621  13.608  67.370  1.00  0.00    -0.226 A  
HETATM   22  C   UNL     1     -10.663  15.870  68.634  1.00  0.00    -0.274 A  
HETATM   23  F   UNL     1      -6.874  13.213  67.231  1.00  0.00    -0.158 F  
HETATM   24  F   UNL     1      -6.613  15.371  67.220  1.00  0.00    -0.189 F  
HETATM   25  F   UNL     1      -6.689  14.294  69.108  1.00  0.00    -0.093 F  
HETATM   26  C   UNL     1      -9.281  15.690  68.552  1.00  0.00    -0.197 A  
HETATM   27  C   UNL     1     -11.521  14.918  68.089  1.00  0.00    -0.348 A  
ENDBRANCH  17  18
ENDBRANCH  16  17
ENDBRANCH  15  16
ENDBRANCH  13  15
ENDBRANCH   2  13
TORSDOF 6
ENDMDL
MODEL      325
REMARK 921   NORMALIZED FREE ENERGY PREDICTED BY IDOCK:   -2.95 KCAL/MOL
REMARK 922        TOTAL FREE ENERGY PREDICTED BY IDOCK:   -7.12 KCAL/MOL
REMARK 923 INTER-LIGAND FREE ENERGY PREDICTED BY IDOCK:   -3.72 KCAL/MOL
REMARK 924 INTRA-LIGAND FREE ENERGY PREDICTED BY IDOCK:   -3.40 KCAL/MOL
REMARK 927      BINDING AFFINITY PREDICTED BY RF-SCORE:    0.00 PKD
ROOT
HETATM    1  C   UNL     1      -8.746   3.043  69.601  1.00  0.00    -0.130 C  
HETATM    2  C   UNL     1      -9.250   4.496  69.547  1.00  0.00    -0.128 C  
ENDROOT
BRANCH   2   3
HETATM    3  C   UNL     1      -8.210   5.502  69.044  1.00  0.00    -0.099 A  
HETATM    4  C   UNL     1     -10.111   7.684  66.592  1.00  0.00    -0.278 A  
HETATM    5  C   UNL     1      -6.882   5.418  69.508  1.00  0.00    -0.057 A  
HETATM    6  C   UNL     1      -9.071   8.418  66.045  1.00  0.00    -0.235 A  
HETATM    7  C   UNL     1      -9.852   6.751  67.599  1.00  0.00    -0.155 A  
HETATM    8  C   UNL     1      -7.777   8.246  66.533  1.00  0.00    -0.092 A  
HETATM    9  C   UNL     1      -5.887   6.256  69.016  1.00  0.00    -0.020 A  
HETATM   10  C   UNL     1      -6.194   7.184  68.030  1.00  0.00    -0.035 A  
HETATM   11  C   UNL     1      -8.543   6.506  68.081  1.00  0.00    -0.118 A  
HETATM   12  C   UNL     1      -7.502   7.315  67.548  1.00  0.00    -0.101 A  
ENDBRANCH   2   3
BRANCH   2  13
HETATM   13  N   UNL     1      -9.921   4.915  70.790  1.00  0.00    -0.209 NA 
HETATM   14  H   UNL     1      -9.330   5.561  71.313  1.00  0.00     0.000 HD 
BRANCH  13  15
HETATM   15  C   UNL     1     -11.250   5.485  70.596  1.00  0.00     0.107 C  
BRANCH  15  16
HETATM   16  C   UNL     1     -11.374   6.814  71.339  1.00  0.00    -0.322 C  
BRANCH  16  17
HETATM   17  C   UNL     1     -10.012   7.510  71.398  1.00  0.00    -0.200 C  
BRANCH  17  18
HETATM   18  C   UNL     1      -9.964   8.695  70.472  1.00  0.00    -0.220 A  
HETATM   19  C   UNL     1      -8.676  10.359  69.240  1.00  0.00    -0.160 A  
HETATM   20  C   UNL     1      -7.354  10.946  68.816  1.00  0.00    -0.104 C  
HETATM   21  C   UNL     1      -8.732   9.217  70.055  1.00  0.00    -0.208 A  
HETATM   22  C   UNL     1     -11.105  10.448  69.247  1.00  0.00    -0.303 A  
HETATM   23  F   UNL     1      -6.273  10.256  69.281  1.00  0.00    -0.043 F  
HETATM   24  F   UNL     1      -7.210  10.990  67.462  1.00  0.00    -0.085 F  
HETATM   25  F   UNL     1      -7.189  12.227  69.251  1.00  0.00    -0.089 F  
HETATM   26  C   UNL     1      -9.875  10.966  68.838  1.00  0.00    -0.203 A  
HETATM   27  C   UNL     1     -11.147   9.320  70.063  1.00  0.00    -0.228 A  
ENDBRANCH  17  18
ENDBRANCH  16  17
ENDBRANCH  15  16
ENDBRANCH  13  15
ENDBRANCH   2  13
TORSDOF 6
ENDMDL
MODEL      326
REMARK 921   NORMALIZED FREE ENERGY PREDICTED BY IDOCK:   -2.95 KCAL/MOL
REMARK 922        TOTAL FREE ENERGY PREDICTED BY IDOCK:   -7.10 KCAL/MOL
REMARK 923 INTER-LIGAND FREE ENERGY PREDICTED BY IDOCK:   -6.81 KCAL/MOL
REMARK 924 INTRA-LIGAND FREE ENERGY PREDICTED BY IDOCK:   -0.29 KCAL/MOL
REMARK 927      BINDING AFFINITY PREDICTED BY RF-SCORE:    0.00 PKD
ROOT
HETATM    1  C   UNL     1     -11.327   8.462  70.106  1.00  0.00    -0.065 C  
HETATM    2  C   UNL     1     -10.259   9.536  69.835  1.00  0.00    -0.231 C  
ENDROOT
BRANCH   2   3
HETATM    3  C   UNL     1      -8.929   9.292  70.553  1.00  0.00    -0.296 A  
HETATM    4  C   UNL     1      -6.320  10.814  68.258  1.00  0.00    -0.057 A  
HETATM    5  C   UNL     1      -8.919   8.596  71.779  1.00  0.00    -0.307 A  
HETATM    6  C   UNL     1      -5.156  10.378  68.872  1.00  0.00    -0.038 A  
HETATM    7  C   UNL     1      -7.562  10.497  68.816  1.00  0.00    -0.101 A  
HETATM    8  C   UNL     1      -5.235   9.659  70.063  1.00  0.00    -0.032 A  
HETATM    9  C   UNL     1      -7.729   8.279  72.424  1.00  0.00    -0.168 A  
HETATM   10  C   UNL     1      -6.516   8.631  71.845  1.00  0.00    -0.074 A  
HETATM   11  C   UNL     1      -7.684   9.720  69.992  1.00  0.00    -0.179 A  
HETATM   12  C   UNL     1      -6.476   9.337  70.636  1.00  0.00    -0.073 A  
ENDBRANCH   2   3
BRANCH   2  13
HETATM   13  N   UNL     1     -10.773  10.907  69.997  1.00  0.00    -0.463 NA 
HETATM   14  H   UNL     1     -10.024  11.586  69.860  1.00  0.00     0.000 HD 
BRANCH  13  15
HETATM   15  C   UNL     1     -11.914  11.229  69.147  1.00  0.00    -0.336 C  
BRANCH  15  16
HETATM   16  C   UNL     1     -11.440  11.719  67.780  1.00  0.00    -0.381 C  
BRANCH  16  17
HETATM   17  C   UNL     1     -12.198  12.990  67.388  1.00  0.00    -0.155 C  
BRANCH  17  18
HETATM   18  C   UNL     1     -11.821  14.146  68.276  1.00  0.00    -0.391 A  
HETATM   19  C   UNL     1     -11.835  15.212  70.468  1.00  0.00    -0.361 A  
HETATM   20  C   UNL     1     -12.193  15.200  71.933  1.00  0.00    -0.361 C  
HETATM   21  C   UNL     1     -12.128  14.115  69.643  1.00  0.00    -0.400 A  
HETATM   22  C   UNL     1     -10.909  16.374  68.545  1.00  0.00    -0.339 A  
HETATM   23  F   UNL     1     -12.787  14.043  72.342  1.00  0.00    -0.406 F  
HETATM   24  F   UNL     1     -11.106  15.363  72.739  1.00  0.00    -0.458 F  
HETATM   25  F   UNL     1     -13.058  16.199  72.266  1.00  0.00    -0.494 F  
HETATM   26  C   UNL     1     -11.219  16.340  69.905  1.00  0.00    -0.319 A  
HETATM   27  C   UNL     1     -11.213  15.282  67.735  1.00  0.00    -0.327 A  
ENDBRANCH  17  18
ENDBRANCH  16  17
ENDBRANCH  15  16
ENDBRANCH  13  15
ENDBRANCH   2  13
TORSDOF 6
ENDMDL
MODEL      327
REMARK 921   NORMALIZED FREE ENERGY PREDICTED BY IDOCK:   -2.94 KCAL/MOL
REMARK 922        TOTAL FREE ENERGY PREDICTED BY IDOCK:   -7.09 KCAL/MOL
REMARK 923 INTER-LIGAND FREE ENERGY PREDICTED BY IDOCK:   -5.85 KCAL/MOL
REMARK 924 INTRA-LIGAND FREE ENERGY PREDICTED BY IDOCK:   -1.24 KCAL/MOL
REMARK 927      BINDING AFFINITY PREDICTED BY RF-SCORE:    0.00 PKD
ROOT
HETATM    1  C   UNL     1      -9.926   9.389  66.420  1.00  0.00    -0.346 C  
HETATM    2  C   UNL     1      -9.388  10.043  67.705  1.00  0.00    -0.144 C  
ENDROOT
BRANCH   2   3
HETATM    3  C   UNL     1     -10.301  11.127  68.286  1.00  0.00    -0.198 A  
HETATM    4  C   UNL     1     -11.833   9.524  71.364  1.00  0.00    -0.464 A  
HETATM    5  C   UNL     1     -10.415  12.366  67.625  1.00  0.00    -0.229 A  
HETATM    6  C   UNL     1     -12.778  10.479  71.704  1.00  0.00    -0.550 A  
HETATM    7  C   UNL     1     -10.991   9.737  70.269  1.00  0.00    -0.352 A  
HETATM    8  C   UNL     1     -12.853  11.663  70.973  1.00  0.00    -0.339 A  
HETATM    9  C   UNL     1     -11.294  13.348  68.070  1.00  0.00    -0.320 A  
HETATM   10  C   UNL     1     -12.099  13.102  69.175  1.00  0.00    -0.261 A  
HETATM   11  C   UNL     1     -11.076  10.900  69.467  1.00  0.00    -0.326 A  
HETATM   12  C   UNL     1     -12.010  11.892  69.873  1.00  0.00    -0.398 A  
ENDBRANCH   2   3
BRANCH   2  13
HETATM   13  N   UNL     1      -7.980  10.460  67.588  1.00  0.00    -0.106 NA 
HETATM   14  H   UNL     1      -7.903  11.475  67.660  1.00  0.00     0.000 HD 
BRANCH  13  15
HETATM   15  C   UNL     1      -7.078   9.813  68.534  1.00  0.00    -0.068 C  
BRANCH  15  16
HETATM   16  C   UNL     1      -5.918   9.147  67.796  1.00  0.00    -0.049 C  
BRANCH  16  17
HETATM   17  C   UNL     1      -5.971   7.630  68.000  1.00  0.00    -0.040 C  
BRANCH  17  18
HETATM   18  C   UNL     1      -6.944   7.260  69.087  1.00  0.00    -0.074 A  
HETATM   19  C   UNL     1      -9.123   6.402  69.764  1.00  0.00    -0.141 A  
HETATM   20  C   UNL     1     -10.474   5.826  69.419  1.00  0.00    -0.290 C  
HETATM   21  C   UNL     1      -8.185   6.695  68.762  1.00  0.00    -0.120 A  
HETATM   22  C   UNL     1      -7.561   7.232  71.430  1.00  0.00    -0.083 A  
HETATM   23  F   UNL     1     -10.655   5.617  68.083  1.00  0.00    -0.230 F  
HETATM   24  F   UNL     1     -10.698   4.622  70.015  1.00  0.00    -0.198 F  
HETATM   25  F   UNL     1     -11.500   6.634  69.809  1.00  0.00    -0.349 F  
HETATM   26  C   UNL     1      -8.797   6.673  71.101  1.00  0.00    -0.137 A  
HETATM   27  C   UNL     1      -6.642   7.526  70.426  1.00  0.00    -0.042 A  
ENDBRANCH  17  18
ENDBRANCH  16  17
ENDBRANCH  15  16
ENDBRANCH  13  15
ENDBRANCH   2  13
TORSDOF 6
ENDMDL
MODEL      328
REMARK 921   NORMALIZED FREE ENERGY PREDICTED BY IDOCK:   -2.93 KCAL/MOL
REMARK 922        TOTAL FREE ENERGY PREDICTED BY IDOCK:   -7.08 KCAL/MOL
REMARK 923 INTER-LIGAND FREE ENERGY PREDICTED BY IDOCK:   -7.75 KCAL/MOL
REMARK 924 INTRA-LIGAND FREE ENERGY PREDICTED BY IDOCK:    0.67 KCAL/MOL
REMARK 927      BINDING AFFINITY PREDICTED BY RF-SCORE:    0.00 PKD
ROOT
HETATM    1  C   UNL     1      -9.091  10.972  68.069  1.00  0.00    -0.152 C  
HETATM    2  C   UNL     1     -10.620  11.147  68.051  1.00  0.00    -0.198 C  
ENDROOT
BRANCH   2   3
HETATM    3  C   UNL     1     -11.107  12.470  68.650  1.00  0.00    -0.305 A  
HETATM    4  C   UNL     1     -13.071  11.449  71.731  1.00  0.00    -0.523 A  
HETATM    5  C   UNL     1     -10.797  13.682  68.000  1.00  0.00    -0.261 A  
HETATM    6  C   UNL     1     -13.634  12.665  72.087  1.00  0.00    -0.510 A  
HETATM    7  C   UNL     1     -12.214  11.375  70.629  1.00  0.00    -0.484 A  
HETATM    8  C   UNL     1     -13.307  13.811  71.367  1.00  0.00    -0.340 A  
HETATM    9  C   UNL     1     -11.288  14.898  68.461  1.00  0.00    -0.314 A  
HETATM   10  C   UNL     1     -12.121  14.928  69.572  1.00  0.00    -0.315 A  
HETATM   11  C   UNL     1     -11.904  12.507  69.837  1.00  0.00    -0.373 A  
HETATM   12  C   UNL     1     -12.443  13.752  70.260  1.00  0.00    -0.357 A  
ENDBRANCH   2   3
BRANCH   2  13
HETATM   13  N   UNL     1     -11.337   9.967  68.567  1.00  0.00    -0.509 NA 
HETATM   14  H   UNL     1     -12.135   9.748  67.971  1.00  0.00     0.000 HD 
BRANCH  13  15
HETATM   15  C   UNL     1     -10.501   8.786  68.751  1.00  0.00    -0.191 C  
BRANCH  15  16
HETATM   16  C   UNL     1     -10.634   7.845  67.555  1.00  0.00    -0.312 C  
BRANCH  16  17
HETATM   17  C   UNL     1     -11.158   6.483  68.017  1.00  0.00    -0.332 C  
BRANCH  17  18
HETATM   18  C   UNL     1     -11.125   6.366  69.518  1.00  0.00    -0.460 A  
HETATM   19  C   UNL     1     -10.067   5.519  71.544  1.00  0.00    -0.260 A  
HETATM   20  C   UNL     1      -8.960   4.757  72.228  1.00  0.00    -0.126 C  
HETATM   21  C   UNL     1     -10.076   5.685  70.150  1.00  0.00    -0.293 A  
HETATM   22  C   UNL     1     -12.166   6.737  71.674  1.00  0.00    -0.410 A  
HETATM   23  F   UNL     1      -8.005   4.291  71.373  1.00  0.00    -0.072 F  
HETATM   24  F   UNL     1      -8.296   5.512  73.147  1.00  0.00    -0.115 F  
HETATM   25  F   UNL     1      -9.417   3.665  72.902  1.00  0.00    -0.122 F  
HETATM   26  C   UNL     1     -11.121   6.054  72.299  1.00  0.00    -0.324 A  
HETATM   27  C   UNL     1     -12.168   6.887  70.289  1.00  0.00    -0.092 A  
ENDBRANCH  17  18
ENDBRANCH  16  17
ENDBRANCH  15  16
ENDBRANCH  13  15
ENDBRANCH   2  13
TORSDOF 6
ENDMDL
MODEL      329
REMARK 921   NORMALIZED FREE ENERGY PREDICTED BY IDOCK:   -2.92 KCAL/MOL
REMARK 922        TOTAL FREE ENERGY PREDICTED BY IDOCK:   -7.07 KCAL/MOL
REMARK 923 INTER-LIGAND FREE ENERGY PREDICTED BY IDOCK:   -6.31 KCAL/MOL
REMARK 924 INTRA-LIGAND FREE ENERGY PREDICTED BY IDOCK:   -0.75 KCAL/MOL
REMARK 927      BINDING AFFINITY PREDICTED BY RF-SCORE:    0.00 PKD
ROOT
HETATM    1  C   UNL     1     -11.002   9.650  68.502  1.00  0.00    -0.153 C  
HETATM    2  C   UNL     1     -10.661  10.766  67.499  1.00  0.00    -0.237 C  
ENDROOT
BRANCH   2   3
HETATM    3  C   UNL     1      -9.409  10.495  66.659  1.00  0.00    -0.186 A  
HETATM    4  C   UNL     1      -6.589  12.120  68.607  1.00  0.00    -0.077 A  
HETATM    5  C   UNL     1      -9.530   9.798  65.439  1.00  0.00    -0.333 A  
HETATM    6  C   UNL     1      -5.552  12.006  67.695  1.00  0.00    -0.087 A  
HETATM    7  C   UNL     1      -7.849  11.599  68.298  1.00  0.00    -0.136 A  
HETATM    8  C   UNL     1      -5.765  11.336  66.492  1.00  0.00    -0.145 A  
HETATM    9  C   UNL     1      -8.435   9.602  64.605  1.00  0.00    -0.183 A  
HETATM   10  C   UNL     1      -7.196  10.119  64.961  1.00  0.00    -0.139 A  
HETATM   11  C   UNL     1      -8.119  10.964  67.062  1.00  0.00    -0.131 A  
HETATM   12  C   UNL     1      -7.024  10.804  66.170  1.00  0.00    -0.124 A  
ENDBRANCH   2   3
BRANCH   2  13
HETATM   13  N   UNL     1     -10.682  12.108  68.108  1.00  0.00    -0.203 NA 
HETATM   14  H   UNL     1      -9.751  12.524  68.083  1.00  0.00     0.000 HD 
BRANCH  13  15
HETATM   15  C   UNL     1     -11.663  13.019  67.529  1.00  0.00    -0.370 C  
BRANCH  15  16
HETATM   16  C   UNL     1     -11.513  13.069  66.010  1.00  0.00    -0.374 C  
BRANCH  16  17
HETATM   17  C   UNL     1     -11.588  14.518  65.523  1.00  0.00    -0.350 C  
BRANCH  17  18
HETATM   18  C   UNL     1     -10.515  15.362  66.158  1.00  0.00    -0.325 A  
HETATM   19  C   UNL     1      -9.796  17.480  67.128  1.00  0.00    -0.297 A  
HETATM   20  C   UNL     1     -10.091  18.894  67.563  1.00  0.00    -0.364 C  
HETATM   21  C   UNL     1     -10.804  16.664  66.590  1.00  0.00    -0.024 A  
HETATM   22  C   UNL     1      -8.203  15.673  66.811  1.00  0.00    -0.300 A  
HETATM   23  F   UNL     1     -11.395  19.256  67.398  1.00  0.00    -0.508 F  
HETATM   24  F   UNL     1      -9.812  19.105  68.880  1.00  0.00    -0.405 F  
HETATM   25  F   UNL     1      -9.361  19.814  66.874  1.00  0.00    -0.354 F  
HETATM   26  C   UNL     1      -8.494  16.970  67.237  1.00  0.00    -0.210 A  
HETATM   27  C   UNL     1      -9.209  14.876  66.271  1.00  0.00    -0.301 A  
ENDBRANCH  17  18
ENDBRANCH  16  17
ENDBRANCH  15  16
ENDBRANCH  13  15
ENDBRANCH   2  13
TORSDOF 6
ENDMDL
MODEL      330
REMARK 921   NORMALIZED FREE ENERGY PREDICTED BY IDOCK:   -2.91 KCAL/MOL
REMARK 922        TOTAL FREE ENERGY PREDICTED BY IDOCK:   -7.06 KCAL/MOL
REMARK 923 INTER-LIGAND FREE ENERGY PREDICTED BY IDOCK:   -5.89 KCAL/MOL
REMARK 924 INTRA-LIGAND FREE ENERGY PREDICTED BY IDOCK:   -1.16 KCAL/MOL
REMARK 927      BINDING AFFINITY PREDICTED BY RF-SCORE:    0.00 PKD
ROOT
HETATM    1  C   UNL     1      -7.475  16.492  68.098  1.00  0.00    -0.161 C  
HETATM    2  C   UNL     1      -7.823  15.451  67.020  1.00  0.00    -0.209 C  
ENDROOT
BRANCH   2   3
HETATM    3  C   UNL     1      -9.325  15.202  66.849  1.00  0.00    -0.251 A  
HETATM    4  C   UNL     1     -10.740  15.499  70.356  1.00  0.00    -0.342 A  
HETATM    5  C   UNL     1      -9.838  14.909  65.569  1.00  0.00    -0.348 A  
HETATM    6  C   UNL     1     -12.040  15.068  70.142  1.00  0.00    -0.378 A  
HETATM    7  C   UNL     1      -9.849  15.583  69.282  1.00  0.00    -0.270 A  
HETATM    8  C   UNL     1     -12.458  14.759  68.850  1.00  0.00     0.090 A  
HETATM    9  C   UNL     1     -11.180  14.596  65.380  1.00  0.00    -0.347 A  
HETATM   10  C   UNL     1     -12.036  14.544  66.473  1.00  0.00    -0.358 A  
HETATM   11  C   UNL     1     -10.220  15.222  67.965  1.00  0.00    -0.230 A  
HETATM   12  C   UNL     1     -11.575  14.843  67.761  1.00  0.00    -0.358 A  
ENDBRANCH   2   3
BRANCH   2  13
HETATM   13  N   UNL     1      -7.032  14.214  67.143  1.00  0.00    -0.390 NA 
HETATM   14  H   UNL     1      -6.091  14.355  66.775  1.00  0.00     0.000 HD 
BRANCH  13  15
HETATM   15  C   UNL     1      -6.971  13.667  68.494  1.00  0.00    -0.104 C  
BRANCH  15  16
HETATM   16  C   UNL     1      -6.633  12.178  68.453  1.00  0.00    -0.059 C  
BRANCH  16  17
HETATM   17  C   UNL     1      -7.225  11.542  67.193  1.00  0.00    -0.140 C  
BRANCH  17  18
HETATM   18  C   UNL     1      -8.576  10.938  67.470  1.00  0.00    -0.127 A  
HETATM   19  C   UNL     1      -9.977   8.972  67.809  1.00  0.00    -0.235 A  
HETATM   20  C   UNL     1     -10.138   7.477  67.926  1.00  0.00    -0.182 C  
HETATM   21  C   UNL     1      -8.714   9.550  67.611  1.00  0.00    -0.122 A  
HETATM   22  C   UNL     1     -10.970  11.189  67.741  1.00  0.00    -0.315 A  
HETATM   23  F   UNL     1      -8.962   6.791  67.841  1.00  0.00    -0.117 F  
HETATM   24  F   UNL     1     -10.699   7.102  69.110  1.00  0.00    -0.206 F  
HETATM   25  F   UNL     1     -10.939   6.961  66.953  1.00  0.00    -0.389 F  
HETATM   26  C   UNL     1     -11.103   9.806  67.877  1.00  0.00    -0.161 A  
HETATM   27  C   UNL     1      -9.712  11.750  67.536  1.00  0.00    -0.185 A  
ENDBRANCH  17  18
ENDBRANCH  16  17
ENDBRANCH  15  16
ENDBRANCH  13  15
ENDBRANCH   2  13
TORSDOF 6
ENDMDL
MODEL      331
REMARK 921   NORMALIZED FREE ENERGY PREDICTED BY IDOCK:   -2.91 KCAL/MOL
REMARK 922        TOTAL FREE ENERGY PREDICTED BY IDOCK:   -7.06 KCAL/MOL
REMARK 923 INTER-LIGAND FREE ENERGY PREDICTED BY IDOCK:   -6.16 KCAL/MOL
REMARK 924 INTRA-LIGAND FREE ENERGY PREDICTED BY IDOCK:   -0.90 KCAL/MOL
REMARK 927      BINDING AFFINITY PREDICTED BY RF-SCORE:    0.00 PKD
ROOT
HETATM    1  C   UNL     1      -9.075   7.035  73.961  1.00  0.00    -0.243 C  
HETATM    2  C   UNL     1     -10.325   6.501  73.238  1.00  0.00    -0.241 C  
ENDROOT
BRANCH   2   3
HETATM    3  C   UNL     1     -10.020   5.687  71.977  1.00  0.00    -0.217 A  
HETATM    4  C   UNL     1      -9.628   2.125  73.221  1.00  0.00    -0.119 A  
HETATM    5  C   UNL     1      -9.919   6.344  70.734  1.00  0.00    -0.212 A  
HETATM    6  C   UNL     1      -9.162   1.504  72.073  1.00  0.00    -0.126 A  
HETATM    7  C   UNL     1      -9.947   3.486  73.198  1.00  0.00    -0.197 A  
HETATM    8  C   UNL     1      -9.054   2.236  70.892  1.00  0.00    -0.177 A  
HETATM    9  C   UNL     1      -9.562   5.658  69.578  1.00  0.00    -0.192 A  
HETATM   10  C   UNL     1      -9.274   4.301  69.643  1.00  0.00    -0.204 A  
HETATM   11  C   UNL     1      -9.794   4.275  72.032  1.00  0.00    -0.241 A  
HETATM   12  C   UNL     1      -9.375   3.603  70.853  1.00  0.00    -0.218 A  
ENDBRANCH   2   3
BRANCH   2  13
HETATM   13  N   UNL     1     -11.354   7.536  73.036  1.00  0.00    -0.578 NA 
HETATM   14  H   UNL     1     -10.919   8.439  72.846  1.00  0.00     0.000 HD 
BRANCH  13  15
HETATM   15  C   UNL     1     -12.336   7.218  72.004  1.00  0.00    -0.263 C  
BRANCH  15  16
HETATM   16  C   UNL     1     -13.130   8.465  71.621  1.00  0.00    -0.355 C  
BRANCH  16  17
HETATM   17  C   UNL     1     -12.265   9.714  71.808  1.00  0.00    -0.464 C  
BRANCH  17  18
HETATM   18  C   UNL     1     -11.417   9.976  70.592  1.00  0.00    -0.425 A  
HETATM   19  C   UNL     1      -9.247   9.917  69.481  1.00  0.00    -0.238 A  
HETATM   20  C   UNL     1      -7.780   9.570  69.483  1.00  0.00    -0.100 C  
HETATM   21  C   UNL     1     -10.061   9.622  70.587  1.00  0.00    -0.324 A  
HETATM   22  C   UNL     1     -11.165  10.915  68.372  1.00  0.00    -0.347 A  
HETATM   23  F   UNL     1      -7.365   8.948  70.623  1.00  0.00    -0.046 F  
HETATM   24  F   UNL     1      -7.438   8.736  68.461  1.00  0.00    -0.082 F  
HETATM   25  F   UNL     1      -6.984  10.668  69.350  1.00  0.00    -0.061 F  
HETATM   26  C   UNL     1      -9.814  10.564  68.373  1.00  0.00    -0.171 A  
HETATM   27  C   UNL     1     -11.960  10.625  69.479  1.00  0.00    -0.319 A  
ENDBRANCH  17  18
ENDBRANCH  16  17
ENDBRANCH  15  16
ENDBRANCH  13  15
ENDBRANCH   2  13
TORSDOF 6
ENDMDL
MODEL      332
REMARK 921   NORMALIZED FREE ENERGY PREDICTED BY IDOCK:   -2.86 KCAL/MOL
REMARK 922        TOTAL FREE ENERGY PREDICTED BY IDOCK:   -6.98 KCAL/MOL
REMARK 923 INTER-LIGAND FREE ENERGY PREDICTED BY IDOCK:   -5.09 KCAL/MOL
REMARK 924 INTRA-LIGAND FREE ENERGY PREDICTED BY IDOCK:   -1.89 KCAL/MOL
REMARK 927      BINDING AFFINITY PREDICTED BY RF-SCORE:    0.00 PKD
ROOT
HETATM    1  C   UNL     1      -6.030   8.494  71.165  1.00  0.00    -0.037 C  
HETATM    2  C   UNL     1      -7.469   8.914  70.816  1.00  0.00    -0.099 C  
ENDROOT
BRANCH   2   3
HETATM    3  C   UNL     1      -7.560  10.079  69.826  1.00  0.00    -0.167 A  
HETATM    4  C   UNL     1     -10.426   9.145  67.524  1.00  0.00    -0.335 A  
HETATM    5  C   UNL     1      -6.642  11.145  69.923  1.00  0.00    -0.129 A  
HETATM    6  C   UNL     1     -10.308  10.132  66.558  1.00  0.00    -0.270 A  
HETATM    7  C   UNL     1      -9.557   9.134  68.619  1.00  0.00    -0.157 A  
HETATM    8  C   UNL     1      -9.347  11.129  66.708  1.00  0.00    -0.193 A  
HETATM    9  C   UNL     1      -6.634  12.181  68.996  1.00  0.00    -0.100 A  
HETATM   10  C   UNL     1      -7.530  12.163  67.935  1.00  0.00    -0.117 A  
HETATM   11  C   UNL     1      -8.530  10.096  68.776  1.00  0.00    -0.131 A  
HETATM   12  C   UNL     1      -8.470  11.133  67.805  1.00  0.00    -0.124 A  
ENDBRANCH   2   3
BRANCH   2  13
HETATM   13  N   UNL     1      -8.319   9.085  72.007  1.00  0.00    -0.334 NA 
HETATM   14  H   UNL     1      -9.305   9.052  71.748  1.00  0.00     0.000 HD 
BRANCH  13  15
HETATM   15  C   UNL     1      -8.045   8.142  73.086  1.00  0.00    -0.179 C  
BRANCH  15  16
HETATM   16  C   UNL     1      -9.350   7.614  73.679  1.00  0.00    -0.344 C  
BRANCH  16  17
HETATM   17  C   UNL     1      -9.565   6.159  73.256  1.00  0.00    -0.148 C  
BRANCH  17  18
HETATM   18  C   UNL     1     -10.072   6.071  71.841  1.00  0.00    -0.223 A  
HETATM   19  C   UNL     1      -9.701   5.502  69.500  1.00  0.00    -0.218 A  
HETATM   20  C   UNL     1      -8.820   4.957  68.404  1.00  0.00    -0.103 C  
HETATM   21  C   UNL     1      -9.261   5.533  70.832  1.00  0.00    -0.179 A  
HETATM   22  C   UNL     1     -11.785   6.541  70.194  1.00  0.00    -0.419 A  
HETATM   23  F   UNL     1      -7.613   4.501  68.846  1.00  0.00    -0.058 F  
HETATM   24  F   UNL     1      -9.392   3.909  67.746  1.00  0.00    -0.152 F  
HETATM   25  F   UNL     1      -8.538   5.888  67.451  1.00  0.00    -0.109 F  
HETATM   26  C   UNL     1     -10.972   6.008  69.192  1.00  0.00    -0.429 A  
HETATM   27  C   UNL     1     -11.334   6.575  71.511  1.00  0.00    -0.339 A  
ENDBRANCH  17  18
ENDBRANCH  16  17
ENDBRANCH  15  16
ENDBRANCH  13  15
ENDBRANCH   2  13
TORSDOF 6
ENDMDL
MODEL      333
REMARK 921   NORMALIZED FREE ENERGY PREDICTED BY IDOCK:   -2.83 KCAL/MOL
REMARK 922        TOTAL FREE ENERGY PREDICTED BY IDOCK:   -6.95 KCAL/MOL
REMARK 923 INTER-LIGAND FREE ENERGY PREDICTED BY IDOCK:   -6.77 KCAL/MOL
REMARK 924 INTRA-LIGAND FREE ENERGY PREDICTED BY IDOCK:   -0.19 KCAL/MOL
REMARK 927      BINDING AFFINITY PREDICTED BY RF-SCORE:    0.00 PKD
ROOT
HETATM    1  C   UNL     1     -10.731  11.913  65.576  1.00  0.00    -0.329 C  
HETATM    2  C   UNL     1     -11.627  12.141  66.806  1.00  0.00    -0.345 C  
ENDROOT
BRANCH   2   3
HETATM    3  C   UNL     1     -11.358  13.457  67.543  1.00  0.00    -0.327 A  
HETATM    4  C   UNL     1     -11.053  16.043  64.785  1.00  0.00    -0.378 A  
HETATM    5  C   UNL     1     -11.252  13.455  68.949  1.00  0.00    -0.320 A  
HETATM    6  C   UNL     1     -10.617  17.139  65.512  1.00  0.00    -0.160 A  
HETATM    7  C   UNL     1     -11.334  14.840  65.439  1.00  0.00    -0.356 A  
HETATM    8  C   UNL     1     -10.501  17.044  66.897  1.00  0.00    -0.268 A  
HETATM    9  C   UNL     1     -10.926  14.610  69.653  1.00  0.00    -0.255 A  
HETATM   10  C   UNL     1     -10.675  15.789  68.963  1.00  0.00    -0.235 A  
HETATM   11  C   UNL     1     -11.171  14.687  66.837  1.00  0.00    -0.345 A  
HETATM   12  C   UNL     1     -10.783  15.843  67.568  1.00  0.00    -0.318 A  
ENDBRANCH   2   3
BRANCH   2  13
HETATM   13  N   UNL     1     -11.684  10.969  67.697  1.00  0.00    -0.580 NA 
HETATM   14  H   UNL     1     -12.498  10.394  67.476  1.00  0.00     0.000 HD 
BRANCH  13  15
HETATM   15  C   UNL     1     -10.473  10.154  67.703  1.00  0.00    -0.245 C  
BRANCH  15  16
HETATM   16  C   UNL     1     -10.826   8.674  67.833  1.00  0.00    -0.061 C  
BRANCH  16  17
HETATM   17  C   UNL     1      -9.548   7.831  67.851  1.00  0.00    -0.167 C  
BRANCH  17  18
HETATM   18  C   UNL     1      -9.392   7.107  69.162  1.00  0.00    -0.141 A  
HETATM   19  C   UNL     1      -9.909   6.910  71.536  1.00  0.00    -0.175 A  
HETATM   20  C   UNL     1     -10.633   7.392  72.768  1.00  0.00    -0.297 C  
HETATM   21  C   UNL     1     -10.093   7.540  70.296  1.00  0.00    -0.194 A  
HETATM   22  C   UNL     1      -8.321   5.392  70.496  1.00  0.00    -0.111 A  
HETATM   23  F   UNL     1     -11.462   8.449  72.537  1.00  0.00    -0.395 F  
HETATM   24  F   UNL     1     -11.412   6.426  73.329  1.00  0.00    -0.182 F  
HETATM   25  F   UNL     1      -9.779   7.799  73.749  1.00  0.00    -0.328 F  
HETATM   26  C   UNL     1      -9.018   5.829  71.624  1.00  0.00    -0.141 A  
HETATM   27  C   UNL     1      -8.506   6.032  69.273  1.00  0.00    -0.115 A  
ENDBRANCH  17  18
ENDBRANCH  16  17
ENDBRANCH  15  16
ENDBRANCH  13  15
ENDBRANCH   2  13
TORSDOF 6
ENDMDL
MODEL      334
REMARK 921   NORMALIZED FREE ENERGY PREDICTED BY IDOCK:   -2.82 KCAL/MOL
REMARK 922        TOTAL FREE ENERGY PREDICTED BY IDOCK:   -6.94 KCAL/MOL
REMARK 923 INTER-LIGAND FREE ENERGY PREDICTED BY IDOCK:   -3.94 KCAL/MOL
REMARK 924 INTRA-LIGAND FREE ENERGY PREDICTED BY IDOCK:   -3.00 KCAL/MOL
REMARK 927      BINDING AFFINITY PREDICTED BY RF-SCORE:    0.00 PKD
ROOT
HETATM    1  C   UNL     1      -9.331   2.991  69.536  1.00  0.00    -0.213 C  
HETATM    2  C   UNL     1      -8.613   4.055  68.687  1.00  0.00    -0.093 C  
ENDROOT
BRANCH   2   3
HETATM    3  C   UNL     1      -8.334   5.366  69.429  1.00  0.00    -0.096 A  
HETATM    4  C   UNL     1     -11.760   6.613  70.475  1.00  0.00    -0.453 A  
HETATM    5  C   UNL     1      -7.007   5.829  69.543  1.00  0.00    -0.063 A  
HETATM    6  C   UNL     1     -11.437   7.875  70.949  1.00  0.00    -0.294 A  
HETATM    7  C   UNL     1     -10.751   5.766  70.006  1.00  0.00    -0.400 A  
HETATM    8  C   UNL     1     -10.103   8.273  70.991  1.00  0.00    -0.230 A  
HETATM    9  C   UNL     1      -6.714   7.054  70.134  1.00  0.00    -0.052 A  
HETATM   10  C   UNL     1      -7.746   7.855  70.605  1.00  0.00    -0.090 A  
HETATM   11  C   UNL     1      -9.391   6.157  69.979  1.00  0.00    -0.166 A  
HETATM   12  C   UNL     1      -9.079   7.430  70.527  1.00  0.00    -0.157 A  
ENDBRANCH   2   3
BRANCH   2  13
HETATM   13  N   UNL     1      -9.235   4.248  67.365  1.00  0.00    -0.139 NA 
HETATM   14  H   UNL     1      -9.842   5.067  67.374  1.00  0.00     0.000 HD 
BRANCH  13  15
HETATM   15  C   UNL     1      -8.288   4.328  66.258  1.00  0.00    -0.108 C  
BRANCH  15  16
HETATM   16  C   UNL     1      -8.668   5.467  65.314  1.00  0.00    -0.136 C  
BRANCH  16  17
HETATM   17  C   UNL     1      -9.429   6.552  66.081  1.00  0.00    -0.067 C  
BRANCH  17  18
HETATM   18  C   UNL     1      -8.515   7.680  66.479  1.00  0.00    -0.133 A  
HETATM   19  C   UNL     1      -8.151   9.781  67.660  1.00  0.00    -0.113 A  
HETATM   20  C   UNL     1      -8.650  10.893  68.549  1.00  0.00    -0.152 C  
HETATM   21  C   UNL     1      -8.975   8.694  67.332  1.00  0.00    -0.144 A  
HETATM   22  C   UNL     1      -6.389   8.826  66.286  1.00  0.00    -0.061 A  
HETATM   23  F   UNL     1      -9.929  10.711  68.988  1.00  0.00    -0.178 F  
HETATM   24  F   UNL     1      -7.893  11.047  69.671  1.00  0.00    -0.106 F  
HETATM   25  F   UNL     1      -8.643  12.103  67.923  1.00  0.00    -0.137 F  
HETATM   26  C   UNL     1      -6.853   9.836  67.132  1.00  0.00    -0.083 A  
HETATM   27  C   UNL     1      -7.220   7.757  65.959  1.00  0.00    -0.073 A  
ENDBRANCH  17  18
ENDBRANCH  16  17
ENDBRANCH  15  16
ENDBRANCH  13  15
ENDBRANCH   2  13
TORSDOF 6
ENDMDL
MODEL      335
REMARK 921   NORMALIZED FREE ENERGY PREDICTED BY IDOCK:   -2.81 KCAL/MOL
REMARK 922        TOTAL FREE ENERGY PREDICTED BY IDOCK:   -6.92 KCAL/MOL
REMARK 923 INTER-LIGAND FREE ENERGY PREDICTED BY IDOCK:   -5.79 KCAL/MOL
REMARK 924 INTRA-LIGAND FREE ENERGY PREDICTED BY IDOCK:   -1.13 KCAL/MOL
REMARK 927      BINDING AFFINITY PREDICTED BY RF-SCORE:    0.00 PKD
ROOT
HETATM    1  C   UNL     1      -6.587   7.852  71.034  1.00  0.00    -0.037 C  
HETATM    2  C   UNL     1      -7.870   8.532  70.525  1.00  0.00    -0.086 C  
ENDROOT
BRANCH   2   3
HETATM    3  C   UNL     1      -7.630   9.614  69.467  1.00  0.00    -0.104 A  
HETATM    4  C   UNL     1      -5.178  12.006  71.096  1.00  0.00    -0.115 A  
HETATM    5  C   UNL     1      -8.314   9.544  68.236  1.00  0.00    -0.118 A  
HETATM    6  C   UNL     1      -5.175  13.036  70.169  1.00  0.00    -0.100 A  
HETATM    7  C   UNL     1      -5.949  10.863  70.865  1.00  0.00     0.036 A  
HETATM    8  C   UNL     1      -5.911  12.906  68.994  1.00  0.00    -0.079 A  
HETATM    9  C   UNL     1      -8.191  10.547  67.280  1.00  0.00    -0.119 A  
HETATM   10  C   UNL     1      -7.397  11.656  67.544  1.00  0.00    -0.119 A  
HETATM   11  C   UNL     1      -6.755  10.719  69.710  1.00  0.00    -0.139 A  
HETATM   12  C   UNL     1      -6.687  11.762  68.746  1.00  0.00    -0.083 A  
ENDBRANCH   2   3
BRANCH   2  13
HETATM   13  N   UNL     1      -8.760   8.964  71.617  1.00  0.00    -0.336 NA 
HETATM   14  H   UNL     1      -9.179   9.868  71.398  1.00  0.00     0.000 HD 
BRANCH  13  15
HETATM   15  C   UNL     1      -9.794   7.998  71.972  1.00  0.00    -0.211 C  
BRANCH  15  16
HETATM   16  C   UNL     1     -11.099   8.714  72.314  1.00  0.00    -0.395 C  
BRANCH  16  17
HETATM   17  C   UNL     1     -11.910   8.961  71.038  1.00  0.00    -0.324 C  
BRANCH  17  18
HETATM   18  C   UNL     1     -12.239  10.421  70.877  1.00  0.00    -0.484 A  
HETATM   19  C   UNL     1     -12.034  12.503  69.625  1.00  0.00    -0.339 A  
HETATM   20  C   UNL     1     -11.517  13.277  68.438  1.00  0.00    -0.314 C  
HETATM   21  C   UNL     1     -11.784  11.128  69.755  1.00  0.00    -0.419 A  
HETATM   22  C   UNL     1     -13.217  12.460  71.747  1.00  0.00    -0.435 A  
HETATM   23  F   UNL     1     -10.829  12.513  67.543  1.00  0.00    -0.221 F  
HETATM   24  F   UNL     1     -12.515  13.873  67.727  1.00  0.00    -0.343 F  
HETATM   25  F   UNL     1     -10.667  14.279  68.800  1.00  0.00    -0.226 F  
HETATM   26  C   UNL     1     -12.758  13.161  70.630  1.00  0.00    -0.203 A  
HETATM   27  C   UNL     1     -12.955  11.098  71.869  1.00  0.00    -0.477 A  
ENDBRANCH  17  18
ENDBRANCH  16  17
ENDBRANCH  15  16
ENDBRANCH  13  15
ENDBRANCH   2  13
TORSDOF 6
ENDMDL
MODEL      336
REMARK 921   NORMALIZED FREE ENERGY PREDICTED BY IDOCK:   -2.81 KCAL/MOL
REMARK 922        TOTAL FREE ENERGY PREDICTED BY IDOCK:   -6.92 KCAL/MOL
REMARK 923 INTER-LIGAND FREE ENERGY PREDICTED BY IDOCK:   -6.20 KCAL/MOL
REMARK 924 INTRA-LIGAND FREE ENERGY PREDICTED BY IDOCK:   -0.72 KCAL/MOL
REMARK 927      BINDING AFFINITY PREDICTED BY RF-SCORE:    0.00 PKD
ROOT
HETATM    1  C   UNL     1      -6.057  10.472  68.940  1.00  0.00    -0.040 C  
HETATM    2  C   UNL     1      -7.285   9.865  69.640  1.00  0.00    -0.108 C  
ENDROOT
BRANCH   2   3
HETATM    3  C   UNL     1      -7.501   8.377  69.349  1.00  0.00    -0.089 A  
HETATM    4  C   UNL     1      -8.096   8.218  65.607  1.00  0.00    -0.124 A  
HETATM    5  C   UNL     1      -7.474   7.451  70.413  1.00  0.00    -0.085 A  
HETATM    6  C   UNL     1      -8.476   6.893  65.466  1.00  0.00    -0.122 A  
HETATM    7  C   UNL     1      -7.740   8.711  66.866  1.00  0.00    -0.091 A  
HETATM    8  C   UNL     1      -8.461   6.052  66.576  1.00  0.00    -0.115 A  
HETATM    9  C   UNL     1      -7.747   6.103  70.208  1.00  0.00    -0.097 A  
HETATM   10  C   UNL     1      -8.077   5.653  68.936  1.00  0.00    -0.100 A  
HETATM   11  C   UNL     1      -7.768   7.902  68.027  1.00  0.00    -0.125 A  
HETATM   12  C   UNL     1      -8.101   6.532  67.846  1.00  0.00    -0.116 A  
ENDBRANCH   2   3
BRANCH   2  13
HETATM   13  N   UNL     1      -8.501  10.680  69.472  1.00  0.00    -0.375 NA 
HETATM   14  H   UNL     1      -8.591  10.989  68.504  1.00  0.00     0.000 HD 
BRANCH  13  15
HETATM   15  C   UNL     1      -9.730  10.030  69.915  1.00  0.00    -0.203 C  
BRANCH  15  16
HETATM   16  C   UNL     1     -10.741   9.966  68.772  1.00  0.00    -0.247 C  
BRANCH  16  17
HETATM   17  C   UNL     1     -11.927  10.887  69.071  1.00  0.00    -0.322 C  
BRANCH  17  18
HETATM   18  C   UNL     1     -11.828  12.173  68.294  1.00  0.00    -0.361 A  
HETATM   19  C   UNL     1     -11.569  13.337  66.168  1.00  0.00    -0.385 A  
HETATM   20  C   UNL     1     -11.421  13.315  64.667  1.00  0.00    -0.342 C  
HETATM   21  C   UNL     1     -11.723  12.147  66.896  1.00  0.00    -0.374 A  
HETATM   22  C   UNL     1     -11.641  14.588  68.250  1.00  0.00    -0.358 A  
HETATM   23  F   UNL     1     -11.473  12.063  64.130  1.00  0.00    -0.363 F  
HETATM   24  F   UNL     1     -12.394  14.029  64.034  1.00  0.00    -0.474 F  
HETATM   25  F   UNL     1     -10.237  13.847  64.252  1.00  0.00    -0.441 F  
HETATM   26  C   UNL     1     -11.533  14.558  66.858  1.00  0.00    -0.375 A  
HETATM   27  C   UNL     1     -11.784  13.400  68.962  1.00  0.00    -0.368 A  
ENDBRANCH  17  18
ENDBRANCH  16  17
ENDBRANCH  15  16
ENDBRANCH  13  15
ENDBRANCH   2  13
TORSDOF 6
ENDMDL
MODEL      337
REMARK 921   NORMALIZED FREE ENERGY PREDICTED BY IDOCK:   -2.79 KCAL/MOL
REMARK 922        TOTAL FREE ENERGY PREDICTED BY IDOCK:   -6.90 KCAL/MOL
REMARK 923 INTER-LIGAND FREE ENERGY PREDICTED BY IDOCK:   -6.05 KCAL/MOL
REMARK 924 INTRA-LIGAND FREE ENERGY PREDICTED BY IDOCK:   -0.85 KCAL/MOL
REMARK 927      BINDING AFFINITY PREDICTED BY RF-SCORE:    0.00 PKD
ROOT
HETATM    1  C   UNL     1     -11.373  14.883  65.513  1.00  0.00    -0.339 C  
HETATM    2  C   UNL     1     -11.191  15.131  67.021  1.00  0.00    -0.308 C  
ENDROOT
BRANCH   2   3
HETATM    3  C   UNL     1      -9.861  15.793  67.392  1.00  0.00    -0.233 A  
HETATM    4  C   UNL     1     -10.556  19.514  67.162  1.00  0.00    -0.605 A  
HETATM    5  C   UNL     1      -8.743  14.985  67.684  1.00  0.00    -0.182 A  
HETATM    6  C   UNL     1      -9.274  20.022  67.310  1.00  0.00    -0.481 A  
HETATM    7  C   UNL     1     -10.770  18.134  67.221  1.00  0.00    -0.336 A  
HETATM    8  C   UNL     1      -8.215  19.151  67.557  1.00  0.00    -0.310 A  
HETATM    9  C   UNL     1      -7.495  15.541  67.945  1.00  0.00    -0.150 A  
HETATM   10  C   UNL     1      -7.331  16.920  67.895  1.00  0.00    -0.176 A  
HETATM   11  C   UNL     1      -9.710  17.215  67.413  1.00  0.00    -0.253 A  
HETATM   12  C   UNL     1      -8.416  17.763  67.624  1.00  0.00    -0.229 A  
ENDBRANCH   2   3
BRANCH   2  13
HETATM   13  N   UNL     1     -11.508  13.946  67.838  1.00  0.00    -0.299 NA 
HETATM   14  H   UNL     1     -12.238  14.166  68.516  1.00  0.00     0.000 HD 
BRANCH  13  15
HETATM   15  C   UNL     1     -11.870  12.761  67.068  1.00  0.00    -0.361 C  
BRANCH  15  16
HETATM   16  C   UNL     1     -10.823  11.664  67.252  1.00  0.00    -0.302 C  
BRANCH  16  17
HETATM   17  C   UNL     1     -11.364  10.576  68.184  1.00  0.00    -0.324 C  
BRANCH  17  18
HETATM   18  C   UNL     1     -10.397   9.428  68.301  1.00  0.00    -0.251 A  
HETATM   19  C   UNL     1      -8.218   8.567  68.973  1.00  0.00    -0.116 A  
HETATM   20  C   UNL     1      -6.861   8.770  69.599  1.00  0.00    -0.046 C  
HETATM   21  C   UNL     1      -9.150   9.615  68.913  1.00  0.00    -0.144 A  
HETATM   22  C   UNL     1      -9.799   7.132  67.813  1.00  0.00    -0.175 A  
HETATM   23  F   UNL     1      -6.668  10.026  70.093  1.00  0.00    -0.066 F  
HETATM   24  F   UNL     1      -6.634   7.923  70.643  1.00  0.00    -0.037 F  
HETATM   25  F   UNL     1      -5.843   8.558  68.718  1.00  0.00    -0.039 F  
HETATM   26  C   UNL     1      -8.556   7.323  68.420  1.00  0.00    -0.124 A  
HETATM   27  C   UNL     1     -10.711   8.182  67.751  1.00  0.00    -0.166 A  
ENDBRANCH  17  18
ENDBRANCH  16  17
ENDBRANCH  15  16
ENDBRANCH  13  15
ENDBRANCH   2  13
TORSDOF 6
ENDMDL
MODEL      338
REMARK 921   NORMALIZED FREE ENERGY PREDICTED BY IDOCK:   -2.79 KCAL/MOL
REMARK 922        TOTAL FREE ENERGY PREDICTED BY IDOCK:   -6.90 KCAL/MOL
REMARK 923 INTER-LIGAND FREE ENERGY PREDICTED BY IDOCK:   -6.26 KCAL/MOL
REMARK 924 INTRA-LIGAND FREE ENERGY PREDICTED BY IDOCK:   -0.64 KCAL/MOL
REMARK 927      BINDING AFFINITY PREDICTED BY RF-SCORE:    0.00 PKD
ROOT
HETATM    1  C   UNL     1      -7.167  10.825  69.709  1.00  0.00    -0.106 C  
HETATM    2  C   UNL     1      -8.599  10.886  69.148  1.00  0.00    -0.050 C  
ENDROOT
BRANCH   2   3
HETATM    3  C   UNL     1      -8.992   9.672  68.301  1.00  0.00    -0.123 A  
HETATM    4  C   UNL     1      -6.965  10.041  65.117  1.00  0.00    -0.134 A  
HETATM    5  C   UNL     1      -9.952   8.764  68.793  1.00  0.00    -0.197 A  
HETATM    6  C   UNL     1      -7.523   9.036  64.342  1.00  0.00    -0.105 A  
HETATM    7  C   UNL     1      -7.410  10.240  66.427  1.00  0.00    -0.114 A  
HETATM    8  C   UNL     1      -8.497   8.205  64.892  1.00  0.00    -0.094 A  
HETATM    9  C   UNL     1     -10.400   7.695  68.025  1.00  0.00    -0.257 A  
HETATM   10  C   UNL     1      -9.916   7.523  66.735  1.00  0.00    -0.307 A  
HETATM   11  C   UNL     1      -8.438   9.454  67.000  1.00  0.00    -0.127 A  
HETATM   12  C   UNL     1      -8.950   8.390  66.208  1.00  0.00    -0.213 A  
ENDBRANCH   2   3
BRANCH   2  13
HETATM   13  N   UNL     1      -8.909  12.176  68.508  1.00  0.00    -0.332 NA 
HETATM   14  H   UNL     1      -8.527  12.205  67.563  1.00  0.00     0.000 HD 
BRANCH  13  15
HETATM   15  C   UNL     1     -10.327  12.519  68.494  1.00  0.00    -0.222 C  
BRANCH  15  16
HETATM   16  C   UNL     1     -10.643  13.436  67.315  1.00  0.00    -0.256 C  
BRANCH  16  17
HETATM   17  C   UNL     1      -9.350  14.044  66.764  1.00  0.00    -0.289 C  
BRANCH  17  18
HETATM   18  C   UNL     1      -9.155  15.452  67.260  1.00  0.00    -0.218 A  
HETATM   19  C   UNL     1      -9.566  17.844  67.031  1.00  0.00    -0.286 A  
HETATM   20  C   UNL     1     -10.216  19.004  66.319  1.00  0.00    -0.446 C  
HETATM   21  C   UNL     1      -9.789  16.523  66.614  1.00  0.00    -0.279 A  
HETATM   22  C   UNL     1      -8.076  17.016  68.764  1.00  0.00    -0.250 A  
HETATM   23  F   UNL     1     -11.023  18.629  65.286  1.00  0.00    -0.463 F  
HETATM   24  F   UNL     1     -10.998  19.753  67.146  1.00  0.00    -0.560 F  
HETATM   25  F   UNL     1      -9.306  19.864  65.784  1.00  0.00    -0.397 F  
HETATM   26  C   UNL     1      -8.706  18.080  68.115  1.00  0.00    -0.277 A  
HETATM   27  C   UNL     1      -8.298  15.710  68.334  1.00  0.00    -0.162 A  
ENDBRANCH  17  18
ENDBRANCH  16  17
ENDBRANCH  15  16
ENDBRANCH  13  15
ENDBRANCH   2  13
TORSDOF 6
ENDMDL
MODEL      339
REMARK 921   NORMALIZED FREE ENERGY PREDICTED BY IDOCK:   -2.77 KCAL/MOL
REMARK 922        TOTAL FREE ENERGY PREDICTED BY IDOCK:   -6.86 KCAL/MOL
REMARK 923 INTER-LIGAND FREE ENERGY PREDICTED BY IDOCK:   -6.89 KCAL/MOL
REMARK 924 INTRA-LIGAND FREE ENERGY PREDICTED BY IDOCK:    0.02 KCAL/MOL
REMARK 927      BINDING AFFINITY PREDICTED BY RF-SCORE:    0.00 PKD
ROOT
HETATM    1  C   UNL     1     -12.546  13.777  70.265  1.00  0.00    -0.288 C  
HETATM    2  C   UNL     1     -11.530  13.130  69.307  1.00  0.00    -0.291 C  
ENDROOT
BRANCH   2   3
HETATM    3  C   UNL     1     -10.804  14.126  68.397  1.00  0.00    -0.266 A  
HETATM    4  C   UNL     1     -12.780  14.064  65.160  1.00  0.00    -0.419 A  
HETATM    5  C   UNL     1      -9.648  14.781  68.868  1.00  0.00    -0.210 A  
HETATM    6  C   UNL     1     -11.954  14.821  64.344  1.00  0.00    -0.433 A  
HETATM    7  C   UNL     1     -12.436  13.857  66.499  1.00  0.00    -0.364 A  
HETATM    8  C   UNL     1     -10.806  15.403  64.877  1.00  0.00    -0.445 A  
HETATM    9  C   UNL     1      -8.910  15.629  68.049  1.00  0.00    -0.169 A  
HETATM   10  C   UNL     1      -9.300  15.823  66.730  1.00  0.00    -0.264 A  
HETATM   11  C   UNL     1     -11.248  14.382  67.062  1.00  0.00    -0.336 A  
HETATM   12  C   UNL     1     -10.450  15.206  66.222  1.00  0.00    -0.312 A  
ENDBRANCH   2   3
BRANCH   2  13
HETATM   13  N   UNL     1     -12.081  11.968  68.588  1.00  0.00    -0.328 NA 
HETATM   14  H   UNL     1     -12.121  12.157  67.586  1.00  0.00     0.000 HD 
BRANCH  13  15
HETATM   15  C   UNL     1     -11.381  10.713  68.842  1.00  0.00    -0.274 C  
BRANCH  15  16
HETATM   16  C   UNL     1     -10.195  10.562  67.891  1.00  0.00    -0.213 C  
BRANCH  16  17
HETATM   17  C   UNL     1      -8.896  10.934  68.612  1.00  0.00    -0.158 C  
BRANCH  17  18
HETATM   18  C   UNL     1      -8.488   9.863  69.587  1.00  0.00    -0.198 A  
HETATM   19  C   UNL     1      -8.991   8.475  71.527  1.00  0.00    -0.276 A  
HETATM   20  C   UNL     1      -9.937   8.029  72.615  1.00  0.00    -0.290 C  
HETATM   21  C   UNL     1      -9.383   9.429  70.576  1.00  0.00    -0.319 A  
HETATM   22  C   UNL     1      -6.798   8.376  70.484  1.00  0.00    -0.037 A  
HETATM   23  F   UNL     1     -11.163   8.622  72.551  1.00  0.00    -0.416 F  
HETATM   24  F   UNL     1     -10.172   6.688  72.586  1.00  0.00    -0.177 F  
HETATM   25  F   UNL     1      -9.460   8.298  73.862  1.00  0.00    -0.253 F  
HETATM   26  C   UNL     1      -7.692   7.950  71.469  1.00  0.00    -0.090 A  
HETATM   27  C   UNL     1      -7.196   9.330  69.551  1.00  0.00    -0.061 A  
ENDBRANCH  17  18
ENDBRANCH  16  17
ENDBRANCH  15  16
ENDBRANCH  13  15
ENDBRANCH   2  13
TORSDOF 6
ENDMDL
MODEL      340
REMARK 921   NORMALIZED FREE ENERGY PREDICTED BY IDOCK:   -2.76 KCAL/MOL
REMARK 922        TOTAL FREE ENERGY PREDICTED BY IDOCK:   -6.85 KCAL/MOL
REMARK 923 INTER-LIGAND FREE ENERGY PREDICTED BY IDOCK:   -5.53 KCAL/MOL
REMARK 924 INTRA-LIGAND FREE ENERGY PREDICTED BY IDOCK:   -1.32 KCAL/MOL
REMARK 927      BINDING AFFINITY PREDICTED BY RF-SCORE:    0.00 PKD
ROOT
HETATM    1  C   UNL     1      -8.302   4.724  67.248  1.00  0.00    -0.105 C  
HETATM    2  C   UNL     1      -7.302   4.917  68.403  1.00  0.00    -0.066 C  
ENDROOT
BRANCH   2   3
HETATM    3  C   UNL     1      -7.937   4.877  69.796  1.00  0.00    -0.070 A  
HETATM    4  C   UNL     1     -11.389   6.372  69.308  1.00  0.00    -0.405 A  
HETATM    5  C   UNL     1      -7.191   4.378  70.884  1.00  0.00    -0.041 A  
HETATM    6  C   UNL     1     -11.806   6.483  70.625  1.00  0.00    -0.398 A  
HETATM    7  C   UNL     1     -10.139   5.816  69.017  1.00  0.00    -0.249 A  
HETATM    8  C   UNL     1     -10.991   6.001  71.647  1.00  0.00    -0.328 A  
HETATM    9  C   UNL     1      -7.696   4.400  72.179  1.00  0.00    -0.085 A  
HETATM   10  C   UNL     1      -8.952   4.943  72.420  1.00  0.00    -0.140 A  
HETATM   11  C   UNL     1      -9.259   5.369  70.032  1.00  0.00    -0.175 A  
HETATM   12  C   UNL     1      -9.735   5.436  71.369  1.00  0.00    -0.213 A  
ENDBRANCH   2   3
BRANCH   2  13
HETATM   13  N   UNL     1      -6.406   6.068  68.197  1.00  0.00    -0.042 NA 
HETATM   14  H   UNL     1      -6.346   6.299  67.205  1.00  0.00     0.000 HD 
BRANCH  13  15
HETATM   15  C   UNL     1      -6.754   7.252  68.974  1.00  0.00    -0.059 C  
BRANCH  15  16
HETATM   16  C   UNL     1      -7.601   8.209  68.138  1.00  0.00    -0.105 C  
BRANCH  16  17
HETATM   17  C   UNL     1      -7.783   9.534  68.884  1.00  0.00    -0.076 C  
BRANCH  17  18
HETATM   18  C   UNL     1      -8.807   9.406  69.980  1.00  0.00    -0.231 A  
HETATM   19  C   UNL     1     -11.049   9.844  70.833  1.00  0.00    -0.418 A  
HETATM   20  C   UNL     1     -12.436  10.408  70.654  1.00  0.00    -0.348 C  
HETATM   21  C   UNL     1     -10.105   9.904  69.796  1.00  0.00    -0.274 A  
HETATM   22  C   UNL     1      -9.389   8.766  72.243  1.00  0.00    -0.223 A  
HETATM   23  F   UNL     1     -12.656  10.939  69.417  1.00  0.00    -0.376 F  
HETATM   24  F   UNL     1     -13.409   9.472  70.833  1.00  0.00    -0.348 F  
HETATM   25  F   UNL     1     -12.710  11.407  71.539  1.00  0.00    -0.457 F  
HETATM   26  C   UNL     1     -10.679   9.267  72.056  1.00  0.00    -0.061 A  
HETATM   27  C   UNL     1      -8.458   8.840  71.210  1.00  0.00    -0.238 A  
ENDBRANCH  17  18
ENDBRANCH  16  17
ENDBRANCH  15  16
ENDBRANCH  13  15
ENDBRANCH   2  13
TORSDOF 6
ENDMDL
MODEL      341
REMARK 921   NORMALIZED FREE ENERGY PREDICTED BY IDOCK:   -2.75 KCAL/MOL
REMARK 922        TOTAL FREE ENERGY PREDICTED BY IDOCK:   -6.84 KCAL/MOL
REMARK 923 INTER-LIGAND FREE ENERGY PREDICTED BY IDOCK:   -5.50 KCAL/MOL
REMARK 924 INTRA-LIGAND FREE ENERGY PREDICTED BY IDOCK:   -1.34 KCAL/MOL
REMARK 927      BINDING AFFINITY PREDICTED BY RF-SCORE:    0.00 PKD
ROOT
HETATM    1  C   UNL     1      -5.719  16.943  67.155  1.00  0.00    -0.198 C  
HETATM    2  C   UNL     1      -6.958  16.087  67.473  1.00  0.00    -0.176 C  
ENDROOT
BRANCH   2   3
HETATM    3  C   UNL     1      -8.276  16.679  66.967  1.00  0.00    -0.222 A  
HETATM    4  C   UNL     1     -10.072  13.756  65.349  1.00  0.00    -0.307 A  
HETATM    5  C   UNL     1      -8.533  18.054  67.148  1.00  0.00    -0.241 A  
HETATM    6  C   UNL     1     -11.138  14.411  64.753  1.00  0.00    -0.402 A  
HETATM    7  C   UNL     1      -9.145  14.479  66.107  1.00  0.00    -0.083 A  
HETATM    8  C   UNL     1     -11.298  15.781  64.948  1.00  0.00    -0.284 A  
HETATM    9  C   UNL     1      -9.678  18.651  66.632  1.00  0.00    -0.360 A  
HETATM   10  C   UNL     1     -10.583  17.891  65.902  1.00  0.00    -0.216 A  
HETATM   11  C   UNL     1      -9.243  15.880  66.279  1.00  0.00    -0.372 A  
HETATM   12  C   UNL     1     -10.378  16.519  65.710  1.00  0.00    -0.359 A  
ENDBRANCH   2   3
BRANCH   2  13
HETATM   13  N   UNL     1      -7.008  15.654  68.881  1.00  0.00    -0.122 NA 
HETATM   14  H   UNL     1      -7.974  15.605  69.203  1.00  0.00     0.000 HD 
BRANCH  13  15
HETATM   15  C   UNL     1      -6.317  14.397  69.151  1.00  0.00    -0.102 C  
BRANCH  15  16
HETATM   16  C   UNL     1      -6.716  13.338  68.125  1.00  0.00    -0.114 C  
BRANCH  16  17
HETATM   17  C   UNL     1      -6.123  11.982  68.516  1.00  0.00    -0.051 C  
BRANCH  17  18
HETATM   18  C   UNL     1      -7.201  11.010  68.915  1.00  0.00    -0.103 A  
HETATM   19  C   UNL     1      -9.515  10.255  68.777  1.00  0.00    -0.176 A  
HETATM   20  C   UNL     1     -10.909  10.388  68.218  1.00  0.00    -0.254 C  
HETATM   21  C   UNL     1      -8.487  11.118  68.367  1.00  0.00    -0.151 A  
HETATM   22  C   UNL     1      -7.954   9.157  70.282  1.00  0.00    -0.139 A  
HETATM   23  F   UNL     1     -11.038  11.385  67.298  1.00  0.00    -0.275 F  
HETATM   24  F   UNL     1     -11.334   9.253  67.595  1.00  0.00    -0.168 F  
HETATM   25  F   UNL     1     -11.834  10.653  69.183  1.00  0.00    -0.316 F  
HETATM   26  C   UNL     1      -9.235   9.271  69.737  1.00  0.00    -0.191 A  
HETATM   27  C   UNL     1      -6.945  10.026  69.874  1.00  0.00    -0.118 A  
ENDBRANCH  17  18
ENDBRANCH  16  17
ENDBRANCH  15  16
ENDBRANCH  13  15
ENDBRANCH   2  13
TORSDOF 6
ENDMDL
MODEL      342
REMARK 921   NORMALIZED FREE ENERGY PREDICTED BY IDOCK:   -2.74 KCAL/MOL
REMARK 922        TOTAL FREE ENERGY PREDICTED BY IDOCK:   -6.83 KCAL/MOL
REMARK 923 INTER-LIGAND FREE ENERGY PREDICTED BY IDOCK:   -6.58 KCAL/MOL
REMARK 924 INTRA-LIGAND FREE ENERGY PREDICTED BY IDOCK:   -0.25 KCAL/MOL
REMARK 927      BINDING AFFINITY PREDICTED BY RF-SCORE:    0.00 PKD
ROOT
HETATM    1  C   UNL     1      -8.037   9.876  70.020  1.00  0.00    -0.193 C  
HETATM    2  C   UNL     1      -9.546   9.857  69.717  1.00  0.00    -0.231 C  
ENDROOT
BRANCH   2   3
HETATM    3  C   UNL     1     -10.303   8.699  70.376  1.00  0.00    -0.225 A  
HETATM    4  C   UNL     1      -8.750   5.578  68.883  1.00  0.00    -0.102 A  
HETATM    5  C   UNL     1     -11.342   8.980  71.287  1.00  0.00    -0.389 A  
HETATM    6  C   UNL     1      -9.612   4.608  69.369  1.00  0.00    -0.257 A  
HETATM    7  C   UNL     1      -8.941   6.918  69.232  1.00  0.00    -0.137 A  
HETATM    8  C   UNL     1     -10.640   4.973  70.235  1.00  0.00    -0.134 A  
HETATM    9  C   UNL     1     -12.110   7.964  71.846  1.00  0.00    -0.352 A  
HETATM   10  C   UNL     1     -11.873   6.643  71.486  1.00  0.00    -0.387 A  
HETATM   11  C   UNL     1     -10.009   7.335  70.062  1.00  0.00    -0.184 A  
HETATM   12  C   UNL     1     -10.842   6.315  70.597  1.00  0.00    -0.339 A  
ENDBRANCH   2   3
BRANCH   2  13
HETATM   13  N   UNL     1      -9.844  10.014  68.283  1.00  0.00    -0.144 NA 
HETATM   14  H   UNL     1     -10.310   9.181  67.923  1.00  0.00     0.000 HD 
BRANCH  13  15
HETATM   15  C   UNL     1     -10.613  11.210  67.954  1.00  0.00    -0.198 C  
BRANCH  15  16
HETATM   16  C   UNL     1     -10.804  11.322  66.442  1.00  0.00    -0.306 C  
BRANCH  16  17
HETATM   17  C   UNL     1      -9.759  12.273  65.852  1.00  0.00    -0.247 C  
BRANCH  17  18
HETATM   18  C   UNL     1     -10.371  13.601  65.494  1.00  0.00    -0.319 A  
HETATM   19  C   UNL     1     -10.511  16.013  65.817  1.00  0.00    -0.391 A  
HETATM   20  C   UNL     1     -10.040  17.278  66.490  1.00  0.00    -0.309 C  
HETATM   21  C   UNL     1      -9.907  14.778  66.099  1.00  0.00    -0.335 A  
HETATM   22  C   UNL     1     -12.044  14.887  64.304  1.00  0.00    -0.373 A  
HETATM   23  F   UNL     1      -8.996  17.088  67.346  1.00  0.00    -0.205 F  
HETATM   24  F   UNL     1      -9.621  18.220  65.599  1.00  0.00    -0.085 F  
HETATM   25  F   UNL     1     -11.020  17.872  67.227  1.00  0.00    -0.342 F  
HETATM   26  C   UNL     1     -11.581  16.056  64.912  1.00  0.00    -0.009 A  
HETATM   27  C   UNL     1     -11.442  13.666  64.599  1.00  0.00    -0.383 A  
ENDBRANCH  17  18
ENDBRANCH  16  17
ENDBRANCH  15  16
ENDBRANCH  13  15
ENDBRANCH   2  13
TORSDOF 6
ENDMDL
MODEL      343
REMARK 921   NORMALIZED FREE ENERGY PREDICTED BY IDOCK:   -2.74 KCAL/MOL
REMARK 922        TOTAL FREE ENERGY PREDICTED BY IDOCK:   -6.83 KCAL/MOL
REMARK 923 INTER-LIGAND FREE ENERGY PREDICTED BY IDOCK:   -6.33 KCAL/MOL
REMARK 924 INTRA-LIGAND FREE ENERGY PREDICTED BY IDOCK:   -0.50 KCAL/MOL
REMARK 927      BINDING AFFINITY PREDICTED BY RF-SCORE:    0.00 PKD
ROOT
HETATM    1  C   UNL     1     -10.525  15.855  68.946  1.00  0.00    -0.233 C  
HETATM    2  C   UNL     1     -11.889  15.163  68.775  1.00  0.00    -0.303 C  
ENDROOT
BRANCH   2   3
HETATM    3  C   UNL     1     -12.274  14.239  69.934  1.00  0.00    -0.407 A  
HETATM    4  C   UNL     1     -12.322  16.504  72.977  1.00  0.00    -0.357 A  
HETATM    5  C   UNL     1     -12.482  12.867  69.687  1.00  0.00     0.084 A  
HETATM    6  C   UNL     1     -12.475  15.568  73.988  1.00  0.00    -0.789 A  
HETATM    7  C   UNL     1     -12.290  16.089  71.642  1.00  0.00    -0.472 A  
HETATM    8  C   UNL     1     -12.635  14.223  73.661  1.00  0.00     0.248 A  
HETATM    9  C   UNL     1     -12.750  11.976  70.721  1.00  0.00    -0.231 A  
HETATM   10  C   UNL     1     -12.794  12.435  72.032  1.00  0.00    -0.263 A  
HETATM   11  C   UNL     1     -12.391  14.726  71.274  1.00  0.00    -0.390 A  
HETATM   12  C   UNL     1     -12.609  13.792  72.324  1.00  0.00    -0.175 A  
ENDBRANCH   2   3
BRANCH   2  13
HETATM   13  N   UNL     1     -12.054  14.544  67.448  1.00  0.00    -0.579 NA 
HETATM   14  H   UNL     1     -13.016  14.646  67.125  1.00  0.00     0.000 HD 
BRANCH  13  15
HETATM   15  C   UNL     1     -11.123  15.030  66.435  1.00  0.00    -0.329 C  
BRANCH  15  16
HETATM   16  C   UNL     1      -9.805  14.261  66.508  1.00  0.00    -0.299 C  
BRANCH  16  17
HETATM   17  C   UNL     1      -9.853  13.051  65.572  1.00  0.00    -0.150 C  
BRANCH  17  18
HETATM   18  C   UNL     1      -9.823  11.761  66.347  1.00  0.00    -0.237 A  
HETATM   19  C   UNL     1      -8.608   9.795  67.124  1.00  0.00    -0.129 A  
HETATM   20  C   UNL     1      -7.339   8.986  67.215  1.00  0.00    -0.084 C  
HETATM   21  C   UNL     1      -8.632  11.029  66.455  1.00  0.00    -0.165 A  
HETATM   22  C   UNL     1     -10.980  10.035  67.593  1.00  0.00    -0.297 A  
HETATM   23  F   UNL     1      -6.267   9.579  66.615  1.00  0.00    -0.060 F  
HETATM   24  F   UNL     1      -6.959   8.750  68.502  1.00  0.00    -0.061 F  
HETATM   25  F   UNL     1      -7.459   7.761  66.631  1.00  0.00    -0.081 F  
HETATM   26  C   UNL     1      -9.793   9.308  67.695  1.00  0.00    -0.221 A  
HETATM   27  C   UNL     1     -10.994  11.253  66.919  1.00  0.00    -0.348 A  
ENDBRANCH  17  18
ENDBRANCH  16  17
ENDBRANCH  15  16
ENDBRANCH  13  15
ENDBRANCH   2  13
TORSDOF 6
ENDMDL
MODEL      344
REMARK 921   NORMALIZED FREE ENERGY PREDICTED BY IDOCK:   -2.73 KCAL/MOL
REMARK 922        TOTAL FREE ENERGY PREDICTED BY IDOCK:   -6.82 KCAL/MOL
REMARK 923 INTER-LIGAND FREE ENERGY PREDICTED BY IDOCK:   -5.27 KCAL/MOL
REMARK 924 INTRA-LIGAND FREE ENERGY PREDICTED BY IDOCK:   -1.55 KCAL/MOL
REMARK 927      BINDING AFFINITY PREDICTED BY RF-SCORE:    0.00 PKD
ROOT
HETATM    1  C   UNL     1     -11.368   6.335  69.523  1.00  0.00    -0.475 C  
HETATM    2  C   UNL     1     -10.550   7.517  70.073  1.00  0.00    -0.237 C  
ENDROOT
BRANCH   2   3
HETATM    3  C   UNL     1     -10.700   8.812  69.269  1.00  0.00    -0.166 A  
HETATM    4  C   UNL     1     -12.318  11.247  71.685  1.00  0.00    -0.107 A  
HETATM    5  C   UNL     1     -10.286   8.843  67.922  1.00  0.00    -0.286 A  
HETATM    6  C   UNL     1     -12.598  12.303  70.832  1.00  0.00    -0.334 A  
HETATM    7  C   UNL     1     -11.666  10.111  71.197  1.00  0.00    -0.453 A  
HETATM    8  C   UNL     1     -12.189  12.239  69.502  1.00  0.00    -0.153 A  
HETATM    9  C   UNL     1     -10.480   9.970  67.130  1.00  0.00    -0.305 A  
HETATM   10  C   UNL     1     -11.114  11.085  67.661  1.00  0.00    -0.363 A  
HETATM   11  C   UNL     1     -11.288   9.985  69.839  1.00  0.00    -0.306 A  
HETATM   12  C   UNL     1     -11.529  11.106  68.999  1.00  0.00    -0.364 A  
ENDBRANCH   2   3
BRANCH   2  13
HETATM   13  N   UNL     1      -9.149   7.160  70.359  1.00  0.00    -0.155 NA 
HETATM   14  H   UNL     1      -8.749   6.640  69.577  1.00  0.00     0.000 HD 
BRANCH  13  15
HETATM   15  C   UNL     1      -8.296   8.291  70.708  1.00  0.00    -0.123 C  
BRANCH  15  16
HETATM   16  C   UNL     1      -7.175   8.450  69.683  1.00  0.00    -0.057 C  
BRANCH  16  17
HETATM   17  C   UNL     1      -5.963   9.122  70.334  1.00  0.00    -0.041 C  
BRANCH  17  18
HETATM   18  C   UNL     1      -6.041  10.620  70.215  1.00  0.00    -0.123 A  
HETATM   19  C   UNL     1      -6.852  12.604  69.052  1.00  0.00    -0.083 A  
HETATM   20  C   UNL     1      -7.661  13.243  67.952  1.00  0.00    -0.152 C  
HETATM   21  C   UNL     1      -6.821  11.209  69.210  1.00  0.00    -0.110 A  
HETATM   22  C   UNL     1      -5.324  12.822  70.929  1.00  0.00    -0.173 A  
HETATM   23  F   UNL     1      -8.340  12.347  67.180  1.00  0.00    -0.158 F  
HETATM   24  F   UNL     1      -8.600  14.108  68.427  1.00  0.00    -0.153 F  
HETATM   25  F   UNL     1      -6.891  13.964  67.090  1.00  0.00    -0.173 F  
HETATM   26  C   UNL     1      -6.099  13.404  69.924  1.00  0.00    -0.126 A  
HETATM   27  C   UNL     1      -5.294  11.436  71.070  1.00  0.00    -0.099 A  
ENDBRANCH  17  18
ENDBRANCH  16  17
ENDBRANCH  15  16
ENDBRANCH  13  15
ENDBRANCH   2  13
TORSDOF 6
ENDMDL
MODEL      345
REMARK 921   NORMALIZED FREE ENERGY PREDICTED BY IDOCK:   -2.73 KCAL/MOL
REMARK 922        TOTAL FREE ENERGY PREDICTED BY IDOCK:   -6.81 KCAL/MOL
REMARK 923 INTER-LIGAND FREE ENERGY PREDICTED BY IDOCK:   -5.93 KCAL/MOL
REMARK 924 INTRA-LIGAND FREE ENERGY PREDICTED BY IDOCK:   -0.88 KCAL/MOL
REMARK 927      BINDING AFFINITY PREDICTED BY RF-SCORE:    0.00 PKD
ROOT
HETATM    1  C   UNL     1      -8.877   8.960  68.645  1.00  0.00    -0.137 C  
HETATM    2  C   UNL     1      -9.011   9.893  67.429  1.00  0.00    -0.135 C  
ENDROOT
BRANCH   2   3
HETATM    3  C   UNL     1      -7.682  10.229  66.746  1.00  0.00    -0.111 A  
HETATM    4  C   UNL     1      -7.896   8.523  63.365  1.00  0.00    -0.150 A  
HETATM    5  C   UNL     1      -6.722  10.995  67.437  1.00  0.00    -0.080 A  
HETATM    6  C   UNL     1      -6.600   8.703  62.907  1.00  0.00    -0.091 A  
HETATM    7  C   UNL     1      -8.276   9.046  64.604  1.00  0.00    -0.160 A  
HETATM    8  C   UNL     1      -5.698   9.441  63.670  1.00  0.00    -0.083 A  
HETATM    9  C   UNL     1      -5.470  11.253  66.889  1.00  0.00    -0.098 A  
HETATM   10  C   UNL     1      -5.141  10.730  65.645  1.00  0.00    -0.124 A  
HETATM   11  C   UNL     1      -7.372   9.751  65.434  1.00  0.00    -0.118 A  
HETATM   12  C   UNL     1      -6.068   9.976  64.915  1.00  0.00    -0.116 A  
ENDBRANCH   2   3
BRANCH   2  13
HETATM   13  N   UNL     1      -9.847  11.075  67.705  1.00  0.00    -0.171 NA 
HETATM   14  H   UNL     1      -9.327  11.931  67.513  1.00  0.00     0.000 HD 
BRANCH  13  15
HETATM   15  C   UNL     1     -11.125  11.088  67.001  1.00  0.00    -0.244 C  
BRANCH  15  16
HETATM   16  C   UNL     1     -11.759  12.476  67.071  1.00  0.00    -0.437 C  
BRANCH  16  17
HETATM   17  C   UNL     1     -10.814  13.514  66.460  1.00  0.00    -0.283 C  
BRANCH  17  18
HETATM   18  C   UNL     1     -10.727  14.746  67.321  1.00  0.00    -0.294 A  
HETATM   19  C   UNL     1     -10.468  17.162  67.526  1.00  0.00    -0.348 A  
HETATM   20  C   UNL     1     -10.308  18.524  66.899  1.00  0.00    -0.397 C  
HETATM   21  C   UNL     1     -10.611  16.013  66.732  1.00  0.00    -0.297 A  
HETATM   22  C   UNL     1     -10.573  15.767  69.513  1.00  0.00    -0.272 A  
HETATM   23  F   UNL     1     -10.338  18.507  65.536  1.00  0.00    -0.322 F  
HETATM   24  F   UNL     1     -11.286  19.393  67.280  1.00  0.00    -0.573 F  
HETATM   25  F   UNL     1      -9.129  19.117  67.236  1.00  0.00    -0.293 F  
HETATM   26  C   UNL     1     -10.454  17.026  68.922  1.00  0.00    -0.347 A  
HETATM   27  C   UNL     1     -10.705  14.633  68.714  1.00  0.00    -0.252 A  
ENDBRANCH  17  18
ENDBRANCH  16  17
ENDBRANCH  15  16
ENDBRANCH  13  15
ENDBRANCH   2  13
TORSDOF 6
ENDMDL
MODEL      346
REMARK 921   NORMALIZED FREE ENERGY PREDICTED BY IDOCK:   -2.72 KCAL/MOL
REMARK 922        TOTAL FREE ENERGY PREDICTED BY IDOCK:   -6.80 KCAL/MOL
REMARK 923 INTER-LIGAND FREE ENERGY PREDICTED BY IDOCK:   -6.72 KCAL/MOL
REMARK 924 INTRA-LIGAND FREE ENERGY PREDICTED BY IDOCK:   -0.08 KCAL/MOL
REMARK 927      BINDING AFFINITY PREDICTED BY RF-SCORE:    0.00 PKD
ROOT
HETATM    1  C   UNL     1      -7.675   8.157  69.397  1.00  0.00    -0.103 C  
HETATM    2  C   UNL     1      -9.191   8.341  69.206  1.00  0.00    -0.151 C  
ENDROOT
BRANCH   2   3
HETATM    3  C   UNL     1      -9.980   8.448  70.515  1.00  0.00    -0.205 A  
HETATM    4  C   UNL     1      -8.121   6.189  72.930  1.00  0.00    -0.109 A  
HETATM    5  C   UNL     1     -11.139   9.250  70.562  1.00  0.00    -0.317 A  
HETATM    6  C   UNL     1      -9.000   6.186  74.002  1.00  0.00    -0.132 A  
HETATM    7  C   UNL     1      -8.410   6.952  71.794  1.00  0.00    -0.108 A  
HETATM    8  C   UNL     1     -10.146   6.977  73.954  1.00  0.00    -0.386 A  
HETATM    9  C   UNL     1     -11.932   9.311  71.703  1.00  0.00    -0.448 A  
HETATM   10  C   UNL     1     -11.596   8.552  72.817  1.00  0.00    -0.137 A  
HETATM   11  C   UNL     1      -9.593   7.723  71.685  1.00  0.00    -0.191 A  
HETATM   12  C   UNL     1     -10.446   7.752  72.822  1.00  0.00    -0.390 A  
ENDBRANCH   2   3
BRANCH   2  13
HETATM   13  N   UNL     1      -9.767   7.381  68.248  1.00  0.00    -0.150 NA 
HETATM   14  H   UNL     1     -10.596   6.937  68.644  1.00  0.00     0.000 HD 
BRANCH  13  15
HETATM   15  C   UNL     1     -10.071   7.945  66.937  1.00  0.00    -0.291 C  
BRANCH  15  16
HETATM   16  C   UNL     1     -10.002   9.470  66.983  1.00  0.00    -0.273 C  
BRANCH  16  17
HETATM   17  C   UNL     1      -9.108   9.988  65.853  1.00  0.00    -0.195 C  
BRANCH  17  18
HETATM   18  C   UNL     1      -9.702  11.209  65.203  1.00  0.00    -0.296 A  
HETATM   19  C   UNL     1     -10.317  13.565  65.310  1.00  0.00    -0.344 A  
HETATM   20  C   UNL     1     -10.363  14.879  66.049  1.00  0.00    -0.299 C  
HETATM   21  C   UNL     1      -9.712  12.435  65.882  1.00  0.00    -0.237 A  
HETATM   22  C   UNL     1     -10.892  12.235  63.359  1.00  0.00    -0.457 A  
HETATM   23  F   UNL     1      -9.758  14.842  67.271  1.00  0.00    -0.219 F  
HETATM   24  F   UNL     1      -9.753  15.887  65.364  1.00  0.00    -0.340 F  
HETATM   25  F   UNL     1     -11.638  15.303  66.281  1.00  0.00    -0.291 F  
HETATM   26  C   UNL     1     -10.904  13.454  64.041  1.00  0.00    -0.210 A  
HETATM   27  C   UNL     1     -10.296  11.119  63.941  1.00  0.00    -0.441 A  
ENDBRANCH  17  18
ENDBRANCH  16  17
ENDBRANCH  15  16
ENDBRANCH  13  15
ENDBRANCH   2  13
TORSDOF 6
ENDMDL
MODEL      347
REMARK 921   NORMALIZED FREE ENERGY PREDICTED BY IDOCK:   -2.72 KCAL/MOL
REMARK 922        TOTAL FREE ENERGY PREDICTED BY IDOCK:   -6.80 KCAL/MOL
REMARK 923 INTER-LIGAND FREE ENERGY PREDICTED BY IDOCK:   -5.97 KCAL/MOL
REMARK 924 INTRA-LIGAND FREE ENERGY PREDICTED BY IDOCK:   -0.83 KCAL/MOL
REMARK 927      BINDING AFFINITY PREDICTED BY RF-SCORE:    0.00 PKD
ROOT
HETATM    1  C   UNL     1      -9.809   9.726  69.263  1.00  0.00    -0.208 C  
HETATM    2  C   UNL     1      -9.966  10.607  68.011  1.00  0.00    -0.160 C  
ENDROOT
BRANCH   2   3
HETATM    3  C   UNL     1      -8.938  10.323  66.911  1.00  0.00    -0.149 A  
HETATM    4  C   UNL     1     -10.620  11.487  63.717  1.00  0.00    -0.465 A  
HETATM    5  C   UNL     1      -7.711   9.717  67.249  1.00  0.00    -0.095 A  
HETATM    6  C   UNL     1      -9.724  11.015  62.771  1.00  0.00    -0.303 A  
HETATM    7  C   UNL     1     -10.360  11.300  65.078  1.00  0.00    -0.359 A  
HETATM    8  C   UNL     1      -8.550  10.391  63.188  1.00  0.00    -0.191 A  
HETATM    9  C   UNL     1      -6.783   9.365  66.274  1.00  0.00    -0.075 A  
HETATM   10  C   UNL     1      -7.074   9.588  64.934  1.00  0.00    -0.107 A  
HETATM   11  C   UNL     1      -9.207  10.620  65.538  1.00  0.00    -0.228 A  
HETATM   12  C   UNL     1      -8.274  10.200  64.552  1.00  0.00    -0.162 A  
ENDBRANCH   2   3
BRANCH   2  13
HETATM   13  N   UNL     1     -10.103  12.039  68.332  1.00  0.00    -0.208 NA 
HETATM   14  H   UNL     1      -9.457  12.593  67.769  1.00  0.00     0.000 HD 
BRANCH  13  15
HETATM   15  C   UNL     1     -11.461  12.559  68.207  1.00  0.00    -0.308 C  
BRANCH  15  16
HETATM   16  C   UNL     1     -11.485  14.061  68.483  1.00  0.00    -0.336 C  
BRANCH  16  17
HETATM   17  C   UNL     1     -10.937  14.823  67.273  1.00  0.00    -0.318 C  
BRANCH  17  18
HETATM   18  C   UNL     1     -10.198  16.063  67.700  1.00  0.00    -0.262 A  
HETATM   19  C   UNL     1      -8.096  17.219  68.137  1.00  0.00    -0.229 A  
HETATM   20  C   UNL     1      -6.588  17.242  68.156  1.00  0.00    -0.164 C  
HETATM   21  C   UNL     1      -8.796  16.090  67.685  1.00  0.00    -0.190 A  
HETATM   22  C   UNL     1     -10.216  18.308  68.611  1.00  0.00    -0.377 A  
HETATM   23  F   UNL     1      -6.017  16.098  67.684  1.00  0.00    -0.116 F  
HETATM   24  F   UNL     1      -6.071  18.252  67.402  1.00  0.00    -0.161 F  
HETATM   25  F   UNL     1      -6.085  17.417  69.410  1.00  0.00    -0.192 F  
HETATM   26  C   UNL     1      -8.820  18.329  68.598  1.00  0.00    -0.294 A  
HETATM   27  C   UNL     1     -10.899  17.178  68.168  1.00  0.00    -0.316 A  
ENDBRANCH  17  18
ENDBRANCH  16  17
ENDBRANCH  15  16
ENDBRANCH  13  15
ENDBRANCH   2  13
TORSDOF 6
ENDMDL
MODEL      348
REMARK 921   NORMALIZED FREE ENERGY PREDICTED BY IDOCK:   -2.71 KCAL/MOL
REMARK 922        TOTAL FREE ENERGY PREDICTED BY IDOCK:   -6.79 KCAL/MOL
REMARK 923 INTER-LIGAND FREE ENERGY PREDICTED BY IDOCK:   -5.51 KCAL/MOL
REMARK 924 INTRA-LIGAND FREE ENERGY PREDICTED BY IDOCK:   -1.28 KCAL/MOL
REMARK 927      BINDING AFFINITY PREDICTED BY RF-SCORE:    0.00 PKD
ROOT
HETATM    1  C   UNL     1     -11.112   9.828  68.538  1.00  0.00    -0.138 C  
HETATM    2  C   UNL     1     -10.111  10.839  67.950  1.00  0.00    -0.172 C  
ENDROOT
BRANCH   2   3
HETATM    3  C   UNL     1     -10.027  10.822  66.421  1.00  0.00    -0.264 A  
HETATM    4  C   UNL     1     -12.640  13.331  65.299  1.00  0.00    -0.528 A  
HETATM    5  C   UNL     1      -9.119   9.949  65.786  1.00  0.00    -0.208 A  
HETATM    6  C   UNL     1     -12.638  13.106  63.932  1.00  0.00    -0.249 A  
HETATM    7  C   UNL     1     -11.767  12.617  66.125  1.00  0.00    -0.461 A  
HETATM    8  C   UNL     1     -11.735  12.196  63.386  1.00  0.00    -0.533 A  
HETATM    9  C   UNL     1      -9.067   9.840  64.401  1.00  0.00    -0.296 A  
HETATM   10  C   UNL     1      -9.940  10.584  63.618  1.00  0.00    -0.299 A  
HETATM   11  C   UNL     1     -10.876  11.642  65.614  1.00  0.00    -0.330 A  
HETATM   12  C   UNL     1     -10.848  11.475  64.203  1.00  0.00    -0.435 A  
ENDBRANCH   2   3
BRANCH   2  13
HETATM   13  N   UNL     1      -8.796  10.792  68.613  1.00  0.00    -0.146 NA 
HETATM   14  H   UNL     1      -8.472  11.735  68.828  1.00  0.00     0.000 HD 
BRANCH  13  15
HETATM   15  C   UNL     1      -8.751   9.954  69.807  1.00  0.00    -0.212 C  
BRANCH  15  16
HETATM   16  C   UNL     1      -7.720   8.840  69.639  1.00  0.00    -0.088 C  
BRANCH  16  17
HETATM   17  C   UNL     1      -8.416   7.477  69.650  1.00  0.00    -0.135 C  
BRANCH  17  18
HETATM   18  C   UNL     1      -7.991   6.638  68.474  1.00  0.00    -0.118 A  
HETATM   19  C   UNL     1      -8.224   4.617  67.132  1.00  0.00    -0.105 A  
HETATM   20  C   UNL     1      -8.908   3.305  66.840  1.00  0.00    -0.137 C  
HETATM   21  C   UNL     1      -8.652   5.435  68.189  1.00  0.00    -0.096 A  
HETATM   22  C   UNL     1      -6.472   6.225  66.633  1.00  0.00    -0.046 A  
HETATM   23  F   UNL     1      -9.952   3.034  67.674  1.00  0.00    -0.142 F  
HETATM   24  F   UNL     1      -9.419   3.249  65.578  1.00  0.00    -0.156 F  
HETATM   25  F   UNL     1      -8.063   2.241  66.948  1.00  0.00    -0.071 F  
HETATM   26  C   UNL     1      -7.130   5.026  66.355  1.00  0.00    -0.072 A  
HETATM   27  C   UNL     1      -6.900   7.024  67.690  1.00  0.00    -0.074 A  
ENDBRANCH  17  18
ENDBRANCH  16  17
ENDBRANCH  15  16
ENDBRANCH  13  15
ENDBRANCH   2  13
TORSDOF 6
ENDMDL
MODEL      349
REMARK 921   NORMALIZED FREE ENERGY PREDICTED BY IDOCK:   -2.71 KCAL/MOL
REMARK 922        TOTAL FREE ENERGY PREDICTED BY IDOCK:   -6.79 KCAL/MOL
REMARK 923 INTER-LIGAND FREE ENERGY PREDICTED BY IDOCK:   -5.86 KCAL/MOL
REMARK 924 INTRA-LIGAND FREE ENERGY PREDICTED BY IDOCK:   -0.93 KCAL/MOL
REMARK 927      BINDING AFFINITY PREDICTED BY RF-SCORE:    0.00 PKD
ROOT
HETATM    1  C   UNL     1     -11.058   9.945  68.561  1.00  0.00    -0.181 C  
HETATM    2  C   UNL     1     -10.181  11.085  68.013  1.00  0.00    -0.179 C  
ENDROOT
BRANCH   2   3
HETATM    3  C   UNL     1     -10.223  11.233  66.490  1.00  0.00    -0.269 A  
HETATM    4  C   UNL     1     -12.448  14.247  65.891  1.00  0.00    -0.404 A  
HETATM    5  C   UNL     1      -9.532  10.306  65.683  1.00  0.00    -0.274 A  
HETATM    6  C   UNL     1     -12.594  14.185  64.514  1.00  0.00    -0.242 A  
HETATM    7  C   UNL     1     -11.647  13.309  66.549  1.00  0.00    -0.392 A  
HETATM    8  C   UNL     1     -11.907  13.211  63.793  1.00  0.00    -0.546 A  
HETATM    9  C   UNL     1      -9.611  10.351  64.295  1.00  0.00    -0.377 A  
HETATM   10  C   UNL     1     -10.403  11.313  63.682  1.00  0.00    -0.464 A  
HETATM   11  C   UNL     1     -10.980  12.269  65.857  1.00  0.00    -0.338 A  
HETATM   12  C   UNL     1     -11.095  12.265  64.441  1.00  0.00    -0.381 A  
ENDBRANCH   2   3
BRANCH   2  13
HETATM   13  N   UNL     1      -8.815  11.072  68.566  1.00  0.00    -0.154 NA 
HETATM   14  H   UNL     1      -8.599  11.968  69.003  1.00  0.00     0.000 HD 
BRANCH  13  15
HETATM   15  C   UNL     1      -8.548   9.977  69.493  1.00  0.00    -0.186 C  
BRANCH  15  16
HETATM   16  C   UNL     1      -7.582   8.972  68.868  1.00  0.00    -0.083 C  
BRANCH  16  17
HETATM   17  C   UNL     1      -7.290   7.842  69.859  1.00  0.00    -0.075 C  
BRANCH  17  18
HETATM   18  C   UNL     1      -8.206   6.669  69.634  1.00  0.00    -0.127 A  
HETATM   19  C   UNL     1      -8.912   4.405  70.200  1.00  0.00    -0.143 A  
HETATM   20  C   UNL     1      -8.781   3.160  71.041  1.00  0.00    -0.075 C  
HETATM   21  C   UNL     1      -8.103   5.527  70.440  1.00  0.00    -0.103 A  
HETATM   22  C   UNL     1      -9.946   5.584  68.344  1.00  0.00    -0.210 A  
HETATM   23  F   UNL     1      -7.843   3.260  72.026  1.00  0.00    -0.053 F  
HETATM   24  F   UNL     1      -9.944   2.829  71.669  1.00  0.00    -0.224 F  
HETATM   25  F   UNL     1      -8.430   2.069  70.305  1.00  0.00    -0.055 F  
HETATM   26  C   UNL     1      -9.836   4.447  69.146  1.00  0.00    -0.198 A  
HETATM   27  C   UNL     1      -9.131   6.687  68.586  1.00  0.00    -0.126 A  
ENDBRANCH  17  18
ENDBRANCH  16  17
ENDBRANCH  15  16
ENDBRANCH  13  15
ENDBRANCH   2  13
TORSDOF 6
ENDMDL
MODEL      350
REMARK 921   NORMALIZED FREE ENERGY PREDICTED BY IDOCK:   -2.71 KCAL/MOL
REMARK 922        TOTAL FREE ENERGY PREDICTED BY IDOCK:   -6.78 KCAL/MOL
REMARK 923 INTER-LIGAND FREE ENERGY PREDICTED BY IDOCK:   -5.96 KCAL/MOL
REMARK 924 INTRA-LIGAND FREE ENERGY PREDICTED BY IDOCK:   -0.83 KCAL/MOL
REMARK 927      BINDING AFFINITY PREDICTED BY RF-SCORE:    0.00 PKD
ROOT
HETATM    1  C   UNL     1      -7.803  10.451  67.187  1.00  0.00    -0.110 C  
HETATM    2  C   UNL     1      -8.151  11.416  68.335  1.00  0.00    -0.145 C  
ENDROOT
BRANCH   2   3
HETATM    3  C   UNL     1      -8.189  12.891  67.924  1.00  0.00    -0.165 A  
HETATM    4  C   UNL     1     -11.803  13.511  66.952  1.00  0.00    -0.452 A  
HETATM    5  C   UNL     1      -7.001  13.649  67.950  1.00  0.00    -0.155 A  
HETATM    6  C   UNL     1     -11.706  14.784  66.412  1.00  0.00    -0.268 A  
HETATM    7  C   UNL     1     -10.668  12.891  67.483  1.00  0.00    -0.241 A  
HETATM    8  C   UNL     1     -10.483  15.451  66.440  1.00  0.00    -0.307 A  
HETATM    9  C   UNL     1      -6.972  14.967  67.507  1.00  0.00    -0.203 A  
HETATM   10  C   UNL     1      -8.128  15.551  67.005  1.00  0.00    -0.272 A  
HETATM   11  C   UNL     1      -9.397  13.514  67.477  1.00  0.00    -0.220 A  
HETATM   12  C   UNL     1      -9.336  14.842  66.975  1.00  0.00    -0.240 A  
ENDBRANCH   2   3
BRANCH   2  13
HETATM   13  N   UNL     1      -7.361  11.163  69.553  1.00  0.00    -0.322 NA 
HETATM   14  H   UNL     1      -7.821  11.573  70.366  1.00  0.00     0.000 HD 
BRANCH  13  15
HETATM   15  C   UNL     1      -7.058   9.757  69.796  1.00  0.00    -0.095 C  
BRANCH  15  16
HETATM   16  C   UNL     1      -7.738   9.278  71.077  1.00  0.00    -0.100 C  
BRANCH  16  17
HETATM   17  C   UNL     1      -9.249   9.504  70.983  1.00  0.00    -0.029 C  
BRANCH  17  18
HETATM   18  C   UNL     1      -9.984   8.204  70.788  1.00  0.00    -0.209 A  
HETATM   19  C   UNL     1     -10.893   6.138  71.709  1.00  0.00    -0.303 A  
HETATM   20  C   UNL     1     -11.165   5.230  72.881  1.00  0.00    -0.312 C  
HETATM   21  C   UNL     1     -10.263   7.379  71.887  1.00  0.00    -0.213 A  
HETATM   22  C   UNL     1     -10.979   6.557  69.316  1.00  0.00    -0.389 A  
HETATM   23  F   UNL     1     -10.763   5.745  74.078  1.00  0.00    -0.260 F  
HETATM   24  F   UNL     1     -12.490   4.946  73.028  1.00  0.00    -0.295 F  
HETATM   25  F   UNL     1     -10.536   4.027  72.766  1.00  0.00    -0.223 F  
HETATM   26  C   UNL     1     -11.252   5.737  70.413  1.00  0.00    -0.211 A  
HETATM   27  C   UNL     1     -10.345   7.783  69.505  1.00  0.00    -0.219 A  
ENDBRANCH  17  18
ENDBRANCH  16  17
ENDBRANCH  15  16
ENDBRANCH  13  15
ENDBRANCH   2  13
TORSDOF 6
ENDMDL
MODEL      351
REMARK 921   NORMALIZED FREE ENERGY PREDICTED BY IDOCK:   -2.70 KCAL/MOL
REMARK 922        TOTAL FREE ENERGY PREDICTED BY IDOCK:   -6.77 KCAL/MOL
REMARK 923 INTER-LIGAND FREE ENERGY PREDICTED BY IDOCK:   -5.67 KCAL/MOL
REMARK 924 INTRA-LIGAND FREE ENERGY PREDICTED BY IDOCK:   -1.10 KCAL/MOL
REMARK 927      BINDING AFFINITY PREDICTED BY RF-SCORE:    0.00 PKD
ROOT
HETATM    1  C   UNL     1     -11.096   6.830  69.837  1.00  0.00    -0.374 C  
HETATM    2  C   UNL     1     -10.408   8.155  70.211  1.00  0.00    -0.209 C  
ENDROOT
BRANCH   2   3
HETATM    3  C   UNL     1     -10.763   9.327  69.291  1.00  0.00    -0.211 A  
HETATM    4  C   UNL     1      -9.269   8.382  65.934  1.00  0.00    -0.217 A  
HETATM    5  C   UNL     1     -11.469  10.429  69.813  1.00  0.00    -0.348 A  
HETATM    6  C   UNL     1      -9.455   9.563  65.232  1.00  0.00    -0.326 A  
HETATM    7  C   UNL     1      -9.722   8.277  67.253  1.00  0.00    -0.234 A  
HETATM    8  C   UNL     1     -10.130  10.622  65.835  1.00  0.00    -0.321 A  
HETATM    9  C   UNL     1     -11.740  11.551  69.036  1.00  0.00    -0.400 A  
HETATM   10  C   UNL     1     -11.288  11.606  67.724  1.00  0.00    -0.356 A  
HETATM   11  C   UNL     1     -10.360   9.351  67.918  1.00  0.00    -0.276 A  
HETATM   12  C   UNL     1     -10.595  10.528  67.157  1.00  0.00    -0.319 A  
ENDBRANCH   2   3
BRANCH   2  13
HETATM   13  N   UNL     1      -8.961   8.003  70.441  1.00  0.00    -0.145 NA 
HETATM   14  H   UNL     1      -8.556   7.366  69.754  1.00  0.00     0.000 HD 
BRANCH  13  15
HETATM   15  C   UNL     1      -8.219   9.259  70.469  1.00  0.00    -0.191 C  
BRANCH  15  16
HETATM   16  C   UNL     1      -7.281   9.351  69.267  1.00  0.00    -0.066 C  
BRANCH  16  17
HETATM   17  C   UNL     1      -6.046  10.181  69.629  1.00  0.00    -0.046 C  
BRANCH  17  18
HETATM   18  C   UNL     1      -6.357  11.654  69.622  1.00  0.00    -0.133 A  
HETATM   19  C   UNL     1      -7.434  13.576  68.579  1.00  0.00    -0.122 A  
HETATM   20  C   UNL     1      -8.296  14.171  67.494  1.00  0.00    -0.185 C  
HETATM   21  C   UNL     1      -7.186  12.196  68.630  1.00  0.00    -0.109 A  
HETATM   22  C   UNL     1      -6.024  13.872  70.536  1.00  0.00    -0.172 A  
HETATM   23  F   UNL     1      -8.797  13.248  66.625  1.00  0.00    -0.216 F  
HETATM   24  F   UNL     1      -9.376  14.837  67.990  1.00  0.00    -0.183 F  
HETATM   25  F   UNL     1      -7.621  15.073  66.727  1.00  0.00    -0.207 F  
HETATM   26  C   UNL     1      -6.847  14.408  69.544  1.00  0.00    -0.133 A  
HETATM   27  C   UNL     1      -5.779  12.502  70.571  1.00  0.00    -0.170 A  
ENDBRANCH  17  18
ENDBRANCH  16  17
ENDBRANCH  15  16
ENDBRANCH  13  15
ENDBRANCH   2  13
TORSDOF 6
ENDMDL
MODEL      352
REMARK 921   NORMALIZED FREE ENERGY PREDICTED BY IDOCK:   -2.68 KCAL/MOL
REMARK 922        TOTAL FREE ENERGY PREDICTED BY IDOCK:   -6.74 KCAL/MOL
REMARK 923 INTER-LIGAND FREE ENERGY PREDICTED BY IDOCK:   -6.23 KCAL/MOL
REMARK 924 INTRA-LIGAND FREE ENERGY PREDICTED BY IDOCK:   -0.51 KCAL/MOL
REMARK 927      BINDING AFFINITY PREDICTED BY RF-SCORE:    0.00 PKD
ROOT
HETATM    1  C   UNL     1     -12.489  14.027  70.440  1.00  0.00    -0.418 C  
HETATM    2  C   UNL     1     -11.484  13.260  69.562  1.00  0.00    -0.234 C  
ENDROOT
BRANCH   2   3
HETATM    3  C   UNL     1     -10.739  14.135  68.551  1.00  0.00    -0.262 A  
HETATM    4  C   UNL     1     -12.864  13.979  65.413  1.00  0.00    -0.442 A  
HETATM    5  C   UNL     1      -9.521  14.741  68.922  1.00  0.00    -0.191 A  
HETATM    6  C   UNL     1     -12.029  14.617  64.509  1.00  0.00    -0.473 A  
HETATM    7  C   UNL     1     -12.472  13.844  66.748  1.00  0.00    -0.254 A  
HETATM    8  C   UNL     1     -10.822  15.154  64.949  1.00  0.00    -0.437 A  
HETATM    9  C   UNL     1      -8.769  15.475  68.012  1.00  0.00    -0.163 A  
HETATM   10  C   UNL     1      -9.206  15.601  66.700  1.00  0.00    -0.294 A  
HETATM   11  C   UNL     1     -11.227  14.325  67.220  1.00  0.00    -0.330 A  
HETATM   12  C   UNL     1     -10.417  15.030  66.288  1.00  0.00    -0.309 A  
ENDBRANCH   2   3
BRANCH   2  13
HETATM   13  N   UNL     1     -12.057  12.036  68.973  1.00  0.00    -0.233 NA 
HETATM   14  H   UNL     1     -12.142  12.135  67.961  1.00  0.00     0.000 HD 
BRANCH  13  15
HETATM   15  C   UNL     1     -11.336  10.812  69.306  1.00  0.00    -0.286 C  
BRANCH  15  16
HETATM   16  C   UNL     1     -10.604  10.273  68.078  1.00  0.00    -0.272 C  
BRANCH  16  17
HETATM   17  C   UNL     1      -9.111  10.127  68.382  1.00  0.00    -0.133 C  
BRANCH  17  18
HETATM   18  C   UNL     1      -8.837   8.884  69.186  1.00  0.00    -0.136 A  
HETATM   19  C   UNL     1      -9.005   6.467  69.455  1.00  0.00    -0.132 A  
HETATM   20  C   UNL     1      -9.425   5.114  68.939  1.00  0.00    -0.134 C  
HETATM   21  C   UNL     1      -9.201   7.626  68.687  1.00  0.00    -0.141 A  
HETATM   22  C   UNL     1      -8.061   7.835  71.228  1.00  0.00    -0.096 A  
HETATM   23  F   UNL     1      -9.972   5.149  67.690  1.00  0.00    -0.152 F  
HETATM   24  F   UNL     1      -8.386   4.237  68.863  1.00  0.00    -0.079 F  
HETATM   25  F   UNL     1     -10.358   4.519  69.735  1.00  0.00    -0.310 F  
HETATM   26  C   UNL     1      -8.429   6.584  70.728  1.00  0.00    -0.134 A  
HETATM   27  C   UNL     1      -8.269   8.979  70.460  1.00  0.00    -0.187 A  
ENDBRANCH  17  18
ENDBRANCH  16  17
ENDBRANCH  15  16
ENDBRANCH  13  15
ENDBRANCH   2  13
TORSDOF 6
ENDMDL
MODEL      353
REMARK 921   NORMALIZED FREE ENERGY PREDICTED BY IDOCK:   -2.66 KCAL/MOL
REMARK 922        TOTAL FREE ENERGY PREDICTED BY IDOCK:   -6.71 KCAL/MOL
REMARK 923 INTER-LIGAND FREE ENERGY PREDICTED BY IDOCK:   -5.68 KCAL/MOL
REMARK 924 INTRA-LIGAND FREE ENERGY PREDICTED BY IDOCK:   -1.04 KCAL/MOL
REMARK 927      BINDING AFFINITY PREDICTED BY RF-SCORE:    0.00 PKD
ROOT
HETATM    1  C   UNL     1      -6.498   9.080  71.507  1.00  0.00    -0.071 C  
HETATM    2  C   UNL     1      -7.787   9.207  70.677  1.00  0.00    -0.146 C  
ENDROOT
BRANCH   2   3
HETATM    3  C   UNL     1      -9.048   8.721  71.398  1.00  0.00    -0.313 A  
HETATM    4  C   UNL     1     -11.842  10.846  69.960  1.00  0.00    -0.428 A  
HETATM    5  C   UNL     1      -8.942   7.711  72.376  1.00  0.00    -0.187 A  
HETATM    6  C   UNL     1     -12.888  10.489  70.796  1.00  0.00    -0.454 A  
HETATM    7  C   UNL     1     -10.587  10.251  70.121  1.00  0.00    -0.303 A  
HETATM    8  C   UNL     1     -12.690   9.509  71.766  1.00  0.00    -0.492 A  
HETATM    9  C   UNL     1     -10.046   7.298  73.114  1.00  0.00    -0.319 A  
HETATM   10  C   UNL     1     -11.279   7.903  72.907  1.00  0.00    -0.429 A  
HETATM   11  C   UNL     1     -10.332   9.294  71.132  1.00  0.00    -0.392 A  
HETATM   12  C   UNL     1     -11.436   8.899  71.936  1.00  0.00    -0.442 A  
ENDBRANCH   2   3
BRANCH   2  13
HETATM   13  N   UNL     1      -7.644   8.669  69.313  1.00  0.00    -0.092 NA 
HETATM   14  H   UNL     1      -6.837   9.086  68.849  1.00  0.00     0.000 HD 
BRANCH  13  15
HETATM   15  C   UNL     1      -7.576   7.213  69.241  1.00  0.00    -0.102 C  
BRANCH  15  16
HETATM   16  C   UNL     1      -8.797   6.657  68.511  1.00  0.00    -0.122 C  
BRANCH  16  17
HETATM   17  C   UNL     1      -9.158   7.562  67.330  1.00  0.00    -0.135 C  
BRANCH  17  18
HETATM   18  C   UNL     1      -8.782   6.924  66.020  1.00  0.00    -0.151 A  
HETATM   19  C   UNL     1      -8.723   4.967  64.568  1.00  0.00    -0.148 A  
HETATM   20  C   UNL     1      -9.054   3.520  64.297  1.00  0.00    -0.126 C  
HETATM   21  C   UNL     1      -9.121   5.589  65.761  1.00  0.00    -0.152 A  
HETATM   22  C   UNL     1      -7.650   7.036  63.881  1.00  0.00    -0.109 A  
HETATM   23  F   UNL     1      -9.770   2.927  65.295  1.00  0.00    -0.135 F  
HETATM   24  F   UNL     1      -9.792   3.355  63.164  1.00  0.00    -0.105 F  
HETATM   25  F   UNL     1      -7.941   2.752  64.134  1.00  0.00    -0.076 F  
HETATM   26  C   UNL     1      -7.987   5.705  63.629  1.00  0.00    -0.116 A  
HETATM   27  C   UNL     1      -8.043   7.639  65.073  1.00  0.00    -0.133 A  
ENDBRANCH  17  18
ENDBRANCH  16  17
ENDBRANCH  15  16
ENDBRANCH  13  15
ENDBRANCH   2  13
TORSDOF 6
ENDMDL
MODEL      354
REMARK 921   NORMALIZED FREE ENERGY PREDICTED BY IDOCK:   -2.65 KCAL/MOL
REMARK 922        TOTAL FREE ENERGY PREDICTED BY IDOCK:   -6.71 KCAL/MOL
REMARK 923 INTER-LIGAND FREE ENERGY PREDICTED BY IDOCK:   -6.82 KCAL/MOL
REMARK 924 INTRA-LIGAND FREE ENERGY PREDICTED BY IDOCK:    0.11 KCAL/MOL
REMARK 927      BINDING AFFINITY PREDICTED BY RF-SCORE:    0.00 PKD
ROOT
HETATM    1  C   UNL     1     -10.560  10.985  67.675  1.00  0.00    -0.255 C  
HETATM    2  C   UNL     1     -10.205  12.345  68.303  1.00  0.00    -0.229 C  
ENDROOT
BRANCH   2   3
HETATM    3  C   UNL     1     -10.474  13.546  67.391  1.00  0.00    -0.247 A  
HETATM    4  C   UNL     1     -12.255  12.075  64.383  1.00  0.00    -0.358 A  
HETATM    5  C   UNL     1     -10.028  14.826  67.782  1.00  0.00    -0.223 A  
HETATM    6  C   UNL     1     -12.276  13.174  63.538  1.00  0.00    -0.552 A  
HETATM    7  C   UNL     1     -11.700  12.190  65.661  1.00  0.00    -0.385 A  
HETATM    8  C   UNL     1     -11.779  14.396  63.987  1.00  0.00    -0.147 A  
HETATM    9  C   UNL     1     -10.176  15.930  66.949  1.00  0.00    -0.277 A  
HETATM   10  C   UNL     1     -10.752  15.775  65.695  1.00  0.00    -0.360 A  
HETATM   11  C   UNL     1     -11.133  13.399  66.131  1.00  0.00    -0.299 A  
HETATM   12  C   UNL     1     -11.223  14.526  65.270  1.00  0.00    -0.352 A  
ENDBRANCH   2   3
BRANCH   2  13
HETATM   13  N   UNL     1      -8.866  12.359  68.917  1.00  0.00    -0.360 NA 
HETATM   14  H   UNL     1      -8.922  12.087  69.899  1.00  0.00     0.000 HD 
BRANCH  13  15
HETATM   15  C   UNL     1      -7.874  11.546  68.221  1.00  0.00    -0.138 C  
BRANCH  15  16
HETATM   16  C   UNL     1      -7.340  10.450  69.142  1.00  0.00    -0.102 C  
BRANCH  16  17
HETATM   17  C   UNL     1      -7.521   9.080  68.484  1.00  0.00    -0.085 C  
BRANCH  17  18
HETATM   18  C   UNL     1      -8.449   8.208  69.287  1.00  0.00    -0.134 A  
HETATM   19  C   UNL     1     -10.307   7.983  70.849  1.00  0.00    -0.221 A  
HETATM   20  C   UNL     1     -11.391   8.598  71.699  1.00  0.00    -0.307 C  
HETATM   21  C   UNL     1      -9.475   8.783  70.050  1.00  0.00    -0.176 A  
HETATM   22  C   UNL     1      -9.086   6.018  70.105  1.00  0.00    -0.154 A  
HETATM   23  F   UNL     1     -11.473   9.954  71.585  1.00  0.00    -0.430 F  
HETATM   24  F   UNL     1     -12.631   8.125  71.388  1.00  0.00    -0.304 F  
HETATM   25  F   UNL     1     -11.217   8.347  73.026  1.00  0.00    -0.393 F  
HETATM   26  C   UNL     1     -10.104   6.595  70.866  1.00  0.00    -0.208 A  
HETATM   27  C   UNL     1      -8.261   6.823  69.323  1.00  0.00    -0.124 A  
ENDBRANCH  17  18
ENDBRANCH  16  17
ENDBRANCH  15  16
ENDBRANCH  13  15
ENDBRANCH   2  13
TORSDOF 6
ENDMDL
MODEL      355
REMARK 921   NORMALIZED FREE ENERGY PREDICTED BY IDOCK:   -2.64 KCAL/MOL
REMARK 922        TOTAL FREE ENERGY PREDICTED BY IDOCK:   -6.70 KCAL/MOL
REMARK 923 INTER-LIGAND FREE ENERGY PREDICTED BY IDOCK:   -5.49 KCAL/MOL
REMARK 924 INTRA-LIGAND FREE ENERGY PREDICTED BY IDOCK:   -1.20 KCAL/MOL
REMARK 927      BINDING AFFINITY PREDICTED BY RF-SCORE:    0.00 PKD
ROOT
HETATM    1  C   UNL     1      -9.945   6.326  68.746  1.00  0.00    -0.173 C  
HETATM    2  C   UNL     1      -9.265   7.682  69.006  1.00  0.00    -0.140 C  
ENDROOT
BRANCH   2   3
HETATM    3  C   UNL     1     -10.222   8.878  68.985  1.00  0.00    -0.217 A  
HETATM    4  C   UNL     1     -11.883   8.823  72.395  1.00  0.00    -0.356 A  
HETATM    5  C   UNL     1     -10.320   9.667  67.821  1.00  0.00    -0.286 A  
HETATM    6  C   UNL     1     -12.858   9.792  72.218  1.00  0.00    -0.379 A  
HETATM    7  C   UNL     1     -10.989   8.537  71.359  1.00  0.00    -0.329 A  
HETATM    8  C   UNL     1     -12.914  10.501  71.020  1.00  0.00    -0.475 A  
HETATM    9  C   UNL     1     -11.235  10.710  67.727  1.00  0.00    -0.383 A  
HETATM   10  C   UNL     1     -12.091  10.974  68.789  1.00  0.00    -0.184 A  
HETATM   11  C   UNL     1     -11.051   9.195  70.107  1.00  0.00    -0.248 A  
HETATM   12  C   UNL     1     -12.019  10.227  69.972  1.00  0.00    -0.273 A  
ENDBRANCH   2   3
BRANCH   2  13
HETATM   13  N   UNL     1      -8.055   7.882  68.189  1.00  0.00    -0.121 NA 
HETATM   14  H   UNL     1      -8.302   7.958  67.202  1.00  0.00     0.000 HD 
BRANCH  13  15
HETATM   15  C   UNL     1      -7.231   9.015  68.596  1.00  0.00    -0.072 C  
BRANCH  15  16
HETATM   16  C   UNL     1      -6.644   9.715  67.372  1.00  0.00    -0.070 C  
BRANCH  16  17
HETATM   17  C   UNL     1      -5.564  10.710  67.806  1.00  0.00    -0.043 C  
BRANCH  17  18
HETATM   18  C   UNL     1      -6.150  12.073  68.060  1.00  0.00    -0.058 A  
HETATM   19  C   UNL     1      -7.835  13.768  67.578  1.00  0.00    -0.189 A  
HETATM   20  C   UNL     1      -9.068  14.221  66.838  1.00  0.00    -0.252 C  
HETATM   21  C   UNL     1      -7.315  12.477  67.394  1.00  0.00    -0.147 A  
HETATM   22  C   UNL     1      -6.019  14.248  69.120  1.00  0.00    -0.092 A  
HETATM   23  F   UNL     1      -9.601  13.266  66.024  1.00  0.00    -0.268 F  
HETATM   24  F   UNL     1     -10.075  14.595  67.677  1.00  0.00    -0.223 F  
HETATM   25  F   UNL     1      -8.829  15.298  66.038  1.00  0.00    -0.327 F  
HETATM   26  C   UNL     1      -7.178  14.647  68.451  1.00  0.00    -0.117 A  
HETATM   27  C   UNL     1      -5.508  12.968  68.921  1.00  0.00    -0.071 A  
ENDBRANCH  17  18
ENDBRANCH  16  17
ENDBRANCH  15  16
ENDBRANCH  13  15
ENDBRANCH   2  13
TORSDOF 6
ENDMDL
MODEL      356
REMARK 921   NORMALIZED FREE ENERGY PREDICTED BY IDOCK:   -2.62 KCAL/MOL
REMARK 922        TOTAL FREE ENERGY PREDICTED BY IDOCK:   -6.67 KCAL/MOL
REMARK 923 INTER-LIGAND FREE ENERGY PREDICTED BY IDOCK:   -5.82 KCAL/MOL
REMARK 924 INTRA-LIGAND FREE ENERGY PREDICTED BY IDOCK:   -0.85 KCAL/MOL
REMARK 927      BINDING AFFINITY PREDICTED BY RF-SCORE:    0.00 PKD
ROOT
HETATM    1  C   UNL     1      -9.309   3.987  67.802  1.00  0.00    -0.221 C  
HETATM    2  C   UNL     1      -8.205   4.653  68.643  1.00  0.00    -0.082 C  
ENDROOT
BRANCH   2   3
HETATM    3  C   UNL     1      -8.583   4.874  70.111  1.00  0.00    -0.107 A  
HETATM    4  C   UNL     1     -12.019   6.475  69.976  1.00  0.00    -0.133 A  
HETATM    5  C   UNL     1      -7.671   4.513  71.123  1.00  0.00    -0.076 A  
HETATM    6  C   UNL     1     -12.191   6.820  71.307  1.00  0.00    -0.415 A  
HETATM    7  C   UNL     1     -10.859   5.806  69.573  1.00  0.00    -0.410 A  
HETATM    8  C   UNL     1     -11.222   6.460  72.241  1.00  0.00    -0.314 A  
HETATM    9  C   UNL     1      -7.936   4.771  72.464  1.00  0.00    -0.093 A  
HETATM   10  C   UNL     1      -9.111   5.420  72.821  1.00  0.00    -0.133 A  
HETATM   11  C   UNL     1      -9.826   5.476  70.483  1.00  0.00    -0.254 A  
HETATM   12  C   UNL     1     -10.054   5.784  71.852  1.00  0.00    -0.228 A  
ENDBRANCH   2   3
BRANCH   2  13
HETATM   13  N   UNL     1      -7.635   5.847  67.995  1.00  0.00    -0.088 NA 
HETATM   14  H   UNL     1      -8.228   6.150  67.222  1.00  0.00     0.000 HD 
BRANCH  13  15
HETATM   15  C   UNL     1      -7.374   6.960  68.902  1.00  0.00    -0.094 C  
BRANCH  15  16
HETATM   16  C   UNL     1      -7.968   8.253  68.345  1.00  0.00    -0.119 C  
BRANCH  16  17
HETATM   17  C   UNL     1      -8.013   9.322  69.440  1.00  0.00    -0.099 C  
BRANCH  17  18
HETATM   18  C   UNL     1      -9.343  10.026  69.460  1.00  0.00    -0.247 A  
HETATM   19  C   UNL     1     -10.764  11.871  68.740  1.00  0.00    -0.257 A  
HETATM   20  C   UNL     1     -10.978  13.127  67.932  1.00  0.00    -0.249 C  
HETATM   21  C   UNL     1      -9.547  11.174  68.682  1.00  0.00    -0.200 A  
HETATM   22  C   UNL     1     -11.584  10.251  70.355  1.00  0.00    -0.411 A  
HETATM   23  F   UNL     1      -9.907  13.472  67.162  1.00  0.00    -0.226 F  
HETATM   24  F   UNL     1     -12.032  13.024  67.074  1.00  0.00    -0.391 F  
HETATM   25  F   UNL     1     -11.237  14.212  68.713  1.00  0.00    -0.238 F  
HETATM   26  C   UNL     1     -11.781  11.397  69.581  1.00  0.00    -0.415 A  
HETATM   27  C   UNL     1     -10.369   9.573  70.296  1.00  0.00    -0.321 A  
ENDBRANCH  17  18
ENDBRANCH  16  17
ENDBRANCH  15  16
ENDBRANCH  13  15
ENDBRANCH   2  13
TORSDOF 6
ENDMDL
MODEL      357
REMARK 921   NORMALIZED FREE ENERGY PREDICTED BY IDOCK:   -2.60 KCAL/MOL
REMARK 922        TOTAL FREE ENERGY PREDICTED BY IDOCK:   -6.63 KCAL/MOL
REMARK 923 INTER-LIGAND FREE ENERGY PREDICTED BY IDOCK:   -5.84 KCAL/MOL
REMARK 924 INTRA-LIGAND FREE ENERGY PREDICTED BY IDOCK:   -0.79 KCAL/MOL
REMARK 927      BINDING AFFINITY PREDICTED BY RF-SCORE:    0.00 PKD
ROOT
HETATM    1  C   UNL     1      -5.687  16.456  67.209  1.00  0.00    -0.167 C  
HETATM    2  C   UNL     1      -6.904  15.574  67.541  1.00  0.00    -0.195 C  
ENDROOT
BRANCH   2   3
HETATM    3  C   UNL     1      -8.229  16.096  66.979  1.00  0.00    -0.250 A  
HETATM    4  C   UNL     1      -8.683  19.490  68.611  1.00  0.00    -0.377 A  
HETATM    5  C   UNL     1      -8.967  15.293  66.085  1.00  0.00    -0.251 A  
HETATM    6  C   UNL     1      -9.976  19.793  68.213  1.00  0.00    -0.557 A  
HETATM    7  C   UNL     1      -8.084  18.300  68.187  1.00  0.00    -0.297 A  
HETATM    8  C   UNL     1     -10.653  18.925  67.358  1.00  0.00    -0.534 A  
HETATM    9  C   UNL     1     -10.214  15.690  65.614  1.00  0.00    -0.402 A  
HETATM   10  C   UNL     1     -10.764  16.891  66.046  1.00  0.00    -0.125 A  
HETATM   11  C   UNL     1      -8.761  17.366  67.367  1.00  0.00    -0.227 A  
HETATM   12  C   UNL     1     -10.061  17.729  66.921  1.00  0.00    -0.342 A  
ENDBRANCH   2   3
BRANCH   2  13
HETATM   13  N   UNL     1      -6.973  15.209  68.967  1.00  0.00    -0.121 NA 
HETATM   14  H   UNL     1      -7.902  15.404  69.340  1.00  0.00     0.000 HD 
BRANCH  13  15
HETATM   15  C   UNL     1      -6.588  13.832  69.257  1.00  0.00    -0.113 C  
BRANCH  15  16
HETATM   16  C   UNL     1      -7.012  12.908  68.117  1.00  0.00    -0.102 C  
BRANCH  16  17
HETATM   17  C   UNL     1      -7.926  11.802  68.652  1.00  0.00    -0.116 C  
BRANCH  17  18
HETATM   18  C   UNL     1      -8.673  11.124  67.535  1.00  0.00    -0.129 A  
HETATM   19  C   UNL     1      -8.966   9.213  66.050  1.00  0.00    -0.221 A  
HETATM   20  C   UNL     1      -8.565   7.835  65.587  1.00  0.00    -0.127 C  
HETATM   21  C   UNL     1      -8.317   9.830  67.130  1.00  0.00    -0.121 A  
HETATM   22  C   UNL     1     -10.350  11.194  65.787  1.00  0.00    -0.316 A  
HETATM   23  F   UNL     1      -7.558   7.281  66.322  1.00  0.00    -0.083 F  
HETATM   24  F   UNL     1      -9.595   6.944  65.641  1.00  0.00     0.024 F  
HETATM   25  F   UNL     1      -8.129   7.825  64.297  1.00  0.00    -0.130 F  
HETATM   26  C   UNL     1      -9.988   9.906  65.385  1.00  0.00    -0.349 A  
HETATM   27  C   UNL     1      -9.691  11.799  66.854  1.00  0.00    -0.212 A  
ENDBRANCH  17  18
ENDBRANCH  16  17
ENDBRANCH  15  16
ENDBRANCH  13  15
ENDBRANCH   2  13
TORSDOF 6
ENDMDL
MODEL      358
REMARK 921   NORMALIZED FREE ENERGY PREDICTED BY IDOCK:   -2.60 KCAL/MOL
REMARK 922        TOTAL FREE ENERGY PREDICTED BY IDOCK:   -6.63 KCAL/MOL
REMARK 923 INTER-LIGAND FREE ENERGY PREDICTED BY IDOCK:   -5.09 KCAL/MOL
REMARK 924 INTRA-LIGAND FREE ENERGY PREDICTED BY IDOCK:   -1.55 KCAL/MOL
REMARK 927      BINDING AFFINITY PREDICTED BY RF-SCORE:    0.00 PKD
ROOT
HETATM    1  C   UNL     1     -12.200  13.104  70.106  1.00  0.00    -0.360 C  
HETATM    2  C   UNL     1     -11.139  12.419  69.226  1.00  0.00    -0.147 C  
ENDROOT
BRANCH   2   3
HETATM    3  C   UNL     1     -11.196  12.821  67.749  1.00  0.00    -0.317 A  
HETATM    4  C   UNL     1      -8.942  15.862  67.506  1.00  0.00    -0.201 A  
HETATM    5  C   UNL     1     -12.010  12.088  66.861  1.00  0.00    -0.091 A  
HETATM    6  C   UNL     1      -9.207  16.272  66.209  1.00  0.00    -0.363 A  
HETATM    7  C   UNL     1      -9.557  14.714  68.014  1.00  0.00    -0.212 A  
HETATM    8  C   UNL     1     -10.057  15.513  65.408  1.00  0.00    -0.387 A  
HETATM    9  C   UNL     1     -12.157  12.467  65.531  1.00  0.00    -0.481 A  
HETATM   10  C   UNL     1     -11.511  13.604  65.063  1.00  0.00    -0.338 A  
HETATM   11  C   UNL     1     -10.471  13.949  67.250  1.00  0.00    -0.271 A  
HETATM   12  C   UNL     1     -10.679  14.355  65.904  1.00  0.00    -0.308 A  
ENDBRANCH   2   3
BRANCH   2  13
HETATM   13  N   UNL     1     -11.073  10.963  69.437  1.00  0.00    -0.241 NA 
HETATM   14  H   UNL     1     -11.831  10.496  68.938  1.00  0.00     0.000 HD 
BRANCH  13  15
HETATM   15  C   UNL     1      -9.790  10.359  69.093  1.00  0.00    -0.223 C  
BRANCH  15  16
HETATM   16  C   UNL     1      -8.656  11.362  69.298  1.00  0.00     0.302 C  
BRANCH  16  17
HETATM   17  C   UNL     1      -7.667  11.279  68.133  1.00  0.00    -0.112 C  
BRANCH  17  18
HETATM   18  C   UNL     1      -8.201  10.412  67.025  1.00  0.00    -0.123 A  
HETATM   19  C   UNL     1      -8.562   8.201  66.064  1.00  0.00    -0.165 A  
HETATM   20  C   UNL     1      -8.447   6.699  66.144  1.00  0.00    -0.135 C  
HETATM   21  C   UNL     1      -8.121   9.016  67.118  1.00  0.00    -0.106 A  
HETATM   22  C   UNL     1      -9.181  10.194  64.819  1.00  0.00    -0.291 A  
HETATM   23  F   UNL     1      -7.909   6.252  67.314  1.00  0.00    -0.100 F  
HETATM   24  F   UNL     1      -9.652   6.075  66.029  1.00  0.00    -0.177 F  
HETATM   25  F   UNL     1      -7.663   6.184  65.156  1.00  0.00    -0.077 F  
HETATM   26  C   UNL     1      -9.096   8.804  64.916  1.00  0.00     0.017 A  
HETATM   27  C   UNL     1      -8.732  10.992  65.868  1.00  0.00    -0.182 A  
ENDBRANCH  17  18
ENDBRANCH  16  17
ENDBRANCH  15  16
ENDBRANCH  13  15
ENDBRANCH   2  13
TORSDOF 6
ENDMDL
MODEL      359
REMARK 921   NORMALIZED FREE ENERGY PREDICTED BY IDOCK:   -2.57 KCAL/MOL
REMARK 922        TOTAL FREE ENERGY PREDICTED BY IDOCK:   -6.60 KCAL/MOL
REMARK 923 INTER-LIGAND FREE ENERGY PREDICTED BY IDOCK:   -4.80 KCAL/MOL
REMARK 924 INTRA-LIGAND FREE ENERGY PREDICTED BY IDOCK:   -1.80 KCAL/MOL
REMARK 927      BINDING AFFINITY PREDICTED BY RF-SCORE:    0.00 PKD
ROOT
HETATM    1  C   UNL     1      -8.164   5.834  70.220  1.00  0.00    -0.110 C  
HETATM    2  C   UNL     1      -7.987   7.186  70.934  1.00  0.00    -0.096 C  
ENDROOT
BRANCH   2   3
HETATM    3  C   UNL     1      -7.627   8.346  70.002  1.00  0.00    -0.068 A  
HETATM    4  C   UNL     1     -10.795  10.423  69.807  1.00  0.00    -0.342 A  
HETATM    5  C   UNL     1      -6.341   8.400  69.427  1.00  0.00    -0.038 A  
HETATM    6  C   UNL     1     -10.451  11.317  68.805  1.00  0.00    -0.232 A  
HETATM    7  C   UNL     1      -9.869   9.467  70.235  1.00  0.00    -0.290 A  
HETATM    8  C   UNL     1      -9.169  11.279  68.260  1.00  0.00    -0.176 A  
HETATM    9  C   UNL     1      -5.997   9.388  68.510  1.00  0.00    -0.044 A  
HETATM   10  C   UNL     1      -6.942  10.332  68.128  1.00  0.00    -0.074 A  
HETATM   11  C   UNL     1      -8.578   9.360  69.664  1.00  0.00    -0.171 A  
HETATM   12  C   UNL     1      -8.228  10.327  68.683  1.00  0.00    -0.116 A  
ENDBRANCH   2   3
BRANCH   2  13
HETATM   13  N   UNL     1      -7.120   7.095  72.123  1.00  0.00    -0.067 NA 
HETATM   14  H   UNL     1      -6.194   6.755  71.862  1.00  0.00     0.000 HD 
BRANCH  13  15
HETATM   15  C   UNL     1      -7.012   8.333  72.887  1.00  0.00    -0.099 C  
BRANCH  15  16
HETATM   16  C   UNL     1      -8.362   8.705  73.495  1.00  0.00     0.110 C  
BRANCH  16  17
HETATM   17  C   UNL     1      -8.840   7.590  74.430  1.00  0.00    -0.195 C  
BRANCH  17  18
HETATM   18  C   UNL     1      -9.877   6.727  73.762  1.00  0.00    -0.289 A  
HETATM   19  C   UNL     1     -11.862   6.517  72.362  1.00  0.00    -0.235 A  
HETATM   20  C   UNL     1     -12.937   7.136  71.505  1.00  0.00    -0.383 C  
HETATM   21  C   UNL     1     -10.855   7.305  72.940  1.00  0.00    -0.380 A  
HETATM   22  C   UNL     1     -10.897   4.555  73.424  1.00  0.00    -0.350 A  
HETATM   23  F   UNL     1     -12.806   8.485  71.351  1.00  0.00    -0.311 F  
HETATM   24  F   UNL     1     -12.963   6.621  70.243  1.00  0.00    -0.155 F  
HETATM   25  F   UNL     1     -14.186   6.941  72.013  1.00  0.00    -0.442 F  
HETATM   26  C   UNL     1     -11.871   5.136  72.609  1.00  0.00    -0.056 A  
HETATM   27  C   UNL     1      -9.908   5.350  74.000  1.00  0.00    -0.189 A  
ENDBRANCH  17  18
ENDBRANCH  16  17
ENDBRANCH  15  16
ENDBRANCH  13  15
ENDBRANCH   2  13
TORSDOF 6
ENDMDL
MODEL      360
REMARK 921   NORMALIZED FREE ENERGY PREDICTED BY IDOCK:   -2.51 KCAL/MOL
REMARK 922        TOTAL FREE ENERGY PREDICTED BY IDOCK:   -6.52 KCAL/MOL
REMARK 923 INTER-LIGAND FREE ENERGY PREDICTED BY IDOCK:   -6.66 KCAL/MOL
REMARK 924 INTRA-LIGAND FREE ENERGY PREDICTED BY IDOCK:    0.13 KCAL/MOL
REMARK 927      BINDING AFFINITY PREDICTED BY RF-SCORE:    0.00 PKD
ROOT
HETATM    1  C   UNL     1     -10.985  12.193  65.488  1.00  0.00    -0.343 C  
HETATM    2  C   UNL     1     -11.904  12.228  66.721  1.00  0.00    -0.277 C  
ENDROOT
BRANCH   2   3
HETATM    3  C   UNL     1     -11.767  13.495  67.571  1.00  0.00    -0.403 A  
HETATM    4  C   UNL     1     -10.761  16.190  65.099  1.00  0.00    -0.391 A  
HETATM    5  C   UNL     1     -11.983  13.424  68.962  1.00  0.00    -0.357 A  
HETATM    6  C   UNL     1     -10.466  17.232  65.965  1.00  0.00    -0.285 A  
HETATM    7  C   UNL     1     -11.222  14.971  65.606  1.00  0.00    -0.327 A  
HETATM    8  C   UNL     1     -10.670  17.067  67.333  1.00  0.00    -0.240 A  
HETATM    9  C   UNL     1     -11.789  14.529  69.784  1.00  0.00    -0.367 A  
HETATM   10  C   UNL     1     -11.350  15.727  69.235  1.00  0.00    -0.350 A  
HETATM   11  C   UNL     1     -11.386  14.747  66.994  1.00  0.00    -0.358 A  
HETATM   12  C   UNL     1     -11.137  15.849  67.856  1.00  0.00    -0.317 A  
ENDBRANCH   2   3
BRANCH   2  13
HETATM   13  N   UNL     1     -11.853  10.983  67.508  1.00  0.00    -0.549 NA 
HETATM   14  H   UNL     1     -12.594  10.346  67.214  1.00  0.00     0.000 HD 
BRANCH  13  15
HETATM   15  C   UNL     1     -10.561  10.306  67.484  1.00  0.00    -0.268 C  
BRANCH  15  16
HETATM   16  C   UNL     1     -10.750   8.802  67.298  1.00  0.00    -0.217 C  
BRANCH  16  17
HETATM   17  C   UNL     1      -9.417   8.077  67.506  1.00  0.00    -0.177 C  
BRANCH  17  18
HETATM   18  C   UNL     1      -9.516   7.062  68.613  1.00  0.00    -0.135 A  
HETATM   19  C   UNL     1      -8.478   5.347  70.000  1.00  0.00    -0.111 A  
HETATM   20  C   UNL     1      -7.271   4.540  70.408  1.00  0.00    -0.049 C  
HETATM   21  C   UNL     1      -8.383   6.338  69.010  1.00  0.00    -0.117 A  
HETATM   22  C   UNL     1     -10.852   5.819  70.206  1.00  0.00    -0.373 A  
HETATM   23  F   UNL     1      -6.130   4.887  69.746  1.00  0.00    -0.018 F  
HETATM   24  F   UNL     1      -6.982   4.664  71.734  1.00  0.00    -0.043 F  
HETATM   25  F   UNL     1      -7.436   3.206  70.185  1.00  0.00    -0.043 F  
HETATM   26  C   UNL     1      -9.722   5.098  70.596  1.00  0.00    -0.257 A  
HETATM   27  C   UNL     1     -10.748   6.794  69.217  1.00  0.00    -0.288 A  
ENDBRANCH  17  18
ENDBRANCH  16  17
ENDBRANCH  15  16
ENDBRANCH  13  15
ENDBRANCH   2  13
TORSDOF 6
ENDMDL
MODEL      361
REMARK 921   NORMALIZED FREE ENERGY PREDICTED BY IDOCK:   -2.51 KCAL/MOL
REMARK 922        TOTAL FREE ENERGY PREDICTED BY IDOCK:   -6.51 KCAL/MOL
REMARK 923 INTER-LIGAND FREE ENERGY PREDICTED BY IDOCK:   -5.17 KCAL/MOL
REMARK 924 INTRA-LIGAND FREE ENERGY PREDICTED BY IDOCK:   -1.34 KCAL/MOL
REMARK 927      BINDING AFFINITY PREDICTED BY RF-SCORE:    0.00 PKD
ROOT
HETATM    1  C   UNL     1      -8.389   4.863  67.608  1.00  0.00    -0.105 C  
HETATM    2  C   UNL     1      -7.475   5.072  68.829  1.00  0.00    -0.069 C  
ENDROOT
BRANCH   2   3
HETATM    3  C   UNL     1      -8.178   4.886  70.177  1.00  0.00    -0.073 A  
HETATM    4  C   UNL     1      -5.361   4.247  72.635  1.00  0.00    -0.004 A  
HETATM    5  C   UNL     1      -9.585   4.947  70.240  1.00  0.00    -0.265 A  
HETATM    6  C   UNL     1      -6.084   3.896  73.764  1.00  0.00    -0.016 A  
HETATM    7  C   UNL     1      -6.032   4.608  71.463  1.00  0.00    -0.017 A  
HETATM    8  C   UNL     1      -7.476   3.944  73.732  1.00  0.00    -0.070 A  
HETATM    9  C   UNL     1     -10.270   4.703  71.426  1.00  0.00    -0.212 A  
HETATM   10  C   UNL     1      -9.562   4.367  72.573  1.00  0.00    -0.190 A  
HETATM   11  C   UNL     1      -7.444   4.613  71.374  1.00  0.00    -0.076 A  
HETATM   12  C   UNL     1      -8.163   4.309  72.562  1.00  0.00    -0.100 A  
ENDBRANCH   2   3
BRANCH   2  13
HETATM   13  N   UNL     1      -6.681   6.310  68.744  1.00  0.00    -0.058 NA 
HETATM   14  H   UNL     1      -6.659   6.653  67.783  1.00  0.00     0.000 HD 
BRANCH  13  15
HETATM   15  C   UNL     1      -7.113   7.368  69.651  1.00  0.00    -0.072 C  
BRANCH  15  16
HETATM   16  C   UNL     1      -8.125   8.282  68.962  1.00  0.00    -0.117 C  
BRANCH  16  17
HETATM   17  C   UNL     1      -8.471   9.461  69.875  1.00  0.00    -0.186 C  
BRANCH  17  18
HETATM   18  C   UNL     1      -9.564   9.098  70.844  1.00  0.00    -0.347 A  
HETATM   19  C   UNL     1     -11.899   9.226  71.534  1.00  0.00    -0.444 A  
HETATM   20  C   UNL     1     -13.314   9.693  71.303  1.00  0.00    -0.330 C  
HETATM   21  C   UNL     1     -10.883   9.508  70.607  1.00  0.00    -0.371 A  
HETATM   22  C   UNL     1     -10.264   8.102  72.939  1.00  0.00    -0.341 A  
HETATM   23  F   UNL     1     -13.482  10.372  70.132  1.00  0.00    -0.254 F  
HETATM   24  F   UNL     1     -14.206   8.664  71.265  1.00  0.00    -0.429 F  
HETATM   25  F   UNL     1     -13.752  10.532  72.283  1.00  0.00    -0.434 F  
HETATM   26  C   UNL     1     -11.576   8.516  72.701  1.00  0.00    -0.284 A  
HETATM   27  C   UNL     1      -9.264   8.396  72.016  1.00  0.00    -0.304 A  
ENDBRANCH  17  18
ENDBRANCH  16  17
ENDBRANCH  15  16
ENDBRANCH  13  15
ENDBRANCH   2  13
TORSDOF 6
ENDMDL
MODEL      362
REMARK 921   NORMALIZED FREE ENERGY PREDICTED BY IDOCK:   -2.50 KCAL/MOL
REMARK 922        TOTAL FREE ENERGY PREDICTED BY IDOCK:   -6.51 KCAL/MOL
REMARK 923 INTER-LIGAND FREE ENERGY PREDICTED BY IDOCK:   -6.48 KCAL/MOL
REMARK 924 INTRA-LIGAND FREE ENERGY PREDICTED BY IDOCK:   -0.03 KCAL/MOL
REMARK 927      BINDING AFFINITY PREDICTED BY RF-SCORE:    0.00 PKD
ROOT
HETATM    1  C   UNL     1     -11.587  10.795  68.059  1.00  0.00    -0.245 C  
HETATM    2  C   UNL     1     -10.401  11.517  67.395  1.00  0.00    -0.207 C  
ENDROOT
BRANCH   2   3
HETATM    3  C   UNL     1     -10.277  11.266  65.889  1.00  0.00    -0.298 A  
HETATM    4  C   UNL     1      -8.317   8.029  65.626  1.00  0.00    -0.146 A  
HETATM    5  C   UNL     1     -10.824  12.198  64.983  1.00  0.00    -0.344 A  
HETATM    6  C   UNL     1      -8.080   7.986  64.261  1.00  0.00    -0.117 A  
HETATM    7  C   UNL     1      -9.065   9.078  66.171  1.00  0.00    -0.246 A  
HETATM    8  C   UNL     1      -8.624   8.969  63.438  1.00  0.00    -0.145 A  
HETATM    9  C   UNL     1     -10.663  12.054  63.609  1.00  0.00    -0.506 A  
HETATM   10  C   UNL     1      -9.929  10.985  63.110  1.00  0.00    -0.382 A  
HETATM   11  C   UNL     1      -9.584  10.126  65.373  1.00  0.00    -0.325 A  
HETATM   12  C   UNL     1      -9.380  10.026  63.970  1.00  0.00    -0.324 A  
ENDBRANCH   2   3
BRANCH   2  13
HETATM   13  N   UNL     1      -9.137  11.335  68.129  1.00  0.00    -0.160 NA 
HETATM   14  H   UNL     1      -8.869  10.350  68.135  1.00  0.00     0.000 HD 
BRANCH  13  15
HETATM   15  C   UNL     1      -8.034  12.159  67.647  1.00  0.00    -0.157 C  
BRANCH  15  16
HETATM   16  C   UNL     1      -8.560  13.475  67.078  1.00  0.00    -0.169 C  
BRANCH  16  17
HETATM   17  C   UNL     1      -7.782  14.651  67.675  1.00  0.00    -0.194 C  
BRANCH  17  18
HETATM   18  C   UNL     1      -8.710  15.647  68.319  1.00  0.00    -0.174 A  
HETATM   19  C   UNL     1     -10.677  16.124  69.677  1.00  0.00    -0.325 A  
HETATM   20  C   UNL     1     -11.842  15.656  70.513  1.00  0.00    -0.373 C  
HETATM   21  C   UNL     1      -9.771  15.207  69.122  1.00  0.00    -0.232 A  
HETATM   22  C   UNL     1      -9.441  17.936  68.630  1.00  0.00    -0.301 A  
HETATM   23  F   UNL     1     -11.892  14.303  70.673  1.00  0.00    -0.327 F  
HETATM   24  F   UNL     1     -11.825  16.177  71.772  1.00  0.00    -0.435 F  
HETATM   25  F   UNL     1     -13.043  16.011  69.979  1.00  0.00    -0.129 F  
HETATM   26  C   UNL     1     -10.499  17.493  69.426  1.00  0.00    -0.001 A  
HETATM   27  C   UNL     1      -8.554  17.015  68.077  1.00  0.00    -0.217 A  
ENDBRANCH  17  18
ENDBRANCH  16  17
ENDBRANCH  15  16
ENDBRANCH  13  15
ENDBRANCH   2  13
TORSDOF 6
ENDMDL
MODEL      363
REMARK 921   NORMALIZED FREE ENERGY PREDICTED BY IDOCK:   -2.50 KCAL/MOL
REMARK 922        TOTAL FREE ENERGY PREDICTED BY IDOCK:   -6.51 KCAL/MOL
REMARK 923 INTER-LIGAND FREE ENERGY PREDICTED BY IDOCK:   -5.94 KCAL/MOL
REMARK 924 INTRA-LIGAND FREE ENERGY PREDICTED BY IDOCK:   -0.57 KCAL/MOL
REMARK 927      BINDING AFFINITY PREDICTED BY RF-SCORE:    0.00 PKD
ROOT
HETATM    1  C   UNL     1      -6.336   7.894  67.699  1.00  0.00    -0.052 C  
HETATM    2  C   UNL     1      -7.730   7.709  67.075  1.00  0.00    -0.108 C  
ENDROOT
BRANCH   2   3
HETATM    3  C   UNL     1      -8.751   7.046  68.005  1.00  0.00    -0.126 A  
HETATM    4  C   UNL     1      -7.344   3.582  68.643  1.00  0.00    -0.050 A  
HETATM    5  C   UNL     1      -9.909   7.756  68.382  1.00  0.00    -0.180 A  
HETATM    6  C   UNL     1      -8.407   2.995  69.312  1.00  0.00    -0.087 A  
HETATM    7  C   UNL     1      -7.427   4.918  68.240  1.00  0.00    -0.074 A  
HETATM    8  C   UNL     1      -9.535   3.756  69.612  1.00  0.00    -0.258 A  
HETATM    9  C   UNL     1     -10.902   7.165  69.156  1.00  0.00    -0.185 A  
HETATM   10  C   UNL     1     -10.770   5.841  69.553  1.00  0.00    -0.408 A  
HETATM   11  C   UNL     1      -8.579   5.706  68.474  1.00  0.00    -0.107 A  
HETATM   12  C   UNL     1      -9.629   5.101  69.216  1.00  0.00    -0.223 A  
ENDBRANCH   2   3
BRANCH   2  13
HETATM   13  N   UNL     1      -7.680   7.106  65.731  1.00  0.00    -0.094 NA 
HETATM   14  H   UNL     1      -8.304   6.301  65.679  1.00  0.00     0.000 HD 
BRANCH  13  15
HETATM   15  C   UNL     1      -7.959   8.036  64.642  1.00  0.00    -0.151 C  
BRANCH  15  16
HETATM   16  C   UNL     1      -8.263   9.428  65.192  1.00  0.00    -0.136 C  
BRANCH  16  17
HETATM   17  C   UNL     1      -9.774   9.600  65.372  1.00  0.00    -0.365 C  
BRANCH  17  18
HETATM   18  C   UNL     1     -10.107  10.971  65.897  1.00  0.00    -0.301 A  
HETATM   19  C   UNL     1     -11.155  13.151  65.588  1.00  0.00    -0.296 A  
HETATM   20  C   UNL     1     -11.965  14.113  64.756  1.00  0.00    -0.431 C  
HETATM   21  C   UNL     1     -10.889  11.850  65.134  1.00  0.00    -0.350 A  
HETATM   22  C   UNL     1      -9.860  12.686  67.591  1.00  0.00    -0.210 A  
HETATM   23  F   UNL     1     -12.403  13.584  63.578  1.00  0.00    -0.522 F  
HETATM   24  F   UNL     1     -13.081  14.551  65.402  1.00  0.00    -0.418 F  
HETATM   25  F   UNL     1     -11.263  15.232  64.421  1.00  0.00    -0.347 F  
HETATM   26  C   UNL     1     -10.635  13.558  66.825  1.00  0.00    -0.272 A  
HETATM   27  C   UNL     1      -9.596  11.400  67.126  1.00  0.00    -0.193 A  
ENDBRANCH  17  18
ENDBRANCH  16  17
ENDBRANCH  15  16
ENDBRANCH  13  15
ENDBRANCH   2  13
TORSDOF 6
ENDMDL
MODEL      364
REMARK 921   NORMALIZED FREE ENERGY PREDICTED BY IDOCK:   -2.49 KCAL/MOL
REMARK 922        TOTAL FREE ENERGY PREDICTED BY IDOCK:   -6.49 KCAL/MOL
REMARK 923 INTER-LIGAND FREE ENERGY PREDICTED BY IDOCK:   -6.85 KCAL/MOL
REMARK 924 INTRA-LIGAND FREE ENERGY PREDICTED BY IDOCK:    0.36 KCAL/MOL
REMARK 927      BINDING AFFINITY PREDICTED BY RF-SCORE:    0.00 PKD
ROOT
HETATM    1  C   UNL     1      -8.409  12.076  66.875  1.00  0.00    -0.159 C  
HETATM    2  C   UNL     1      -9.599  11.579  66.034  1.00  0.00    -0.228 C  
ENDROOT
BRANCH   2   3
HETATM    3  C   UNL     1     -10.397  12.695  65.354  1.00  0.00    -0.311 A  
HETATM    4  C   UNL     1      -8.940  15.899  66.768  1.00  0.00    -0.280 A  
HETATM    5  C   UNL     1     -11.431  12.360  64.456  1.00  0.00    -0.394 A  
HETATM    6  C   UNL     1      -9.836  16.829  66.266  1.00  0.00    -0.327 A  
HETATM    7  C   UNL     1      -9.088  14.546  66.450  1.00  0.00    -0.217 A  
HETATM    8  C   UNL     1     -10.857  16.410  65.415  1.00  0.00    -0.249 A  
HETATM    9  C   UNL     1     -12.236  13.337  63.881  1.00  0.00    -0.491 A  
HETATM   10  C   UNL     1     -12.040  14.673  64.209  1.00  0.00    -0.437 A  
HETATM   11  C   UNL     1     -10.147  14.075  65.636  1.00  0.00    -0.342 A  
HETATM   12  C   UNL     1     -11.016  15.055  65.084  1.00  0.00    -0.417 A  
ENDBRANCH   2   3
BRANCH   2  13
HETATM   13  N   UNL     1     -10.440  10.606  66.753  1.00  0.00    -0.245 NA 
HETATM   14  H   UNL     1     -11.423  10.877  66.697  1.00  0.00     0.000 HD 
BRANCH  13  15
HETATM   15  C   UNL     1     -10.268   9.223  66.322  1.00  0.00    -0.203 C  
BRANCH  15  16
HETATM   16  C   UNL     1      -9.933   8.330  67.515  1.00  0.00    -0.252 C  
BRANCH  16  17
HETATM   17  C   UNL     1     -10.552   8.907  68.791  1.00  0.00    -0.185 C  
BRANCH  17  18
HETATM   18  C   UNL     1      -9.822   8.426  70.016  1.00  0.00    -0.182 A  
HETATM   19  C   UNL     1      -9.779   7.099  72.060  1.00  0.00    -0.173 A  
HETATM   20  C   UNL     1     -10.439   6.136  73.016  1.00  0.00    -0.226 C  
HETATM   21  C   UNL     1     -10.427   7.507  70.884  1.00  0.00    -0.218 A  
HETATM   22  C   UNL     1      -7.900   8.530  71.489  1.00  0.00    -0.158 A  
HETATM   23  F   UNL     1     -11.670   5.716  72.608  1.00  0.00    -0.329 F  
HETATM   24  F   UNL     1      -9.706   5.003  73.207  1.00  0.00    -0.143 F  
HETATM   25  F   UNL     1     -10.623   6.675  74.254  1.00  0.00    -0.356 F  
HETATM   26  C   UNL     1      -8.509   7.617  72.352  1.00  0.00    -0.151 A  
HETATM   27  C   UNL     1      -8.557   8.934  70.329  1.00  0.00    -0.178 A  
ENDBRANCH  17  18
ENDBRANCH  16  17
ENDBRANCH  15  16
ENDBRANCH  13  15
ENDBRANCH   2  13
TORSDOF 6
ENDMDL
MODEL      365
REMARK 921   NORMALIZED FREE ENERGY PREDICTED BY IDOCK:   -2.47 KCAL/MOL
REMARK 922        TOTAL FREE ENERGY PREDICTED BY IDOCK:   -6.46 KCAL/MOL
REMARK 923 INTER-LIGAND FREE ENERGY PREDICTED BY IDOCK:   -5.75 KCAL/MOL
REMARK 924 INTRA-LIGAND FREE ENERGY PREDICTED BY IDOCK:   -0.71 KCAL/MOL
REMARK 927      BINDING AFFINITY PREDICTED BY RF-SCORE:    0.00 PKD
ROOT
HETATM    1  C   UNL     1      -8.689  10.879  68.936  1.00  0.00    -0.144 C  
HETATM    2  C   UNL     1     -10.201  10.819  68.652  1.00  0.00    -0.185 C  
ENDROOT
BRANCH   2   3
HETATM    3  C   UNL     1     -11.055  10.472  69.875  1.00  0.00    -0.371 A  
HETATM    4  C   UNL     1      -9.584   7.225  71.171  1.00  0.00    -0.160 A  
HETATM    5  C   UNL     1     -12.130  11.313  70.231  1.00  0.00    -0.459 A  
HETATM    6  C   UNL     1     -10.523   6.886  72.132  1.00  0.00    -0.230 A  
HETATM    7  C   UNL     1      -9.724   8.413  70.448  1.00  0.00    -0.185 A  
HETATM    8  C   UNL     1     -11.580   7.755  72.397  1.00  0.00    -0.410 A  
HETATM    9  C   UNL     1     -12.982  10.994  71.283  1.00  0.00    -0.472 A  
HETATM   10  C   UNL     1     -12.794   9.812  71.988  1.00  0.00    -0.491 A  
HETATM   11  C   UNL     1     -10.816   9.292  70.648  1.00  0.00    -0.339 A  
HETATM   12  C   UNL     1     -11.731   8.954  71.681  1.00  0.00    -0.411 A  
ENDBRANCH   2   3
BRANCH   2  13
HETATM   13  N   UNL     1     -10.527  10.017  67.460  1.00  0.00    -0.236 NA 
HETATM   14  H   UNL     1     -11.531   9.840  67.414  1.00  0.00     0.000 HD 
BRANCH  13  15
HETATM   15  C   UNL     1     -10.054  10.586  66.202  1.00  0.00    -0.246 C  
BRANCH  15  16
HETATM   16  C   UNL     1      -9.689   9.476  65.218  1.00  0.00    -0.268 C  
BRANCH  16  17
HETATM   17  C   UNL     1      -8.384   8.801  65.650  1.00  0.00    -0.144 C  
BRANCH  17  18
HETATM   18  C   UNL     1      -8.543   7.306  65.726  1.00  0.00    -0.143 A  
HETATM   19  C   UNL     1      -8.374   5.112  64.678  1.00  0.00    -0.140 A  
HETATM   20  C   UNL     1      -8.014   4.243  63.500  1.00  0.00    -0.085 C  
HETATM   21  C   UNL     1      -8.175   6.500  64.640  1.00  0.00    -0.052 A  
HETATM   22  C   UNL     1      -9.303   5.335  66.913  1.00  0.00    -0.127 A  
HETATM   23  F   UNL     1      -7.478   4.934  62.453  1.00  0.00    -0.039 F  
HETATM   24  F   UNL     1      -7.099   3.284  63.817  1.00  0.00    -0.044 F  
HETATM   25  F   UNL     1      -9.090   3.579  62.992  1.00  0.00    -0.092 F  
HETATM   26  C   UNL     1      -8.939   4.537  65.827  1.00  0.00    -0.131 A  
HETATM   27  C   UNL     1      -9.108   6.713  66.859  1.00  0.00    -0.144 A  
ENDBRANCH  17  18
ENDBRANCH  16  17
ENDBRANCH  15  16
ENDBRANCH  13  15
ENDBRANCH   2  13
TORSDOF 6
ENDMDL
MODEL      366
REMARK 921   NORMALIZED FREE ENERGY PREDICTED BY IDOCK:   -2.47 KCAL/MOL
REMARK 922        TOTAL FREE ENERGY PREDICTED BY IDOCK:   -6.46 KCAL/MOL
REMARK 923 INTER-LIGAND FREE ENERGY PREDICTED BY IDOCK:   -4.97 KCAL/MOL
REMARK 924 INTRA-LIGAND FREE ENERGY PREDICTED BY IDOCK:   -1.49 KCAL/MOL
REMARK 927      BINDING AFFINITY PREDICTED BY RF-SCORE:    0.00 PKD
ROOT
HETATM    1  C   UNL     1      -9.772   4.685  69.264  1.00  0.00    -0.266 C  
HETATM    2  C   UNL     1      -9.174   4.552  70.676  1.00  0.00    -0.135 C  
ENDROOT
BRANCH   2   3
HETATM    3  C   UNL     1      -9.245   5.833  71.511  1.00  0.00    -0.159 A  
HETATM    4  C   UNL     1     -12.881   6.894  71.313  1.00  0.00    -0.336 A  
HETATM    5  C   UNL     1      -8.070   6.341  72.103  1.00  0.00    -0.109 A  
HETATM    6  C   UNL     1     -12.814   8.143  71.912  1.00  0.00    -0.360 A  
HETATM    7  C   UNL     1     -11.728   6.111  71.205  1.00  0.00    -0.211 A  
HETATM    8  C   UNL     1     -11.604   8.589  72.438  1.00  0.00    -0.425 A  
HETATM    9  C   UNL     1      -8.072   7.545  72.800  1.00  0.00    -0.134 A  
HETATM   10  C   UNL     1      -9.245   8.282  72.900  1.00  0.00    -0.329 A  
HETATM   11  C   UNL     1     -10.469   6.555  71.676  1.00  0.00    -0.241 A  
HETATM   12  C   UNL     1     -10.439   7.810  72.341  1.00  0.00    -0.321 A  
ENDBRANCH   2   3
BRANCH   2  13
HETATM   13  N   UNL     1      -7.841   3.922  70.675  1.00  0.00    -0.054 NA 
HETATM   14  H   UNL     1      -7.823   3.130  70.033  1.00  0.00     0.000 HD 
BRANCH  13  15
HETATM   15  C   UNL     1      -6.742   4.836  70.385  1.00  0.00    -0.036 C  
BRANCH  15  16
HETATM   16  C   UNL     1      -6.595   5.034  68.877  1.00  0.00    -0.048 C  
BRANCH  16  17
HETATM   17  C   UNL     1      -6.315   6.507  68.568  1.00  0.00    -0.038 C  
BRANCH  17  18
HETATM   18  C   UNL     1      -7.528   7.182  67.985  1.00  0.00    -0.099 A  
HETATM   19  C   UNL     1      -9.376   8.757  68.207  1.00  0.00    -0.143 A  
HETATM   20  C   UNL     1     -10.133   9.790  69.003  1.00  0.00    -0.187 C  
HETATM   21  C   UNL     1      -8.209   8.165  68.716  1.00  0.00    -0.125 A  
HETATM   22  C   UNL     1      -9.170   7.383  66.214  1.00  0.00    -0.182 A  
HETATM   23  F   UNL     1      -9.564  10.079  70.208  1.00  0.00    -0.272 F  
HETATM   24  F   UNL     1     -10.239  10.981  68.349  1.00  0.00    -0.162 F  
HETATM   25  F   UNL     1     -11.409   9.402  69.281  1.00  0.00    -0.174 F  
HETATM   26  C   UNL     1      -9.847   8.358  66.948  1.00  0.00    -0.313 A  
HETATM   27  C   UNL     1      -8.018   6.796  66.734  1.00  0.00    -0.108 A  
ENDBRANCH  17  18
ENDBRANCH  16  17
ENDBRANCH  15  16
ENDBRANCH  13  15
ENDBRANCH   2  13
TORSDOF 6
ENDMDL
MODEL      367
REMARK 921   NORMALIZED FREE ENERGY PREDICTED BY IDOCK:   -2.46 KCAL/MOL
REMARK 922        TOTAL FREE ENERGY PREDICTED BY IDOCK:   -6.45 KCAL/MOL
REMARK 923 INTER-LIGAND FREE ENERGY PREDICTED BY IDOCK:   -4.84 KCAL/MOL
REMARK 924 INTRA-LIGAND FREE ENERGY PREDICTED BY IDOCK:   -1.61 KCAL/MOL
REMARK 927      BINDING AFFINITY PREDICTED BY RF-SCORE:    0.00 PKD
ROOT
HETATM    1  C   UNL     1      -7.868  11.868  68.518  1.00  0.00    -0.136 C  
HETATM    2  C   UNL     1      -9.015  10.963  68.035  1.00  0.00    -0.145 C  
ENDROOT
BRANCH   2   3
HETATM    3  C   UNL     1     -10.089  10.693  69.092  1.00  0.00    -0.234 A  
HETATM    4  C   UNL     1      -8.377   8.462  71.637  1.00  0.00    -0.202 A  
HETATM    5  C   UNL     1     -11.379  11.237  68.924  1.00  0.00    -0.340 A  
HETATM    6  C   UNL     1      -9.456   8.109  72.432  1.00  0.00    -0.319 A  
HETATM    7  C   UNL     1      -8.561   9.335  70.561  1.00  0.00    -0.271 A  
HETATM    8  C   UNL     1     -10.710   8.660  72.174  1.00  0.00    -0.417 A  
HETATM    9  C   UNL     1     -12.409  10.950  69.814  1.00  0.00    -0.326 A  
HETATM   10  C   UNL     1     -12.177  10.093  70.883  1.00  0.00    -0.455 A  
HETATM   11  C   UNL     1      -9.830   9.870  70.232  1.00  0.00    -0.236 A  
HETATM   12  C   UNL     1     -10.908   9.542  71.099  1.00  0.00    -0.425 A  
ENDBRANCH   2   3
BRANCH   2  13
HETATM   13  N   UNL     1      -8.536   9.744  67.358  1.00  0.00    -0.121 NA 
HETATM   14  H   UNL     1      -9.323   9.206  66.997  1.00  0.00     0.000 HD 
BRANCH  13  15
HETATM   15  C   UNL     1      -7.557   9.984  66.303  1.00  0.00    -0.106 C  
BRANCH  15  16
HETATM   16  C   UNL     1      -6.512   8.870  66.280  1.00  0.00    -0.065 C  
BRANCH  16  17
HETATM   17  C   UNL     1      -6.185   8.430  67.710  1.00  0.00    -0.052 C  
BRANCH  17  18
HETATM   18  C   UNL     1      -6.543   6.985  67.931  1.00  0.00    -0.052 A  
HETATM   19  C   UNL     1      -8.078   5.302  68.801  1.00  0.00    -0.090 A  
HETATM   20  C   UNL     1      -9.370   4.930  69.483  1.00  0.00    -0.130 C  
HETATM   21  C   UNL     1      -7.761   6.644  68.536  1.00  0.00    -0.105 A  
HETATM   22  C   UNL     1      -5.949   4.638  67.836  1.00  0.00    -0.027 A  
HETATM   23  F   UNL     1     -10.163   6.000  69.777  1.00  0.00    -0.195 F  
HETATM   24  F   UNL     1     -10.139   4.096  68.728  1.00  0.00    -0.189 F  
HETATM   25  F   UNL     1      -9.169   4.283  70.665  1.00  0.00    -0.136 F  
HETATM   26  C   UNL     1      -7.161   4.303  68.442  1.00  0.00    -0.055 A  
HETATM   27  C   UNL     1      -5.642   5.974  67.586  1.00  0.00    -0.009 A  
ENDBRANCH  17  18
ENDBRANCH  16  17
ENDBRANCH  15  16
ENDBRANCH  13  15
ENDBRANCH   2  13
TORSDOF 6
ENDMDL
MODEL      368
REMARK 921   NORMALIZED FREE ENERGY PREDICTED BY IDOCK:   -2.43 KCAL/MOL
REMARK 922        TOTAL FREE ENERGY PREDICTED BY IDOCK:   -6.40 KCAL/MOL
REMARK 923 INTER-LIGAND FREE ENERGY PREDICTED BY IDOCK:   -5.53 KCAL/MOL
REMARK 924 INTRA-LIGAND FREE ENERGY PREDICTED BY IDOCK:   -0.88 KCAL/MOL
REMARK 927      BINDING AFFINITY PREDICTED BY RF-SCORE:    0.00 PKD
ROOT
HETATM    1  C   UNL     1      -9.077  15.689  66.434  1.00  0.00    -0.355 C  
HETATM    2  C   UNL     1      -9.276  15.964  67.935  1.00  0.00    -0.198 C  
ENDROOT
BRANCH   2   3
HETATM    3  C   UNL     1      -8.085  16.648  68.611  1.00  0.00    -0.237 A  
HETATM    4  C   UNL     1      -8.267  20.251  67.439  1.00  0.00    -0.387 A  
HETATM    5  C   UNL     1      -7.219  15.888  69.425  1.00  0.00    -0.214 A  
HETATM    6  C   UNL     1      -7.063  20.737  67.924  1.00  0.00    -0.253 A  
HETATM    7  C   UNL     1      -8.633  18.924  67.686  1.00  0.00    -0.304 A  
HETATM    8  C   UNL     1      -6.245  19.908  68.688  1.00  0.00    -0.307 A  
HETATM    9  C   UNL     1      -6.079  16.447  69.991  1.00  0.00    -0.151 A  
HETATM   10  C   UNL     1      -5.764  17.776  69.736  1.00  0.00    -0.241 A  
HETATM   11  C   UNL     1      -7.801  18.035  68.408  1.00  0.00    -0.300 A  
HETATM   12  C   UNL     1      -6.601  18.574  68.947  1.00  0.00    -0.275 A  
ENDBRANCH   2   3
BRANCH   2  13
HETATM   13  N   UNL     1      -9.776  14.789  68.670  1.00  0.00    -0.220 NA 
HETATM   14  H   UNL     1     -10.433  15.077  69.396  1.00  0.00     0.000 HD 
BRANCH  13  15
HETATM   15  C   UNL     1     -10.371  13.757  67.827  1.00  0.00    -0.241 C  
BRANCH  15  16
HETATM   16  C   UNL     1     -10.093  12.371  68.404  1.00  0.00    -0.217 C  
BRANCH  16  17
HETATM   17  C   UNL     1      -8.586  12.169  68.578  1.00  0.00    -0.079 C  
BRANCH  17  18
HETATM   18  C   UNL     1      -7.971  11.567  67.343  1.00  0.00    -0.143 A  
HETATM   19  C   UNL     1      -8.193  10.776  65.047  1.00  0.00    -0.005 A  
HETATM   20  C   UNL     1      -9.024  10.552  63.809  1.00  0.00    -0.215 C  
HETATM   21  C   UNL     1      -8.740  11.391  66.184  1.00  0.00    -0.153 A  
HETATM   22  C   UNL     1      -6.086  10.523  66.233  1.00  0.00    -0.096 A  
HETATM   23  F   UNL     1     -10.302  11.015  63.917  1.00  0.00    -0.338 F  
HETATM   24  F   UNL     1      -8.501  11.162  62.710  1.00  0.00    -0.195 F  
HETATM   25  F   UNL     1      -9.135   9.232  63.487  1.00  0.00    -0.241 F  
HETATM   26  C   UNL     1      -6.858  10.347  65.082  1.00  0.00    -0.085 A  
HETATM   27  C   UNL     1      -6.643  11.127  67.357  1.00  0.00    -0.076 A  
ENDBRANCH  17  18
ENDBRANCH  16  17
ENDBRANCH  15  16
ENDBRANCH  13  15
ENDBRANCH   2  13
TORSDOF 6
ENDMDL
MODEL      369
REMARK 921   NORMALIZED FREE ENERGY PREDICTED BY IDOCK:   -2.42 KCAL/MOL
REMARK 922        TOTAL FREE ENERGY PREDICTED BY IDOCK:   -6.40 KCAL/MOL
REMARK 923 INTER-LIGAND FREE ENERGY PREDICTED BY IDOCK:   -5.36 KCAL/MOL
REMARK 924 INTRA-LIGAND FREE ENERGY PREDICTED BY IDOCK:   -1.03 KCAL/MOL
REMARK 927      BINDING AFFINITY PREDICTED BY RF-SCORE:    0.00 PKD
ROOT
HETATM    1  C   UNL     1     -10.745   7.804  67.711  1.00  0.00    -0.197 C  
HETATM    2  C   UNL     1     -10.597   9.327  67.548  1.00  0.00    -0.262 C  
ENDROOT
BRANCH   2   3
HETATM    3  C   UNL     1      -9.824   9.752  66.296  1.00  0.00    -0.315 A  
HETATM    4  C   UNL     1     -11.400  13.050  65.283  1.00  0.00    -0.325 A  
HETATM    5  C   UNL     1      -8.807   8.916  65.791  1.00  0.00    -0.223 A  
HETATM    6  C   UNL     1     -10.792  13.256  64.055  1.00  0.00    -0.287 A  
HETATM    7  C   UNL     1     -11.068  11.926  66.046  1.00  0.00    -0.369 A  
HETATM    8  C   UNL     1      -9.824  12.359  63.608  1.00  0.00    -0.073 A  
HETATM    9  C   UNL     1      -8.137   9.221  64.612  1.00  0.00    -0.136 A  
HETATM   10  C   UNL     1      -8.485  10.359  63.896  1.00  0.00    -0.161 A  
HETATM   11  C   UNL     1     -10.133  10.963  65.599  1.00  0.00    -0.318 A  
HETATM   12  C   UNL     1      -9.478  11.228  64.366  1.00  0.00    -0.206 A  
ENDBRANCH   2   3
BRANCH   2  13
HETATM   13  N   UNL     1     -10.135   9.991  68.780  1.00  0.00    -0.176 NA 
HETATM   14  H   UNL     1      -9.731  10.903  68.562  1.00  0.00     0.000 HD 
BRANCH  13  15
HETATM   15  C   UNL     1     -11.154  10.121  69.815  1.00  0.00    -0.279 C  
BRANCH  15  16
HETATM   16  C   UNL     1     -10.580   9.745  71.180  1.00  0.00    -0.215 C  
BRANCH  16  17
HETATM   17  C   UNL     1     -11.332   8.539  71.750  1.00  0.00    -0.377 C  
BRANCH  17  18
HETATM   18  C   UNL     1     -10.391   7.407  72.061  1.00  0.00    -0.223 A  
HETATM   19  C   UNL     1      -9.026   5.531  71.309  1.00  0.00    -0.153 A  
HETATM   20  C   UNL     1      -8.477   4.667  70.203  1.00  0.00    -0.074 C  
HETATM   21  C   UNL     1      -9.857   6.627  71.026  1.00  0.00    -0.196 A  
HETATM   22  C   UNL     1      -9.253   6.010  73.681  1.00  0.00    -0.127 A  
HETATM   23  F   UNL     1      -8.850   5.071  68.955  1.00  0.00    -0.091 F  
HETATM   24  F   UNL     1      -7.115   4.636  70.190  1.00  0.00    -0.044 F  
HETATM   25  F   UNL     1      -8.879   3.369  70.307  1.00  0.00    -0.096 F  
HETATM   26  C   UNL     1      -8.727   5.233  72.647  1.00  0.00    -0.120 A  
HETATM   27  C   UNL     1     -10.083   7.089  73.388  1.00  0.00    -0.320 A  
ENDBRANCH  17  18
ENDBRANCH  16  17
ENDBRANCH  15  16
ENDBRANCH  13  15
ENDBRANCH   2  13
TORSDOF 6
ENDMDL
MODEL      370
REMARK 921   NORMALIZED FREE ENERGY PREDICTED BY IDOCK:   -2.42 KCAL/MOL
REMARK 922        TOTAL FREE ENERGY PREDICTED BY IDOCK:   -6.39 KCAL/MOL
REMARK 923 INTER-LIGAND FREE ENERGY PREDICTED BY IDOCK:   -5.72 KCAL/MOL
REMARK 924 INTRA-LIGAND FREE ENERGY PREDICTED BY IDOCK:   -0.67 KCAL/MOL
REMARK 927      BINDING AFFINITY PREDICTED BY RF-SCORE:    0.00 PKD
ROOT
HETATM    1  C   UNL     1     -10.062  15.902  69.532  1.00  0.00    -0.277 C  
HETATM    2  C   UNL     1      -9.532  16.066  68.097  1.00  0.00    -0.208 C  
ENDROOT
BRANCH   2   3
HETATM    3  C   UNL     1      -9.492  17.516  67.605  1.00  0.00    -0.256 A  
HETATM    4  C   UNL     1      -6.066  17.887  66.020  1.00  0.00    -0.265 A  
HETATM    5  C   UNL     1     -10.600  18.358  67.837  1.00  0.00    -0.379 A  
HETATM    6  C   UNL     1      -6.039  19.253  65.790  1.00  0.00    -0.223 A  
HETATM    7  C   UNL     1      -7.203  17.297  66.581  1.00  0.00    -0.278 A  
HETATM    8  C   UNL     1      -7.163  20.022  66.085  1.00  0.00    -0.310 A  
HETATM    9  C   UNL     1     -10.575  19.702  67.482  1.00  0.00    -0.577 A  
HETATM   10  C   UNL     1      -9.432  20.243  66.908  1.00  0.00    -0.531 A  
HETATM   11  C   UNL     1      -8.342  18.054  66.947  1.00  0.00    -0.263 A  
HETATM   12  C   UNL     1      -8.313  19.442  66.645  1.00  0.00    -0.326 A  
ENDBRANCH   2   3
BRANCH   2  13
HETATM   13  N   UNL     1     -10.166  15.138  67.144  1.00  0.00    -0.244 NA 
HETATM   14  H   UNL     1      -9.835  15.320  66.196  1.00  0.00     0.000 HD 
BRANCH  13  15
HETATM   15  C   UNL     1     -10.003  13.727  67.476  1.00  0.00    -0.233 C  
BRANCH  15  16
HETATM   16  C   UNL     1      -8.988  13.072  66.542  1.00  0.00    -0.076 C  
BRANCH  16  17
HETATM   17  C   UNL     1      -8.634  11.673  67.053  1.00  0.00    -0.169 C  
BRANCH  17  18
HETATM   18  C   UNL     1      -8.767  10.644  65.962  1.00  0.00    -0.186 A  
HETATM   19  C   UNL     1      -8.564   8.336  65.203  1.00  0.00    -0.132 A  
HETATM   20  C   UNL     1      -8.243   6.887  65.474  1.00  0.00    -0.135 C  
HETATM   21  C   UNL     1      -8.500   9.294  66.228  1.00  0.00    -0.133 A  
HETATM   22  C   UNL     1      -9.181  10.091  63.640  1.00  0.00    -0.314 A  
HETATM   23  F   UNL     1      -7.921   6.631  66.774  1.00  0.00    -0.101 F  
HETATM   24  F   UNL     1      -9.284   6.058  65.181  1.00  0.00    -0.040 F  
HETATM   25  F   UNL     1      -7.189   6.440  64.737  1.00  0.00    -0.054 F  
HETATM   26  C   UNL     1      -8.910   8.748  63.908  1.00  0.00     0.127 A  
HETATM   27  C   UNL     1      -9.106  11.033  64.662  1.00  0.00    -0.138 A  
ENDBRANCH  17  18
ENDBRANCH  16  17
ENDBRANCH  15  16
ENDBRANCH  13  15
ENDBRANCH   2  13
TORSDOF 6
ENDMDL
MODEL      371
REMARK 921   NORMALIZED FREE ENERGY PREDICTED BY IDOCK:   -2.40 KCAL/MOL
REMARK 922        TOTAL FREE ENERGY PREDICTED BY IDOCK:   -6.37 KCAL/MOL
REMARK 923 INTER-LIGAND FREE ENERGY PREDICTED BY IDOCK:   -5.55 KCAL/MOL
REMARK 924 INTRA-LIGAND FREE ENERGY PREDICTED BY IDOCK:   -0.83 KCAL/MOL
REMARK 927      BINDING AFFINITY PREDICTED BY RF-SCORE:    0.00 PKD
ROOT
HETATM    1  C   UNL     1     -11.325   8.461  70.105  1.00  0.00    -0.065 C  
HETATM    2  C   UNL     1     -10.238   9.515  69.830  1.00  0.00    -0.231 C  
ENDROOT
BRANCH   2   3
HETATM    3  C   UNL     1      -8.907   9.244  70.538  1.00  0.00    -0.285 A  
HETATM    4  C   UNL     1      -6.285  10.721  68.230  1.00  0.00    -0.053 A  
HETATM    5  C   UNL     1      -8.903   8.544  71.762  1.00  0.00    -0.278 A  
HETATM    6  C   UNL     1      -5.126  10.260  68.834  1.00  0.00    -0.035 A  
HETATM    7  C   UNL     1      -7.530  10.427  68.795  1.00  0.00    -0.093 A  
HETATM    8  C   UNL     1      -5.211   9.539  70.023  1.00  0.00    -0.032 A  
HETATM    9  C   UNL     1      -7.715   8.202  72.398  1.00  0.00    -0.161 A  
HETATM   10  C   UNL     1      -6.500   8.532  71.811  1.00  0.00    -0.070 A  
HETATM   11  C   UNL     1      -7.659   9.648  69.970  1.00  0.00    -0.151 A  
HETATM   12  C   UNL     1      -6.454   9.240  70.604  1.00  0.00    -0.073 A  
ENDBRANCH   2   3
BRANCH   2  13
HETATM   13  N   UNL     1     -10.724  10.896  70.000  1.00  0.00    -0.463 NA 
HETATM   14  H   UNL     1      -9.964  11.561  69.855  1.00  0.00     0.000 HD 
BRANCH  13  15
HETATM   15  C   UNL     1     -11.868  11.241  69.162  1.00  0.00    -0.355 C  
BRANCH  15  16
HETATM   16  C   UNL     1     -11.399  11.716  67.788  1.00  0.00    -0.356 C  
BRANCH  16  17
HETATM   17  C   UNL     1     -12.121  13.011  67.407  1.00  0.00    -0.290 C  
BRANCH  17  18
HETATM   18  C   UNL     1     -11.685  14.155  68.282  1.00  0.00    -0.383 A  
HETATM   19  C   UNL     1     -10.041  15.859  68.862  1.00  0.00    -0.225 A  
HETATM   20  C   UNL     1      -8.734  16.566  68.603  1.00  0.00    -0.244 C  
HETATM   21  C   UNL     1     -10.486  14.830  68.017  1.00  0.00    -0.246 A  
HETATM   22  C   UNL     1     -12.019  15.545  70.238  1.00  0.00    -0.401 A  
HETATM   23  F   UNL     1      -8.081  16.120  67.492  1.00  0.00    -0.138 F  
HETATM   24  F   UNL     1      -8.891  17.908  68.426  1.00  0.00    -0.258 F  
HETATM   25  F   UNL     1      -7.853  16.426  69.632  1.00  0.00    -0.202 F  
HETATM   26  C   UNL     1     -10.821  16.212  69.972  1.00  0.00    -0.349 A  
HETATM   27  C   UNL     1     -12.445  14.520  69.397  1.00  0.00    -0.113 A  
ENDBRANCH  17  18
ENDBRANCH  16  17
ENDBRANCH  15  16
ENDBRANCH  13  15
ENDBRANCH   2  13
TORSDOF 6
ENDMDL
MODEL      372
REMARK 921   NORMALIZED FREE ENERGY PREDICTED BY IDOCK:   -2.39 KCAL/MOL
REMARK 922        TOTAL FREE ENERGY PREDICTED BY IDOCK:   -6.35 KCAL/MOL
REMARK 923 INTER-LIGAND FREE ENERGY PREDICTED BY IDOCK:   -6.13 KCAL/MOL
REMARK 924 INTRA-LIGAND FREE ENERGY PREDICTED BY IDOCK:   -0.22 KCAL/MOL
REMARK 927      BINDING AFFINITY PREDICTED BY RF-SCORE:    0.00 PKD
ROOT
HETATM    1  C   UNL     1      -7.424   9.502  69.889  1.00  0.00    -0.113 C  
HETATM    2  C   UNL     1      -8.899   9.269  69.519  1.00  0.00    -0.151 C  
ENDROOT
BRANCH   2   3
HETATM    3  C   UNL     1      -9.162   7.950  68.787  1.00  0.00    -0.143 A  
HETATM    4  C   UNL     1      -7.579   8.427  65.373  1.00  0.00    -0.092 A  
HETATM    5  C   UNL     1      -9.891   6.931  69.434  1.00  0.00    -0.161 A  
HETATM    6  C   UNL     1      -8.031   7.290  64.722  1.00  0.00    -0.122 A  
HETATM    7  C   UNL     1      -7.911   8.640  66.715  1.00  0.00    -0.094 A  
HETATM    8  C   UNL     1      -8.782   6.349  65.424  1.00  0.00    -0.033 A  
HETATM    9  C   UNL     1     -10.225   5.750  68.779  1.00  0.00    -0.255 A  
HETATM   10  C   UNL     1      -9.857   5.571  67.452  1.00  0.00    -0.167 A  
HETATM   11  C   UNL     1      -8.719   7.736  67.444  1.00  0.00    -0.128 A  
HETATM   12  C   UNL     1      -9.119   6.549  66.773  1.00  0.00    -0.153 A  
ENDBRANCH   2   3
BRANCH   2  13
HETATM   13  N   UNL     1      -9.516  10.438  68.866  1.00  0.00    -0.177 NA 
HETATM   14  H   UNL     1      -9.020  10.667  68.005  1.00  0.00     0.000 HD 
BRANCH  13  15
HETATM   15  C   UNL     1     -10.946  10.302  68.609  1.00  0.00    -0.244 C  
BRANCH  15  16
HETATM   16  C   UNL     1     -11.350  11.132  67.393  1.00  0.00    -0.329 C  
BRANCH  16  17
HETATM   17  C   UNL     1     -10.421  12.341  67.251  1.00  0.00    -0.236 C  
BRANCH  17  18
HETATM   18  C   UNL     1     -10.921  13.511  68.056  1.00  0.00    -0.271 A  
HETATM   19  C   UNL     1     -12.002  14.385  70.058  1.00  0.00    -0.394 A  
HETATM   20  C   UNL     1     -12.636  14.169  71.410  1.00  0.00    -0.368 C  
HETATM   21  C   UNL     1     -11.479  13.308  69.326  1.00  0.00    -0.345 A  
HETATM   22  C   UNL     1     -11.392  15.880  68.242  1.00  0.00    -0.342 A  
HETATM   23  F   UNL     1     -12.619  12.869  71.822  1.00  0.00    -0.359 F  
HETATM   24  F   UNL     1     -12.017  14.878  72.396  1.00  0.00    -0.392 F  
HETATM   25  F   UNL     1     -13.943  14.550  71.440  1.00  0.00    -0.408 F  
HETATM   26  C   UNL     1     -11.950  15.673  69.505  1.00  0.00    -0.363 A  
HETATM   27  C   UNL     1     -10.884  14.802  67.521  1.00  0.00    -0.287 A  
ENDBRANCH  17  18
ENDBRANCH  16  17
ENDBRANCH  15  16
ENDBRANCH  13  15
ENDBRANCH   2  13
TORSDOF 6
ENDMDL
MODEL      373
REMARK 921   NORMALIZED FREE ENERGY PREDICTED BY IDOCK:   -2.38 KCAL/MOL
REMARK 922        TOTAL FREE ENERGY PREDICTED BY IDOCK:   -6.34 KCAL/MOL
REMARK 923 INTER-LIGAND FREE ENERGY PREDICTED BY IDOCK:   -6.51 KCAL/MOL
REMARK 924 INTRA-LIGAND FREE ENERGY PREDICTED BY IDOCK:    0.16 KCAL/MOL
REMARK 927      BINDING AFFINITY PREDICTED BY RF-SCORE:    0.00 PKD
ROOT
HETATM    1  C   UNL     1     -10.264  17.110  69.911  1.00  0.00     0.290 C  
HETATM    2  C   UNL     1     -11.438  16.406  69.208  1.00  0.00    -0.165 C  
ENDROOT
BRANCH   2   3
HETATM    3  C   UNL     1     -11.725  14.995  69.728  1.00  0.00    -0.341 A  
HETATM    4  C   UNL     1     -13.869  15.538  72.810  1.00  0.00    -0.606 A  
HETATM    5  C   UNL     1     -11.172  13.883  69.060  1.00  0.00    -0.312 A  
HETATM    6  C   UNL     1     -13.910  14.250  73.321  1.00  0.00     0.903 A  
HETATM    7  C   UNL     1     -13.188  15.792  71.616  1.00  0.00    -0.462 A  
HETATM    8  C   UNL     1     -13.304  13.212  72.618  1.00  0.00    -0.375 A  
HETATM    9  C   UNL     1     -11.337  12.590  69.544  1.00  0.00    -0.240 A  
HETATM   10  C   UNL     1     -12.039  12.380  70.724  1.00  0.00    -0.245 A  
HETATM   11  C   UNL     1     -12.510  14.774  70.903  1.00  0.00    -0.396 A  
HETATM   12  C   UNL     1     -12.619  13.452  71.415  1.00  0.00    -0.374 A  
ENDBRANCH   2   3
BRANCH   2  13
HETATM   13  N   UNL     1     -11.356  16.487  67.739  1.00  0.00    -0.093 NA 
HETATM   14  H   UNL     1     -12.290  16.557  67.334  1.00  0.00     0.000 HD 
BRANCH  13  15
HETATM   15  C   UNL     1     -10.503  17.560  67.239  1.00  0.00    -0.327 C  
BRANCH  15  16
HETATM   16  C   UNL     1      -9.038  17.268  67.555  1.00  0.00    -0.223 C  
BRANCH  16  17
HETATM   17  C   UNL     1      -8.372  16.581  66.360  1.00  0.00    -0.358 C  
BRANCH  17  18
HETATM   18  C   UNL     1      -8.985  15.232  66.095  1.00  0.00    -0.251 A  
HETATM   19  C   UNL     1     -10.725  13.874  65.059  1.00  0.00    -0.397 A  
HETATM   20  C   UNL     1     -11.954  13.749  64.195  1.00  0.00    -0.432 C  
HETATM   21  C   UNL     1     -10.109  15.118  65.264  1.00  0.00    -0.365 A  
HETATM   22  C   UNL     1      -9.071  12.847  66.514  1.00  0.00    -0.138 A  
HETATM   23  F   UNL     1     -12.362  14.930  63.649  1.00  0.00    -0.308 F  
HETATM   24  F   UNL     1     -11.773  12.899  63.145  1.00  0.00    -0.556 F  
HETATM   25  F   UNL     1     -13.028  13.269  64.883  1.00  0.00    -0.424 F  
HETATM   26  C   UNL     1     -10.192  12.739  65.689  1.00  0.00    -0.292 A  
HETATM   27  C   UNL     1      -8.474  14.089  66.717  1.00  0.00    -0.019 A  
ENDBRANCH  17  18
ENDBRANCH  16  17
ENDBRANCH  15  16
ENDBRANCH  13  15
ENDBRANCH   2  13
TORSDOF 6
ENDMDL
MODEL      374
REMARK 921   NORMALIZED FREE ENERGY PREDICTED BY IDOCK:   -2.37 KCAL/MOL
REMARK 922        TOTAL FREE ENERGY PREDICTED BY IDOCK:   -6.33 KCAL/MOL
REMARK 923 INTER-LIGAND FREE ENERGY PREDICTED BY IDOCK:   -5.90 KCAL/MOL
REMARK 924 INTRA-LIGAND FREE ENERGY PREDICTED BY IDOCK:   -0.44 KCAL/MOL
REMARK 927      BINDING AFFINITY PREDICTED BY RF-SCORE:    0.00 PKD
ROOT
HETATM    1  C   UNL     1     -11.810  14.248  66.874  1.00  0.00    -0.458 C  
HETATM    2  C   UNL     1     -10.321  14.580  67.082  1.00  0.00    -0.265 C  
ENDROOT
BRANCH   2   3
HETATM    3  C   UNL     1      -9.960  16.042  66.809  1.00  0.00    -0.265 A  
HETATM    4  C   UNL     1      -7.076  16.765  69.164  1.00  0.00    -0.222 A  
HETATM    5  C   UNL     1     -10.706  16.775  65.862  1.00  0.00    -0.166 A  
HETATM    6  C   UNL     1      -6.950  18.135  68.999  1.00  0.00    -0.262 A  
HETATM    7  C   UNL     1      -8.033  16.059  68.428  1.00  0.00    -0.151 A  
HETATM    8  C   UNL     1      -7.754  18.792  68.070  1.00  0.00    -0.286 A  
HETATM    9  C   UNL     1     -10.468  18.128  65.642  1.00  0.00    -0.103 A  
HETATM   10  C   UNL     1      -9.493  18.785  66.381  1.00  0.00    -0.336 A  
HETATM   11  C   UNL     1      -8.907  16.701  67.518  1.00  0.00    -0.202 A  
HETATM   12  C   UNL     1      -8.717  18.095  67.321  1.00  0.00    -0.244 A  
ENDBRANCH   2   3
BRANCH   2  13
HETATM   13  N   UNL     1      -9.423  13.617  66.421  1.00  0.00    -0.387 NA 
HETATM   14  H   UNL     1      -8.450  13.902  66.536  1.00  0.00     0.000 HD 
BRANCH  13  15
HETATM   15  C   UNL     1      -9.601  12.233  66.847  1.00  0.00    -0.213 C  
BRANCH  15  16
HETATM   16  C   UNL     1      -8.943  11.280  65.851  1.00  0.00    -0.206 C  
BRANCH  16  17
HETATM   17  C   UNL     1      -9.948  10.213  65.406  1.00  0.00    -0.377 C  
BRANCH  17  18
HETATM   18  C   UNL     1      -9.888   9.002  66.298  1.00  0.00    -0.361 A  
HETATM   19  C   UNL     1      -9.269   6.671  66.650  1.00  0.00    -0.179 A  
HETATM   20  C   UNL     1      -8.642   5.390  66.160  1.00  0.00    -0.126 C  
HETATM   21  C   UNL     1      -9.276   7.824  65.850  1.00  0.00    -0.078 A  
HETATM   22  C   UNL     1     -10.482   7.890  68.367  1.00  0.00    -0.207 A  
HETATM   23  F   UNL     1      -8.094   5.489  64.916  1.00  0.00    -0.098 F  
HETATM   24  F   UNL     1      -7.639   4.953  66.973  1.00  0.00    -0.082 F  
HETATM   25  F   UNL     1      -9.538   4.366  66.089  1.00  0.00    -0.136 F  
HETATM   26  C   UNL     1      -9.875   6.717  67.914  1.00  0.00    -0.146 A  
HETATM   27  C   UNL     1     -10.491   9.025  67.559  1.00  0.00    -0.338 A  
ENDBRANCH  17  18
ENDBRANCH  16  17
ENDBRANCH  15  16
ENDBRANCH  13  15
ENDBRANCH   2  13
TORSDOF 6
ENDMDL
MODEL      375
REMARK 921   NORMALIZED FREE ENERGY PREDICTED BY IDOCK:   -2.37 KCAL/MOL
REMARK 922        TOTAL FREE ENERGY PREDICTED BY IDOCK:   -6.33 KCAL/MOL
REMARK 923 INTER-LIGAND FREE ENERGY PREDICTED BY IDOCK:   -5.68 KCAL/MOL
REMARK 924 INTRA-LIGAND FREE ENERGY PREDICTED BY IDOCK:   -0.65 KCAL/MOL
REMARK 927      BINDING AFFINITY PREDICTED BY RF-SCORE:    0.00 PKD
ROOT
HETATM    1  C   UNL     1     -11.078  10.256  67.773  1.00  0.00    -0.335 C  
HETATM    2  C   UNL     1     -10.162  11.418  67.346  1.00  0.00    -0.193 C  
ENDROOT
BRANCH   2   3
HETATM    3  C   UNL     1     -10.688  12.225  66.155  1.00  0.00    -0.296 A  
HETATM    4  C   UNL     1      -9.463  15.758  66.790  1.00  0.00    -0.259 A  
HETATM    5  C   UNL     1     -11.469  11.583  65.172  1.00  0.00    -0.090 A  
HETATM    6  C   UNL     1     -10.141  16.445  65.795  1.00  0.00    -0.352 A  
HETATM    7  C   UNL     1      -9.604  14.372  66.900  1.00  0.00    -0.263 A  
HETATM    8  C   UNL     1     -10.926  15.739  64.886  1.00  0.00    -0.443 A  
HETATM    9  C   UNL     1     -12.036  12.293  64.119  1.00  0.00    -0.518 A  
HETATM   10  C   UNL     1     -11.854  13.667  64.037  1.00  0.00    -0.444 A  
HETATM   11  C   UNL     1     -10.438  13.628  66.031  1.00  0.00    -0.300 A  
HETATM   12  C   UNL     1     -11.073  14.346  64.981  1.00  0.00    -0.385 A  
ENDBRANCH   2   3
BRANCH   2  13
HETATM   13  N   UNL     1      -8.752  11.013  67.207  1.00  0.00    -0.129 NA 
HETATM   14  H   UNL     1      -8.157  11.588  67.804  1.00  0.00     0.000 HD 
BRANCH  13  15
HETATM   15  C   UNL     1      -8.503   9.597  67.454  1.00  0.00    -0.125 C  
BRANCH  15  16
HETATM   16  C   UNL     1      -7.004   9.306  67.428  1.00  0.00    -0.078 C  
BRANCH  16  17
HETATM   17  C   UNL     1      -6.763   7.794  67.449  1.00  0.00    -0.068 C  
BRANCH  17  18
HETATM   18  C   UNL     1      -7.283   7.177  68.719  1.00  0.00    -0.094 A  
HETATM   19  C   UNL     1      -8.885   5.739  69.864  1.00  0.00    -0.130 A  
HETATM   20  C   UNL     1     -10.060   4.794  69.831  1.00  0.00    -0.229 C  
HETATM   21  C   UNL     1      -8.354   6.274  68.680  1.00  0.00    -0.112 A  
HETATM   22  C   UNL     1      -7.249   7.009  71.136  1.00  0.00    -0.075 A  
HETATM   23  F   UNL     1     -10.508   4.521  68.572  1.00  0.00    -0.087 F  
HETATM   24  F   UNL     1      -9.776   3.586  70.393  1.00  0.00    -0.236 F  
HETATM   25  F   UNL     1     -11.137   5.278  70.510  1.00  0.00    -0.270 F  
HETATM   26  C   UNL     1      -8.319   6.113  71.092  1.00  0.00    -0.124 A  
HETATM   27  C   UNL     1      -6.738   7.540  69.955  1.00  0.00    -0.046 A  
ENDBRANCH  17  18
ENDBRANCH  16  17
ENDBRANCH  15  16
ENDBRANCH  13  15
ENDBRANCH   2  13
TORSDOF 6
ENDMDL
MODEL      376
REMARK 921   NORMALIZED FREE ENERGY PREDICTED BY IDOCK:   -2.37 KCAL/MOL
REMARK 922        TOTAL FREE ENERGY PREDICTED BY IDOCK:   -6.33 KCAL/MOL
REMARK 923 INTER-LIGAND FREE ENERGY PREDICTED BY IDOCK:   -6.24 KCAL/MOL
REMARK 924 INTRA-LIGAND FREE ENERGY PREDICTED BY IDOCK:   -0.10 KCAL/MOL
REMARK 927      BINDING AFFINITY PREDICTED BY RF-SCORE:    0.00 PKD
ROOT
HETATM    1  C   UNL     1     -11.714  14.104  66.948  1.00  0.00    -0.437 C  
HETATM    2  C   UNL     1     -10.493  14.028  67.881  1.00  0.00    -0.241 C  
ENDROOT
BRANCH   2   3
HETATM    3  C   UNL     1      -9.307  14.889  67.433  1.00  0.00    -0.202 A  
HETATM    4  C   UNL     1      -6.281  13.224  69.000  1.00  0.00    -0.093 A  
HETATM    5  C   UNL     1      -9.540  16.030  66.639  1.00  0.00    -0.258 A  
HETATM    6  C   UNL     1      -5.301  14.162  68.719  1.00  0.00    -0.087 A  
HETATM    7  C   UNL     1      -7.590  13.429  68.556  1.00  0.00    -0.127 A  
HETATM    8  C   UNL     1      -5.622  15.286  67.960  1.00  0.00    -0.146 A  
HETATM    9  C   UNL     1      -8.505  16.886  66.279  1.00  0.00    -0.322 A  
HETATM   10  C   UNL     1      -7.214  16.633  66.726  1.00  0.00    -0.272 A  
HETATM   11  C   UNL     1      -7.968  14.586  67.833  1.00  0.00    -0.152 A  
HETATM   12  C   UNL     1      -6.932  15.503  67.504  1.00  0.00    -0.223 A  
ENDBRANCH   2   3
BRANCH   2  13
HETATM   13  N   UNL     1     -10.120  12.644  68.224  1.00  0.00    -0.230 NA 
HETATM   14  H   UNL     1     -10.466  12.403  69.153  1.00  0.00     0.000 HD 
BRANCH  13  15
HETATM   15  C   UNL     1     -10.543  11.645  67.248  1.00  0.00    -0.228 C  
BRANCH  15  16
HETATM   16  C   UNL     1     -11.472  10.623  67.900  1.00  0.00    -0.261 C  
BRANCH  16  17
HETATM   17  C   UNL     1     -11.414  10.760  69.424  1.00  0.00    -0.366 C  
BRANCH  17  18
HETATM   18  C   UNL     1     -10.675   9.605  70.047  1.00  0.00    -0.298 A  
HETATM   19  C   UNL     1     -10.705   7.497  71.270  1.00  0.00    -0.242 A  
HETATM   20  C   UNL     1     -11.461   6.373  71.933  1.00  0.00    -0.304 C  
HETATM   21  C   UNL     1     -11.384   8.547  70.633  1.00  0.00    -0.265 A  
HETATM   22  C   UNL     1      -8.593   8.563  70.714  1.00  0.00    -0.175 A  
HETATM   23  F   UNL     1     -12.815   6.486  71.827  1.00  0.00    -0.385 F  
HETATM   24  F   UNL     1     -11.150   5.153  71.412  1.00  0.00    -0.220 F  
HETATM   25  F   UNL     1     -11.200   6.286  73.268  1.00  0.00    -0.257 F  
HETATM   26  C   UNL     1      -9.302   7.513  71.301  1.00  0.00    -0.157 A  
HETATM   27  C   UNL     1      -9.278   9.604  70.094  1.00  0.00    -0.287 A  
ENDBRANCH  17  18
ENDBRANCH  16  17
ENDBRANCH  15  16
ENDBRANCH  13  15
ENDBRANCH   2  13
TORSDOF 6
ENDMDL
MODEL      377
REMARK 921   NORMALIZED FREE ENERGY PREDICTED BY IDOCK:   -2.36 KCAL/MOL
REMARK 922        TOTAL FREE ENERGY PREDICTED BY IDOCK:   -6.32 KCAL/MOL
REMARK 923 INTER-LIGAND FREE ENERGY PREDICTED BY IDOCK:   -5.07 KCAL/MOL
REMARK 924 INTRA-LIGAND FREE ENERGY PREDICTED BY IDOCK:   -1.25 KCAL/MOL
REMARK 927      BINDING AFFINITY PREDICTED BY RF-SCORE:    0.00 PKD
ROOT
HETATM    1  C   UNL     1      -7.507   7.837  65.182  1.00  0.00    -0.083 C  
HETATM    2  C   UNL     1      -8.732   7.483  66.044  1.00  0.00    -0.158 C  
ENDROOT
BRANCH   2   3
HETATM    3  C   UNL     1      -9.096   8.547  67.083  1.00  0.00    -0.164 A  
HETATM    4  C   UNL     1     -10.911  11.226  65.104  1.00  0.00    -0.216 A  
HETATM    5  C   UNL     1      -8.702   8.368  68.425  1.00  0.00    -0.136 A  
HETATM    6  C   UNL     1     -11.021  12.220  66.063  1.00  0.00    -0.327 A  
HETATM    7  C   UNL     1     -10.315  10.004  65.432  1.00  0.00    -0.111 A  
HETATM    8  C   UNL     1     -10.571  11.978  67.359  1.00  0.00    -0.253 A  
HETATM    9  C   UNL     1      -8.938   9.346  69.386  1.00  0.00    -0.157 A  
HETATM   10  C   UNL     1      -9.552  10.537  69.021  1.00  0.00    -0.213 A  
HETATM   11  C   UNL     1      -9.794   9.742  66.721  1.00  0.00    -0.265 A  
HETATM   12  C   UNL     1      -9.974  10.753  67.703  1.00  0.00    -0.199 A  
ENDBRANCH   2   3
BRANCH   2  13
HETATM   13  N   UNL     1      -8.668   6.118  66.595  1.00  0.00    -0.121 NA 
HETATM   14  H   UNL     1      -8.406   6.145  67.581  1.00  0.00     0.000 HD 
BRANCH  13  15
HETATM   15  C   UNL     1      -9.886   5.336  66.414  1.00  0.00    -0.186 C  
BRANCH  15  16
HETATM   16  C   UNL     1     -10.501   4.985  67.768  1.00  0.00    -0.053 C  
BRANCH  16  17
HETATM   17  C   UNL     1      -9.483   5.230  68.884  1.00  0.00    -0.173 C  
BRANCH  17  18
HETATM   18  C   UNL     1     -10.051   6.126  69.952  1.00  0.00    -0.227 A  
HETATM   19  C   UNL     1      -9.905   7.106  72.180  1.00  0.00    -0.171 A  
HETATM   20  C   UNL     1      -9.179   7.292  73.489  1.00  0.00    -0.198 C  
HETATM   21  C   UNL     1      -9.356   6.321  71.154  1.00  0.00    -0.169 A  
HETATM   22  C   UNL     1     -11.852   7.517  70.785  1.00  0.00    -0.254 A  
HETATM   23  F   UNL     1      -7.975   6.653  73.543  1.00  0.00    -0.094 F  
HETATM   24  F   UNL     1      -8.915   8.601  73.760  1.00  0.00    -0.216 F  
HETATM   25  F   UNL     1      -9.893   6.827  74.551  1.00  0.00    -0.270 F  
HETATM   26  C   UNL     1     -11.158   7.705  71.982  1.00  0.00    -0.300 A  
HETATM   27  C   UNL     1     -11.301   6.728  69.778  1.00  0.00    -0.350 A  
ENDBRANCH  17  18
ENDBRANCH  16  17
ENDBRANCH  15  16
ENDBRANCH  13  15
ENDBRANCH   2  13
TORSDOF 6
ENDMDL
MODEL      378
REMARK 921   NORMALIZED FREE ENERGY PREDICTED BY IDOCK:   -2.36 KCAL/MOL
REMARK 922        TOTAL FREE ENERGY PREDICTED BY IDOCK:   -6.32 KCAL/MOL
REMARK 923 INTER-LIGAND FREE ENERGY PREDICTED BY IDOCK:   -5.05 KCAL/MOL
REMARK 924 INTRA-LIGAND FREE ENERGY PREDICTED BY IDOCK:   -1.27 KCAL/MOL
REMARK 927      BINDING AFFINITY PREDICTED BY RF-SCORE:    0.00 PKD
ROOT
HETATM    1  C   UNL     1      -5.506   9.561  64.811  1.00  0.00    -0.056 C  
HETATM    2  C   UNL     1      -7.011   9.880  64.844  1.00  0.00    -0.131 C  
ENDROOT
BRANCH   2   3
HETATM    3  C   UNL     1      -7.798   9.085  65.890  1.00  0.00    -0.102 A  
HETATM    4  C   UNL     1      -8.038   5.588  64.440  1.00  0.00    -0.124 A  
HETATM    5  C   UNL     1      -8.263   9.736  67.051  1.00  0.00    -0.117 A  
HETATM    6  C   UNL     1      -8.920   5.003  65.334  1.00  0.00    -0.152 A  
HETATM    7  C   UNL     1      -7.633   6.913  64.627  1.00  0.00    -0.106 A  
HETATM    8  C   UNL     1      -9.365   5.729  66.436  1.00  0.00    -0.168 A  
HETATM    9  C   UNL     1      -9.052   9.075  67.986  1.00  0.00    -0.140 A  
HETATM   10  C   UNL     1      -9.414   7.752  67.770  1.00  0.00    -0.163 A  
HETATM   11  C   UNL     1      -8.109   7.702  65.702  1.00  0.00    -0.127 A  
HETATM   12  C   UNL     1      -8.963   7.059  66.639  1.00  0.00    -0.157 A  
ENDBRANCH   2   3
BRANCH   2  13
HETATM   13  N   UNL     1      -7.628   9.866  63.506  1.00  0.00    -0.139 NA 
HETATM   14  H   UNL     1      -8.308   9.109  63.437  1.00  0.00     0.000 HD 
BRANCH  13  15
HETATM   15  C   UNL     1      -8.234  11.132  63.107  1.00  0.00     0.256 C  
BRANCH  15  16
HETATM   16  C   UNL     1      -9.727  10.949  62.841  1.00  0.00    -0.349 C  
BRANCH  16  17
HETATM   17  C   UNL     1     -10.483  10.827  64.166  1.00  0.00    -0.309 C  
BRANCH  17  18
HETATM   18  C   UNL     1     -10.552  12.152  64.878  1.00  0.00    -0.332 A  
HETATM   19  C   UNL     1     -10.665  13.428  66.952  1.00  0.00    -0.274 A  
HETATM   20  C   UNL     1     -10.689  13.487  68.459  1.00  0.00    -0.255 C  
HETATM   21  C   UNL     1     -10.541  12.203  66.279  1.00  0.00    -0.285 A  
HETATM   22  C   UNL     1     -10.798  14.561  64.807  1.00  0.00    -0.410 A  
HETATM   23  F   UNL     1     -10.561  12.268  69.057  1.00  0.00    -0.226 F  
HETATM   24  F   UNL     1      -9.687  14.256  68.969  1.00  0.00    -0.206 F  
HETATM   25  F   UNL     1     -11.849  14.016  68.942  1.00  0.00    -0.308 F  
HETATM   26  C   UNL     1     -10.790  14.606  66.202  1.00  0.00    -0.321 A  
HETATM   27  C   UNL     1     -10.683  13.338  64.150  1.00  0.00    -0.350 A  
ENDBRANCH  17  18
ENDBRANCH  16  17
ENDBRANCH  15  16
ENDBRANCH  13  15
ENDBRANCH   2  13
TORSDOF 6
ENDMDL
MODEL      379
REMARK 921   NORMALIZED FREE ENERGY PREDICTED BY IDOCK:   -2.36 KCAL/MOL
REMARK 922        TOTAL FREE ENERGY PREDICTED BY IDOCK:   -6.31 KCAL/MOL
REMARK 923 INTER-LIGAND FREE ENERGY PREDICTED BY IDOCK:   -6.05 KCAL/MOL
REMARK 924 INTRA-LIGAND FREE ENERGY PREDICTED BY IDOCK:   -0.27 KCAL/MOL
REMARK 927      BINDING AFFINITY PREDICTED BY RF-SCORE:    0.00 PKD
ROOT
HETATM    1  C   UNL     1     -10.872   9.397  67.954  1.00  0.00    -0.215 C  
HETATM    2  C   UNL     1     -10.936  10.879  68.365  1.00  0.00    -0.237 C  
ENDROOT
BRANCH   2   3
HETATM    3  C   UNL     1     -11.212  11.840  67.204  1.00  0.00    -0.375 A  
HETATM    4  C   UNL     1      -9.574  10.197  64.203  1.00  0.00    -0.336 A  
HETATM    5  C   UNL     1     -11.915  13.038  67.447  1.00  0.00    -0.372 A  
HETATM    6  C   UNL     1      -9.692  11.209  63.264  1.00  0.00    -0.398 A  
HETATM    7  C   UNL     1     -10.097  10.374  65.487  1.00  0.00    -0.352 A  
HETATM    8  C   UNL     1     -10.369  12.381  63.596  1.00  0.00    -0.434 A  
HETATM    9  C   UNL     1     -12.115  13.978  66.442  1.00  0.00    -0.483 A  
HETATM   10  C   UNL     1     -11.595  13.752  65.174  1.00  0.00    -0.341 A  
HETATM   11  C   UNL     1     -10.739  11.573  65.881  1.00  0.00    -0.325 A  
HETATM   12  C   UNL     1     -10.903  12.570  64.882  1.00  0.00    -0.327 A  
ENDBRANCH   2   3
BRANCH   2  13
HETATM   13  N   UNL     1      -9.802  11.288  69.211  1.00  0.00    -0.422 NA 
HETATM   14  H   UNL     1      -9.561  10.544  69.867  1.00  0.00     0.000 HD 
BRANCH  13  15
HETATM   15  C   UNL     1      -8.619  11.715  68.471  1.00  0.00    -0.134 C  
BRANCH  15  16
HETATM   16  C   UNL     1      -7.597  10.583  68.399  1.00  0.00    -0.097 C  
BRANCH  16  17
HETATM   17  C   UNL     1      -7.386   9.978  69.789  1.00  0.00    -0.141 C  
BRANCH  17  18
HETATM   18  C   UNL     1      -7.724   8.511  69.803  1.00  0.00    -0.092 A  
HETATM   19  C   UNL     1      -8.093   6.444  71.041  1.00  0.00    -0.121 A  
HETATM   20  C   UNL     1      -8.183   5.691  72.345  1.00  0.00    -0.111 C  
HETATM   21  C   UNL     1      -7.838   7.824  71.019  1.00  0.00    -0.089 A  
HETATM   22  C   UNL     1      -8.135   6.442  68.611  1.00  0.00    -0.113 A  
HETATM   23  F   UNL     1      -8.015   6.479  73.445  1.00  0.00    -0.098 F  
HETATM   24  F   UNL     1      -9.386   5.075  72.512  1.00  0.00    -0.135 F  
HETATM   25  F   UNL     1      -7.243   4.710  72.446  1.00  0.00    -0.068 F  
HETATM   26  C   UNL     1      -8.244   5.761  69.825  1.00  0.00    -0.108 A  
HETATM   27  C   UNL     1      -7.872   7.810  68.603  1.00  0.00    -0.120 A  
ENDBRANCH  17  18
ENDBRANCH  16  17
ENDBRANCH  15  16
ENDBRANCH  13  15
ENDBRANCH   2  13
TORSDOF 6
ENDMDL
MODEL      380
REMARK 921   NORMALIZED FREE ENERGY PREDICTED BY IDOCK:   -2.33 KCAL/MOL
REMARK 922        TOTAL FREE ENERGY PREDICTED BY IDOCK:   -6.27 KCAL/MOL
REMARK 923 INTER-LIGAND FREE ENERGY PREDICTED BY IDOCK:   -5.80 KCAL/MOL
REMARK 924 INTRA-LIGAND FREE ENERGY PREDICTED BY IDOCK:   -0.47 KCAL/MOL
REMARK 927      BINDING AFFINITY PREDICTED BY RF-SCORE:    0.00 PKD
ROOT
HETATM    1  C   UNL     1      -6.373   8.643  66.156  1.00  0.00    -0.056 C  
HETATM    2  C   UNL     1      -7.453   9.002  67.193  1.00  0.00    -0.087 C  
ENDROOT
BRANCH   2   3
HETATM    3  C   UNL     1      -7.774   7.876  68.180  1.00  0.00    -0.125 A  
HETATM    4  C   UNL     1      -9.465   5.217  66.068  1.00  0.00    -0.169 A  
HETATM    5  C   UNL     1      -7.448   8.034  69.543  1.00  0.00    -0.092 A  
HETATM    6  C   UNL     1      -9.895   4.344  67.056  1.00  0.00    -0.227 A  
HETATM    7  C   UNL     1      -8.739   6.360  66.417  1.00  0.00    -0.140 A  
HETATM    8  C   UNL     1      -9.564   4.594  68.386  1.00  0.00    -0.212 A  
HETATM    9  C   UNL     1      -7.795   7.075  70.488  1.00  0.00    -0.101 A  
HETATM   10  C   UNL     1      -8.499   5.944  70.094  1.00  0.00    -0.126 A  
HETATM   11  C   UNL     1      -8.434   6.678  67.762  1.00  0.00    -0.122 A  
HETATM   12  C   UNL     1      -8.831   5.736  68.750  1.00  0.00    -0.110 A  
ENDBRANCH   2   3
BRANCH   2  13
HETATM   13  N   UNL     1      -8.649   9.612  66.586  1.00  0.00    -0.130 NA 
HETATM   14  H   UNL     1      -9.407   8.932  66.535  1.00  0.00     0.000 HD 
BRANCH  13  15
HETATM   15  C   UNL     1      -9.103  10.833  67.241  1.00  0.00    -0.144 C  
BRANCH  15  16
HETATM   16  C   UNL     1     -10.608  11.013  67.050  1.00  0.00    -0.303 C  
BRANCH  16  17
HETATM   17  C   UNL     1     -11.355  10.526  68.294  1.00  0.00    -0.332 C  
BRANCH  17  18
HETATM   18  C   UNL     1     -11.765  11.679  69.171  1.00  0.00    -0.390 A  
HETATM   19  C   UNL     1     -11.782  14.072  69.636  1.00  0.00    -0.368 A  
HETATM   20  C   UNL     1     -11.424  15.487  69.256  1.00  0.00    -0.340 C  
HETATM   21  C   UNL     1     -11.458  12.995  68.797  1.00  0.00    -0.340 A  
HETATM   22  C   UNL     1     -12.739  12.507  71.229  1.00  0.00    -0.350 A  
HETATM   23  F   UNL     1     -10.798  15.588  68.049  1.00  0.00    -0.262 F  
HETATM   24  F   UNL     1     -12.515  16.299  69.176  1.00  0.00    -0.144 F  
HETATM   25  F   UNL     1     -10.587  16.073  70.157  1.00  0.00    -0.277 F  
HETATM   26  C   UNL     1     -12.428  13.815  70.854  1.00  0.00    -0.451 A  
HETATM   27  C   UNL     1     -12.405  11.445  70.392  1.00  0.00    -0.404 A  
ENDBRANCH  17  18
ENDBRANCH  16  17
ENDBRANCH  15  16
ENDBRANCH  13  15
ENDBRANCH   2  13
TORSDOF 6
ENDMDL
MODEL      381
REMARK 921   NORMALIZED FREE ENERGY PREDICTED BY IDOCK:   -2.32 KCAL/MOL
REMARK 922        TOTAL FREE ENERGY PREDICTED BY IDOCK:   -6.26 KCAL/MOL
REMARK 923 INTER-LIGAND FREE ENERGY PREDICTED BY IDOCK:   -5.29 KCAL/MOL
REMARK 924 INTRA-LIGAND FREE ENERGY PREDICTED BY IDOCK:   -0.97 KCAL/MOL
REMARK 927      BINDING AFFINITY PREDICTED BY RF-SCORE:    0.00 PKD
ROOT
HETATM    1  C   UNL     1      -6.154   7.334  70.178  1.00  0.00    -0.024 C  
HETATM    2  C   UNL     1      -7.569   7.255  69.578  1.00  0.00    -0.100 C  
ENDROOT
BRANCH   2   3
HETATM    3  C   UNL     1      -8.639   6.765  70.558  1.00  0.00    -0.142 A  
HETATM    4  C   UNL     1      -7.650   3.187  71.335  1.00  0.00    -0.044 A  
HETATM    5  C   UNL     1      -9.693   7.629  70.922  1.00  0.00    -0.175 A  
HETATM    6  C   UNL     1      -8.759   2.766  72.051  1.00  0.00    -0.103 A  
HETATM    7  C   UNL     1      -7.579   4.503  70.869  1.00  0.00    -0.056 A  
HETATM    8  C   UNL     1      -9.778   3.673  72.335  1.00  0.00    -0.215 A  
HETATM    9  C   UNL     1     -10.731   7.200  71.742  1.00  0.00    -0.241 A  
HETATM   10  C   UNL     1     -10.751   5.888  72.199  1.00  0.00    -0.278 A  
HETATM   11  C   UNL     1      -8.620   5.437  71.087  1.00  0.00    -0.128 A  
HETATM   12  C   UNL     1      -9.718   4.999  71.877  1.00  0.00    -0.212 A  
ENDBRANCH   2   3
BRANCH   2  13
HETATM   13  N   UNL     1      -7.601   6.563  68.277  1.00  0.00    -0.101 NA 
HETATM   14  H   UNL     1      -8.305   5.825  68.284  1.00  0.00     0.000 HD 
BRANCH  13  15
HETATM   15  C   UNL     1      -7.797   7.442  67.130  1.00  0.00    -0.117 C  
BRANCH  15  16
HETATM   16  C   UNL     1      -8.455   8.750  67.566  1.00  0.00    -0.120 C  
BRANCH  16  17
HETATM   17  C   UNL     1      -9.480   9.194  66.519  1.00  0.00    -0.266 C  
BRANCH  17  18
HETATM   18  C   UNL     1     -10.316  10.339  67.026  1.00  0.00    -0.299 A  
HETATM   19  C   UNL     1     -11.561  11.403  68.831  1.00  0.00    -0.388 A  
HETATM   20  C   UNL     1     -12.043  11.426  70.260  1.00  0.00    -0.374 C  
HETATM   21  C   UNL     1     -10.733  10.372  68.364  1.00  0.00    -0.263 A  
HETATM   22  C   UNL     1     -11.543  12.385  66.608  1.00  0.00    -0.447 A  
HETATM   23  F   UNL     1     -11.580  10.386  71.010  1.00  0.00    -0.381 F  
HETATM   24  F   UNL     1     -11.664  12.556  70.921  1.00  0.00    -0.241 F  
HETATM   25  F   UNL     1     -13.401  11.376  70.353  1.00  0.00     0.007 F  
HETATM   26  C   UNL     1     -11.960  12.412  67.940  1.00  0.00    -0.260 A  
HETATM   27  C   UNL     1     -10.729  11.351  66.154  1.00  0.00    -0.320 A  
ENDBRANCH  17  18
ENDBRANCH  16  17
ENDBRANCH  15  16
ENDBRANCH  13  15
ENDBRANCH   2  13
TORSDOF 6
ENDMDL
MODEL      382
REMARK 921   NORMALIZED FREE ENERGY PREDICTED BY IDOCK:   -2.31 KCAL/MOL
REMARK 922        TOTAL FREE ENERGY PREDICTED BY IDOCK:   -6.25 KCAL/MOL
REMARK 923 INTER-LIGAND FREE ENERGY PREDICTED BY IDOCK:   -4.85 KCAL/MOL
REMARK 924 INTRA-LIGAND FREE ENERGY PREDICTED BY IDOCK:   -1.40 KCAL/MOL
REMARK 927      BINDING AFFINITY PREDICTED BY RF-SCORE:    0.00 PKD
ROOT
HETATM    1  C   UNL     1      -8.344   8.717  64.289  1.00  0.00    -0.138 C  
HETATM    2  C   UNL     1      -8.358   7.771  65.504  1.00  0.00    -0.146 C  
ENDROOT
BRANCH   2   3
HETATM    3  C   UNL     1      -8.415   8.488  66.856  1.00  0.00    -0.113 A  
HETATM    4  C   UNL     1     -10.246  11.731  66.135  1.00  0.00    -0.255 A  
HETATM    5  C   UNL     1      -7.813   7.891  67.983  1.00  0.00    -0.127 A  
HETATM    6  C   UNL     1     -10.075  12.392  67.341  1.00  0.00    -0.205 A  
HETATM    7  C   UNL     1      -9.739  10.438  65.972  1.00  0.00    -0.265 A  
HETATM    8  C   UNL     1      -9.433  11.746  68.395  1.00  0.00    -0.188 A  
HETATM    9  C   UNL     1      -7.767   8.543  69.211  1.00  0.00    -0.093 A  
HETATM   10  C   UNL     1      -8.302   9.819  69.334  1.00  0.00    -0.153 A  
HETATM   11  C   UNL     1      -9.030   9.771  67.000  1.00  0.00    -0.152 A  
HETATM   12  C   UNL     1      -8.923  10.446  68.246  1.00  0.00    -0.135 A  
ENDBRANCH   2   3
BRANCH   2  13
HETATM   13  N   UNL     1      -7.317   6.732  65.431  1.00  0.00    -0.076 NA 
HETATM   14  H   UNL     1      -6.747   6.740  66.277  1.00  0.00     0.000 HD 
BRANCH  13  15
HETATM   15  C   UNL     1      -7.821   5.388  65.171  1.00  0.00    -0.095 C  
BRANCH  15  16
HETATM   16  C   UNL     1      -9.217   5.217  65.767  1.00  0.00    -0.159 C  
BRANCH  16  17
HETATM   17  C   UNL     1      -9.261   3.964  66.646  1.00  0.00    -0.181 C  
BRANCH  17  18
HETATM   18  C   UNL     1      -9.648   4.304  68.061  1.00  0.00    -0.204 A  
HETATM   19  C   UNL     1     -10.462   5.921  69.694  1.00  0.00    -0.346 A  
HETATM   20  C   UNL     1     -10.976   7.297  70.037  1.00  0.00    -0.253 C  
HETATM   21  C   UNL     1     -10.155   5.574  68.369  1.00  0.00    -0.234 A  
HETATM   22  C   UNL     1      -9.763   3.705  70.406  1.00  0.00    -0.201 A  
HETATM   23  F   UNL     1     -11.118   8.114  68.955  1.00  0.00    -0.104 F  
HETATM   24  F   UNL     1     -12.198   7.264  70.639  1.00  0.00    -0.328 F  
HETATM   25  F   UNL     1     -10.153   7.960  70.897  1.00  0.00    -0.188 F  
HETATM   26  C   UNL     1     -10.264   4.973  70.708  1.00  0.00    -0.299 A  
HETATM   27  C   UNL     1      -9.453   3.376  69.088  1.00  0.00    -0.211 A  
ENDBRANCH  17  18
ENDBRANCH  16  17
ENDBRANCH  15  16
ENDBRANCH  13  15
ENDBRANCH   2  13
TORSDOF 6
ENDMDL
MODEL      383
REMARK 921   NORMALIZED FREE ENERGY PREDICTED BY IDOCK:   -2.31 KCAL/MOL
REMARK 922        TOTAL FREE ENERGY PREDICTED BY IDOCK:   -6.25 KCAL/MOL
REMARK 923 INTER-LIGAND FREE ENERGY PREDICTED BY IDOCK:   -6.05 KCAL/MOL
REMARK 924 INTRA-LIGAND FREE ENERGY PREDICTED BY IDOCK:   -0.19 KCAL/MOL
REMARK 927      BINDING AFFINITY PREDICTED BY RF-SCORE:    0.00 PKD
ROOT
HETATM    1  C   UNL     1     -10.593   8.491  67.043  1.00  0.00    -0.305 C  
HETATM    2  C   UNL     1     -10.610   9.713  67.977  1.00  0.00    -0.243 C  
ENDROOT
BRANCH   2   3
HETATM    3  C   UNL     1     -10.914  11.038  67.271  1.00  0.00    -0.356 A  
HETATM    4  C   UNL     1      -9.802  10.482  63.688  1.00  0.00    -0.354 A  
HETATM    5  C   UNL     1     -11.459  12.109  68.010  1.00  0.00    -0.380 A  
HETATM    6  C   UNL     1      -9.921  11.767  63.183  1.00  0.00    -0.373 A  
HETATM    7  C   UNL     1     -10.156  10.219  65.015  1.00  0.00    -0.353 A  
HETATM    8  C   UNL     1     -10.431  12.779  63.992  1.00  0.00    -0.433 A  
HETATM    9  C   UNL     1     -11.673  13.355  67.431  1.00  0.00    -0.415 A  
HETATM   10  C   UNL     1     -11.325  13.566  66.103  1.00  0.00    -0.325 A  
HETATM   11  C   UNL     1     -10.624  11.234  65.885  1.00  0.00    -0.309 A  
HETATM   12  C   UNL     1     -10.796  12.529  65.325  1.00  0.00    -0.321 A  
ENDBRANCH   2   3
BRANCH   2  13
HETATM   13  N   UNL     1      -9.433   9.774  68.861  1.00  0.00    -0.155 NA 
HETATM   14  H   UNL     1      -9.308   8.886  69.348  1.00  0.00     0.000 HD 
BRANCH  13  15
HETATM   15  C   UNL     1      -8.196  10.165  68.194  1.00  0.00    -0.113 C  
BRANCH  15  16
HETATM   16  C   UNL     1      -7.417   8.930  67.745  1.00  0.00    -0.093 C  
BRANCH  16  17
HETATM   17  C   UNL     1      -7.113   8.036  68.950  1.00  0.00    -0.067 C  
BRANCH  17  18
HETATM   18  C   UNL     1      -7.930   6.773  68.912  1.00  0.00    -0.116 A  
HETATM   19  C   UNL     1      -8.861   4.900  67.659  1.00  0.00    -0.107 A  
HETATM   20  C   UNL     1      -9.025   4.133  66.370  1.00  0.00    -0.124 C  
HETATM   21  C   UNL     1      -8.053   6.046  67.719  1.00  0.00    -0.109 A  
HETATM   22  C   UNL     1      -9.417   5.202  70.005  1.00  0.00    -0.221 A  
HETATM   23  F   UNL     1      -8.312   4.651  65.330  1.00  0.00    -0.111 F  
HETATM   24  F   UNL     1      -8.629   2.834  66.480  1.00  0.00    -0.090 F  
HETATM   25  F   UNL     1     -10.320   4.094  65.948  1.00  0.00    -0.215 F  
HETATM   26  C   UNL     1      -9.539   4.484  68.814  1.00  0.00    -0.227 A  
HETATM   27  C   UNL     1      -8.619   6.343  70.050  1.00  0.00    -0.135 A  
ENDBRANCH  17  18
ENDBRANCH  16  17
ENDBRANCH  15  16
ENDBRANCH  13  15
ENDBRANCH   2  13
TORSDOF 6
ENDMDL
MODEL      384
REMARK 921   NORMALIZED FREE ENERGY PREDICTED BY IDOCK:   -2.30 KCAL/MOL
REMARK 922        TOTAL FREE ENERGY PREDICTED BY IDOCK:   -6.23 KCAL/MOL
REMARK 923 INTER-LIGAND FREE ENERGY PREDICTED BY IDOCK:   -5.74 KCAL/MOL
REMARK 924 INTRA-LIGAND FREE ENERGY PREDICTED BY IDOCK:   -0.50 KCAL/MOL
REMARK 927      BINDING AFFINITY PREDICTED BY RF-SCORE:    0.00 PKD
ROOT
HETATM    1  C   UNL     1     -10.082  12.055  66.443  1.00  0.00    -0.242 C  
HETATM    2  C   UNL     1      -9.553  12.726  67.724  1.00  0.00    -0.204 C  
ENDROOT
BRANCH   2   3
HETATM    3  C   UNL     1     -10.259  14.037  68.082  1.00  0.00    -0.243 A  
HETATM    4  C   UNL     1      -8.511  16.662  65.975  1.00  0.00    -0.198 A  
HETATM    5  C   UNL     1     -11.289  14.029  69.045  1.00  0.00    -0.319 A  
HETATM    6  C   UNL     1      -9.063  17.819  66.502  1.00  0.00    -0.281 A  
HETATM    7  C   UNL     1      -8.918  15.414  66.457  1.00  0.00    -0.344 A  
HETATM    8  C   UNL     1     -10.049  17.726  67.481  1.00  0.00    -0.340 A  
HETATM    9  C   UNL     1     -11.901  15.207  69.462  1.00  0.00    -0.358 A  
HETATM   10  C   UNL     1     -11.479  16.423  68.942  1.00  0.00    -0.216 A  
HETATM   11  C   UNL     1      -9.875  15.282  67.492  1.00  0.00    -0.213 A  
HETATM   12  C   UNL     1     -10.471  16.479  67.972  1.00  0.00    -0.313 A  
ENDBRANCH   2   3
BRANCH   2  13
HETATM   13  N   UNL     1      -8.083  12.821  67.755  1.00  0.00    -0.154 NA 
HETATM   14  H   UNL     1      -7.746  12.794  68.717  1.00  0.00     0.000 HD 
BRANCH  13  15
HETATM   15  C   UNL     1      -7.396  11.819  66.947  1.00  0.00    -0.104 C  
BRANCH  15  16
HETATM   16  C   UNL     1      -6.718  10.784  67.843  1.00  0.00    -0.064 C  
BRANCH  16  17
HETATM   17  C   UNL     1      -7.387  10.765  69.219  1.00  0.00    -0.129 C  
BRANCH  17  18
HETATM   18  C   UNL     1      -8.404   9.660  69.316  1.00  0.00    -0.137 A  
HETATM   19  C   UNL     1      -9.603   7.802  68.289  1.00  0.00    -0.162 A  
HETATM   20  C   UNL     1      -9.859   6.893  67.113  1.00  0.00    -0.165 C  
HETATM   21  C   UNL     1      -8.615   8.797  68.231  1.00  0.00    -0.134 A  
HETATM   22  C   UNL     1     -10.162   8.528  70.540  1.00  0.00    -0.220 A  
HETATM   23  F   UNL     1      -9.042   7.131  66.048  1.00  0.00    -0.171 F  
HETATM   24  F   UNL     1      -9.690   5.577  67.422  1.00  0.00    -0.118 F  
HETATM   25  F   UNL     1     -11.131   7.004  66.636  1.00  0.00    -0.404 F  
HETATM   26  C   UNL     1     -10.372   7.673  69.455  1.00  0.00    -0.217 A  
HETATM   27  C   UNL     1      -9.186   9.517  70.467  1.00  0.00    -0.284 A  
ENDBRANCH  17  18
ENDBRANCH  16  17
ENDBRANCH  15  16
ENDBRANCH  13  15
ENDBRANCH   2  13
TORSDOF 6
ENDMDL
MODEL      385
REMARK 921   NORMALIZED FREE ENERGY PREDICTED BY IDOCK:   -2.29 KCAL/MOL
REMARK 922        TOTAL FREE ENERGY PREDICTED BY IDOCK:   -6.23 KCAL/MOL
REMARK 923 INTER-LIGAND FREE ENERGY PREDICTED BY IDOCK:   -5.80 KCAL/MOL
REMARK 924 INTRA-LIGAND FREE ENERGY PREDICTED BY IDOCK:   -0.42 KCAL/MOL
REMARK 927      BINDING AFFINITY PREDICTED BY RF-SCORE:    0.00 PKD
ROOT
HETATM    1  C   UNL     1     -10.997  15.632  67.845  1.00  0.00    -0.319 C  
HETATM    2  C   UNL     1     -10.062  14.895  68.821  1.00  0.00    -0.241 C  
ENDROOT
BRANCH   2   3
HETATM    3  C   UNL     1      -8.574  15.185  68.603  1.00  0.00    -0.172 A  
HETATM    4  C   UNL     1      -8.336  18.970  68.583  1.00  0.00    -0.397 A  
HETATM    5  C   UNL     1      -7.676  14.110  68.435  1.00  0.00    -0.140 A  
HETATM    6  C   UNL     1      -7.019  19.140  68.185  1.00  0.00    -0.280 A  
HETATM    7  C   UNL     1      -8.851  17.682  68.758  1.00  0.00    -0.208 A  
HETATM    8  C   UNL     1      -6.207  18.023  68.001  1.00  0.00    -0.175 A  
HETATM    9  C   UNL     1      -6.332  14.326  68.152  1.00  0.00    -0.133 A  
HETATM   10  C   UNL     1      -5.859  15.624  68.006  1.00  0.00    -0.151 A  
HETATM   11  C   UNL     1      -8.073  16.522  68.525  1.00  0.00    -0.218 A  
HETATM   12  C   UNL     1      -6.710  16.723  68.178  1.00  0.00    -0.152 A  
ENDBRANCH   2   3
BRANCH   2  13
HETATM   13  N   UNL     1     -10.373  13.460  68.937  1.00  0.00    -0.411 NA 
HETATM   14  H   UNL     1     -10.302  13.158  69.908  1.00  0.00     0.000 HD 
BRANCH  13  15
HETATM   15  C   UNL     1     -11.664  13.074  68.377  1.00  0.00    -0.351 C  
BRANCH  15  16
HETATM   16  C   UNL     1     -12.201  11.830  69.083  1.00  0.00    -0.169 C  
BRANCH  16  17
HETATM   17  C   UNL     1     -11.112  11.221  69.971  1.00  0.00    -0.114 C  
BRANCH  17  18
HETATM   18  C   UNL     1     -10.786   9.814  69.545  1.00  0.00    -0.264 A  
HETATM   19  C   UNL     1     -10.506   7.456  70.095  1.00  0.00    -0.228 A  
HETATM   20  C   UNL     1     -10.556   6.324  71.090  1.00  0.00    -0.239 C  
HETATM   21  C   UNL     1     -10.866   8.761  70.466  1.00  0.00    -0.268 A  
HETATM   22  C   UNL     1      -9.997   8.262  67.860  1.00  0.00    -0.227 A  
HETATM   23  F   UNL     1     -10.991   6.700  72.327  1.00  0.00    -0.233 F  
HETATM   24  F   UNL     1     -11.385   5.317  70.697  1.00  0.00    -0.140 F  
HETATM   25  F   UNL     1      -9.336   5.748  71.286  1.00  0.00    -0.147 F  
HETATM   26  C   UNL     1     -10.074   7.217  68.782  1.00  0.00    -0.179 A  
HETATM   27  C   UNL     1     -10.348   9.555  68.243  1.00  0.00    -0.244 A  
ENDBRANCH  17  18
ENDBRANCH  16  17
ENDBRANCH  15  16
ENDBRANCH  13  15
ENDBRANCH   2  13
TORSDOF 6
ENDMDL
MODEL      386
REMARK 921   NORMALIZED FREE ENERGY PREDICTED BY IDOCK:   -2.28 KCAL/MOL
REMARK 922        TOTAL FREE ENERGY PREDICTED BY IDOCK:   -6.21 KCAL/MOL
REMARK 923 INTER-LIGAND FREE ENERGY PREDICTED BY IDOCK:   -6.54 KCAL/MOL
REMARK 924 INTRA-LIGAND FREE ENERGY PREDICTED BY IDOCK:    0.33 KCAL/MOL
REMARK 927      BINDING AFFINITY PREDICTED BY RF-SCORE:    0.00 PKD
ROOT
HETATM    1  C   UNL     1     -11.635  16.201  68.578  1.00  0.00    -0.265 C  
HETATM    2  C   UNL     1     -10.303  15.430  68.571  1.00  0.00    -0.226 C  
ENDROOT
BRANCH   2   3
HETATM    3  C   UNL     1      -9.139  16.194  67.933  1.00  0.00    -0.192 A  
HETATM    4  C   UNL     1     -10.164  19.840  68.153  1.00  0.00    -0.577 A  
HETATM    5  C   UNL     1      -8.043  15.478  67.411  1.00  0.00    -0.201 A  
HETATM    6  C   UNL     1      -9.171  20.430  67.387  1.00  0.00    -0.513 A  
HETATM    7  C   UNL     1     -10.148  18.459  68.371  1.00  0.00    -0.418 A  
HETATM    8  C   UNL     1      -8.142  19.644  66.873  1.00  0.00    -0.315 A  
HETATM    9  C   UNL     1      -7.004  16.124  66.749  1.00  0.00    -0.107 A  
HETATM   10  C   UNL     1      -7.050  17.501  66.573  1.00  0.00    -0.289 A  
HETATM   11  C   UNL     1      -9.152  17.620  67.817  1.00  0.00    -0.247 A  
HETATM   12  C   UNL     1      -8.111  18.256  67.087  1.00  0.00    -0.232 A  
ENDBRANCH   2   3
BRANCH   2  13
HETATM   13  N   UNL     1     -10.444  14.050  68.075  1.00  0.00    -0.237 NA 
HETATM   14  H   UNL     1      -9.746  13.444  68.507  1.00  0.00     0.000 HD 
BRANCH  13  15
HETATM   15  C   UNL     1     -11.778  13.483  68.237  1.00  0.00    -0.359 C  
BRANCH  15  16
HETATM   16  C   UNL     1     -11.694  11.975  68.465  1.00  0.00    -0.387 C  
BRANCH  16  17
HETATM   17  C   UNL     1     -10.248  11.571  68.764  1.00  0.00    -0.204 C  
BRANCH  17  18
HETATM   18  C   UNL     1      -9.616  10.891  67.579  1.00  0.00    -0.171 A  
HETATM   19  C   UNL     1      -9.219  10.778  65.176  1.00  0.00    -0.239 A  
HETATM   20  C   UNL     1      -9.392  11.341  63.788  1.00  0.00    -0.146 C  
HETATM   21  C   UNL     1      -9.753  11.436  66.295  1.00  0.00    -0.239 A  
HETATM   22  C   UNL     1      -8.394   9.022  66.639  1.00  0.00    -0.118 A  
HETATM   23  F   UNL     1     -10.078  12.520  63.756  1.00  0.00    -0.379 F  
HETATM   24  F   UNL     1      -8.203  11.589  63.171  1.00  0.00     0.145 F  
HETATM   25  F   UNL     1     -10.072  10.496  62.963  1.00  0.00    -0.342 F  
HETATM   26  C   UNL     1      -8.536   9.567  65.361  1.00  0.00    -0.157 A  
HETATM   27  C   UNL     1      -8.935   9.680  67.740  1.00  0.00    -0.122 A  
ENDBRANCH  17  18
ENDBRANCH  16  17
ENDBRANCH  15  16
ENDBRANCH  13  15
ENDBRANCH   2  13
TORSDOF 6
ENDMDL
MODEL      387
REMARK 921   NORMALIZED FREE ENERGY PREDICTED BY IDOCK:   -2.28 KCAL/MOL
REMARK 922        TOTAL FREE ENERGY PREDICTED BY IDOCK:   -6.21 KCAL/MOL
REMARK 923 INTER-LIGAND FREE ENERGY PREDICTED BY IDOCK:   -4.66 KCAL/MOL
REMARK 924 INTRA-LIGAND FREE ENERGY PREDICTED BY IDOCK:   -1.55 KCAL/MOL
REMARK 927      BINDING AFFINITY PREDICTED BY RF-SCORE:    0.00 PKD
ROOT
HETATM    1  C   UNL     1      -9.896   6.370  71.943  1.00  0.00    -0.172 C  
HETATM    2  C   UNL     1     -10.388   6.918  70.592  1.00  0.00    -0.200 C  
ENDROOT
BRANCH   2   3
HETATM    3  C   UNL     1     -11.446   8.018  70.709  1.00  0.00    -0.273 A  
HETATM    4  C   UNL     1      -9.853  11.045  69.070  1.00  0.00    -0.165 A  
HETATM    5  C   UNL     1     -12.666   7.741  71.360  1.00  0.00    -0.333 A  
HETATM    6  C   UNL     1     -10.777  12.026  69.395  1.00  0.00     0.022 A  
HETATM    7  C   UNL     1     -10.075   9.722  69.462  1.00  0.00    -0.233 A  
HETATM    8  C   UNL     1     -11.940  11.676  70.077  1.00  0.00    -0.429 A  
HETATM    9  C   UNL     1     -13.621   8.732  71.563  1.00  0.00    -0.374 A  
HETATM   10  C   UNL     1     -13.368  10.030  71.139  1.00  0.00    -0.379 A  
HETATM   11  C   UNL     1     -11.216   9.338  70.206  1.00  0.00    -0.267 A  
HETATM   12  C   UNL     1     -12.178  10.349  70.473  1.00  0.00    -0.412 A  
ENDBRANCH   2   3
BRANCH   2  13
HETATM   13  N   UNL     1     -10.748   5.852  69.640  1.00  0.00    -0.313 NA 
HETATM   14  H   UNL     1     -11.174   6.252  68.804  1.00  0.00     0.000 HD 
BRANCH  13  15
HETATM   15  C   UNL     1      -9.645   4.969  69.276  1.00  0.00    -0.162 C  
BRANCH  15  16
HETATM   16  C   UNL     1      -8.351   5.765  69.124  1.00  0.00    -0.105 C  
BRANCH  16  17
HETATM   17  C   UNL     1      -8.442   6.683  67.902  1.00  0.00    -0.119 C  
BRANCH  17  18
HETATM   18  C   UNL     1      -7.565   7.896  68.065  1.00  0.00    -0.113 A  
HETATM   19  C   UNL     1      -6.772  10.050  67.245  1.00  0.00    -0.074 A  
HETATM   20  C   UNL     1      -6.810  11.164  66.228  1.00  0.00    -0.055 C  
HETATM   21  C   UNL     1      -7.628   8.943  67.135  1.00  0.00    -0.092 A  
HETATM   22  C   UNL     1      -5.795   9.063  69.239  1.00  0.00    -0.035 A  
HETATM   23  F   UNL     1      -7.743  10.982  65.251  1.00  0.00    -0.060 F  
HETATM   24  F   UNL     1      -7.091  12.374  66.788  1.00  0.00    -0.092 F  
HETATM   25  F   UNL     1      -5.621  11.318  65.581  1.00  0.00    -0.143 F  
HETATM   26  C   UNL     1      -5.858  10.101  68.308  1.00  0.00    -0.041 A  
HETATM   27  C   UNL     1      -6.643   7.965  69.114  1.00  0.00    -0.040 A  
ENDBRANCH  17  18
ENDBRANCH  16  17
ENDBRANCH  15  16
ENDBRANCH  13  15
ENDBRANCH   2  13
TORSDOF 6
ENDMDL
MODEL      388
REMARK 921   NORMALIZED FREE ENERGY PREDICTED BY IDOCK:   -2.28 KCAL/MOL
REMARK 922        TOTAL FREE ENERGY PREDICTED BY IDOCK:   -6.20 KCAL/MOL
REMARK 923 INTER-LIGAND FREE ENERGY PREDICTED BY IDOCK:   -5.37 KCAL/MOL
REMARK 924 INTRA-LIGAND FREE ENERGY PREDICTED BY IDOCK:   -0.84 KCAL/MOL
REMARK 927      BINDING AFFINITY PREDICTED BY RF-SCORE:    0.00 PKD
ROOT
HETATM    1  C   UNL     1      -8.044  10.860  67.366  1.00  0.00    -0.114 C  
HETATM    2  C   UNL     1      -7.904  11.757  68.608  1.00  0.00    -0.117 C  
ENDROOT
BRANCH   2   3
HETATM    3  C   UNL     1      -7.632  13.231  68.291  1.00  0.00    -0.139 A  
HETATM    4  C   UNL     1     -11.066  14.718  67.677  1.00  0.00    -0.311 A  
HETATM    5  C   UNL     1      -6.302  13.699  68.257  1.00  0.00    -0.107 A  
HETATM    6  C   UNL     1     -10.718  15.975  67.207  1.00  0.00    -0.295 A  
HETATM    7  C   UNL     1     -10.069  13.820  68.069  1.00  0.00    -0.245 A  
HETATM    8  C   UNL     1      -9.376  16.347  67.167  1.00  0.00    -0.228 A  
HETATM    9  C   UNL     1      -6.003  15.007  67.892  1.00  0.00    -0.163 A  
HETATM   10  C   UNL     1      -7.027  15.872  67.529  1.00  0.00    -0.209 A  
HETATM   11  C   UNL     1      -8.692  14.141  67.988  1.00  0.00    -0.177 A  
HETATM   12  C   UNL     1      -8.364  15.457  67.563  1.00  0.00    -0.190 A  
ENDBRANCH   2   3
BRANCH   2  13
HETATM   13  N   UNL     1      -6.991  11.194  69.619  1.00  0.00    -0.258 NA 
HETATM   14  H   UNL     1      -7.235  11.537  70.549  1.00  0.00     0.000 HD 
BRANCH  13  15
HETATM   15  C   UNL     1      -6.915   9.737  69.620  1.00  0.00    -0.078 C  
BRANCH  15  16
HETATM   16  C   UNL     1      -7.577   9.168  70.873  1.00  0.00    -0.146 C  
BRANCH  16  17
HETATM   17  C   UNL     1      -9.081   9.455  70.846  1.00  0.00    -0.220 C  
BRANCH  17  18
HETATM   18  C   UNL     1      -9.858   8.250  70.388  1.00  0.00    -0.194 A  
HETATM   19  C   UNL     1     -10.493   6.698  68.619  1.00  0.00    -0.241 A  
HETATM   20  C   UNL     1     -10.383   6.212  67.195  1.00  0.00    -0.230 C  
HETATM   21  C   UNL     1      -9.727   7.784  69.073  1.00  0.00    -0.157 A  
HETATM   22  C   UNL     1     -11.516   6.536  70.817  1.00  0.00    -0.419 A  
HETATM   23  F   UNL     1      -9.480   6.909  66.447  1.00  0.00    -0.187 F  
HETATM   24  F   UNL     1     -10.001   4.907  67.115  1.00  0.00    -0.164 F  
HETATM   25  F   UNL     1     -11.565   6.298  66.523  1.00  0.00    -0.223 F  
HETATM   26  C   UNL     1     -11.385   6.077  69.505  1.00  0.00    -0.306 A  
HETATM   27  C   UNL     1     -10.758   7.620  71.253  1.00  0.00    -0.248 A  
ENDBRANCH  17  18
ENDBRANCH  16  17
ENDBRANCH  15  16
ENDBRANCH  13  15
ENDBRANCH   2  13
TORSDOF 6
ENDMDL
MODEL      389
REMARK 921   NORMALIZED FREE ENERGY PREDICTED BY IDOCK:   -2.26 KCAL/MOL
REMARK 922        TOTAL FREE ENERGY PREDICTED BY IDOCK:   -6.18 KCAL/MOL
REMARK 923 INTER-LIGAND FREE ENERGY PREDICTED BY IDOCK:   -4.52 KCAL/MOL
REMARK 924 INTRA-LIGAND FREE ENERGY PREDICTED BY IDOCK:   -1.67 KCAL/MOL
REMARK 927      BINDING AFFINITY PREDICTED BY RF-SCORE:    0.00 PKD
ROOT
HETATM    1  C   UNL     1      -7.562   8.120  66.302  1.00  0.00    -0.090 C  
HETATM    2  C   UNL     1      -7.636   8.826  67.668  1.00  0.00    -0.097 C  
ENDROOT
BRANCH   2   3
HETATM    3  C   UNL     1      -7.765  10.349  67.580  1.00  0.00    -0.093 A  
HETATM    4  C   UNL     1     -11.423  10.947  66.775  1.00  0.00     0.202 A  
HETATM    5  C   UNL     1      -6.621  11.153  67.762  1.00  0.00    -0.064 A  
HETATM    6  C   UNL     1     -11.407  12.309  66.518  1.00  0.00    -0.403 A  
HETATM    7  C   UNL     1     -10.246  10.297  67.158  1.00  0.00    -0.277 A  
HETATM    8  C   UNL     1     -10.224  13.026  66.683  1.00  0.00    -0.257 A  
HETATM    9  C   UNL     1      -6.674  12.535  67.610  1.00  0.00    -0.136 A  
HETATM   10  C   UNL     1      -7.870  13.142  67.248  1.00  0.00    -0.125 A  
HETATM   11  C   UNL     1      -9.013  10.981  67.280  1.00  0.00    -0.138 A  
HETATM   12  C   UNL     1      -9.035  12.386  67.071  1.00  0.00    -0.209 A  
ENDBRANCH   2   3
BRANCH   2  13
HETATM   13  N   UNL     1      -6.588   8.375  68.601  1.00  0.00    -0.054 NA 
HETATM   14  H   UNL     1      -6.230   9.164  69.140  1.00  0.00     0.000 HD 
BRANCH  13  15
HETATM   15  C   UNL     1      -6.997   7.294  69.492  1.00  0.00    -0.057 C  
BRANCH  15  16
HETATM   16  C   UNL     1      -8.475   7.428  69.850  1.00  0.00    -0.139 C  
BRANCH  16  17
HETATM   17  C   UNL     1      -8.691   8.662  70.730  1.00  0.00    -0.202 C  
BRANCH  17  18
HETATM   18  C   UNL     1     -10.155   8.979  70.875  1.00  0.00    -0.329 A  
HETATM   19  C   UNL     1     -12.420   8.273  71.436  1.00  0.00    -0.315 A  
HETATM   20  C   UNL     1     -13.387   7.220  71.917  1.00  0.00    -0.223 C  
HETATM   21  C   UNL     1     -11.045   8.007  71.354  1.00  0.00    -0.278 A  
HETATM   22  C   UNL     1     -12.012  10.505  70.568  1.00  0.00    -0.436 A  
HETATM   23  F   UNL     1     -12.789   6.045  72.265  1.00  0.00    -0.320 F  
HETATM   24  F   UNL     1     -14.089   7.617  73.016  1.00  0.00     0.361 F  
HETATM   25  F   UNL     1     -14.318   6.898  70.976  1.00  0.00    -0.404 F  
HETATM   26  C   UNL     1     -12.894   9.533  71.041  1.00  0.00    -0.295 A  
HETATM   27  C   UNL     1     -10.650  10.226  70.482  1.00  0.00    -0.136 A  
ENDBRANCH  17  18
ENDBRANCH  16  17
ENDBRANCH  15  16
ENDBRANCH  13  15
ENDBRANCH   2  13
TORSDOF 6
ENDMDL
MODEL      390
REMARK 921   NORMALIZED FREE ENERGY PREDICTED BY IDOCK:   -2.26 KCAL/MOL
REMARK 922        TOTAL FREE ENERGY PREDICTED BY IDOCK:   -6.18 KCAL/MOL
REMARK 923 INTER-LIGAND FREE ENERGY PREDICTED BY IDOCK:   -6.25 KCAL/MOL
REMARK 924 INTRA-LIGAND FREE ENERGY PREDICTED BY IDOCK:    0.07 KCAL/MOL
REMARK 927      BINDING AFFINITY PREDICTED BY RF-SCORE:    0.00 PKD
ROOT
HETATM    1  C   UNL     1     -10.220  11.249  67.737  1.00  0.00    -0.203 C  
HETATM    2  C   UNL     1      -9.941  12.614  68.392  1.00  0.00    -0.210 C  
ENDROOT
BRANCH   2   3
HETATM    3  C   UNL     1     -10.413  13.814  67.565  1.00  0.00    -0.245 A  
HETATM    4  C   UNL     1     -12.179  12.276  64.582  1.00  0.00    -0.454 A  
HETATM    5  C   UNL     1     -10.108  15.119  68.002  1.00  0.00    -0.222 A  
HETATM    6  C   UNL     1     -12.390  13.402  63.803  1.00  0.00    -0.418 A  
HETATM    7  C   UNL     1     -11.565  12.398  65.832  1.00  0.00    -0.449 A  
HETATM    8  C   UNL     1     -12.023  14.654  64.291  1.00  0.00    -0.406 A  
HETATM    9  C   UNL     1     -10.444  16.235  67.242  1.00  0.00    -0.300 A  
HETATM   10  C   UNL     1     -11.072  16.069  66.015  1.00  0.00     0.016 A  
HETATM   11  C   UNL     1     -11.125  13.645  66.337  1.00  0.00    -0.307 A  
HETATM   12  C   UNL     1     -11.409  14.792  65.547  1.00  0.00    -0.343 A  
ENDBRANCH   2   3
BRANCH   2  13
HETATM   13  N   UNL     1      -8.556  12.742  68.878  1.00  0.00    -0.342 NA 
HETATM   14  H   UNL     1      -8.520  12.607  69.889  1.00  0.00     0.000 HD 
BRANCH  13  15
HETATM   15  C   UNL     1      -7.598  11.863  68.214  1.00  0.00    -0.116 C  
BRANCH  15  16
HETATM   16  C   UNL     1      -6.916  10.951  69.232  1.00  0.00    -0.112 C  
BRANCH  16  17
HETATM   17  C   UNL     1      -7.121   9.485  68.841  1.00  0.00    -0.067 C  
BRANCH  17  18
HETATM   18  C   UNL     1      -8.218   8.852  69.655  1.00  0.00    -0.114 A  
HETATM   19  C   UNL     1      -9.680   6.955  70.110  1.00  0.00    -0.175 A  
HETATM   20  C   UNL     1     -10.139   5.550  69.813  1.00  0.00    -0.232 C  
HETATM   21  C   UNL     1      -8.619   7.534  69.397  1.00  0.00    -0.133 A  
HETATM   22  C   UNL     1      -9.933   9.025  71.358  1.00  0.00    -0.388 A  
HETATM   23  F   UNL     1      -9.420   4.934  68.833  1.00  0.00    -0.141 F  
HETATM   24  F   UNL     1     -10.058   4.733  70.901  1.00  0.00    -0.254 F  
HETATM   25  F   UNL     1     -11.438   5.501  69.406  1.00  0.00    -0.214 F  
HETATM   26  C   UNL     1     -10.331   7.713  71.095  1.00  0.00    -0.212 A  
HETATM   27  C   UNL     1      -8.884   9.591  70.638  1.00  0.00    -0.208 A  
ENDBRANCH  17  18
ENDBRANCH  16  17
ENDBRANCH  15  16
ENDBRANCH  13  15
ENDBRANCH   2  13
TORSDOF 6
ENDMDL
MODEL      391
REMARK 921   NORMALIZED FREE ENERGY PREDICTED BY IDOCK:   -2.25 KCAL/MOL
REMARK 922        TOTAL FREE ENERGY PREDICTED BY IDOCK:   -6.17 KCAL/MOL
REMARK 923 INTER-LIGAND FREE ENERGY PREDICTED BY IDOCK:   -6.09 KCAL/MOL
REMARK 924 INTRA-LIGAND FREE ENERGY PREDICTED BY IDOCK:   -0.08 KCAL/MOL
REMARK 927      BINDING AFFINITY PREDICTED BY RF-SCORE:    0.00 PKD
ROOT
HETATM    1  C   UNL     1     -10.754  12.032  69.274  1.00  0.00    -0.063 C  
HETATM    2  C   UNL     1      -9.822  12.037  68.049  1.00  0.00    -0.199 C  
ENDROOT
BRANCH   2   3
HETATM    3  C   UNL     1      -9.541  10.648  67.469  1.00  0.00    -0.180 A  
HETATM    4  C   UNL     1      -8.780   8.493  70.496  1.00  0.00    -0.163 A  
HETATM    5  C   UNL     1      -9.579  10.458  66.072  1.00  0.00    -0.251 A  
HETATM    6  C   UNL     1      -8.346   7.331  69.878  1.00  0.00    -0.135 A  
HETATM    7  C   UNL     1      -9.208   9.576  69.722  1.00  0.00    -0.224 A  
HETATM    8  C   UNL     1      -8.378   7.238  68.488  1.00  0.00    -0.125 A  
HETATM    9  C   UNL     1      -9.249   9.236  65.497  1.00  0.00    -0.292 A  
HETATM   10  C   UNL     1      -8.849   8.180  66.305  1.00  0.00    -0.193 A  
HETATM   11  C   UNL     1      -9.199   9.540  68.307  1.00  0.00    -0.132 A  
HETATM   12  C   UNL     1      -8.810   8.316  67.698  1.00  0.00    -0.137 A  
ENDBRANCH   2   3
BRANCH   2  13
HETATM   13  N   UNL     1      -8.608  12.846  68.256  1.00  0.00    -0.213 NA 
HETATM   14  H   UNL     1      -7.774  12.279  68.107  1.00  0.00     0.000 HD 
BRANCH  13  15
HETATM   15  C   UNL     1      -8.548  14.062  67.453  1.00  0.00    -0.203 C  
BRANCH  15  16
HETATM   16  C   UNL     1      -9.899  14.774  67.458  1.00  0.00    -0.218 C  
BRANCH  16  17
HETATM   17  C   UNL     1     -10.043  15.614  68.730  1.00  0.00    -0.211 C  
BRANCH  17  18
HETATM   18  C   UNL     1      -9.743  17.065  68.461  1.00  0.00    -0.282 A  
HETATM   19  C   UNL     1      -8.162  18.920  68.427  1.00  0.00    -0.377 A  
HETATM   20  C   UNL     1      -6.769  19.463  68.628  1.00  0.00    -0.294 C  
HETATM   21  C   UNL     1      -8.440  17.557  68.617  1.00  0.00    -0.258 A  
HETATM   22  C   UNL     1     -10.505  19.297  67.907  1.00  0.00    -0.514 A  
HETATM   23  F   UNL     1      -5.855  18.513  68.978  1.00  0.00    -0.197 F  
HETATM   24  F   UNL     1      -6.273  20.058  67.507  1.00  0.00    -0.204 F  
HETATM   25  F   UNL     1      -6.714  20.408  69.608  1.00  0.00    -0.311 F  
HETATM   26  C   UNL     1      -9.207  19.784  68.068  1.00  0.00    -0.425 A  
HETATM   27  C   UNL     1     -10.771  17.944  68.107  1.00  0.00    -0.287 A  
ENDBRANCH  17  18
ENDBRANCH  16  17
ENDBRANCH  15  16
ENDBRANCH  13  15
ENDBRANCH   2  13
TORSDOF 6
ENDMDL
MODEL      392
REMARK 921   NORMALIZED FREE ENERGY PREDICTED BY IDOCK:   -2.24 KCAL/MOL
REMARK 922        TOTAL FREE ENERGY PREDICTED BY IDOCK:   -6.16 KCAL/MOL
REMARK 923 INTER-LIGAND FREE ENERGY PREDICTED BY IDOCK:   -5.66 KCAL/MOL
REMARK 924 INTRA-LIGAND FREE ENERGY PREDICTED BY IDOCK:   -0.49 KCAL/MOL
REMARK 927      BINDING AFFINITY PREDICTED BY RF-SCORE:    0.00 PKD
ROOT
HETATM    1  C   UNL     1      -5.988   5.217  66.729  1.00  0.00    -0.022 C  
HETATM    2  C   UNL     1      -6.791   5.895  67.853  1.00  0.00    -0.060 C  
ENDROOT
BRANCH   2   3
HETATM    3  C   UNL     1      -7.833   4.988  68.514  1.00  0.00    -0.082 A  
HETATM    4  C   UNL     1      -9.536   7.208  71.075  1.00  0.00    -0.159 A  
HETATM    5  C   UNL     1      -7.931   3.639  68.115  1.00  0.00    -0.071 A  
HETATM    6  C   UNL     1     -10.304   6.273  71.751  1.00  0.00    -0.240 A  
HETATM    7  C   UNL     1      -8.748   6.810  69.991  1.00  0.00    -0.141 A  
HETATM    8  C   UNL     1     -10.315   4.950  71.317  1.00  0.00    -0.219 A  
HETATM    9  C   UNL     1      -8.804   2.758  68.745  1.00  0.00    -0.154 A  
HETATM   10  C   UNL     1      -9.584   3.202  69.805  1.00  0.00    -0.128 A  
HETATM   11  C   UNL     1      -8.688   5.464  69.557  1.00  0.00    -0.108 A  
HETATM   12  C   UNL     1      -9.532   4.536  70.226  1.00  0.00    -0.241 A  
ENDBRANCH   2   3
BRANCH   2  13
HETATM   13  N   UNL     1      -7.320   7.214  67.464  1.00  0.00    -0.090 NA 
HETATM   14  H   UNL     1      -6.555   7.861  67.272  1.00  0.00     0.000 HD 
BRANCH  13  15
HETATM   15  C   UNL     1      -8.253   7.183  66.343  1.00  0.00    -0.120 C  
BRANCH  15  16
HETATM   16  C   UNL     1      -9.512   7.983  66.674  1.00  0.00    -0.273 C  
BRANCH  16  17
HETATM   17  C   UNL     1      -9.766   9.033  65.589  1.00  0.00    -0.178 C  
BRANCH  17  18
HETATM   18  C   UNL     1     -10.448  10.248  66.157  1.00  0.00    -0.200 A  
HETATM   19  C   UNL     1     -11.525  12.410  65.823  1.00  0.00    -0.416 A  
HETATM   20  C   UNL     1     -12.025  13.502  64.912  1.00  0.00    -0.379 C  
HETATM   21  C   UNL     1     -10.941  11.245  65.303  1.00  0.00    -0.207 A  
HETATM   22  C   UNL     1     -11.134  11.568  68.069  1.00  0.00    -0.313 A  
HETATM   23  F   UNL     1     -11.867  13.224  63.586  1.00  0.00    -0.460 F  
HETATM   24  F   UNL     1     -13.353  13.758  65.081  1.00  0.00    -0.337 F  
HETATM   25  F   UNL     1     -11.387  14.688  65.119  1.00  0.00    -0.320 F  
HETATM   26  C   UNL     1     -11.619  12.560  67.215  1.00  0.00    -0.434 A  
HETATM   27  C   UNL     1     -10.548  10.421  67.541  1.00  0.00    -0.312 A  
ENDBRANCH  17  18
ENDBRANCH  16  17
ENDBRANCH  15  16
ENDBRANCH  13  15
ENDBRANCH   2  13
TORSDOF 6
ENDMDL
MODEL      393
REMARK 921   NORMALIZED FREE ENERGY PREDICTED BY IDOCK:   -2.24 KCAL/MOL
REMARK 922        TOTAL FREE ENERGY PREDICTED BY IDOCK:   -6.16 KCAL/MOL
REMARK 923 INTER-LIGAND FREE ENERGY PREDICTED BY IDOCK:   -4.34 KCAL/MOL
REMARK 924 INTRA-LIGAND FREE ENERGY PREDICTED BY IDOCK:   -1.82 KCAL/MOL
REMARK 927      BINDING AFFINITY PREDICTED BY RF-SCORE:    0.00 PKD
ROOT
HETATM    1  C   UNL     1      -7.172   8.168  71.382  1.00  0.00    -0.074 C  
HETATM    2  C   UNL     1      -8.359   8.795  70.630  1.00  0.00    -0.154 C  
ENDROOT
BRANCH   2   3
HETATM    3  C   UNL     1      -7.953   9.731  69.487  1.00  0.00    -0.137 A  
HETATM    4  C   UNL     1     -10.115   8.650  66.564  1.00  0.00    -0.339 A  
HETATM    5  C   UNL     1      -6.942  10.689  69.701  1.00  0.00    -0.134 A  
HETATM    6  C   UNL     1      -9.550   9.395  65.541  1.00  0.00    -0.328 A  
HETATM    7  C   UNL     1      -9.627   8.774  67.868  1.00  0.00    -0.169 A  
HETATM    8  C   UNL     1      -8.525  10.293  65.830  1.00  0.00    -0.161 A  
HETATM    9  C   UNL     1      -6.484  11.503  68.671  1.00  0.00    -0.057 A  
HETATM   10  C   UNL     1      -7.011  11.359  67.394  1.00  0.00    -0.106 A  
HETATM   11  C   UNL     1      -8.549   9.633  68.190  1.00  0.00    -0.119 A  
HETATM   12  C   UNL     1      -8.028  10.432  67.136  1.00  0.00    -0.115 A  
ENDBRANCH   2   3
BRANCH   2  13
HETATM   13  N   UNL     1      -9.368   9.373  71.534  1.00  0.00    -0.289 NA 
HETATM   14  H   UNL     1     -10.239   9.547  71.031  1.00  0.00     0.000 HD 
BRANCH  13  15
HETATM   15  C   UNL     1      -9.625   8.586  72.736  1.00  0.00    -0.173 C  
BRANCH  15  16
HETATM   16  C   UNL     1     -11.043   8.021  72.711  1.00  0.00    -0.448 C  
BRANCH  16  17
HETATM   17  C   UNL     1     -11.005   6.502  72.897  1.00  0.00    -0.282 C  
BRANCH  17  18
HETATM   18  C   UNL     1     -10.212   5.839  71.803  1.00  0.00    -0.245 A  
HETATM   19  C   UNL     1      -8.322   4.467  71.103  1.00  0.00    -0.095 A  
HETATM   20  C   UNL     1      -7.108   3.636  71.434  1.00  0.00    -0.032 C  
HETATM   21  C   UNL     1      -9.104   5.040  72.118  1.00  0.00    -0.147 A  
HETATM   22  C   UNL     1      -9.776   5.488  69.445  1.00  0.00    -0.216 A  
HETATM   23  F   UNL     1      -6.886   3.498  72.773  1.00  0.00    -0.031 F  
HETATM   24  F   UNL     1      -7.192   2.368  70.941  1.00  0.00    -0.032 F  
HETATM   25  F   UNL     1      -5.960   4.161  70.921  1.00  0.00    -0.012 F  
HETATM   26  C   UNL     1      -8.671   4.696  69.764  1.00  0.00    -0.112 A  
HETATM   27  C   UNL     1     -10.539   6.059  70.461  1.00  0.00    -0.329 A  
ENDBRANCH  17  18
ENDBRANCH  16  17
ENDBRANCH  15  16
ENDBRANCH  13  15
ENDBRANCH   2  13
TORSDOF 6
ENDMDL
MODEL      394
REMARK 921   NORMALIZED FREE ENERGY PREDICTED BY IDOCK:   -2.23 KCAL/MOL
REMARK 922        TOTAL FREE ENERGY PREDICTED BY IDOCK:   -6.14 KCAL/MOL
REMARK 923 INTER-LIGAND FREE ENERGY PREDICTED BY IDOCK:   -5.59 KCAL/MOL
REMARK 924 INTRA-LIGAND FREE ENERGY PREDICTED BY IDOCK:   -0.55 KCAL/MOL
REMARK 927      BINDING AFFINITY PREDICTED BY RF-SCORE:    0.00 PKD
ROOT
HETATM    1  C   UNL     1      -7.251   8.843  71.639  1.00  0.00    -0.057 C  
HETATM    2  C   UNL     1      -8.427   8.898  70.649  1.00  0.00    -0.184 C  
ENDROOT
BRANCH   2   3
HETATM    3  C   UNL     1      -9.777   8.502  71.255  1.00  0.00    -0.270 A  
HETATM    4  C   UNL     1      -9.302   4.903  72.355  1.00  0.00    -0.156 A  
HETATM    5  C   UNL     1     -10.835   9.433  71.260  1.00  0.00    -0.431 A  
HETATM    6  C   UNL     1     -10.603   4.568  72.697  1.00  0.00    -0.247 A  
HETATM    7  C   UNL     1      -9.008   6.197  71.915  1.00  0.00    -0.140 A  
HETATM    8  C   UNL     1     -11.601   5.538  72.637  1.00  0.00    -0.293 A  
HETATM    9  C   UNL     1     -12.101   9.090  71.724  1.00  0.00    -0.438 A  
HETATM   10  C   UNL     1     -12.343   7.798  72.172  1.00  0.00    -0.303 A  
HETATM   11  C   UNL     1     -10.006   7.193  71.784  1.00  0.00    -0.186 A  
HETATM   12  C   UNL     1     -11.319   6.843  72.200  1.00  0.00    -0.302 A  
ENDBRANCH   2   3
BRANCH   2  13
HETATM   13  N   UNL     1      -8.133   8.222  69.373  1.00  0.00    -0.113 NA 
HETATM   14  H   UNL     1      -8.682   8.635  68.618  1.00  0.00     0.000 HD 
BRANCH  13  15
HETATM   15  C   UNL     1      -6.719   8.193  69.017  1.00  0.00    -0.048 C  
BRANCH  15  16
HETATM   16  C   UNL     1      -6.552   8.020  67.508  1.00  0.00    -0.058 C  
BRANCH  16  17
HETATM   17  C   UNL     1      -6.270   9.375  66.855  1.00  0.00    -0.065 C  
BRANCH  17  18
HETATM   18  C   UNL     1      -7.487   9.899  66.139  1.00  0.00    -0.104 A  
HETATM   19  C   UNL     1      -9.224  11.591  65.894  1.00  0.00    -0.223 A  
HETATM   20  C   UNL     1      -9.861  12.891  66.317  1.00  0.00    -0.273 C  
HETATM   21  C   UNL     1      -8.055  11.124  66.515  1.00  0.00    -0.163 A  
HETATM   22  C   UNL     1      -9.247   9.600  64.501  1.00  0.00    -0.277 A  
HETATM   23  F   UNL     1      -9.185  13.534  67.312  1.00  0.00    -0.197 F  
HETATM   24  F   UNL     1      -9.953  13.786  65.294  1.00  0.00    -0.321 F  
HETATM   25  F   UNL     1     -11.131  12.723  66.782  1.00  0.00    -0.261 F  
HETATM   26  C   UNL     1      -9.812  10.819  64.882  1.00  0.00    -0.350 A  
HETATM   27  C   UNL     1      -8.092   9.142  65.131  1.00  0.00    -0.130 A  
ENDBRANCH  17  18
ENDBRANCH  16  17
ENDBRANCH  15  16
ENDBRANCH  13  15
ENDBRANCH   2  13
TORSDOF 6
ENDMDL
MODEL      395
REMARK 921   NORMALIZED FREE ENERGY PREDICTED BY IDOCK:   -2.21 KCAL/MOL
REMARK 922        TOTAL FREE ENERGY PREDICTED BY IDOCK:   -6.11 KCAL/MOL
REMARK 923 INTER-LIGAND FREE ENERGY PREDICTED BY IDOCK:   -5.54 KCAL/MOL
REMARK 924 INTRA-LIGAND FREE ENERGY PREDICTED BY IDOCK:   -0.57 KCAL/MOL
REMARK 927      BINDING AFFINITY PREDICTED BY RF-SCORE:    0.00 PKD
ROOT
HETATM    1  C   UNL     1     -11.228  11.366  65.489  1.00  0.00    -0.140 C  
HETATM    2  C   UNL     1     -11.488  11.815  66.938  1.00  0.00    -0.293 C  
ENDROOT
BRANCH   2   3
HETATM    3  C   UNL     1     -10.522  12.890  67.445  1.00  0.00    -0.235 A  
HETATM    4  C   UNL     1     -12.453  14.696  70.164  1.00  0.00    -0.369 A  
HETATM    5  C   UNL     1      -9.250  13.015  66.850  1.00  0.00    -0.236 A  
HETATM    6  C   UNL     1     -11.600  15.758  70.419  1.00  0.00    -0.376 A  
HETATM    7  C   UNL     1     -12.099  13.729  69.218  1.00  0.00    -0.374 A  
HETATM    8  C   UNL     1     -10.375  15.830  69.758  1.00  0.00    -0.307 A  
HETATM    9  C   UNL     1      -8.372  14.028  67.220  1.00  0.00    -0.209 A  
HETATM   10  C   UNL     1      -8.757  14.956  68.179  1.00  0.00    -0.164 A  
HETATM   11  C   UNL     1     -10.891  13.800  68.484  1.00  0.00    -0.280 A  
HETATM   12  C   UNL     1     -10.005  14.863  68.809  1.00  0.00    -0.228 A  
ENDBRANCH   2   3
BRANCH   2  13
HETATM   13  N   UNL     1     -11.649  10.682  67.867  1.00  0.00    -0.687 NA 
HETATM   14  H   UNL     1     -12.456  10.117  67.601  1.00  0.00     0.000 HD 
BRANCH  13  15
HETATM   15  C   UNL     1     -10.464   9.843  68.008  1.00  0.00    -0.222 C  
BRANCH  15  16
HETATM   16  C   UNL     1     -10.865   8.384  68.213  1.00  0.00     0.024 C  
BRANCH  16  17
HETATM   17  C   UNL     1      -9.639   7.479  68.067  1.00  0.00    -0.156 C  
BRANCH  17  18
HETATM   18  C   UNL     1      -9.571   6.469  69.181  1.00  0.00    -0.137 A  
HETATM   19  C   UNL     1      -8.587   4.459  70.147  1.00  0.00    -0.102 A  
HETATM   20  C   UNL     1      -7.589   3.329  70.096  1.00  0.00    -0.044 C  
HETATM   21  C   UNL     1      -8.620   5.440  69.144  1.00  0.00    -0.102 A  
HETATM   22  C   UNL     1     -10.462   5.553  71.240  1.00  0.00    -0.306 A  
HETATM   23  F   UNL     1      -6.751   3.386  69.022  1.00  0.00    -0.035 F  
HETATM   24  F   UNL     1      -6.782   3.294  71.193  1.00  0.00    -0.028 F  
HETATM   25  F   UNL     1      -8.188   2.107  70.034  1.00  0.00    -0.048 F  
HETATM   26  C   UNL     1      -9.515   4.528  71.197  1.00  0.00    -0.226 A  
HETATM   27  C   UNL     1     -10.490   6.515  70.233  1.00  0.00    -0.261 A  
ENDBRANCH  17  18
ENDBRANCH  16  17
ENDBRANCH  15  16
ENDBRANCH  13  15
ENDBRANCH   2  13
TORSDOF 6
ENDMDL
MODEL      396
REMARK 921   NORMALIZED FREE ENERGY PREDICTED BY IDOCK:   -2.19 KCAL/MOL
REMARK 922        TOTAL FREE ENERGY PREDICTED BY IDOCK:   -6.09 KCAL/MOL
REMARK 923 INTER-LIGAND FREE ENERGY PREDICTED BY IDOCK:   -4.75 KCAL/MOL
REMARK 924 INTRA-LIGAND FREE ENERGY PREDICTED BY IDOCK:   -1.34 KCAL/MOL
REMARK 927      BINDING AFFINITY PREDICTED BY RF-SCORE:    0.00 PKD
ROOT
HETATM    1  C   UNL     1     -10.673   8.742  67.002  1.00  0.00    -0.186 C  
HETATM    2  C   UNL     1     -11.010  10.240  66.894  1.00  0.00    -0.070 C  
ENDROOT
BRANCH   2   3
HETATM    3  C   UNL     1     -10.884  10.810  65.479  1.00  0.00    -0.061 A  
HETATM    4  C   UNL     1      -7.502   9.596  64.263  1.00  0.00    -0.125 A  
HETATM    5  C   UNL     1     -11.918  11.618  64.962  1.00  0.00     0.129 A  
HETATM    6  C   UNL     1      -7.385  10.312  63.082  1.00  0.00    -0.116 A  
HETATM    7  C   UNL     1      -8.657   9.721  65.042  1.00  0.00    -0.178 A  
HETATM    8  C   UNL     1      -8.438  11.120  62.660  1.00  0.00    -0.174 A  
HETATM    9  C   UNL     1     -11.810  12.225  63.715  1.00  0.00    -0.587 A  
HETATM   10  C   UNL     1     -10.653  12.057  62.966  1.00  0.00    -0.081 A  
HETATM   11  C   UNL     1      -9.723  10.577  64.676  1.00  0.00    -0.369 A  
HETATM   12  C   UNL     1      -9.606  11.252  63.431  1.00  0.00    -0.351 A  
ENDBRANCH   2   3
BRANCH   2  13
HETATM   13  N   UNL     1     -10.333  11.053  67.920  1.00  0.00    -0.180 NA 
HETATM   14  H   UNL     1     -10.961  11.231  68.704  1.00  0.00     0.000 HD 
BRANCH  13  15
HETATM   15  C   UNL     1      -9.070  10.498  68.395  1.00  0.00    -0.148 C  
BRANCH  15  16
HETATM   16  C   UNL     1      -8.171  11.606  68.939  1.00  0.00     0.017 C  
BRANCH  16  17
HETATM   17  C   UNL     1      -7.923  12.658  67.854  1.00  0.00    -0.156 C  
BRANCH  17  18
HETATM   18  C   UNL     1      -9.051  13.653  67.792  1.00  0.00    -0.199 A  
HETATM   19  C   UNL     1     -10.522  15.094  66.487  1.00  0.00    -0.292 A  
HETATM   20  C   UNL     1     -10.999  15.628  65.159  1.00  0.00    -0.398 C  
HETATM   21  C   UNL     1      -9.512  14.121  66.554  1.00  0.00    -0.303 A  
HETATM   22  C   UNL     1     -10.620  15.118  68.915  1.00  0.00    -0.242 A  
HETATM   23  F   UNL     1     -10.375  15.064  64.086  1.00  0.00     0.063 F  
HETATM   24  F   UNL     1     -12.332  15.424  64.961  1.00  0.00    -0.074 F  
HETATM   25  F   UNL     1     -10.804  16.970  65.037  1.00  0.00    -0.384 F  
HETATM   26  C   UNL     1     -11.074  15.584  67.679  1.00  0.00    -0.311 A  
HETATM   27  C   UNL     1      -9.611  14.160  68.968  1.00  0.00     0.029 A  
ENDBRANCH  17  18
ENDBRANCH  16  17
ENDBRANCH  15  16
ENDBRANCH  13  15
ENDBRANCH   2  13
TORSDOF 6
ENDMDL
MODEL      397
REMARK 921   NORMALIZED FREE ENERGY PREDICTED BY IDOCK:   -2.19 KCAL/MOL
REMARK 922        TOTAL FREE ENERGY PREDICTED BY IDOCK:   -6.08 KCAL/MOL
REMARK 923 INTER-LIGAND FREE ENERGY PREDICTED BY IDOCK:   -4.53 KCAL/MOL
REMARK 924 INTRA-LIGAND FREE ENERGY PREDICTED BY IDOCK:   -1.56 KCAL/MOL
REMARK 927      BINDING AFFINITY PREDICTED BY RF-SCORE:    0.00 PKD
ROOT
HETATM    1  C   UNL     1      -9.610   3.068  67.717  1.00  0.00    -0.100 C  
HETATM    2  C   UNL     1      -8.706   3.765  68.750  1.00  0.00    -0.100 C  
ENDROOT
BRANCH   2   3
HETATM    3  C   UNL     1      -9.342   3.925  70.134  1.00  0.00    -0.241 A  
HETATM    4  C   UNL     1     -11.763   6.817  69.736  1.00  0.00    -0.222 A  
HETATM    5  C   UNL     1      -8.931   3.083  71.188  1.00  0.00    -0.165 A  
HETATM    6  C   UNL     1     -12.135   7.021  71.056  1.00  0.00    -0.413 A  
HETATM    7  C   UNL     1     -10.877   5.785  69.413  1.00  0.00    -0.393 A  
HETATM    8  C   UNL     1     -11.652   6.167  72.046  1.00  0.00    -0.364 A  
HETATM    9  C   UNL     1      -9.420   3.246  72.479  1.00  0.00    -0.174 A  
HETATM   10  C   UNL     1     -10.315   4.273  72.752  1.00  0.00    -0.243 A  
HETATM   11  C   UNL     1     -10.319   4.935  70.398  1.00  0.00    -0.248 A  
HETATM   12  C   UNL     1     -10.764   5.124  71.735  1.00  0.00    -0.203 A  
ENDBRANCH   2   3
BRANCH   2  13
HETATM   13  N   UNL     1      -8.099   5.004  68.234  1.00  0.00    -0.086 NA 
HETATM   14  H   UNL     1      -8.525   5.819  68.675  1.00  0.00     0.000 HD 
BRANCH  13  15
HETATM   15  C   UNL     1      -6.646   5.062  68.357  1.00  0.00    -0.045 C  
BRANCH  15  16
HETATM   16  C   UNL     1      -6.197   6.474  68.725  1.00  0.00    -0.030 C  
BRANCH  16  17
HETATM   17  C   UNL     1      -7.189   7.099  69.710  1.00  0.00    -0.079 C  
BRANCH  17  18
HETATM   18  C   UNL     1      -8.018   8.165  69.046  1.00  0.00    -0.113 A  
HETATM   19  C   UNL     1      -8.521   9.534  67.092  1.00  0.00    -0.131 A  
HETATM   20  C   UNL     1      -8.262   9.923  65.658  1.00  0.00    -0.138 C  
HETATM   21  C   UNL     1      -7.795   8.500  67.703  1.00  0.00    -0.103 A  
HETATM   22  C   UNL     1      -9.714   9.891  69.179  1.00  0.00    -0.204 A  
HETATM   23  F   UNL     1      -7.299   9.172  65.052  1.00  0.00    -0.093 F  
HETATM   24  F   UNL     1      -9.371   9.804  64.875  1.00  0.00    -0.243 F  
HETATM   25  F   UNL     1      -7.854  11.217  65.535  1.00  0.00    -0.090 F  
HETATM   26  C   UNL     1      -9.485  10.223  67.843  1.00  0.00    -0.154 A  
HETATM   27  C   UNL     1      -8.980   8.869  69.777  1.00  0.00    -0.149 A  
ENDBRANCH  17  18
ENDBRANCH  16  17
ENDBRANCH  15  16
ENDBRANCH  13  15
ENDBRANCH   2  13
TORSDOF 6
ENDMDL
MODEL      398
REMARK 921   NORMALIZED FREE ENERGY PREDICTED BY IDOCK:   -2.18 KCAL/MOL
REMARK 922        TOTAL FREE ENERGY PREDICTED BY IDOCK:   -6.07 KCAL/MOL
REMARK 923 INTER-LIGAND FREE ENERGY PREDICTED BY IDOCK:   -5.22 KCAL/MOL
REMARK 924 INTRA-LIGAND FREE ENERGY PREDICTED BY IDOCK:   -0.85 KCAL/MOL
REMARK 927      BINDING AFFINITY PREDICTED BY RF-SCORE:    0.00 PKD
ROOT
HETATM    1  C   UNL     1     -10.802   6.986  66.938  1.00  0.00    -0.350 C  
HETATM    2  C   UNL     1     -10.200   8.353  67.309  1.00  0.00    -0.279 C  
ENDROOT
BRANCH   2   3
HETATM    3  C   UNL     1      -9.603   9.118  66.123  1.00  0.00    -0.333 A  
HETATM    4  C   UNL     1     -11.192  12.557  66.318  1.00  0.00    -0.359 A  
HETATM    5  C   UNL     1      -8.702   8.464  65.258  1.00  0.00    -0.148 A  
HETATM    6  C   UNL     1     -10.763  13.103  65.119  1.00  0.00    -0.329 A  
HETATM    7  C   UNL     1     -10.793  11.266  66.679  1.00  0.00    -0.325 A  
HETATM    8  C   UNL     1      -9.903  12.374  64.300  1.00  0.00    -0.129 A  
HETATM    9  C   UNL     1      -8.201   9.092  64.123  1.00  0.00    -0.162 A  
HETATM   10  C   UNL     1      -8.609  10.383  63.814  1.00  0.00    -0.178 A  
HETATM   11  C   UNL     1      -9.967  10.473  65.846  1.00  0.00    -0.313 A  
HETATM   12  C   UNL     1      -9.491  11.078  64.651  1.00  0.00    -0.270 A  
ENDBRANCH   2   3
BRANCH   2  13
HETATM   13  N   UNL     1      -9.304   8.285  68.477  1.00  0.00    -0.139 NA 
HETATM   14  H   UNL     1      -9.127   7.314  68.733  1.00  0.00     0.000 HD 
BRANCH  13  15
HETATM   15  C   UNL     1      -8.045   9.005  68.315  1.00  0.00    -0.109 C  
BRANCH  15  16
HETATM   16  C   UNL     1      -8.252  10.501  68.548  1.00  0.00    -0.123 C  
BRANCH  16  17
HETATM   17  C   UNL     1      -7.033  11.281  68.050  1.00  0.00    -0.068 C  
BRANCH  17  18
HETATM   18  C   UNL     1      -6.998  12.669  68.634  1.00  0.00    -0.091 A  
HETATM   19  C   UNL     1      -7.771  14.981  68.624  1.00  0.00    -0.128 A  
HETATM   20  C   UNL     1      -8.647  16.071  68.060  1.00  0.00    -0.165 C  
HETATM   21  C   UNL     1      -7.839  13.670  68.127  1.00  0.00    -0.143 A  
HETATM   22  C   UNL     1      -6.020  14.280  70.156  1.00  0.00    -0.151 A  
HETATM   23  F   UNL     1      -9.485  15.644  67.072  1.00  0.00    -0.210 F  
HETATM   24  F   UNL     1      -9.448  16.640  69.004  1.00  0.00    -0.239 F  
HETATM   25  F   UNL     1      -7.926  17.091  67.517  1.00  0.00    -0.167 F  
HETATM   26  C   UNL     1      -6.856  15.275  69.645  1.00  0.00    -0.187 A  
HETATM   27  C   UNL     1      -6.090  12.985  69.648  1.00  0.00    -0.122 A  
ENDBRANCH  17  18
ENDBRANCH  16  17
ENDBRANCH  15  16
ENDBRANCH  13  15
ENDBRANCH   2  13
TORSDOF 6
ENDMDL
MODEL      399
REMARK 921   NORMALIZED FREE ENERGY PREDICTED BY IDOCK:   -2.16 KCAL/MOL
REMARK 922        TOTAL FREE ENERGY PREDICTED BY IDOCK:   -6.05 KCAL/MOL
REMARK 923 INTER-LIGAND FREE ENERGY PREDICTED BY IDOCK:   -5.05 KCAL/MOL
REMARK 924 INTRA-LIGAND FREE ENERGY PREDICTED BY IDOCK:   -1.00 KCAL/MOL
REMARK 927      BINDING AFFINITY PREDICTED BY RF-SCORE:    0.00 PKD
ROOT
HETATM    1  C   UNL     1      -7.219   9.309  71.089  1.00  0.00    -0.055 C  
HETATM    2  C   UNL     1      -8.407   8.803  70.253  1.00  0.00    -0.136 C  
ENDROOT
BRANCH   2   3
HETATM    3  C   UNL     1      -9.706   8.632  71.047  1.00  0.00    -0.266 A  
HETATM    4  C   UNL     1     -11.861  11.566  69.984  1.00  0.00    -0.435 A  
HETATM    5  C   UNL     1      -9.830   7.556  71.950  1.00  0.00    -0.196 A  
HETATM    6  C   UNL     1     -12.910  11.450  70.883  1.00  0.00    -0.323 A  
HETATM    7  C   UNL     1     -10.822  10.632  70.002  1.00  0.00    -0.280 A  
HETATM    8  C   UNL     1     -12.939  10.377  71.771  1.00  0.00    -0.580 A  
HETATM    9  C   UNL     1     -10.956   7.409  72.753  1.00  0.00    -0.387 A  
HETATM   10  C   UNL     1     -11.975   8.351  72.688  1.00  0.00    -0.346 A  
HETATM   11  C   UNL     1     -10.786   9.562  70.928  1.00  0.00    -0.407 A  
HETATM   12  C   UNL     1     -11.903   9.428  71.796  1.00  0.00    -0.452 A  
ENDBRANCH   2   3
BRANCH   2  13
HETATM   13  N   UNL     1      -8.066   7.634  69.424  1.00  0.00    -0.125 NA 
HETATM   14  H   UNL     1      -8.104   7.877  68.434  1.00  0.00     0.000 HD 
BRANCH  13  15
HETATM   15  C   UNL     1      -6.784   7.017  69.747  1.00  0.00    -0.049 C  
BRANCH  15  16
HETATM   16  C   UNL     1      -6.922   5.497  69.801  1.00  0.00    -0.062 C  
BRANCH  16  17
HETATM   17  C   UNL     1      -6.317   4.871  68.541  1.00  0.00    -0.036 C  
BRANCH  17  18
HETATM   18  C   UNL     1      -7.253   4.993  67.369  1.00  0.00    -0.070 A  
HETATM   19  C   UNL     1      -7.811   5.979  65.210  1.00  0.00    -0.107 A  
HETATM   20  C   UNL     1      -7.473   6.884  64.052  1.00  0.00    -0.098 C  
HETATM   21  C   UNL     1      -6.919   5.811  66.280  1.00  0.00    -0.060 A  
HETATM   22  C   UNL     1      -9.377   4.487  66.319  1.00  0.00    -0.151 A  
HETATM   23  F   UNL     1      -6.248   7.474  64.157  1.00  0.00    -0.045 F  
HETATM   24  F   UNL     1      -7.466   6.227  62.858  1.00  0.00    -0.048 F  
HETATM   25  F   UNL     1      -8.365   7.905  63.911  1.00  0.00    -0.139 F  
HETATM   26  C   UNL     1      -9.041   5.306  65.239  1.00  0.00    -0.097 A  
HETATM   27  C   UNL     1      -8.487   4.336  67.379  1.00  0.00    -0.099 A  
ENDBRANCH  17  18
ENDBRANCH  16  17
ENDBRANCH  15  16
ENDBRANCH  13  15
ENDBRANCH   2  13
TORSDOF 6
ENDMDL
MODEL      400
REMARK 921   NORMALIZED FREE ENERGY PREDICTED BY IDOCK:   -2.16 KCAL/MOL
REMARK 922        TOTAL FREE ENERGY PREDICTED BY IDOCK:   -6.04 KCAL/MOL
REMARK 923 INTER-LIGAND FREE ENERGY PREDICTED BY IDOCK:   -5.06 KCAL/MOL
REMARK 924 INTRA-LIGAND FREE ENERGY PREDICTED BY IDOCK:   -0.98 KCAL/MOL
REMARK 927      BINDING AFFINITY PREDICTED BY RF-SCORE:    0.00 PKD
ROOT
HETATM    1  C   UNL     1      -7.059   8.840  70.978  1.00  0.00    -0.084 C  
HETATM    2  C   UNL     1      -8.257   8.217  70.239  1.00  0.00    -0.121 C  
ENDROOT
BRANCH   2   3
HETATM    3  C   UNL     1      -9.532   8.121  71.082  1.00  0.00    -0.192 A  
HETATM    4  C   UNL     1     -11.599  11.119  70.023  1.00  0.00    -0.421 A  
HETATM    5  C   UNL     1      -9.669   7.072  72.014  1.00  0.00    -0.166 A  
HETATM    6  C   UNL     1     -12.619  11.068  70.960  1.00  0.00    -0.512 A  
HETATM    7  C   UNL     1     -10.600  10.142  70.027  1.00  0.00    -0.338 A  
HETATM    8  C   UNL     1     -12.661  10.018  71.874  1.00  0.00    -0.493 A  
HETATM    9  C   UNL     1     -10.771   6.992  72.858  1.00  0.00    -0.320 A  
HETATM   10  C   UNL     1     -11.752   7.974  72.807  1.00  0.00    -0.352 A  
HETATM   11  C   UNL     1     -10.576   9.092  70.977  1.00  0.00    -0.362 A  
HETATM   12  C   UNL     1     -11.666   9.027  71.887  1.00  0.00    -0.445 A  
ENDBRANCH   2   3
BRANCH   2  13
HETATM   13  N   UNL     1      -7.913   6.964  69.546  1.00  0.00    -0.122 NA 
HETATM   14  H   UNL     1      -8.022   7.073  68.537  1.00  0.00     0.000 HD 
BRANCH  13  15
HETATM   15  C   UNL     1      -6.586   6.444  69.860  1.00  0.00    -0.048 C  
BRANCH  15  16
HETATM   16  C   UNL     1      -6.672   4.979  70.280  1.00  0.00    -0.036 C  
BRANCH  16  17
HETATM   17  C   UNL     1      -6.164   4.079  69.151  1.00  0.00    -0.028 C  
BRANCH  17  18
HETATM   18  C   UNL     1      -7.299   3.348  68.484  1.00  0.00    -0.050 A  
HETATM   19  C   UNL     1      -8.748   3.018  66.552  1.00  0.00    -0.136 A  
HETATM   20  C   UNL     1      -9.158   3.364  65.142  1.00  0.00    -0.144 C  
HETATM   21  C   UNL     1      -7.654   3.651  67.162  1.00  0.00    -0.079 A  
HETATM   22  C   UNL     1      -9.125   1.760  68.596  1.00  0.00    -0.189 A  
HETATM   23  F   UNL     1      -8.363   4.304  64.556  1.00  0.00    -0.097 F  
HETATM   24  F   UNL     1      -9.131   2.286  64.310  1.00  0.00    -0.098 F  
HETATM   25  F   UNL     1     -10.426   3.857  65.074  1.00  0.00    -0.197 F  
HETATM   26  C   UNL     1      -9.477   2.067  67.281  1.00  0.00     0.036 A  
HETATM   27  C   UNL     1      -8.042   2.401  69.194  1.00  0.00    -0.067 A  
ENDBRANCH  17  18
ENDBRANCH  16  17
ENDBRANCH  15  16
ENDBRANCH  13  15
ENDBRANCH   2  13
TORSDOF 6
ENDMDL
MODEL      401
REMARK 921   NORMALIZED FREE ENERGY PREDICTED BY IDOCK:   -2.12 KCAL/MOL
REMARK 922        TOTAL FREE ENERGY PREDICTED BY IDOCK:   -5.98 KCAL/MOL
REMARK 923 INTER-LIGAND FREE ENERGY PREDICTED BY IDOCK:   -5.24 KCAL/MOL
REMARK 924 INTRA-LIGAND FREE ENERGY PREDICTED BY IDOCK:   -0.74 KCAL/MOL
REMARK 927      BINDING AFFINITY PREDICTED BY RF-SCORE:    0.00 PKD
ROOT
HETATM    1  C   UNL     1     -10.010   6.276  71.781  1.00  0.00    -0.193 C  
HETATM    2  C   UNL     1     -10.255   7.281  70.642  1.00  0.00    -0.195 C  
ENDROOT
BRANCH   2   3
HETATM    3  C   UNL     1     -11.264   8.382  70.982  1.00  0.00    -0.304 A  
HETATM    4  C   UNL     1     -10.362  11.245  68.664  1.00  0.00    -0.217 A  
HETATM    5  C   UNL     1     -12.212   8.162  72.003  1.00  0.00    -0.385 A  
HETATM    6  C   UNL     1     -11.175  12.248  69.171  1.00  0.00    -0.300 A  
HETATM    7  C   UNL     1     -10.405   9.965  69.223  1.00  0.00    -0.235 A  
HETATM    8  C   UNL     1     -12.057  11.958  70.209  1.00  0.00    -0.409 A  
HETATM    9  C   UNL     1     -13.092   9.162  72.402  1.00  0.00    -0.493 A  
HETATM   10  C   UNL     1     -13.028  10.415  71.805  1.00  0.00    -0.580 A  
HETATM   11  C   UNL     1     -11.247   9.648  70.316  1.00  0.00    -0.324 A  
HETATM   12  C   UNL     1     -12.114  10.675  70.777  1.00  0.00    -0.474 A  
ENDBRANCH   2   3
BRANCH   2  13
HETATM   13  N   UNL     1     -10.513   6.626  69.347  1.00  0.00    -0.205 NA 
HETATM   14  H   UNL     1     -10.972   7.273  68.706  1.00  0.00     0.000 HD 
BRANCH  13  15
HETATM   15  C   UNL     1      -9.332   6.042  68.720  1.00  0.00    -0.122 C  
BRANCH  15  16
HETATM   16  C   UNL     1      -8.613   7.083  67.863  1.00  0.00    -0.126 C  
BRANCH  16  17
HETATM   17  C   UNL     1      -9.206   7.099  66.452  1.00  0.00    -0.196 C  
BRANCH  17  18
HETATM   18  C   UNL     1      -9.302   5.708  65.885  1.00  0.00    -0.119 A  
HETATM   19  C   UNL     1      -8.222   3.641  65.175  1.00  0.00    -0.097 A  
HETATM   20  C   UNL     1      -6.983   2.798  65.003  1.00  0.00    -0.049 C  
HETATM   21  C   UNL     1      -8.152   4.916  65.758  1.00  0.00    -0.112 A  
HETATM   22  C   UNL     1     -10.612   3.946  64.859  1.00  0.00    -0.088 A  
HETATM   23  F   UNL     1      -5.849   3.387  65.477  1.00  0.00    -0.016 F  
HETATM   24  F   UNL     1      -7.073   1.599  65.644  1.00  0.00    -0.044 F  
HETATM   25  F   UNL     1      -6.729   2.505  63.697  1.00  0.00    -0.027 F  
HETATM   26  C   UNL     1      -9.463   3.163  64.730  1.00  0.00    -0.150 A  
HETATM   27  C   UNL     1     -10.528   5.214  65.430  1.00  0.00     0.220 A  
ENDBRANCH  17  18
ENDBRANCH  16  17
ENDBRANCH  15  16
ENDBRANCH  13  15
ENDBRANCH   2  13
TORSDOF 6
ENDMDL
MODEL      402
REMARK 921   NORMALIZED FREE ENERGY PREDICTED BY IDOCK:   -2.10 KCAL/MOL
REMARK 922        TOTAL FREE ENERGY PREDICTED BY IDOCK:   -5.96 KCAL/MOL
REMARK 923 INTER-LIGAND FREE ENERGY PREDICTED BY IDOCK:   -4.88 KCAL/MOL
REMARK 924 INTRA-LIGAND FREE ENERGY PREDICTED BY IDOCK:   -1.07 KCAL/MOL
REMARK 927      BINDING AFFINITY PREDICTED BY RF-SCORE:    0.00 PKD
ROOT
HETATM    1  C   UNL     1      -9.471   4.536  68.811  1.00  0.00    -0.221 C  
HETATM    2  C   UNL     1      -8.301   5.409  69.301  1.00  0.00    -0.096 C  
ENDROOT
BRANCH   2   3
HETATM    3  C   UNL     1      -8.287   5.645  70.814  1.00  0.00    -0.123 A  
HETATM    4  C   UNL     1     -11.606   7.329  71.544  1.00  0.00    -0.306 A  
HETATM    5  C   UNL     1      -7.154   5.266  71.564  1.00  0.00    -0.067 A  
HETATM    6  C   UNL     1     -11.425   7.683  72.872  1.00  0.00    -0.342 A  
HETATM    7  C   UNL     1     -10.603   6.630  70.866  1.00  0.00    -0.263 A  
HETATM    8  C   UNL     1     -10.258   7.304  73.531  1.00  0.00    -0.404 A  
HETATM    9  C   UNL     1      -7.062   5.537  72.925  1.00  0.00    -0.089 A  
HETATM   10  C   UNL     1      -8.092   6.215  73.564  1.00  0.00    -0.108 A  
HETATM   11  C   UNL     1      -9.379   6.279  71.485  1.00  0.00    -0.155 A  
HETATM   12  C   UNL     1      -9.243   6.598  72.864  1.00  0.00    -0.147 A  
ENDBRANCH   2   3
BRANCH   2  13
HETATM   13  N   UNL     1      -8.137   6.641  68.511  1.00  0.00    -0.118 NA 
HETATM   14  H   UNL     1      -8.619   7.419  68.961  1.00  0.00     0.000 HD 
BRANCH  13  15
HETATM   15  C   UNL     1      -6.751   6.997  68.228  1.00  0.00    -0.064 C  
BRANCH  15  16
HETATM   16  C   UNL     1      -6.531   8.495  68.435  1.00  0.00    -0.055 C  
BRANCH  16  17
HETATM   17  C   UNL     1      -7.548   9.038  69.443  1.00  0.00    -0.078 C  
BRANCH  17  18
HETATM   18  C   UNL     1      -8.708   9.696  68.745  1.00  0.00    -0.126 A  
HETATM   19  C   UNL     1      -9.718  10.586  66.712  1.00  0.00    -0.220 A  
HETATM   20  C   UNL     1      -9.664  10.860  65.230  1.00  0.00    -0.246 C  
HETATM   21  C   UNL     1      -8.667   9.919  67.362  1.00  0.00    -0.129 A  
HETATM   22  C   UNL     1     -10.866  10.795  68.844  1.00  0.00    -0.269 A  
HETATM   23  F   UNL     1      -8.538  10.386  64.626  1.00  0.00    -0.163 F  
HETATM   24  F   UNL     1     -10.708  10.300  64.557  1.00  0.00    -0.275 F  
HETATM   25  F   UNL     1      -9.706  12.191  64.944  1.00  0.00    -0.250 F  
HETATM   26  C   UNL     1     -10.818  11.018  67.466  1.00  0.00    -0.314 A  
HETATM   27  C   UNL     1      -9.813  10.140  69.479  1.00  0.00    -0.255 A  
ENDBRANCH  17  18
ENDBRANCH  16  17
ENDBRANCH  15  16
ENDBRANCH  13  15
ENDBRANCH   2  13
TORSDOF 6
ENDMDL
MODEL      403
REMARK 921   NORMALIZED FREE ENERGY PREDICTED BY IDOCK:   -2.04 KCAL/MOL
REMARK 922        TOTAL FREE ENERGY PREDICTED BY IDOCK:   -5.88 KCAL/MOL
REMARK 923 INTER-LIGAND FREE ENERGY PREDICTED BY IDOCK:   -5.56 KCAL/MOL
REMARK 924 INTRA-LIGAND FREE ENERGY PREDICTED BY IDOCK:   -0.32 KCAL/MOL
REMARK 927      BINDING AFFINITY PREDICTED BY RF-SCORE:    0.00 PKD
ROOT
HETATM    1  C   UNL     1     -10.759   7.704  68.559  1.00  0.00    -0.094 C  
HETATM    2  C   UNL     1     -10.749   8.205  70.014  1.00  0.00    -0.243 C  
ENDROOT
BRANCH   2   3
HETATM    3  C   UNL     1     -11.434   9.560  70.216  1.00  0.00    -0.256 A  
HETATM    4  C   UNL     1     -10.604  11.520  67.076  1.00  0.00    -0.277 A  
HETATM    5  C   UNL     1     -12.138   9.810  71.411  1.00  0.00    -0.486 A  
HETATM    6  C   UNL     1     -11.080  12.774  67.426  1.00  0.00    -0.312 A  
HETATM    7  C   UNL     1     -10.744  10.448  67.964  1.00  0.00    -0.292 A  
HETATM    8  C   UNL     1     -11.730  12.946  68.646  1.00  0.00    -0.359 A  
HETATM    9  C   UNL     1     -12.704  11.053  71.673  1.00  0.00    -0.483 A  
HETATM   10  C   UNL     1     -12.559  12.084  70.754  1.00  0.00    -0.312 A  
HETATM   11  C   UNL     1     -11.346  10.598  69.236  1.00  0.00    -0.346 A  
HETATM   12  C   UNL     1     -11.881  11.878  69.546  1.00  0.00    -0.395 A  
ENDBRANCH   2   3
BRANCH   2  13
HETATM   13  N   UNL     1      -9.418   8.119  70.639  1.00  0.00    -0.161 NA 
HETATM   14  H   UNL     1      -9.157   7.144  70.786  1.00  0.00     0.000 HD 
BRANCH  13  15
HETATM   15  C   UNL     1      -8.365   8.824  69.917  1.00  0.00    -0.125 C  
BRANCH  15  16
HETATM   16  C   UNL     1      -7.313   7.839  69.410  1.00  0.00    -0.086 C  
BRANCH  16  17
HETATM   17  C   UNL     1      -7.359   6.553  70.239  1.00  0.00    -0.089 C  
BRANCH  17  18
HETATM   18  C   UNL     1      -8.046   5.444  69.488  1.00  0.00    -0.096 A  
HETATM   19  C   UNL     1      -8.508   4.289  67.392  1.00  0.00    -0.099 A  
HETATM   20  C   UNL     1      -8.303   4.129  65.906  1.00  0.00    -0.109 C  
HETATM   21  C   UNL     1      -7.826   5.281  68.113  1.00  0.00    -0.088 A  
HETATM   22  C   UNL     1      -9.627   3.609  69.439  1.00  0.00    -0.196 A  
HETATM   23  F   UNL     1      -7.404   5.009  65.380  1.00  0.00    -0.067 F  
HETATM   24  F   UNL     1      -7.848   2.890  65.571  1.00  0.00    -0.077 F  
HETATM   25  F   UNL     1      -9.454   4.308  65.199  1.00  0.00    -0.137 F  
HETATM   26  C   UNL     1      -9.408   3.453  68.069  1.00  0.00    -0.241 A  
HETATM   27  C   UNL     1      -8.951   4.603  70.142  1.00  0.00    -0.136 A  
ENDBRANCH  17  18
ENDBRANCH  16  17
ENDBRANCH  15  16
ENDBRANCH  13  15
ENDBRANCH   2  13
TORSDOF 6
ENDMDL
MODEL      404
REMARK 921   NORMALIZED FREE ENERGY PREDICTED BY IDOCK:   -2.02 KCAL/MOL
REMARK 922        TOTAL FREE ENERGY PREDICTED BY IDOCK:   -5.86 KCAL/MOL
REMARK 923 INTER-LIGAND FREE ENERGY PREDICTED BY IDOCK:   -6.35 KCAL/MOL
REMARK 924 INTRA-LIGAND FREE ENERGY PREDICTED BY IDOCK:    0.49 KCAL/MOL
REMARK 927      BINDING AFFINITY PREDICTED BY RF-SCORE:    0.00 PKD
ROOT
HETATM    1  C   UNL     1     -11.284  12.451  65.771  1.00  0.00    -0.370 C  
HETATM    2  C   UNL     1     -11.884  12.400  67.187  1.00  0.00    -0.291 C  
ENDROOT
BRANCH   2   3
HETATM    3  C   UNL     1     -11.595  13.642  68.035  1.00  0.00    -0.368 A  
HETATM    4  C   UNL     1      -9.088  15.624  65.993  1.00  0.00    -0.346 A  
HETATM    5  C   UNL     1     -12.220  13.785  69.291  1.00  0.00    -0.307 A  
HETATM    6  C   UNL     1      -8.736  16.606  66.906  1.00  0.00    -0.241 A  
HETATM    7  C   UNL     1     -10.048  14.667  66.334  1.00  0.00    -0.288 A  
HETATM    8  C   UNL     1      -9.374  16.654  68.144  1.00  0.00    -0.224 A  
HETATM    9  C   UNL     1     -11.925  14.854  70.131  1.00  0.00    -0.368 A  
HETATM   10  C   UNL     1     -10.979  15.793  69.743  1.00  0.00    -0.316 A  
HETATM   11  C   UNL     1     -10.675  14.649  67.603  1.00  0.00    -0.271 A  
HETATM   12  C   UNL     1     -10.343  15.702  68.498  1.00  0.00    -0.219 A  
ENDBRANCH   2   3
BRANCH   2  13
HETATM   13  N   UNL     1     -11.600  11.133  67.883  1.00  0.00    -0.540 NA 
HETATM   14  H   UNL     1     -12.413  10.518  67.848  1.00  0.00     0.000 HD 
BRANCH  13  15
HETATM   15  C   UNL     1     -10.412  10.433  67.404  1.00  0.00    -0.249 C  
BRANCH  15  16
HETATM   16  C   UNL     1     -10.684   8.934  67.294  1.00  0.00    -0.219 C  
BRANCH  16  17
HETATM   17  C   UNL     1      -9.573   8.259  66.485  1.00  0.00    -0.312 C  
BRANCH  17  18
HETATM   18  C   UNL     1      -9.468   6.795  66.821  1.00  0.00    -0.199 A  
HETATM   19  C   UNL     1      -9.009   4.502  66.132  1.00  0.00    -0.120 A  
HETATM   20  C   UNL     1      -8.597   3.503  65.080  1.00  0.00    -0.110 C  
HETATM   21  C   UNL     1      -9.053   5.875  65.847  1.00  0.00    -0.135 A  
HETATM   22  C   UNL     1      -9.788   4.973  68.386  1.00  0.00    -0.209 A  
HETATM   23  F   UNL     1      -8.269   4.072  63.885  1.00  0.00    -0.086 F  
HETATM   24  F   UNL     1      -7.511   2.770  65.451  1.00  0.00    -0.066 F  
HETATM   25  F   UNL     1      -9.580   2.602  64.803  1.00  0.00    -0.150 F  
HETATM   26  C   UNL     1      -9.378   4.061  67.412  1.00  0.00    -0.215 A  
HETATM   27  C   UNL     1      -9.836   6.333  68.088  1.00  0.00    -0.133 A  
ENDBRANCH  17  18
ENDBRANCH  16  17
ENDBRANCH  15  16
ENDBRANCH  13  15
ENDBRANCH   2  13
TORSDOF 6
ENDMDL
MODEL      405
REMARK 921   NORMALIZED FREE ENERGY PREDICTED BY IDOCK:   -1.99 KCAL/MOL
REMARK 922        TOTAL FREE ENERGY PREDICTED BY IDOCK:   -5.82 KCAL/MOL
REMARK 923 INTER-LIGAND FREE ENERGY PREDICTED BY IDOCK:   -4.79 KCAL/MOL
REMARK 924 INTRA-LIGAND FREE ENERGY PREDICTED BY IDOCK:   -1.03 KCAL/MOL
REMARK 927      BINDING AFFINITY PREDICTED BY RF-SCORE:    0.00 PKD
ROOT
HETATM    1  C   UNL     1     -10.586   9.272  68.805  1.00  0.00    -0.220 C  
HETATM    2  C   UNL     1      -9.666  10.474  68.525  1.00  0.00    -0.165 C  
ENDROOT
BRANCH   2   3
HETATM    3  C   UNL     1     -10.079  11.309  67.309  1.00  0.00    -0.214 A  
HETATM    4  C   UNL     1     -10.921  14.719  68.741  1.00  0.00    -0.267 A  
HETATM    5  C   UNL     1     -10.099  10.711  66.032  1.00  0.00    -0.308 A  
HETATM    6  C   UNL     1     -11.467  15.335  67.626  1.00  0.00    -0.287 A  
HETATM    7  C   UNL     1     -10.430  13.413  68.645  1.00  0.00    -0.237 A  
HETATM    8  C   UNL     1     -11.486  14.660  66.408  1.00  0.00    -0.348 A  
HETATM    9  C   UNL     1     -10.546  11.406  64.913  1.00  0.00    -0.368 A  
HETATM   10  C   UNL     1     -11.007  12.709  65.050  1.00  0.00    -0.323 A  
HETATM   11  C   UNL     1     -10.484  12.674  67.439  1.00  0.00    -0.233 A  
HETATM   12  C   UNL     1     -10.991  13.349  66.296  1.00  0.00    -0.296 A  
ENDBRANCH   2   3
BRANCH   2  13
HETATM   13  N   UNL     1      -8.237  10.115  68.535  1.00  0.00    -0.107 NA 
HETATM   14  H   UNL     1      -7.668  10.931  68.763  1.00  0.00     0.000 HD 
BRANCH  13  15
HETATM   15  C   UNL     1      -7.901   8.999  69.413  1.00  0.00    -0.094 C  
BRANCH  15  16
HETATM   16  C   UNL     1      -7.086   7.952  68.656  1.00  0.00    -0.076 C  
BRANCH  16  17
HETATM   17  C   UNL     1      -7.474   6.548  69.126  1.00  0.00    -0.095 C  
BRANCH  17  18
HETATM   18  C   UNL     1      -8.290   5.830  68.085  1.00  0.00    -0.107 A  
HETATM   19  C   UNL     1      -8.439   4.719  65.920  1.00  0.00    -0.117 A  
HETATM   20  C   UNL     1      -7.792   4.215  64.654  1.00  0.00    -0.085 C  
HETATM   21  C   UNL     1      -7.678   5.335  66.925  1.00  0.00    -0.096 A  
HETATM   22  C   UNL     1     -10.439   5.081  67.253  1.00  0.00    -0.151 A  
HETATM   23  F   UNL     1      -6.443   4.405  64.616  1.00  0.00    -0.034 F  
HETATM   24  F   UNL     1      -7.984   2.880  64.463  1.00  0.00    -0.078 F  
HETATM   25  F   UNL     1      -8.283   4.826  63.539  1.00  0.00    -0.083 F  
HETATM   26  C   UNL     1      -9.825   4.593  66.097  1.00  0.00    -0.240 A  
HETATM   27  C   UNL     1      -9.673   5.699  68.239  1.00  0.00    -0.160 A  
ENDBRANCH  17  18
ENDBRANCH  16  17
ENDBRANCH  15  16
ENDBRANCH  13  15
ENDBRANCH   2  13
TORSDOF 6
ENDMDL
MODEL      406
REMARK 921   NORMALIZED FREE ENERGY PREDICTED BY IDOCK:   -1.98 KCAL/MOL
REMARK 922        TOTAL FREE ENERGY PREDICTED BY IDOCK:   -5.80 KCAL/MOL
REMARK 923 INTER-LIGAND FREE ENERGY PREDICTED BY IDOCK:   -5.20 KCAL/MOL
REMARK 924 INTRA-LIGAND FREE ENERGY PREDICTED BY IDOCK:   -0.61 KCAL/MOL
REMARK 927      BINDING AFFINITY PREDICTED BY RF-SCORE:    0.00 PKD
ROOT
HETATM    1  C   UNL     1      -6.595   9.155  66.282  1.00  0.00    -0.066 C  
HETATM    2  C   UNL     1      -7.808   9.676  67.073  1.00  0.00    -0.098 C  
ENDROOT
BRANCH   2   3
HETATM    3  C   UNL     1      -8.196   8.805  68.272  1.00  0.00    -0.118 A  
HETATM    4  C   UNL     1      -9.868   5.767  66.734  1.00  0.00    -0.188 A  
HETATM    5  C   UNL     1      -7.920   9.259  69.578  1.00  0.00    -0.098 A  
HETATM    6  C   UNL     1     -10.358   5.144  67.871  1.00  0.00    -0.148 A  
HETATM    7  C   UNL     1      -9.128   6.947  66.850  1.00  0.00    -0.152 A  
HETATM    8  C   UNL     1     -10.074   5.680  69.125  1.00  0.00    -0.274 A  
HETATM    9  C   UNL     1      -8.328   8.541  70.697  1.00  0.00    -0.141 A  
HETATM   10  C   UNL     1      -9.044   7.362  70.535  1.00  0.00    -0.157 A  
HETATM   11  C   UNL     1      -8.868   7.554  68.103  1.00  0.00    -0.127 A  
HETATM   12  C   UNL     1      -9.328   6.863  69.257  1.00  0.00    -0.144 A  
ENDBRANCH   2   3
BRANCH   2  13
HETATM   13  N   UNL     1      -8.947  10.028  66.208  1.00  0.00    -0.146 NA 
HETATM   14  H   UNL     1      -9.781   9.511  66.489  1.00  0.00     0.000 HD 
BRANCH  13  15
HETATM   15  C   UNL     1      -9.235  11.457  66.139  1.00  0.00    -0.210 C  
BRANCH  15  16
HETATM   16  C   UNL     1     -10.192  11.864  67.257  1.00  0.00    -0.220 C  
BRANCH  16  17
HETATM   17  C   UNL     1      -9.462  12.744  68.275  1.00  0.00    -0.203 C  
BRANCH  17  18
HETATM   18  C   UNL     1      -9.971  14.161  68.234  1.00  0.00    -0.241 A  
HETATM   19  C   UNL     1      -9.619  16.513  67.701  1.00  0.00    -0.235 A  
HETATM   20  C   UNL     1      -8.756  17.620  67.149  1.00  0.00    -0.243 C  
HETATM   21  C   UNL     1      -9.179  15.181  67.690  1.00  0.00    -0.181 A  
HETATM   22  C   UNL     1     -11.666  15.798  68.797  1.00  0.00    -0.387 A  
HETATM   23  F   UNL     1      -7.566  17.188  66.644  1.00  0.00    -0.201 F  
HETATM   24  F   UNL     1      -9.363  18.300  66.136  1.00  0.00    -0.298 F  
HETATM   25  F   UNL     1      -8.442  18.554  68.089  1.00  0.00    -0.270 F  
HETATM   26  C   UNL     1     -10.872  16.811  68.257  1.00  0.00    -0.366 A  
HETATM   27  C   UNL     1     -11.215  14.480  68.788  1.00  0.00    -0.281 A  
ENDBRANCH  17  18
ENDBRANCH  16  17
ENDBRANCH  15  16
ENDBRANCH  13  15
ENDBRANCH   2  13
TORSDOF 6
ENDMDL
MODEL      407
REMARK 921   NORMALIZED FREE ENERGY PREDICTED BY IDOCK:   -1.97 KCAL/MOL
REMARK 922        TOTAL FREE ENERGY PREDICTED BY IDOCK:   -5.79 KCAL/MOL
REMARK 923 INTER-LIGAND FREE ENERGY PREDICTED BY IDOCK:   -4.75 KCAL/MOL
REMARK 924 INTRA-LIGAND FREE ENERGY PREDICTED BY IDOCK:   -1.04 KCAL/MOL
REMARK 927      BINDING AFFINITY PREDICTED BY RF-SCORE:    0.00 PKD
ROOT
HETATM    1  C   UNL     1     -10.823   8.161  67.867  1.00  0.00    -0.038 C  
HETATM    2  C   UNL     1     -10.355   9.474  68.520  1.00  0.00    -0.207 C  
ENDROOT
BRANCH   2   3
HETATM    3  C   UNL     1      -9.135  10.110  67.846  1.00  0.00    -0.133 A  
HETATM    4  C   UNL     1      -6.534   7.349  67.795  1.00  0.00    -0.050 A  
HETATM    5  C   UNL     1      -9.189  11.461  67.446  1.00  0.00    -0.164 A  
HETATM    6  C   UNL     1      -5.422   8.056  67.364  1.00  0.00    -0.037 A  
HETATM    7  C   UNL     1      -7.766   7.999  67.924  1.00  0.00    -0.114 A  
HETATM    8  C   UNL     1      -5.551   9.401  67.025  1.00  0.00    -0.040 A  
HETATM    9  C   UNL     1      -8.079  12.102  66.906  1.00  0.00    -0.112 A  
HETATM   10  C   UNL     1      -6.881  11.412  66.777  1.00  0.00    -0.132 A  
HETATM   11  C   UNL     1      -7.923   9.378  67.645  1.00  0.00    -0.099 A  
HETATM   12  C   UNL     1      -6.783  10.065  67.146  1.00  0.00    -0.074 A  
ENDBRANCH   2   3
BRANCH   2  13
HETATM   13  N   UNL     1     -10.233   9.373  69.985  1.00  0.00    -0.212 NA 
HETATM   14  H   UNL     1      -9.631  10.116  70.343  1.00  0.00     0.000 HD 
BRANCH  13  15
HETATM   15  C   UNL     1     -11.505   9.361  70.698  1.00  0.00    -0.284 C  
BRANCH  15  16
HETATM   16  C   UNL     1     -11.503   8.278  71.775  1.00  0.00    -0.353 C  
BRANCH  16  17
HETATM   17  C   UNL     1     -12.142   6.997  71.231  1.00  0.00    -0.403 C  
BRANCH  17  18
HETATM   18  C   UNL     1     -11.119   5.906  71.065  1.00  0.00    -0.315 A  
HETATM   19  C   UNL     1      -9.743   4.507  69.617  1.00  0.00    -0.288 A  
HETATM   20  C   UNL     1      -9.263   4.111  68.244  1.00  0.00    -0.144 C  
HETATM   21  C   UNL     1     -10.652   5.564  69.789  1.00  0.00    -0.388 A  
HETATM   22  C   UNL     1      -9.758   4.143  72.020  1.00  0.00    -0.231 A  
HETATM   23  F   UNL     1      -9.777   4.879  67.241  1.00  0.00    -0.141 F  
HETATM   24  F   UNL     1      -7.909   4.197  68.118  1.00  0.00    -0.072 F  
HETATM   25  F   UNL     1      -9.587   2.826  67.929  1.00  0.00    -0.248 F  
HETATM   26  C   UNL     1      -9.299   3.803  70.746  1.00  0.00    -0.218 A  
HETATM   27  C   UNL     1     -10.667   5.187  72.176  1.00  0.00    -0.252 A  
ENDBRANCH  17  18
ENDBRANCH  16  17
ENDBRANCH  15  16
ENDBRANCH  13  15
ENDBRANCH   2  13
TORSDOF 6
ENDMDL
MODEL      408
REMARK 921   NORMALIZED FREE ENERGY PREDICTED BY IDOCK:   -1.97 KCAL/MOL
REMARK 922        TOTAL FREE ENERGY PREDICTED BY IDOCK:   -5.79 KCAL/MOL
REMARK 923 INTER-LIGAND FREE ENERGY PREDICTED BY IDOCK:   -5.26 KCAL/MOL
REMARK 924 INTRA-LIGAND FREE ENERGY PREDICTED BY IDOCK:   -0.52 KCAL/MOL
REMARK 927      BINDING AFFINITY PREDICTED BY RF-SCORE:    0.00 PKD
ROOT
HETATM    1  C   UNL     1      -7.576  15.128  69.301  1.00  0.00    -0.201 C  
HETATM    2  C   UNL     1      -7.230  15.272  67.809  1.00  0.00    -0.165 C  
ENDROOT
BRANCH   2   3
HETATM    3  C   UNL     1      -8.355  15.869  66.958  1.00  0.00    -0.255 A  
HETATM    4  C   UNL     1      -8.449  19.530  67.943  1.00  0.00    -0.353 A  
HETATM    5  C   UNL     1      -9.086  15.032  66.090  1.00  0.00    -0.237 A  
HETATM    6  C   UNL     1      -9.603  19.939  67.292  1.00  0.00    -0.502 A  
HETATM    7  C   UNL     1      -8.008  18.210  67.816  1.00  0.00    -0.238 A  
HETATM    8  C   UNL     1     -10.291  19.038  66.483  1.00  0.00    -0.512 A  
HETATM    9  C   UNL     1     -10.169  15.513  65.361  1.00  0.00    -0.409 A  
HETATM   10  C   UNL     1     -10.561  16.837  65.503  1.00  0.00    -0.243 A  
HETATM   11  C   UNL     1      -8.712  17.251  67.049  1.00  0.00    -0.248 A  
HETATM   12  C   UNL     1      -9.856  17.710  66.342  1.00  0.00    -0.315 A  
ENDBRANCH   2   3
BRANCH   2  13
HETATM   13  N   UNL     1      -6.645  14.046  67.236  1.00  0.00    -0.417 NA 
HETATM   14  H   UNL     1      -5.631  14.136  67.165  1.00  0.00     0.000 HD 
BRANCH  13  15
HETATM   15  C   UNL     1      -6.999  12.821  67.944  1.00  0.00    -0.116 C  
BRANCH  15  16
HETATM   16  C   UNL     1      -7.900  11.944  67.077  1.00  0.00    -0.152 C  
BRANCH  16  17
HETATM   17  C   UNL     1      -9.076  11.421  67.906  1.00  0.00    -0.164 C  
BRANCH  17  18
HETATM   18  C   UNL     1      -8.652  10.284  68.797  1.00  0.00    -0.139 A  
HETATM   19  C   UNL     1      -8.579   7.896  69.278  1.00  0.00    -0.138 A  
HETATM   20  C   UNL     1      -8.893   6.469  68.901  1.00  0.00    -0.126 C  
HETATM   21  C   UNL     1      -8.917   8.959  68.426  1.00  0.00    -0.134 A  
HETATM   22  C   UNL     1      -7.690   9.496  70.876  1.00  0.00    -0.022 A  
HETATM   23  F   UNL     1      -9.496   6.344  67.685  1.00  0.00    -0.122 F  
HETATM   24  F   UNL     1      -7.780   5.686  68.845  1.00  0.00    -0.082 F  
HETATM   25  F   UNL     1      -9.730   5.867  69.793  1.00  0.00    -0.160 F  
HETATM   26  C   UNL     1      -7.960   8.177  70.505  1.00  0.00    -0.095 A  
HETATM   27  C   UNL     1      -8.039  10.543  70.027  1.00  0.00     0.281 A  
ENDBRANCH  17  18
ENDBRANCH  16  17
ENDBRANCH  15  16
ENDBRANCH  13  15
ENDBRANCH   2  13
TORSDOF 6
ENDMDL
MODEL      409
REMARK 921   NORMALIZED FREE ENERGY PREDICTED BY IDOCK:   -1.97 KCAL/MOL
REMARK 922        TOTAL FREE ENERGY PREDICTED BY IDOCK:   -5.78 KCAL/MOL
REMARK 923 INTER-LIGAND FREE ENERGY PREDICTED BY IDOCK:   -5.52 KCAL/MOL
REMARK 924 INTRA-LIGAND FREE ENERGY PREDICTED BY IDOCK:   -0.26 KCAL/MOL
REMARK 927      BINDING AFFINITY PREDICTED BY RF-SCORE:    0.00 PKD
ROOT
HETATM    1  C   UNL     1     -10.291   7.957  68.675  1.00  0.00    -0.224 C  
HETATM    2  C   UNL     1     -10.396   8.064  70.207  1.00  0.00    -0.212 C  
ENDROOT
BRANCH   2   3
HETATM    3  C   UNL     1     -11.413   9.100  70.695  1.00  0.00    -0.310 A  
HETATM    4  C   UNL     1     -10.668  12.201  68.640  1.00  0.00    -0.261 A  
HETATM    5  C   UNL     1     -12.312   8.758  71.725  1.00  0.00    -0.412 A  
HETATM    6  C   UNL     1     -11.479  13.128  69.276  1.00  0.00    -0.348 A  
HETATM    7  C   UNL     1     -10.661  10.870  69.070  1.00  0.00    -0.262 A  
HETATM    8  C   UNL     1     -12.312  12.715  70.315  1.00  0.00    -0.269 A  
HETATM    9  C   UNL     1     -13.196   9.691  72.257  1.00  0.00    -0.492 A  
HETATM   10  C   UNL     1     -13.183  10.998  71.786  1.00  0.00    -0.505 A  
HETATM   11  C   UNL     1     -11.449  10.426  70.159  1.00  0.00    -0.396 A  
HETATM   12  C   UNL     1     -12.318  11.381  70.754  1.00  0.00    -0.483 A  
ENDBRANCH   2   3
BRANCH   2  13
HETATM   13  N   UNL     1      -9.082   8.173  70.864  1.00  0.00    -0.147 NA 
HETATM   14  H   UNL     1      -8.634   7.258  70.916  1.00  0.00     0.000 HD 
BRANCH  13  15
HETATM   15  C   UNL     1      -8.181   9.146  70.255  1.00  0.00    -0.159 C  
BRANCH  15  16
HETATM   16  C   UNL     1      -6.945   8.448  69.689  1.00  0.00    -0.048 C  
BRANCH  16  17
HETATM   17  C   UNL     1      -6.789   7.065  70.326  1.00  0.00    -0.057 C  
BRANCH  17  18
HETATM   18  C   UNL     1      -6.865   5.976  69.289  1.00  0.00    -0.062 A  
HETATM   19  C   UNL     1      -7.928   3.961  68.420  1.00  0.00    -0.075 A  
HETATM   20  C   UNL     1      -9.000   2.904  68.498  1.00  0.00    -0.141 C  
HETATM   21  C   UNL     1      -7.883   5.015  69.347  1.00  0.00    -0.075 A  
HETATM   22  C   UNL     1      -5.928   4.846  67.361  1.00  0.00    -0.023 A  
HETATM   23  F   UNL     1      -9.889   3.098  69.514  1.00  0.00    -0.215 F  
HETATM   24  F   UNL     1      -9.748   2.833  67.361  1.00  0.00    -0.207 F  
HETATM   25  F   UNL     1      -8.489   1.656  68.687  1.00  0.00    -0.065 F  
HETATM   26  C   UNL     1      -6.942   3.889  67.425  1.00  0.00    -0.055 A  
HETATM   27  C   UNL     1      -5.889   5.882  68.291  1.00  0.00    -0.012 A  
ENDBRANCH  17  18
ENDBRANCH  16  17
ENDBRANCH  15  16
ENDBRANCH  13  15
ENDBRANCH   2  13
TORSDOF 6
ENDMDL
MODEL      410
REMARK 921   NORMALIZED FREE ENERGY PREDICTED BY IDOCK:   -1.96 KCAL/MOL
REMARK 922        TOTAL FREE ENERGY PREDICTED BY IDOCK:   -5.77 KCAL/MOL
REMARK 923 INTER-LIGAND FREE ENERGY PREDICTED BY IDOCK:   -4.73 KCAL/MOL
REMARK 924 INTRA-LIGAND FREE ENERGY PREDICTED BY IDOCK:   -1.04 KCAL/MOL
REMARK 927      BINDING AFFINITY PREDICTED BY RF-SCORE:    0.00 PKD
ROOT
HETATM    1  C   UNL     1      -7.155   8.852  71.744  1.00  0.00    -0.032 C  
HETATM    2  C   UNL     1      -8.232   8.845  70.645  1.00  0.00    -0.162 C  
ENDROOT
BRANCH   2   3
HETATM    3  C   UNL     1      -9.656   8.622  71.163  1.00  0.00    -0.281 A  
HETATM    4  C   UNL     1      -9.649   5.055  72.452  1.00  0.00    -0.178 A  
HETATM    5  C   UNL     1     -10.606   9.657  71.046  1.00  0.00    -0.362 A  
HETATM    6  C   UNL     1     -10.999   4.874  72.707  1.00  0.00    -0.294 A  
HETATM    7  C   UNL     1      -9.188   6.287  71.979  1.00  0.00    -0.145 A  
HETATM    8  C   UNL     1     -11.881   5.938  72.528  1.00  0.00    -0.238 A  
HETATM    9  C   UNL     1     -11.931   9.471  71.426  1.00  0.00    -0.464 A  
HETATM   10  C   UNL     1     -12.342   8.236  71.910  1.00  0.00    -0.379 A  
HETATM   11  C   UNL     1     -10.061   7.373  71.729  1.00  0.00    -0.197 A  
HETATM   12  C   UNL     1     -11.430   7.183  72.058  1.00  0.00    -0.310 A  
ENDBRANCH   2   3
BRANCH   2  13
HETATM   13  N   UNL     1      -7.878   7.982  69.504  1.00  0.00    -0.103 NA 
HETATM   14  H   UNL     1      -8.243   8.374  68.635  1.00  0.00     0.000 HD 
BRANCH  13  15
HETATM   15  C   UNL     1      -6.451   7.704  69.375  1.00  0.00    -0.035 C  
BRANCH  15  16
HETATM   16  C   UNL     1      -6.143   6.276  69.820  1.00  0.00    -0.026 C  
BRANCH  16  17
HETATM   17  C   UNL     1      -5.925   5.382  68.597  1.00  0.00    -0.021 C  
BRANCH  17  18
HETATM   18  C   UNL     1      -7.138   4.536  68.316  1.00  0.00    -0.057 A  
HETATM   19  C   UNL     1      -8.995   3.930  66.857  1.00  0.00    -0.147 A  
HETATM   20  C   UNL     1      -9.762   4.096  65.570  1.00  0.00    -0.202 C  
HETATM   21  C   UNL     1      -7.828   4.671  67.104  1.00  0.00    -0.094 A  
HETATM   22  C   UNL     1      -8.769   2.901  69.047  1.00  0.00    -0.133 A  
HETATM   23  F   UNL     1      -9.201   4.993  64.709  1.00  0.00    -0.156 F  
HETATM   24  F   UNL     1      -9.870   2.931  64.871  1.00  0.00    -0.145 F  
HETATM   25  F   UNL     1     -11.038   4.528  65.775  1.00  0.00    -0.307 F  
HETATM   26  C   UNL     1      -9.456   3.041  67.840  1.00  0.00    -0.210 A  
HETATM   27  C   UNL     1      -7.618   3.648  69.283  1.00  0.00    -0.052 A  
ENDBRANCH  17  18
ENDBRANCH  16  17
ENDBRANCH  15  16
ENDBRANCH  13  15
ENDBRANCH   2  13
TORSDOF 6
ENDMDL
MODEL      411
REMARK 921   NORMALIZED FREE ENERGY PREDICTED BY IDOCK:   -1.93 KCAL/MOL
REMARK 922        TOTAL FREE ENERGY PREDICTED BY IDOCK:   -5.73 KCAL/MOL
REMARK 923 INTER-LIGAND FREE ENERGY PREDICTED BY IDOCK:   -5.21 KCAL/MOL
REMARK 924 INTRA-LIGAND FREE ENERGY PREDICTED BY IDOCK:   -0.52 KCAL/MOL
REMARK 927      BINDING AFFINITY PREDICTED BY RF-SCORE:    0.00 PKD
ROOT
HETATM    1  C   UNL     1     -10.510   5.421  70.770  1.00  0.00    -0.317 C  
HETATM    2  C   UNL     1     -10.295   6.519  71.828  1.00  0.00    -0.205 C  
ENDROOT
BRANCH   2   3
HETATM    3  C   UNL     1     -11.185   7.751  71.642  1.00  0.00    -0.286 A  
HETATM    4  C   UNL     1     -10.135   9.183  68.290  1.00  0.00    -0.221 A  
HETATM    5  C   UNL     1     -12.102   8.103  72.654  1.00  0.00    -0.311 A  
HETATM    6  C   UNL     1     -10.831  10.382  68.297  1.00  0.00    -0.299 A  
HETATM    7  C   UNL     1     -10.268   8.295  69.362  1.00  0.00    -0.204 A  
HETATM    8  C   UNL     1     -11.688  10.673  69.356  1.00  0.00    -0.344 A  
HETATM    9  C   UNL     1     -12.870   9.259  72.566  1.00  0.00    -0.351 A  
HETATM   10  C   UNL     1     -12.721  10.104  71.473  1.00  0.00    -0.541 A  
HETATM   11  C   UNL     1     -11.084   8.582  70.482  1.00  0.00    -0.265 A  
HETATM   12  C   UNL     1     -11.835   9.788  70.437  1.00  0.00    -0.264 A  
ENDBRANCH   2   3
BRANCH   2  13
HETATM   13  N   UNL     1      -8.873   6.844  72.033  1.00  0.00    -0.132 NA 
HETATM   14  H   UNL     1      -8.458   6.210  72.716  1.00  0.00     0.000 HD 
BRANCH  13  15
HETATM   15  C   UNL     1      -8.076   6.869  70.811  1.00  0.00    -0.114 C  
BRANCH  15  16
HETATM   16  C   UNL     1      -7.191   5.627  70.726  1.00  0.00    -0.079 C  
BRANCH  16  17
HETATM   17  C   UNL     1      -6.208   5.763  69.560  1.00  0.00    -0.032 C  
BRANCH  17  18
HETATM   18  C   UNL     1      -6.914   6.184  68.299  1.00  0.00    -0.080 A  
HETATM   19  C   UNL     1      -8.835   6.031  66.806  1.00  0.00    -0.120 A  
HETATM   20  C   UNL     1     -10.197   5.478  66.470  1.00  0.00    -0.228 C  
HETATM   21  C   UNL     1      -8.194   5.693  68.008  1.00  0.00    -0.100 A  
HETATM   22  C   UNL     1      -6.907   7.375  66.189  1.00  0.00    -0.057 A  
HETATM   23  F   UNL     1     -10.713   4.667  67.437  1.00  0.00    -0.094 F  
HETATM   24  F   UNL     1     -11.126   6.457  66.275  1.00  0.00    -0.213 F  
HETATM   25  F   UNL     1     -10.191   4.736  65.328  1.00  0.00    -0.186 F  
HETATM   26  C   UNL     1      -8.180   6.880  65.902  1.00  0.00    -0.129 A  
HETATM   27  C   UNL     1      -6.277   7.025  67.381  1.00  0.00    -0.041 A  
ENDBRANCH  17  18
ENDBRANCH  16  17
ENDBRANCH  15  16
ENDBRANCH  13  15
ENDBRANCH   2  13
TORSDOF 6
ENDMDL
MODEL      412
REMARK 921   NORMALIZED FREE ENERGY PREDICTED BY IDOCK:   -1.92 KCAL/MOL
REMARK 922        TOTAL FREE ENERGY PREDICTED BY IDOCK:   -5.72 KCAL/MOL
REMARK 923 INTER-LIGAND FREE ENERGY PREDICTED BY IDOCK:   -4.76 KCAL/MOL
REMARK 924 INTRA-LIGAND FREE ENERGY PREDICTED BY IDOCK:   -0.97 KCAL/MOL
REMARK 927      BINDING AFFINITY PREDICTED BY RF-SCORE:    0.00 PKD
ROOT
HETATM    1  C   UNL     1      -9.043  14.729  66.588  1.00  0.00    -0.300 C  
HETATM    2  C   UNL     1      -9.243  14.914  68.103  1.00  0.00    -0.186 C  
ENDROOT
BRANCH   2   3
HETATM    3  C   UNL     1      -8.083  15.624  68.807  1.00  0.00    -0.169 A  
HETATM    4  C   UNL     1      -8.664  19.308  68.115  1.00  0.00    -0.370 A  
HETATM    5  C   UNL     1      -7.106  14.859  69.477  1.00  0.00    -0.184 A  
HETATM    6  C   UNL     1      -7.484  19.848  68.603  1.00  0.00    -0.276 A  
HETATM    7  C   UNL     1      -8.891  17.931  68.206  1.00  0.00    -0.277 A  
HETATM    8  C   UNL     1      -6.551  19.016  69.217  1.00  0.00    -0.333 A  
HETATM    9  C   UNL     1      -5.991  15.455  70.058  1.00  0.00    -0.146 A  
HETATM   10  C   UNL     1      -5.816  16.829  69.961  1.00  0.00    -0.210 A  
HETATM   11  C   UNL     1      -7.941  17.047  68.770  1.00  0.00    -0.248 A  
HETATM   12  C   UNL     1      -6.767  17.632  69.319  1.00  0.00    -0.221 A  
ENDBRANCH   2   3
BRANCH   2  13
HETATM   13  N   UNL     1      -9.673  13.678  68.778  1.00  0.00    -0.405 NA 
HETATM   14  H   UNL     1     -10.372  13.887  69.492  1.00  0.00     0.000 HD 
BRANCH  13  15
HETATM   15  C   UNL     1     -10.161  12.637  67.880  1.00  0.00    -0.220 C  
BRANCH  15  16
HETATM   16  C   UNL     1      -9.866  11.253  68.455  1.00  0.00    -0.198 C  
BRANCH  16  17
HETATM   17  C   UNL     1      -8.367  11.109  68.728  1.00  0.00    -0.136 C  
BRANCH  17  18
HETATM   18  C   UNL     1      -7.723  10.164  67.750  1.00  0.00    -0.090 A  
HETATM   19  C   UNL     1      -7.376   7.896  66.925  1.00  0.00    -0.090 A  
HETATM   20  C   UNL     1      -7.660   6.416  66.990  1.00  0.00    -0.095 C  
HETATM   21  C   UNL     1      -8.016   8.793  67.794  1.00  0.00    -0.106 A  
HETATM   22  C   UNL     1      -6.151   9.755  65.951  1.00  0.00    -0.070 A  
HETATM   23  F   UNL     1      -8.584   6.077  67.934  1.00  0.00    -0.114 F  
HETATM   24  F   UNL     1      -8.136   5.922  65.813  1.00  0.00    -0.102 F  
HETATM   25  F   UNL     1      -6.548   5.684  67.281  1.00  0.00    -0.048 F  
HETATM   26  C   UNL     1      -6.443   8.391  66.002  1.00  0.00    -0.053 A  
HETATM   27  C   UNL     1      -6.786  10.635  66.825  1.00  0.00    -0.108 A  
ENDBRANCH  17  18
ENDBRANCH  16  17
ENDBRANCH  15  16
ENDBRANCH  13  15
ENDBRANCH   2  13
TORSDOF 6
ENDMDL
MODEL      413
REMARK 921   NORMALIZED FREE ENERGY PREDICTED BY IDOCK:   -1.87 KCAL/MOL
REMARK 922        TOTAL FREE ENERGY PREDICTED BY IDOCK:   -5.65 KCAL/MOL
REMARK 923 INTER-LIGAND FREE ENERGY PREDICTED BY IDOCK:   -6.29 KCAL/MOL
REMARK 924 INTRA-LIGAND FREE ENERGY PREDICTED BY IDOCK:    0.64 KCAL/MOL
REMARK 927      BINDING AFFINITY PREDICTED BY RF-SCORE:    0.00 PKD
ROOT
HETATM    1  C   UNL     1      -8.203  15.097  66.628  1.00  0.00    -0.083 C  
HETATM    2  C   UNL     1      -8.442  15.084  68.148  1.00  0.00    -0.151 C  
ENDROOT
BRANCH   2   3
HETATM    3  C   UNL     1      -7.482  15.976  68.942  1.00  0.00    -0.188 A  
HETATM    4  C   UNL     1      -8.253  19.494  67.751  1.00  0.00    -0.333 A  
HETATM    5  C   UNL     1      -6.571  15.386  69.841  1.00  0.00    -0.144 A  
HETATM    6  C   UNL     1      -7.223  20.198  68.356  1.00  0.00    -0.259 A  
HETATM    7  C   UNL     1      -8.373  18.117  67.961  1.00  0.00    -0.268 A  
HETATM    8  C   UNL     1      -6.338  19.532  69.201  1.00  0.00    -0.335 A  
HETATM    9  C   UNL     1      -5.626  16.147  70.520  1.00  0.00    -0.104 A  
HETATM   10  C   UNL     1      -5.555  17.517  70.296  1.00  0.00    -0.236 A  
HETATM   11  C   UNL     1      -7.459  17.395  68.766  1.00  0.00    -0.258 A  
HETATM   12  C   UNL     1      -6.450  18.149  69.424  1.00  0.00    -0.236 A  
ENDBRANCH   2   3
BRANCH   2  13
HETATM   13  N   UNL     1      -8.569  13.722  68.695  1.00  0.00    -0.329 NA 
HETATM   14  H   UNL     1      -8.670  13.755  69.710  1.00  0.00     0.000 HD 
BRANCH  13  15
HETATM   15  C   UNL     1      -9.642  12.930  68.103  1.00  0.00    -0.223 C  
BRANCH  15  16
HETATM   16  C   UNL     1     -10.937  13.738  68.054  1.00  0.00    -0.268 C  
BRANCH  16  17
HETATM   17  C   UNL     1     -11.511  13.892  69.465  1.00  0.00    -0.332 C  
BRANCH  17  18
HETATM   18  C   UNL     1     -11.780  12.550  70.093  1.00  0.00    -0.255 A  
HETATM   19  C   UNL     1     -11.237  10.185  70.330  1.00  0.00    -0.402 A  
HETATM   20  C   UNL     1     -10.377   8.994  69.988  1.00  0.00    -0.206 C  
HETATM   21  C   UNL     1     -10.958  11.454  69.797  1.00  0.00    -0.118 A  
HETATM   22  C   UNL     1     -13.165  11.121  71.475  1.00  0.00    -0.380 A  
HETATM   23  F   UNL     1      -9.337   9.289  69.157  1.00  0.00    -0.146 F  
HETATM   24  F   UNL     1      -9.819   8.419  71.090  1.00  0.00    -0.188 F  
HETATM   25  F   UNL     1     -11.080   8.006  69.366  1.00  0.00    -0.193 F  
HETATM   26  C   UNL     1     -12.346  10.031  71.174  1.00  0.00    -0.477 A  
HETATM   27  C   UNL     1     -12.884  12.373  70.933  1.00  0.00    -0.176 A  
ENDBRANCH  17  18
ENDBRANCH  16  17
ENDBRANCH  15  16
ENDBRANCH  13  15
ENDBRANCH   2  13
TORSDOF 6
ENDMDL
MODEL      414
REMARK 921   NORMALIZED FREE ENERGY PREDICTED BY IDOCK:   -1.84 KCAL/MOL
REMARK 922        TOTAL FREE ENERGY PREDICTED BY IDOCK:   -5.62 KCAL/MOL
REMARK 923 INTER-LIGAND FREE ENERGY PREDICTED BY IDOCK:   -6.14 KCAL/MOL
REMARK 924 INTRA-LIGAND FREE ENERGY PREDICTED BY IDOCK:    0.52 KCAL/MOL
REMARK 927      BINDING AFFINITY PREDICTED BY RF-SCORE:    0.00 PKD
ROOT
HETATM    1  C   UNL     1      -9.740   7.268  67.371  1.00  0.00    -0.191 C  
HETATM    2  C   UNL     1      -9.366   8.459  66.469  1.00  0.00    -0.201 C  
ENDROOT
BRANCH   2   3
HETATM    3  C   UNL     1      -8.287   8.143  65.429  1.00  0.00    -0.163 A  
HETATM    4  C   UNL     1      -8.113   4.354  65.362  1.00  0.00    -0.102 A  
HETATM    5  C   UNL     1      -7.612   9.201  64.787  1.00  0.00    -0.108 A  
HETATM    6  C   UNL     1      -6.996   4.166  64.563  1.00  0.00    -0.050 A  
HETATM    7  C   UNL     1      -8.570   5.649  65.626  1.00  0.00    -0.150 A  
HETATM    8  C   UNL     1      -6.361   5.269  63.998  1.00  0.00    -0.022 A  
HETATM    9  C   UNL     1      -6.569   8.963  63.898  1.00  0.00    -0.087 A  
HETATM   10  C   UNL     1      -6.161   7.659  63.649  1.00  0.00    -0.054 A  
HETATM   11  C   UNL     1      -7.916   6.797  65.117  1.00  0.00    -0.128 A  
HETATM   12  C   UNL     1      -6.812   6.575  64.251  1.00  0.00    -0.042 A  
ENDBRANCH   2   3
BRANCH   2  13
HETATM   13  N   UNL     1      -9.107   9.693  67.231  1.00  0.00    -0.134 NA 
HETATM   14  H   UNL     1      -8.110   9.788  67.426  1.00  0.00     0.000 HD 
BRANCH  13  15
HETATM   15  C   UNL     1      -9.619  10.908  66.606  1.00  0.00    -0.185 C  
BRANCH  15  16
HETATM   16  C   UNL     1     -10.967  11.292  67.213  1.00  0.00    -0.342 C  
BRANCH  16  17
HETATM   17  C   UNL     1     -10.776  12.400  68.252  1.00  0.00    -0.250 C  
BRANCH  17  18
HETATM   18  C   UNL     1     -11.557  12.113  69.506  1.00  0.00    -0.382 A  
HETATM   19  C   UNL     1     -12.599  10.512  71.021  1.00  0.00    -0.499 A  
HETATM   20  C   UNL     1     -12.916   9.091  71.416  1.00  0.00    -0.291 C  
HETATM   21  C   UNL     1     -11.821  10.790  69.886  1.00  0.00    -0.413 A  
HETATM   22  C   UNL     1     -12.840  12.899  71.405  1.00  0.00    -0.377 A  
HETATM   23  F   UNL     1     -12.364   8.157  70.591  1.00  0.00    -0.188 F  
HETATM   24  F   UNL     1     -12.474   8.786  72.668  1.00  0.00    -0.445 F  
HETATM   25  F   UNL     1     -14.255   8.837  71.420  1.00  0.00    -0.434 F  
HETATM   26  C   UNL     1     -13.103  11.580  71.778  1.00  0.00    -0.503 A  
HETATM   27  C   UNL     1     -12.074  13.162  70.272  1.00  0.00    -0.399 A  
ENDBRANCH  17  18
ENDBRANCH  16  17
ENDBRANCH  15  16
ENDBRANCH  13  15
ENDBRANCH   2  13
TORSDOF 6
ENDMDL
MODEL      415
REMARK 921   NORMALIZED FREE ENERGY PREDICTED BY IDOCK:   -1.82 KCAL/MOL
REMARK 922        TOTAL FREE ENERGY PREDICTED BY IDOCK:   -5.59 KCAL/MOL
REMARK 923 INTER-LIGAND FREE ENERGY PREDICTED BY IDOCK:   -4.49 KCAL/MOL
REMARK 924 INTRA-LIGAND FREE ENERGY PREDICTED BY IDOCK:   -1.10 KCAL/MOL
REMARK 927      BINDING AFFINITY PREDICTED BY RF-SCORE:    0.00 PKD
ROOT
HETATM    1  C   UNL     1      -8.602   6.624  67.660  1.00  0.00    -0.120 C  
HETATM    2  C   UNL     1      -8.082   8.044  67.377  1.00  0.00    -0.122 C  
ENDROOT
BRANCH   2   3
HETATM    3  C   UNL     1      -7.343   8.187  66.043  1.00  0.00    -0.076 A  
HETATM    4  C   UNL     1      -9.627  10.348  63.921  1.00  0.00    -0.370 A  
HETATM    5  C   UNL     1      -6.107   7.534  65.861  1.00  0.00    -0.038 A  
HETATM    6  C   UNL     1      -8.992  10.258  62.692  1.00  0.00    -0.272 A  
HETATM    7  C   UNL     1      -9.081   9.705  65.036  1.00  0.00    -0.284 A  
HETATM    8  C   UNL     1      -7.792   9.559  62.588  1.00  0.00    -0.117 A  
HETATM    9  C   UNL     1      -5.442   7.567  64.640  1.00  0.00    -0.033 A  
HETATM   10  C   UNL     1      -6.011   8.235  63.563  1.00  0.00    -0.072 A  
HETATM   11  C   UNL     1      -7.894   8.937  64.956  1.00  0.00    -0.112 A  
HETATM   12  C   UNL     1      -7.229   8.911  63.700  1.00  0.00    -0.093 A  
ENDBRANCH   2   3
BRANCH   2  13
HETATM   13  N   UNL     1      -7.353   8.625  68.518  1.00  0.00    -0.084 NA 
HETATM   14  H   UNL     1      -6.447   8.168  68.631  1.00  0.00     0.000 HD 
BRANCH  13  15
HETATM   15  C   UNL     1      -7.188  10.073  68.457  1.00  0.00    -0.076 C  
BRANCH  15  16
HETATM   16  C   UNL     1      -8.364  10.773  69.134  1.00  0.00    -0.111 C  
BRANCH  16  17
HETATM   17  C   UNL     1      -9.337  11.303  68.078  1.00  0.00    -0.166 C  
BRANCH  17  18
HETATM   18  C   UNL     1      -8.961  12.693  67.639  1.00  0.00    -0.186 A  
HETATM   19  C   UNL     1      -9.577  14.825  66.630  1.00  0.00    -0.289 A  
HETATM   20  C   UNL     1     -10.607  15.738  66.013  1.00  0.00    -0.326 C  
HETATM   21  C   UNL     1      -9.930  13.550  67.097  1.00  0.00    -0.246 A  
HETATM   22  C   UNL     1      -7.272  14.390  67.265  1.00  0.00    -0.030 A  
HETATM   23  F   UNL     1     -11.863  15.208  65.986  1.00  0.00    -0.258 F  
HETATM   24  F   UNL     1     -10.721  16.923  66.677  1.00  0.00    -0.299 F  
HETATM   25  F   UNL     1     -10.313  16.060  64.722  1.00  0.00    -0.342 F  
HETATM   26  C   UNL     1      -8.240  15.238  66.722  1.00  0.00    -0.215 A  
HETATM   27  C   UNL     1      -7.633  13.123  67.717  1.00  0.00    -0.155 A  
ENDBRANCH  17  18
ENDBRANCH  16  17
ENDBRANCH  15  16
ENDBRANCH  13  15
ENDBRANCH   2  13
TORSDOF 6
ENDMDL
MODEL      416
REMARK 921   NORMALIZED FREE ENERGY PREDICTED BY IDOCK:   -1.82 KCAL/MOL
REMARK 922        TOTAL FREE ENERGY PREDICTED BY IDOCK:   -5.58 KCAL/MOL
REMARK 923 INTER-LIGAND FREE ENERGY PREDICTED BY IDOCK:   -4.39 KCAL/MOL
REMARK 924 INTRA-LIGAND FREE ENERGY PREDICTED BY IDOCK:   -1.19 KCAL/MOL
REMARK 927      BINDING AFFINITY PREDICTED BY RF-SCORE:    0.00 PKD
ROOT
HETATM    1  C   UNL     1      -9.746  13.472  65.149  1.00  0.00     0.025 C  
HETATM    2  C   UNL     1      -9.815  14.014  66.588  1.00  0.00    -0.284 C  
ENDROOT
BRANCH   2   3
HETATM    3  C   UNL     1      -8.482  14.547  67.122  1.00  0.00    -0.234 A  
HETATM    4  C   UNL     1      -8.464  18.211  66.140  1.00  0.00    -0.142 A  
HETATM    5  C   UNL     1      -7.595  13.667  67.776  1.00  0.00    -0.167 A  
HETATM    6  C   UNL     1      -7.164  18.557  66.474  1.00  0.00    -0.254 A  
HETATM    7  C   UNL     1      -8.922  16.912  66.378  1.00  0.00    -0.317 A  
HETATM    8  C   UNL     1      -6.336  17.615  67.082  1.00  0.00    -0.181 A  
HETATM    9  C   UNL     1      -6.340  14.088  68.203  1.00  0.00    -0.128 A  
HETATM   10  C   UNL     1      -5.932  15.394  67.963  1.00  0.00    -0.154 A  
HETATM   11  C   UNL     1      -8.093  15.912  66.941  1.00  0.00    -0.285 A  
HETATM   12  C   UNL     1      -6.785  16.308  67.331  1.00  0.00    -0.210 A  
ENDBRANCH   2   3
BRANCH   2  13
HETATM   13  N   UNL     1     -10.493  13.091  67.515  1.00  0.00    -0.226 NA 
HETATM   14  H   UNL     1     -11.045  13.613  68.196  1.00  0.00     0.000 HD 
BRANCH  13  15
HETATM   15  C   UNL     1     -11.316  12.078  66.863  1.00  0.00    -0.341 C  
BRANCH  15  16
HETATM   16  C   UNL     1     -10.994  10.691  67.417  1.00  0.00    -0.361 C  
BRANCH  16  17
HETATM   17  C   UNL     1     -10.497   9.781  66.291  1.00  0.00    -0.160 C  
BRANCH  17  18
HETATM   18  C   UNL     1      -9.105   9.281  66.568  1.00  0.00    -0.191 A  
HETATM   19  C   UNL     1      -7.604   7.772  67.757  1.00  0.00    -0.113 A  
HETATM   20  C   UNL     1      -7.376   6.640  68.727  1.00  0.00    -0.090 C  
HETATM   21  C   UNL     1      -8.901   8.207  67.445  1.00  0.00    -0.131 A  
HETATM   22  C   UNL     1      -6.707   9.490  66.291  1.00  0.00    -0.075 A  
HETATM   23  F   UNL     1      -8.527   6.104  69.223  1.00  0.00    -0.114 F  
HETATM   24  F   UNL     1      -6.695   5.601  68.168  1.00  0.00    -0.046 F  
HETATM   25  F   UNL     1      -6.648   7.022  69.813  1.00  0.00    -0.039 F  
HETATM   26  C   UNL     1      -6.509   8.422  67.168  1.00  0.00    -0.058 A  
HETATM   27  C   UNL     1      -7.999   9.918  65.996  1.00  0.00    -0.114 A  
ENDBRANCH  17  18
ENDBRANCH  16  17
ENDBRANCH  15  16
ENDBRANCH  13  15
ENDBRANCH   2  13
TORSDOF 6
ENDMDL
MODEL      417
REMARK 921   NORMALIZED FREE ENERGY PREDICTED BY IDOCK:   -1.80 KCAL/MOL
REMARK 922        TOTAL FREE ENERGY PREDICTED BY IDOCK:   -5.56 KCAL/MOL
REMARK 923 INTER-LIGAND FREE ENERGY PREDICTED BY IDOCK:   -5.30 KCAL/MOL
REMARK 924 INTRA-LIGAND FREE ENERGY PREDICTED BY IDOCK:   -0.26 KCAL/MOL
REMARK 927      BINDING AFFINITY PREDICTED BY RF-SCORE:    0.00 PKD
ROOT
HETATM    1  C   UNL     1     -11.350  13.300  66.684  1.00  0.00    -0.353 C  
HETATM    2  C   UNL     1     -10.707  13.957  67.919  1.00  0.00    -0.240 C  
ENDROOT
BRANCH   2   3
HETATM    3  C   UNL     1      -9.233  14.330  67.735  1.00  0.00    -0.194 A  
HETATM    4  C   UNL     1      -7.331  11.582  69.530  1.00  0.00     0.130 A  
HETATM    5  C   UNL     1      -8.897  15.510  67.041  1.00  0.00    -0.255 A  
HETATM    6  C   UNL     1      -6.044  12.097  69.490  1.00  0.00    -0.117 A  
HETATM    7  C   UNL     1      -8.381  12.284  68.929  1.00  0.00     0.215 A  
HETATM    8  C   UNL     1      -5.802  13.291  68.816  1.00  0.00    -0.075 A  
HETATM    9  C   UNL     1      -7.577  15.931  66.922  1.00  0.00    -0.255 A  
HETATM   10  C   UNL     1      -6.562  15.192  67.518  1.00  0.00    -0.167 A  
HETATM   11  C   UNL     1      -8.183  13.529  68.286  1.00  0.00    -0.157 A  
HETATM   12  C   UNL     1      -6.846  14.005  68.204  1.00  0.00    -0.122 A  
ENDBRANCH   2   3
BRANCH   2  13
HETATM   13  N   UNL     1     -10.978  13.220  69.165  1.00  0.00    -0.404 NA 
HETATM   14  H   UNL     1     -11.241  13.865  69.910  1.00  0.00     0.000 HD 
BRANCH  13  15
HETATM   15  C   UNL     1     -11.973  12.161  69.036  1.00  0.00    -0.247 C  
BRANCH  15  16
HETATM   16  C   UNL     1     -11.967  11.268  70.276  1.00  0.00    -0.466 C  
BRANCH  16  17
HETATM   17  C   UNL     1     -10.671  10.455  70.328  1.00  0.00    -0.249 C  
BRANCH  17  18
HETATM   18  C   UNL     1     -10.952   8.977  70.273  1.00  0.00    -0.274 A  
HETATM   19  C   UNL     1     -10.768   6.836  69.121  1.00  0.00    -0.287 A  
HETATM   20  C   UNL     1     -10.271   6.005  67.965  1.00  0.00    -0.181 C  
HETATM   21  C   UNL     1     -10.460   8.203  69.213  1.00  0.00    -0.221 A  
HETATM   22  C   UNL     1     -12.055   7.017  71.174  1.00  0.00    -0.412 A  
HETATM   23  F   UNL     1      -9.509   6.703  67.075  1.00  0.00    -0.129 F  
HETATM   24  F   UNL     1      -9.502   4.955  68.367  1.00  0.00    -0.134 F  
HETATM   25  F   UNL     1     -11.288   5.465  67.236  1.00  0.00     0.009 F  
HETATM   26  C   UNL     1     -11.567   6.251  70.114  1.00  0.00    -0.385 A  
HETATM   27  C   UNL     1     -11.751   8.374  71.249  1.00  0.00    -0.325 A  
ENDBRANCH  17  18
ENDBRANCH  16  17
ENDBRANCH  15  16
ENDBRANCH  13  15
ENDBRANCH   2  13
TORSDOF 6
ENDMDL
MODEL      418
REMARK 921   NORMALIZED FREE ENERGY PREDICTED BY IDOCK:   -1.68 KCAL/MOL
REMARK 922        TOTAL FREE ENERGY PREDICTED BY IDOCK:   -5.40 KCAL/MOL
REMARK 923 INTER-LIGAND FREE ENERGY PREDICTED BY IDOCK:   -5.40 KCAL/MOL
REMARK 924 INTRA-LIGAND FREE ENERGY PREDICTED BY IDOCK:   -0.00 KCAL/MOL
REMARK 927      BINDING AFFINITY PREDICTED BY RF-SCORE:    0.00 PKD
ROOT
HETATM    1  C   UNL     1     -10.427   8.536  66.798  1.00  0.00    -0.308 C  
HETATM    2  C   UNL     1     -10.362   9.670  67.837  1.00  0.00    -0.224 C  
ENDROOT
BRANCH   2   3
HETATM    3  C   UNL     1     -10.877  11.019  67.326  1.00  0.00    -0.335 A  
HETATM    4  C   UNL     1     -10.081  10.995  63.618  1.00  0.00    -0.428 A  
HETATM    5  C   UNL     1     -11.455  11.929  68.234  1.00  0.00    -0.372 A  
HETATM    6  C   UNL     1     -10.388  12.305  63.284  1.00  0.00    -0.279 A  
HETATM    7  C   UNL     1     -10.269  10.548  64.929  1.00  0.00    -0.371 A  
HETATM    8  C   UNL     1     -10.920  13.155  64.251  1.00  0.00    -0.428 A  
HETATM    9  C   UNL     1     -11.860  13.197  67.831  1.00  0.00    -0.390 A  
HETATM   10  C   UNL     1     -11.673  13.593  66.513  1.00  0.00    -0.414 A  
HETATM   11  C   UNL     1     -10.751  11.398  65.953  1.00  0.00    -0.311 A  
HETATM   12  C   UNL     1     -11.117  12.718  65.572  1.00  0.00    -0.318 A  
ENDBRANCH   2   3
BRANCH   2  13
HETATM   13  N   UNL     1      -9.053   9.755  68.509  1.00  0.00    -0.127 NA 
HETATM   14  H   UNL     1      -8.728   8.825  68.773  1.00  0.00     0.000 HD 
BRANCH  13  15
HETATM   15  C   UNL     1      -8.026  10.455  67.745  1.00  0.00    -0.102 C  
BRANCH  15  16
HETATM   16  C   UNL     1      -7.522   9.578  66.600  1.00  0.00    -0.093 C  
BRANCH  16  17
HETATM   17  C   UNL     1      -6.554   8.521  67.138  1.00  0.00    -0.058 C  
BRANCH  17  18
HETATM   18  C   UNL     1      -6.963   7.138  66.707  1.00  0.00    -0.073 A  
HETATM   19  C   UNL     1      -7.755   5.617  64.973  1.00  0.00    -0.094 A  
HETATM   20  C   UNL     1      -8.168   5.351  63.548  1.00  0.00    -0.121 C  
HETATM   21  C   UNL     1      -7.314   6.888  65.373  1.00  0.00    -0.080 A  
HETATM   22  C   UNL     1      -7.475   4.834  67.257  1.00  0.00    -0.082 A  
HETATM   23  F   UNL     1      -8.047   6.436  62.731  1.00  0.00    -0.099 F  
HETATM   24  F   UNL     1      -7.429   4.365  62.964  1.00  0.00    -0.049 F  
HETATM   25  F   UNL     1      -9.467   4.954  63.447  1.00  0.00    -0.071 F  
HETATM   26  C   UNL     1      -7.828   4.592  65.928  1.00  0.00    -0.095 A  
HETATM   27  C   UNL     1      -7.049   6.103  67.643  1.00  0.00    -0.074 A  
ENDBRANCH  17  18
ENDBRANCH  16  17
ENDBRANCH  15  16
ENDBRANCH  13  15
ENDBRANCH   2  13
TORSDOF 6
ENDMDL
MODEL      419
REMARK 921   NORMALIZED FREE ENERGY PREDICTED BY IDOCK:   -1.55 KCAL/MOL
REMARK 922        TOTAL FREE ENERGY PREDICTED BY IDOCK:   -5.22 KCAL/MOL
REMARK 923 INTER-LIGAND FREE ENERGY PREDICTED BY IDOCK:   -5.30 KCAL/MOL
REMARK 924 INTRA-LIGAND FREE ENERGY PREDICTED BY IDOCK:    0.08 KCAL/MOL
REMARK 927      BINDING AFFINITY PREDICTED BY RF-SCORE:    0.00 PKD
ROOT
HETATM    1  C   UNL     1     -10.151   8.773  66.797  1.00  0.00    -0.359 C  
HETATM    2  C   UNL     1      -9.536  10.183  66.765  1.00  0.00    -0.168 C  
ENDROOT
BRANCH   2   3
HETATM    3  C   UNL     1     -10.150  11.112  65.713  1.00  0.00    -0.299 A  
HETATM    4  C   UNL     1     -11.196  14.193  67.661  1.00  0.00    -0.315 A  
HETATM    5  C   UNL     1     -10.233  10.682  64.373  1.00  0.00    -0.400 A  
HETATM    6  C   UNL     1     -11.910  14.878  66.690  1.00  0.00    -0.167 A  
HETATM    7  C   UNL     1     -10.584  12.976  67.348  1.00  0.00    -0.239 A  
HETATM    8  C   UNL     1     -11.978  14.364  65.397  1.00  0.00    -0.369 A  
HETATM    9  C   UNL     1     -10.858  11.456  63.400  1.00  0.00    -0.375 A  
HETATM   10  C   UNL     1     -11.435  12.669  63.752  1.00  0.00    -0.539 A  
HETATM   11  C   UNL     1     -10.680  12.394  66.061  1.00  0.00    -0.294 A  
HETATM   12  C   UNL     1     -11.364  13.144  65.067  1.00  0.00    -0.325 A  
ENDBRANCH   2   3
BRANCH   2  13
HETATM   13  N   UNL     1      -8.062  10.164  66.745  1.00  0.00    -0.118 NA 
HETATM   14  H   UNL     1      -7.691  11.057  67.071  1.00  0.00     0.000 HD 
BRANCH  13  15
HETATM   15  C   UNL     1      -7.463   9.062  67.489  1.00  0.00    -0.081 C  
BRANCH  15  16
HETATM   16  C   UNL     1      -7.707   7.737  66.769  1.00  0.00    -0.099 C  
BRANCH  16  17
HETATM   17  C   UNL     1      -6.657   7.536  65.672  1.00  0.00    -0.045 C  
BRANCH  17  18
HETATM   18  C   UNL     1      -6.961   6.317  64.844  1.00  0.00    -0.052 A  
HETATM   19  C   UNL     1      -8.425   4.444  64.306  1.00  0.00    -0.115 A  
HETATM   20  C   UNL     1      -9.698   3.665  64.527  1.00  0.00    -0.178 C  
HETATM   21  C   UNL     1      -8.160   5.616  65.031  1.00  0.00    -0.122 A  
HETATM   22  C   UNL     1      -6.281   4.683  63.188  1.00  0.00    -0.022 A  
HETATM   23  F   UNL     1     -10.527   4.223  65.456  1.00  0.00    -0.238 F  
HETATM   24  F   UNL     1     -10.442   3.545  63.392  1.00  0.00    -0.163 F  
HETATM   25  F   UNL     1      -9.464   2.394  64.957  1.00  0.00    -0.147 F  
HETATM   26  C   UNL     1      -7.476   3.987  63.381  1.00  0.00    -0.051 A  
HETATM   27  C   UNL     1      -6.025   5.840  63.920  1.00  0.00    -0.025 A  
ENDBRANCH  17  18
ENDBRANCH  16  17
ENDBRANCH  15  16
ENDBRANCH  13  15
ENDBRANCH   2  13
TORSDOF 6
ENDMDL
MODEL      420
REMARK 921   NORMALIZED FREE ENERGY PREDICTED BY IDOCK:   -1.53 KCAL/MOL
REMARK 922        TOTAL FREE ENERGY PREDICTED BY IDOCK:   -5.19 KCAL/MOL
REMARK 923 INTER-LIGAND FREE ENERGY PREDICTED BY IDOCK:   -4.39 KCAL/MOL
REMARK 924 INTRA-LIGAND FREE ENERGY PREDICTED BY IDOCK:   -0.80 KCAL/MOL
REMARK 927      BINDING AFFINITY PREDICTED BY RF-SCORE:    0.00 PKD
ROOT
HETATM    1  C   UNL     1      -5.716  10.662  63.086  1.00  0.00    -0.118 C  
HETATM    2  C   UNL     1      -7.079  10.200  63.632  1.00  0.00    -0.110 C  
ENDROOT
BRANCH   2   3
HETATM    3  C   UNL     1      -7.191   8.686  63.836  1.00  0.00    -0.096 A  
HETATM    4  C   UNL     1      -5.975   8.112  67.382  1.00  0.00    -0.050 A  
HETATM    5  C   UNL     1      -7.644   7.875  62.774  1.00  0.00    -0.124 A  
HETATM    6  C   UNL     1      -5.919   6.727  67.410  1.00  0.00    -0.021 A  
HETATM    7  C   UNL     1      -6.423   8.768  66.231  1.00  0.00    -0.065 A  
HETATM    8  C   UNL     1      -6.348   5.999  66.303  1.00  0.00    -0.042 A  
HETATM    9  C   UNL     1      -7.683   6.490  62.886  1.00  0.00    -0.097 A  
HETATM   10  C   UNL     1      -7.248   5.880  64.055  1.00  0.00    -0.056 A  
HETATM   11  C   UNL     1      -6.812   8.064  65.066  1.00  0.00    -0.055 A  
HETATM   12  C   UNL     1      -6.804   6.645  65.142  1.00  0.00    -0.050 A  
ENDBRANCH   2   3
BRANCH   2  13
HETATM   13  N   UNL     1      -8.217  10.782  62.900  1.00  0.00    -0.328 NA 
HETATM   14  H   UNL     1      -8.424  10.229  62.068  1.00  0.00     0.000 HD 
BRANCH  13  15
HETATM   15  C   UNL     1      -9.421  10.966  63.702  1.00  0.00    -0.285 C  
BRANCH  15  16
HETATM   16  C   UNL     1      -9.237  10.354  65.089  1.00  0.00    -0.250 C  
BRANCH  16  17
HETATM   17  C   UNL     1     -10.395  10.769  66.001  1.00  0.00    -0.300 C  
BRANCH  17  18
HETATM   18  C   UNL     1     -10.249  10.169  67.374  1.00  0.00    -0.267 A  
HETATM   19  C   UNL     1     -10.542   8.286  68.895  1.00  0.00    -0.160 A  
HETATM   20  C   UNL     1     -10.971   6.864  69.158  1.00  0.00    -0.199 C  
HETATM   21  C   UNL     1     -10.618   8.836  67.606  1.00  0.00    -0.281 A  
HETATM   22  C   UNL     1      -9.707  10.412  69.723  1.00  0.00    -0.101 A  
HETATM   23  F   UNL     1     -11.401   6.206  68.043  1.00  0.00    -0.388 F  
HETATM   24  F   UNL     1      -9.967   6.101  69.674  1.00  0.00    -0.167 F  
HETATM   25  F   UNL     1     -11.997   6.786  70.052  1.00  0.00    -0.384 F  
HETATM   26  C   UNL     1     -10.080   9.086  69.950  1.00  0.00    -0.213 A  
HETATM   27  C   UNL     1      -9.795  10.950  68.442  1.00  0.00    -0.183 A  
ENDBRANCH  17  18
ENDBRANCH  16  17
ENDBRANCH  15  16
ENDBRANCH  13  15
ENDBRANCH   2  13
TORSDOF 6
ENDMDL
MODEL      421
REMARK 921   NORMALIZED FREE ENERGY PREDICTED BY IDOCK:   -1.44 KCAL/MOL
REMARK 922        TOTAL FREE ENERGY PREDICTED BY IDOCK:   -5.07 KCAL/MOL
REMARK 923 INTER-LIGAND FREE ENERGY PREDICTED BY IDOCK:   -3.68 KCAL/MOL
REMARK 924 INTRA-LIGAND FREE ENERGY PREDICTED BY IDOCK:   -1.39 KCAL/MOL
REMARK 927      BINDING AFFINITY PREDICTED BY RF-SCORE:    0.00 PKD
ROOT
HETATM    1  C   UNL     1      -9.691   3.487  68.498  1.00  0.00    -0.040 C  
HETATM    2  C   UNL     1      -9.173   4.169  69.776  1.00  0.00    -0.143 C  
ENDROOT
BRANCH   2   3
HETATM    3  C   UNL     1      -9.283   5.697  69.760  1.00  0.00    -0.165 A  
HETATM    4  C   UNL     1     -10.887   6.567  73.085  1.00  0.00    -0.286 A  
HETATM    5  C   UNL     1      -8.846   6.412  68.626  1.00  0.00    -0.120 A  
HETATM    6  C   UNL     1     -11.130   7.920  72.904  1.00  0.00    -0.442 A  
HETATM    7  C   UNL     1     -10.251   5.832  72.080  1.00  0.00    -0.245 A  
HETATM    8  C   UNL     1     -10.702   8.544  71.734  1.00  0.00    -0.373 A  
HETATM    9  C   UNL     1      -9.003   7.791  68.533  1.00  0.00    -0.133 A  
HETATM   10  C   UNL     1      -9.622   8.484  69.565  1.00  0.00    -0.170 A  
HETATM   11  C   UNL     1      -9.854   6.419  70.855  1.00  0.00    -0.204 A  
HETATM   12  C   UNL     1     -10.058   7.819  70.718  1.00  0.00    -0.195 A  
ENDBRANCH   2   3
BRANCH   2  13
HETATM   13  N   UNL     1      -7.846   3.678  70.189  1.00  0.00    -0.047 NA 
HETATM   14  H   UNL     1      -7.825   2.658  70.175  1.00  0.00     0.000 HD 
BRANCH  13  15
HETATM   15  C   UNL     1      -6.734   4.220  69.416  1.00  0.00    -0.045 C  
BRANCH  15  16
HETATM   16  C   UNL     1      -6.324   3.245  68.314  1.00  0.00    -0.033 C  
BRANCH  16  17
HETATM   17  C   UNL     1      -5.653   4.004  67.166  1.00  0.00    -0.021 C  
BRANCH  17  18
HETATM   18  C   UNL     1      -6.672   4.528  66.190  1.00  0.00    -0.053 A  
HETATM   19  C   UNL     1      -8.511   4.125  64.642  1.00  0.00    -0.110 A  
HETATM   20  C   UNL     1      -9.486   3.187  63.975  1.00  0.00    -0.134 C  
HETATM   21  C   UNL     1      -7.597   3.657  65.598  1.00  0.00    -0.078 A  
HETATM   22  C   UNL     1      -7.579   6.356  64.883  1.00  0.00    -0.093 A  
HETATM   23  F   UNL     1      -9.388   1.897  64.408  1.00  0.00    -0.115 F  
HETATM   24  F   UNL     1     -10.784   3.548  64.179  1.00  0.00    -0.226 F  
HETATM   25  F   UNL     1      -9.320   3.137  62.624  1.00  0.00    -0.091 F  
HETATM   26  C   UNL     1      -8.495   5.483  64.293  1.00  0.00    -0.069 A  
HETATM   27  C   UNL     1      -6.670   5.878  65.824  1.00  0.00    -0.048 A  
ENDBRANCH  17  18
ENDBRANCH  16  17
ENDBRANCH  15  16
ENDBRANCH  13  15
ENDBRANCH   2  13
TORSDOF 6
ENDMDL
MODEL      422
REMARK 921   NORMALIZED FREE ENERGY PREDICTED BY IDOCK:   -1.41 KCAL/MOL
REMARK 922        TOTAL FREE ENERGY PREDICTED BY IDOCK:   -5.04 KCAL/MOL
REMARK 923 INTER-LIGAND FREE ENERGY PREDICTED BY IDOCK:   -3.50 KCAL/MOL
REMARK 924 INTRA-LIGAND FREE ENERGY PREDICTED BY IDOCK:   -1.53 KCAL/MOL
REMARK 927      BINDING AFFINITY PREDICTED BY RF-SCORE:    0.00 PKD
ROOT
HETATM    1  C   UNL     1      -9.623   3.154  68.553  1.00  0.00    -0.114 C  
HETATM    2  C   UNL     1      -9.048   3.551  69.924  1.00  0.00    -0.125 C  
ENDROOT
BRANCH   2   3
HETATM    3  C   UNL     1      -8.920   5.062  70.136  1.00  0.00    -0.147 A  
HETATM    4  C   UNL     1     -10.871   5.742  73.317  1.00  0.00    -0.306 A  
HETATM    5  C   UNL     1      -8.209   5.837  69.197  1.00  0.00    -0.101 A  
HETATM    6  C   UNL     1     -10.874   7.128  73.322  1.00  0.00    -0.378 A  
HETATM    7  C   UNL     1     -10.206   5.050  72.301  1.00  0.00    -0.257 A  
HETATM    8  C   UNL     1     -10.179   7.820  72.333  1.00  0.00    -0.305 A  
HETATM    9  C   UNL     1      -8.138   7.222  69.304  1.00  0.00    -0.124 A  
HETATM   10  C   UNL     1      -8.797   7.867  70.343  1.00  0.00    -0.142 A  
HETATM   11  C   UNL     1      -9.538   5.719  71.247  1.00  0.00    -0.198 A  
HETATM   12  C   UNL     1      -9.503   7.138  71.308  1.00  0.00    -0.163 A  
ENDBRANCH   2   3
BRANCH   2  13
HETATM   13  N   UNL     1      -7.827   2.802  70.271  1.00  0.00    -0.043 NA 
HETATM   14  H   UNL     1      -8.024   1.802  70.313  1.00  0.00     0.000 HD 
BRANCH  13  15
HETATM   15  C   UNL     1      -6.690   3.060  69.394  1.00  0.00    -0.034 C  
BRANCH  15  16
HETATM   16  C   UNL     1      -6.335   1.806  68.597  1.00  0.00    -0.025 C  
BRANCH  16  17
HETATM   17  C   UNL     1      -5.785   2.198  67.223  1.00  0.00    -0.019 C  
BRANCH  17  18
HETATM   18  C   UNL     1      -6.857   2.810  66.361  1.00  0.00    -0.044 A  
HETATM   19  C   UNL     1      -8.010   4.783  65.513  1.00  0.00    -0.095 A  
HETATM   20  C   UNL     1      -8.166   6.281  65.434  1.00  0.00    -0.142 C  
HETATM   21  C   UNL     1      -6.977   4.203  66.266  1.00  0.00    -0.063 A  
HETATM   22  C   UNL     1      -8.799   2.559  64.934  1.00  0.00    -0.119 A  
HETATM   23  F   UNL     1      -7.217   6.969  66.131  1.00  0.00    -0.067 F  
HETATM   24  F   UNL     1      -8.096   6.748  64.156  1.00  0.00    -0.122 F  
HETATM   25  F   UNL     1      -9.365   6.707  65.922  1.00  0.00    -0.169 F  
HETATM   26  C   UNL     1      -8.917   3.947  64.845  1.00  0.00    -0.131 A  
HETATM   27  C   UNL     1      -7.775   1.995  65.692  1.00  0.00    -0.072 A  
ENDBRANCH  17  18
ENDBRANCH  16  17
ENDBRANCH  15  16
ENDBRANCH  13  15
ENDBRANCH   2  13
TORSDOF 6
ENDMDL
MODEL      423
REMARK 921   NORMALIZED FREE ENERGY PREDICTED BY IDOCK:   -1.33 KCAL/MOL
REMARK 922        TOTAL FREE ENERGY PREDICTED BY IDOCK:   -4.92 KCAL/MOL
REMARK 923 INTER-LIGAND FREE ENERGY PREDICTED BY IDOCK:   -4.73 KCAL/MOL
REMARK 924 INTRA-LIGAND FREE ENERGY PREDICTED BY IDOCK:   -0.19 KCAL/MOL
REMARK 927      BINDING AFFINITY PREDICTED BY RF-SCORE:    0.00 PKD
ROOT
HETATM    1  C   UNL     1      -6.070  12.830  69.912  1.00  0.00    -0.122 C  
HETATM    2  C   UNL     1      -7.320  12.572  69.051  1.00  0.00     0.043 C  
ENDROOT
BRANCH   2   3
HETATM    3  C   UNL     1      -7.514  11.106  68.651  1.00  0.00    -0.119 A  
HETATM    4  C   UNL     1      -5.454  10.705  65.491  1.00  0.00    -0.136 A  
HETATM    5  C   UNL     1      -8.354  10.281  69.426  1.00  0.00    -0.169 A  
HETATM    6  C   UNL     1      -5.842   9.435  65.094  1.00  0.00    -0.060 A  
HETATM    7  C   UNL     1      -5.965  11.253  66.672  1.00  0.00    -0.145 A  
HETATM    8  C   UNL     1      -6.709   8.699  65.898  1.00  0.00    -0.061 A  
HETATM    9  C   UNL     1      -8.625   8.968  69.054  1.00  0.00    -0.134 A  
HETATM   10  C   UNL     1      -8.079   8.458  67.883  1.00  0.00    -0.123 A  
HETATM   11  C   UNL     1      -6.893  10.559  67.484  1.00  0.00    -0.075 A  
HETATM   12  C   UNL     1      -7.227   9.235  67.089  1.00  0.00    -0.087 A  
ENDBRANCH   2   3
BRANCH   2  13
HETATM   13  N   UNL     1      -7.442  13.512  67.923  1.00  0.00    -0.135 NA 
HETATM   14  H   UNL     1      -7.413  13.008  67.036  1.00  0.00     0.000 HD 
BRANCH  13  15
HETATM   15  C   UNL     1      -8.617  14.375  67.979  1.00  0.00    -0.166 C  
BRANCH  15  16
HETATM   16  C   UNL     1      -9.617  13.987  66.892  1.00  0.00    -0.275 C  
BRANCH  16  17
HETATM   17  C   UNL     1      -9.520  14.966  65.719  1.00  0.00    -0.237 C  
BRANCH  17  18
HETATM   18  C   UNL     1      -9.430  16.389  66.203  1.00  0.00    -0.363 A  
HETATM   19  C   UNL     1      -8.149  18.445  66.479  1.00  0.00    -0.291 A  
HETATM   20  C   UNL     1      -6.887  19.244  66.272  1.00  0.00    -0.215 C  
HETATM   21  C   UNL     1      -8.266  17.138  65.979  1.00  0.00    -0.183 A  
HETATM   22  C   UNL     1     -10.381  18.255  67.419  1.00  0.00    -0.409 A  
HETATM   23  F   UNL     1      -5.930  18.584  65.559  1.00  0.00    -0.193 F  
HETATM   24  F   UNL     1      -7.109  20.409  65.602  1.00  0.00    -0.284 F  
HETATM   25  F   UNL     1      -6.295  19.597  67.448  1.00  0.00    -0.194 F  
HETATM   26  C   UNL     1      -9.219  18.997  67.198  1.00  0.00    -0.326 A  
HETATM   27  C   UNL     1     -10.482  16.957  66.926  1.00  0.00    -0.271 A  
ENDBRANCH  17  18
ENDBRANCH  16  17
ENDBRANCH  15  16
ENDBRANCH  13  15
ENDBRANCH   2  13
TORSDOF 6
ENDMDL
MODEL      424
REMARK 921   NORMALIZED FREE ENERGY PREDICTED BY IDOCK:   -1.24 KCAL/MOL
REMARK 922        TOTAL FREE ENERGY PREDICTED BY IDOCK:   -4.80 KCAL/MOL
REMARK 923 INTER-LIGAND FREE ENERGY PREDICTED BY IDOCK:   -4.01 KCAL/MOL
REMARK 924 INTRA-LIGAND FREE ENERGY PREDICTED BY IDOCK:   -0.79 KCAL/MOL
REMARK 927      BINDING AFFINITY PREDICTED BY RF-SCORE:    0.00 PKD
ROOT
HETATM    1  C   UNL     1      -6.058  13.006  70.197  1.00  0.00    -0.097 C  
HETATM    2  C   UNL     1      -6.973  12.451  69.092  1.00  0.00    -0.034 C  
ENDROOT
BRANCH   2   3
HETATM    3  C   UNL     1      -7.018  10.921  69.025  1.00  0.00    -0.089 A  
HETATM    4  C   UNL     1      -5.216  10.059  65.801  1.00  0.00    -0.044 A  
HETATM    5  C   UNL     1      -7.676  10.201  70.043  1.00  0.00    -0.150 A  
HETATM    6  C   UNL     1      -5.476   8.700  65.720  1.00  0.00    -0.034 A  
HETATM    7  C   UNL     1      -5.683  10.794  66.895  1.00  0.00    -0.062 A  
HETATM    8  C   UNL     1      -6.170   8.071  66.751  1.00  0.00    -0.054 A  
HETATM    9  C   UNL     1      -7.814   8.819  69.981  1.00  0.00    -0.094 A  
HETATM   10  C   UNL     1      -7.316   8.126  68.885  1.00  0.00    -0.090 A  
HETATM   11  C   UNL     1      -6.441  10.201  67.933  1.00  0.00    -0.062 A  
HETATM   12  C   UNL     1      -6.641   8.796  67.857  1.00  0.00    -0.061 A  
ENDBRANCH   2   3
BRANCH   2  13
HETATM   13  N   UNL     1      -6.746  13.091  67.785  1.00  0.00    -0.127 NA 
HETATM   14  H   UNL     1      -6.151  12.503  67.200  1.00  0.00     0.000 HD 
BRANCH  13  15
HETATM   15  C   UNL     1      -7.964  13.454  67.069  1.00  0.00     0.042 C  
BRANCH  15  16
HETATM   16  C   UNL     1      -9.189  13.234  67.955  1.00  0.00    -0.213 C  
BRANCH  16  17
HETATM   17  C   UNL     1      -9.926  11.964  67.523  1.00  0.00    -0.197 C  
BRANCH  17  18
HETATM   18  C   UNL     1     -10.019  11.871  66.023  1.00  0.00    -0.258 A  
HETATM   19  C   UNL     1      -9.346  10.817  63.930  1.00  0.00    -0.284 A  
HETATM   20  C   UNL     1      -8.563   9.770  63.178  1.00  0.00    -0.198 C  
HETATM   21  C   UNL     1      -9.314  10.875  65.332  1.00  0.00    -0.240 A  
HETATM   22  C   UNL     1     -10.809  12.757  63.911  1.00  0.00    -0.447 A  
HETATM   23  F   UNL     1      -7.872   8.917  63.988  1.00  0.00    -0.111 F  
HETATM   24  F   UNL     1      -9.356   8.981  62.401  1.00  0.00    -0.212 F  
HETATM   25  F   UNL     1      -7.638  10.314  62.339  1.00  0.00    -0.120 F  
HETATM   26  C   UNL     1     -10.103  11.766  63.227  1.00  0.00    -0.448 A  
HETATM   27  C   UNL     1     -10.763  12.810  65.302  1.00  0.00    -0.319 A  
ENDBRANCH  17  18
ENDBRANCH  16  17
ENDBRANCH  15  16
ENDBRANCH  13  15
ENDBRANCH   2  13
TORSDOF 6
ENDMDL
MODEL      425
REMARK 921   NORMALIZED FREE ENERGY PREDICTED BY IDOCK:   -1.22 KCAL/MOL
REMARK 922        TOTAL FREE ENERGY PREDICTED BY IDOCK:   -4.77 KCAL/MOL
REMARK 923 INTER-LIGAND FREE ENERGY PREDICTED BY IDOCK:   -4.12 KCAL/MOL
REMARK 924 INTRA-LIGAND FREE ENERGY PREDICTED BY IDOCK:   -0.66 KCAL/MOL
REMARK 927      BINDING AFFINITY PREDICTED BY RF-SCORE:    0.00 PKD
ROOT
HETATM    1  C   UNL     1      -9.939   4.770  69.070  1.00  0.00    -0.213 C  
HETATM    2  C   UNL     1      -9.358   4.839  70.493  1.00  0.00    -0.154 C  
ENDROOT
BRANCH   2   3
HETATM    3  C   UNL     1      -9.347   6.246  71.098  1.00  0.00    -0.169 A  
HETATM    4  C   UNL     1     -13.013   7.146  71.474  1.00  0.00    -0.431 A  
HETATM    5  C   UNL     1      -8.115   6.886  71.343  1.00  0.00    -0.109 A  
HETATM    6  C   UNL     1     -12.911   8.482  71.829  1.00  0.00    -0.380 A  
HETATM    7  C   UNL     1     -11.855   6.390  71.266  1.00  0.00    -0.333 A  
HETATM    8  C   UNL     1     -11.653   9.051  72.013  1.00  0.00    -0.413 A  
HETATM    9  C   UNL     1      -8.057   8.194  71.813  1.00  0.00    -0.159 A  
HETATM   10  C   UNL     1      -9.234   8.901  72.026  1.00  0.00    -0.187 A  
HETATM   11  C   UNL     1     -10.559   6.948  71.387  1.00  0.00    -0.242 A  
HETATM   12  C   UNL     1     -10.481   8.302  71.811  1.00  0.00    -0.325 A  
ENDBRANCH   2   3
BRANCH   2  13
HETATM   13  N   UNL     1      -8.071   4.133  70.621  1.00  0.00    -0.058 NA 
HETATM   14  H   UNL     1      -8.218   3.123  70.614  1.00  0.00     0.000 HD 
BRANCH  13  15
HETATM   15  C   UNL     1      -7.074   4.508  69.624  1.00  0.00    -0.050 C  
BRANCH  15  16
HETATM   16  C   UNL     1      -6.771   3.329  68.702  1.00  0.00    -0.044 C  
BRANCH  16  17
HETATM   17  C   UNL     1      -6.198   3.836  67.376  1.00  0.00    -0.036 C  
BRANCH  17  18
HETATM   18  C   UNL     1      -7.152   4.782  66.696  1.00  0.00    -0.072 A  
HETATM   19  C   UNL     1      -8.025   7.037  66.391  1.00  0.00    -0.109 A  
HETATM   20  C   UNL     1      -7.999   8.511  66.711  1.00  0.00    -0.094 C  
HETATM   21  C   UNL     1      -7.102   6.155  66.973  1.00  0.00    -0.073 A  
HETATM   22  C   UNL     1      -9.048   5.160  65.236  1.00  0.00    -0.126 A  
HETATM   23  F   UNL     1      -7.006   8.867  67.574  1.00  0.00    -0.070 F  
HETATM   24  F   UNL     1      -7.820   9.284  65.603  1.00  0.00    -0.094 F  
HETATM   25  F   UNL     1      -9.158   8.941  67.283  1.00  0.00    -0.132 F  
HETATM   26  C   UNL     1      -8.996   6.526  65.517  1.00  0.00     0.057 A  
HETATM   27  C   UNL     1      -8.132   4.293  65.827  1.00  0.00    -0.101 A  
ENDBRANCH  17  18
ENDBRANCH  16  17
ENDBRANCH  15  16
ENDBRANCH  13  15
ENDBRANCH   2  13
TORSDOF 6
ENDMDL
MODEL      426
REMARK 921   NORMALIZED FREE ENERGY PREDICTED BY IDOCK:   -1.05 KCAL/MOL
REMARK 922        TOTAL FREE ENERGY PREDICTED BY IDOCK:   -4.54 KCAL/MOL
REMARK 923 INTER-LIGAND FREE ENERGY PREDICTED BY IDOCK:   -3.89 KCAL/MOL
REMARK 924 INTRA-LIGAND FREE ENERGY PREDICTED BY IDOCK:   -0.65 KCAL/MOL
REMARK 927      BINDING AFFINITY PREDICTED BY RF-SCORE:    0.00 PKD
ROOT
HETATM    1  C   UNL     1      -7.189   8.789  71.767  1.00  0.00    -0.076 C  
HETATM    2  C   UNL     1      -8.223   8.647  70.635  1.00  0.00    -0.137 C  
ENDROOT
BRANCH   2   3
HETATM    3  C   UNL     1      -9.664   8.466  71.121  1.00  0.00    -0.236 A  
HETATM    4  C   UNL     1      -9.798   4.892  72.384  1.00  0.00    -0.209 A  
HETATM    5  C   UNL     1     -10.578   9.532  70.991  1.00  0.00    -0.392 A  
HETATM    6  C   UNL     1     -11.159   4.754  72.610  1.00  0.00    -0.186 A  
HETATM    7  C   UNL     1      -9.288   6.112  71.930  1.00  0.00    -0.157 A  
HETATM    8  C   UNL     1     -12.002   5.846  72.419  1.00  0.00    -0.206 A  
HETATM    9  C   UNL     1     -11.916   9.386  71.342  1.00  0.00    -0.446 A  
HETATM   10  C   UNL     1     -12.376   8.161  71.808  1.00  0.00    -0.357 A  
HETATM   11  C   UNL     1     -10.121   7.227  71.670  1.00  0.00    -0.196 A  
HETATM   12  C   UNL     1     -11.502   7.079  71.968  1.00  0.00    -0.308 A  
ENDBRANCH   2   3
BRANCH   2  13
HETATM   13  N   UNL     1      -7.818   7.667  69.612  1.00  0.00    -0.106 NA 
HETATM   14  H   UNL     1      -8.003   8.032  68.677  1.00  0.00     0.000 HD 
BRANCH  13  15
HETATM   15  C   UNL     1      -6.434   7.218  69.718  1.00  0.00    -0.036 C  
BRANCH  15  16
HETATM   16  C   UNL     1      -6.370   5.694  69.788  1.00  0.00    -0.034 C  
BRANCH  16  17
HETATM   17  C   UNL     1      -5.626   5.145  68.569  1.00  0.00    -0.015 C  
BRANCH  17  18
HETATM   18  C   UNL     1      -6.476   5.224  67.329  1.00  0.00    -0.052 A  
HETATM   19  C   UNL     1      -7.167   6.416  65.318  1.00  0.00    -0.070 A  
HETATM   20  C   UNL     1      -7.046   7.591  64.380  1.00  0.00    -0.069 C  
HETATM   21  C   UNL     1      -6.337   6.302  66.444  1.00  0.00    -0.042 A  
HETATM   22  C   UNL     1      -8.273   4.349  65.959  1.00  0.00    -0.109 A  
HETATM   23  F   UNL     1      -6.068   8.474  64.732  1.00  0.00    -0.059 F  
HETATM   24  F   UNL     1      -6.762   7.214  63.102  1.00  0.00    -0.048 F  
HETATM   25  F   UNL     1      -8.195   8.320  64.308  1.00  0.00    -0.150 F  
HETATM   26  C   UNL     1      -8.133   5.427  65.082  1.00  0.00    -0.121 A  
HETATM   27  C   UNL     1      -7.450   4.252  67.078  1.00  0.00    -0.077 A  
ENDBRANCH  17  18
ENDBRANCH  16  17
ENDBRANCH  15  16
ENDBRANCH  13  15
ENDBRANCH   2  13
TORSDOF 6
ENDMDL
MODEL      427
REMARK 921   NORMALIZED FREE ENERGY PREDICTED BY IDOCK:   -0.90 KCAL/MOL
REMARK 922        TOTAL FREE ENERGY PREDICTED BY IDOCK:   -4.34 KCAL/MOL
REMARK 923 INTER-LIGAND FREE ENERGY PREDICTED BY IDOCK:   -4.12 KCAL/MOL
REMARK 924 INTRA-LIGAND FREE ENERGY PREDICTED BY IDOCK:   -0.22 KCAL/MOL
REMARK 927      BINDING AFFINITY PREDICTED BY RF-SCORE:    0.00 PKD
ROOT
HETATM    1  C   UNL     1      -9.775   1.528  70.040  1.00  0.00    -0.019 C  
HETATM    2  C   UNL     1      -8.979   2.624  69.310  1.00  0.00    -0.111 C  
ENDROOT
BRANCH   2   3
HETATM    3  C   UNL     1      -8.286   3.622  70.243  1.00  0.00    -0.082 A  
HETATM    4  C   UNL     1     -11.125   5.614  71.781  1.00  0.00    -0.265 A  
HETATM    5  C   UNL     1      -6.878   3.635  70.321  1.00  0.00    -0.034 A  
HETATM    6  C   UNL     1     -10.413   6.604  72.438  1.00  0.00    -0.232 A  
HETATM    7  C   UNL     1     -10.443   4.610  71.087  1.00  0.00    -0.065 A  
HETATM    8  C   UNL     1      -9.020   6.568  72.434  1.00  0.00    -0.133 A  
HETATM    9  C   UNL     1      -6.204   4.578  71.090  1.00  0.00    -0.018 A  
HETATM   10  C   UNL     1      -6.922   5.546  71.780  1.00  0.00    -0.075 A  
HETATM   11  C   UNL     1      -9.030   4.572  71.011  1.00  0.00    -0.165 A  
HETATM   12  C   UNL     1      -8.322   5.563  71.745  1.00  0.00    -0.120 A  
ENDBRANCH   2   3
BRANCH   2  13
HETATM   13  N   UNL     1      -9.748   3.265  68.229  1.00  0.00    -0.057 NA 
HETATM   14  H   UNL     1     -10.692   3.486  68.547  1.00  0.00     0.000 HD 
BRANCH  13  15
HETATM   15  C   UNL     1      -9.115   4.448  67.656  1.00  0.00    -0.126 C  
BRANCH  15  16
HETATM   16  C   UNL     1      -9.955   4.999  66.506  1.00  0.00    -0.249 C  
BRANCH  16  17
HETATM   17  C   UNL     1     -10.783   6.194  66.988  1.00  0.00    -0.423 C  
BRANCH  17  18
HETATM   18  C   UNL     1      -9.897   7.340  67.397  1.00  0.00    -0.206 A  
HETATM   19  C   UNL     1      -9.427   9.732  67.434  1.00  0.00    -0.178 A  
HETATM   20  C   UNL     1      -9.809  11.152  67.098  1.00  0.00    -0.187 C  
HETATM   21  C   UNL     1     -10.273   8.660  67.111  1.00  0.00    -0.353 A  
HETATM   22  C   UNL     1      -7.823   8.153  68.349  1.00  0.00    -0.118 A  
HETATM   23  F   UNL     1     -11.025  11.263  66.491  1.00  0.00    -0.304 F  
HETATM   24  F   UNL     1      -9.870  11.952  68.199  1.00  0.00    -0.169 F  
HETATM   25  F   UNL     1      -8.919  11.745  66.254  1.00  0.00    -0.195 F  
HETATM   26  C   UNL     1      -8.200   9.465  68.059  1.00  0.00    -0.114 A  
HETATM   27  C   UNL     1      -8.667   7.097  68.016  1.00  0.00    -0.127 A  
ENDBRANCH  17  18
ENDBRANCH  16  17
ENDBRANCH  15  16
ENDBRANCH  13  15
ENDBRANCH   2  13
TORSDOF 6
ENDMDL
MODEL      428
REMARK 921   NORMALIZED FREE ENERGY PREDICTED BY IDOCK:   -0.78 KCAL/MOL
REMARK 922        TOTAL FREE ENERGY PREDICTED BY IDOCK:   -4.18 KCAL/MOL
REMARK 923 INTER-LIGAND FREE ENERGY PREDICTED BY IDOCK:   -4.29 KCAL/MOL
REMARK 924 INTRA-LIGAND FREE ENERGY PREDICTED BY IDOCK:    0.11 KCAL/MOL
REMARK 927      BINDING AFFINITY PREDICTED BY RF-SCORE:    0.00 PKD
ROOT
HETATM    1  C   UNL     1      -7.290  14.905  69.483  1.00  0.00    -0.178 C  
HETATM    2  C   UNL     1      -7.416  14.920  67.949  1.00  0.00    -0.141 C  
ENDROOT
BRANCH   2   3
HETATM    3  C   UNL     1      -8.847  14.738  67.436  1.00  0.00    -0.203 A  
HETATM    4  C   UNL     1     -11.035  15.451  70.451  1.00  0.00    -0.347 A  
HETATM    5  C   UNL     1      -9.059  14.350  66.097  1.00  0.00    -0.043 A  
HETATM    6  C   UNL     1     -12.275  15.072  69.960  1.00  0.00    -0.373 A  
HETATM    7  C   UNL     1      -9.908  15.381  69.626  1.00  0.00    -0.263 A  
HETATM    8  C   UNL     1     -12.393  14.662  68.634  1.00  0.00    -0.021 A  
HETATM    9  C   UNL     1     -10.336  14.092  65.610  1.00  0.00    -0.348 A  
HETATM   10  C   UNL     1     -11.430  14.194  66.459  1.00  0.00    -0.368 A  
HETATM   11  C   UNL     1      -9.979  14.914  68.291  1.00  0.00    -0.222 A  
HETATM   12  C   UNL     1     -11.270  14.591  67.793  1.00  0.00    -0.312 A  
ENDBRANCH   2   3
BRANCH   2  13
HETATM   13  N   UNL     1      -6.436  14.041  67.287  1.00  0.00    -0.412 NA 
HETATM   14  H   UNL     1      -5.517  14.485  67.267  1.00  0.00     0.000 HD 
BRANCH  13  15
HETATM   15  C   UNL     1      -6.341  12.702  67.858  1.00  0.00    -0.111 C  
BRANCH  15  16
HETATM   16  C   UNL     1      -7.098  11.698  66.991  1.00  0.00    -0.145 C  
BRANCH  16  17
HETATM   17  C   UNL     1      -7.904  10.744  67.877  1.00  0.00    -0.109 C  
BRANCH  17  18
HETATM   18  C   UNL     1      -7.207   9.417  68.024  1.00  0.00    -0.078 A  
HETATM   19  C   UNL     1      -6.999   7.066  67.414  1.00  0.00    -0.079 A  
HETATM   20  C   UNL     1      -7.442   5.875  66.601  1.00  0.00    -0.087 C  
HETATM   21  C   UNL     1      -7.601   8.322  67.242  1.00  0.00    -0.097 A  
HETATM   22  C   UNL     1      -5.589   8.012  69.153  1.00  0.00    -0.034 A  
HETATM   23  F   UNL     1      -8.433   6.159  65.709  1.00  0.00    -0.123 F  
HETATM   24  F   UNL     1      -6.428   5.337  65.868  1.00  0.00    -0.035 F  
HETATM   25  F   UNL     1      -7.920   4.863  67.377  1.00  0.00    -0.092 F  
HETATM   26  C   UNL     1      -5.987   6.923  68.374  1.00  0.00    -0.025 A  
HETATM   27  C   UNL     1      -6.200   9.251  68.979  1.00  0.00    -0.043 A  
ENDBRANCH  17  18
ENDBRANCH  16  17
ENDBRANCH  15  16
ENDBRANCH  13  15
ENDBRANCH   2  13
TORSDOF 6
ENDMDL
MODEL      429
REMARK 921   NORMALIZED FREE ENERGY PREDICTED BY IDOCK:   -0.51 KCAL/MOL
REMARK 922        TOTAL FREE ENERGY PREDICTED BY IDOCK:   -3.82 KCAL/MOL
REMARK 923 INTER-LIGAND FREE ENERGY PREDICTED BY IDOCK:   -1.77 KCAL/MOL
REMARK 924 INTRA-LIGAND FREE ENERGY PREDICTED BY IDOCK:   -2.05 KCAL/MOL
REMARK 927      BINDING AFFINITY PREDICTED BY RF-SCORE:    0.00 PKD
ROOT
HETATM    1  C   UNL     1      -9.946   1.813  70.095  1.00  0.00     0.250 C  
HETATM    2  C   UNL     1      -9.274   2.732  69.060  1.00  0.00    -0.156 C  
ENDROOT
BRANCH   2   3
HETATM    3  C   UNL     1      -8.617   3.978  69.661  1.00  0.00    -0.105 A  
HETATM    4  C   UNL     1     -11.523   6.252  70.540  1.00  0.00    -0.407 A  
HETATM    5  C   UNL     1      -7.211   4.053  69.735  1.00  0.00    -0.042 A  
HETATM    6  C   UNL     1     -10.844   7.412  70.880  1.00  0.00    -0.255 A  
HETATM    7  C   UNL     1     -10.808   5.109  70.173  1.00  0.00     0.070 A  
HETATM    8  C   UNL     1      -9.451   7.415  70.891  1.00  0.00    -0.165 A  
HETATM    9  C   UNL     1      -6.570   5.198  70.196  1.00  0.00    -0.039 A  
HETATM   10  C   UNL     1      -7.320   6.305  70.571  1.00  0.00    -0.085 A  
HETATM   11  C   UNL     1      -9.394   5.091  70.115  1.00  0.00    -0.215 A  
HETATM   12  C   UNL     1      -8.720   6.272  70.528  1.00  0.00    -0.143 A  
ENDBRANCH   2   3
BRANCH   2  13
HETATM   13  N   UNL     1     -10.142   3.023  67.905  1.00  0.00     0.295 NA 
HETATM   14  H   UNL     1     -11.102   3.179  68.212  1.00  0.00     0.000 HD 
BRANCH  13  15
HETATM   15  C   UNL     1      -9.688   4.131  67.071  1.00  0.00    -0.197 C  
BRANCH  15  16
HETATM   16  C   UNL     1     -10.832   4.648  66.202  1.00  0.00     0.130 C  
BRANCH  16  17
HETATM   17  C   UNL     1     -11.457   5.889  66.845  1.00  0.00     0.553 C  
BRANCH  17  18
HETATM   18  C   UNL     1     -10.438   6.983  67.023  1.00  0.00    -0.386 A  
HETATM   19  C   UNL     1      -8.115   7.723  67.012  1.00  0.00    -0.117 A  
HETATM   20  C   UNL     1      -6.649   7.445  66.799  1.00  0.00    -0.057 C  
HETATM   21  C   UNL     1      -9.079   6.727  66.791  1.00  0.00    -0.155 A  
HETATM   22  C   UNL     1      -9.884   9.246  67.688  1.00  0.00    -0.221 A  
HETATM   23  F   UNL     1      -6.389   6.178  66.366  1.00  0.00    -0.038 F  
HETATM   24  F   UNL     1      -6.088   8.274  65.874  1.00  0.00    -0.042 F  
HETATM   25  F   UNL     1      -5.916   7.605  67.936  1.00  0.00    -0.034 F  
HETATM   26  C   UNL     1      -8.532   8.986  67.460  1.00  0.00    -0.116 A  
HETATM   27  C   UNL     1     -10.831   8.247  67.474  1.00  0.00    -0.094 A  
ENDBRANCH  17  18
ENDBRANCH  16  17
ENDBRANCH  15  16
ENDBRANCH  13  15
ENDBRANCH   2  13
TORSDOF 6
ENDMDL
MODEL      430
REMARK 921   NORMALIZED FREE ENERGY PREDICTED BY IDOCK:    0.22 KCAL/MOL
REMARK 922        TOTAL FREE ENERGY PREDICTED BY IDOCK:   -2.83 KCAL/MOL
REMARK 923 INTER-LIGAND FREE ENERGY PREDICTED BY IDOCK:   -3.11 KCAL/MOL
REMARK 924 INTRA-LIGAND FREE ENERGY PREDICTED BY IDOCK:    0.29 KCAL/MOL
REMARK 927      BINDING AFFINITY PREDICTED BY RF-SCORE:    0.00 PKD
ROOT
HETATM    1  C   UNL     1      -8.792   6.999  73.859  1.00  0.00    -0.207 C  
HETATM    2  C   UNL     1     -10.064   6.366  73.267  1.00  0.00    -0.200 C  
ENDROOT
BRANCH   2   3
HETATM    3  C   UNL     1      -9.805   5.127  72.405  1.00  0.00    -0.208 A  
HETATM    4  C   UNL     1      -7.049   3.263  74.227  1.00  0.00    -0.047 A  
HETATM    5  C   UNL     1     -10.534   4.948  71.212  1.00  0.00    -0.168 A  
HETATM    6  C   UNL     1      -6.743   2.286  73.293  1.00  0.00    -0.022 A  
HETATM    7  C   UNL     1      -8.073   4.180  73.967  1.00  0.00    -0.088 A  
HETATM    8  C   UNL     1      -7.487   2.201  72.118  1.00  0.00    -0.040 A  
HETATM    9  C   UNL     1     -10.274   3.883  70.356  1.00  0.00     0.346 A  
HETATM   10  C   UNL     1      -9.261   2.984  70.664  1.00  0.00    -0.208 A  
HETATM   11  C   UNL     1      -8.811   4.161  72.760  1.00  0.00    -0.111 A  
HETATM   12  C   UNL     1      -8.521   3.112  71.846  1.00  0.00    -0.089 A  
ENDBRANCH   2   3
BRANCH   2  13
HETATM   13  N   UNL     1     -10.950   7.354  72.627  1.00  0.00    -0.290 NA 
HETATM   14  H   UNL     1     -10.402   8.113  72.221  1.00  0.00     0.000 HD 
BRANCH  13  15
HETATM   15  C   UNL     1     -11.860   6.795  71.633  1.00  0.00    -0.326 C  
BRANCH  15  16
HETATM   16  C   UNL     1     -12.271   7.866  70.625  1.00  0.00     0.054 C  
BRANCH  16  17
HETATM   17  C   UNL     1     -11.068   8.745  70.274  1.00  0.00    -0.240 C  
BRANCH  17  18
HETATM   18  C   UNL     1     -10.216   8.104  69.212  1.00  0.00    -0.216 A  
HETATM   19  C   UNL     1      -8.221   6.853  68.578  1.00  0.00    -0.121 A  
HETATM   20  C   UNL     1      -6.953   6.127  68.949  1.00  0.00    -0.072 C  
HETATM   21  C   UNL     1      -9.055   7.403  69.565  1.00  0.00    -0.143 A  
HETATM   22  C   UNL     1      -9.730   7.701  66.872  1.00  0.00    -0.277 A  
HETATM   23  F   UNL     1      -6.736   6.055  70.294  1.00  0.00    -0.042 F  
HETATM   24  F   UNL     1      -6.937   4.840  68.503  1.00  0.00    -0.051 F  
HETATM   25  F   UNL     1      -5.842   6.718  68.426  1.00  0.00    -0.014 F  
HETATM   26  C   UNL     1      -8.573   7.006  67.229  1.00  0.00    -0.121 A  
HETATM   27  C   UNL     1     -10.544   8.250  67.860  1.00  0.00    -0.212 A  
ENDBRANCH  17  18
ENDBRANCH  16  17
ENDBRANCH  15  16
ENDBRANCH  13  15
ENDBRANCH   2  13
TORSDOF 6
ENDMDL
MODEL      431
REMARK 921   NORMALIZED FREE ENERGY PREDICTED BY IDOCK:    1.17 KCAL/MOL
REMARK 922        TOTAL FREE ENERGY PREDICTED BY IDOCK:   -1.55 KCAL/MOL
REMARK 923 INTER-LIGAND FREE ENERGY PREDICTED BY IDOCK:   -2.66 KCAL/MOL
REMARK 924 INTRA-LIGAND FREE ENERGY PREDICTED BY IDOCK:    1.11 KCAL/MOL
REMARK 927      BINDING AFFINITY PREDICTED BY RF-SCORE:    0.00 PKD
ROOT
HETATM    1  C   UNL     1      -7.781   4.574  70.155  1.00  0.00    -0.053 C  
HETATM    2  C   UNL     1      -7.740   6.005  70.718  1.00  0.00    -0.098 C  
ENDROOT
BRANCH   2   3
HETATM    3  C   UNL     1      -8.169   7.085  69.719  1.00  0.00    -0.131 A  
HETATM    4  C   UNL     1      -6.063   6.414  66.636  1.00  0.00    -0.032 A  
HETATM    5  C   UNL     1      -9.133   8.039  70.101  1.00  0.00    -0.151 A  
HETATM    6  C   UNL     1      -6.360   7.535  65.877  1.00  0.00    -0.042 A  
HETATM    7  C   UNL     1      -6.673   6.234  67.881  1.00  0.00    -0.064 A  
HETATM    8  C   UNL     1      -7.297   8.453  66.345  1.00  0.00    -0.083 A  
HETATM    9  C   UNL     1      -9.491   9.086  69.258  1.00  0.00    -0.157 A  
HETATM   10  C   UNL     1      -8.874   9.215  68.020  1.00  0.00    -0.129 A  
HETATM   11  C   UNL     1      -7.586   7.175  68.416  1.00  0.00    -0.118 A  
HETATM   12  C   UNL     1      -7.922   8.283  67.592  1.00  0.00    -0.118 A  
ENDBRANCH   2   3
BRANCH   2  13
HETATM   13  N   UNL     1      -6.476   6.312  71.410  1.00  0.00    -0.049 NA 
HETATM   14  H   UNL     1      -5.699   6.308  70.750  1.00  0.00     0.000 HD 
BRANCH  13  15
HETATM   15  C   UNL     1      -6.491   7.558  72.170  1.00  0.00    -0.050 C  
BRANCH  15  16
HETATM   16  C   UNL     1      -7.156   7.346  73.529  1.00  0.00    -0.083 C  
BRANCH  16  17
HETATM   17  C   UNL     1      -7.204   5.853  73.862  1.00  0.00    -0.082 C  
BRANCH  17  18
HETATM   18  C   UNL     1      -8.481   5.225  73.372  1.00  0.00    -0.113 A  
HETATM   19  C   UNL     1     -10.753   5.459  72.520  1.00  0.00    -0.288 A  
HETATM   20  C   UNL     1     -11.905   6.321  72.066  1.00  0.00    -0.318 C  
HETATM   21  C   UNL     1      -9.536   6.031  72.921  1.00  0.00    -0.158 A  
HETATM   22  C   UNL     1      -9.848   3.258  73.010  1.00  0.00    -0.193 A  
HETATM   23  F   UNL     1     -11.626   7.656  72.075  1.00  0.00    -0.264 F  
HETATM   24  F   UNL     1     -12.305   6.035  70.796  1.00  0.00    -0.052 F  
HETATM   25  F   UNL     1     -13.009   6.169  72.849  1.00  0.00     0.259 F  
HETATM   26  C   UNL     1     -10.897   4.064  72.565  1.00  0.00    -0.006 A  
HETATM   27  C   UNL     1      -8.648   3.838  73.414  1.00  0.00    -0.087 A  
ENDBRANCH  17  18
ENDBRANCH  16  17
ENDBRANCH  15  16
ENDBRANCH  13  15
ENDBRANCH   2  13
TORSDOF 6
ENDMDL
MODEL      432
REMARK 921   NORMALIZED FREE ENERGY PREDICTED BY IDOCK:    1.48 KCAL/MOL
REMARK 922        TOTAL FREE ENERGY PREDICTED BY IDOCK:   -1.13 KCAL/MOL
REMARK 923 INTER-LIGAND FREE ENERGY PREDICTED BY IDOCK:   -0.77 KCAL/MOL
REMARK 924 INTRA-LIGAND FREE ENERGY PREDICTED BY IDOCK:   -0.36 KCAL/MOL
REMARK 927      BINDING AFFINITY PREDICTED BY RF-SCORE:    0.00 PKD
ROOT
HETATM    1  C   UNL     1     -12.063  17.646  66.911  1.00  0.00     3.476 C  
HETATM    2  C   UNL     1     -10.868  16.699  66.697  1.00  0.00    -0.024 C  
ENDROOT
BRANCH   2   3
HETATM    3  C   UNL     1     -11.163  15.233  67.029  1.00  0.00    -0.275 A  
HETATM    4  C   UNL     1     -11.880  15.229  70.754  1.00  0.00    -0.381 A  
HETATM    5  C   UNL     1     -11.088  14.263  66.009  1.00  0.00    -0.319 A  
HETATM    6  C   UNL     1     -11.934  13.866  71.000  1.00  0.00    -0.262 A  
HETATM    7  C   UNL     1     -11.664  15.694  69.453  1.00  0.00    -0.395 A  
HETATM    8  C   UNL     1     -11.810  12.970  69.941  1.00  0.00    -0.377 A  
HETATM    9  C   UNL     1     -11.265  12.910  66.280  1.00  0.00    -0.337 A  
HETATM   10  C   UNL     1     -11.499  12.494  67.585  1.00  0.00    -0.392 A  
HETATM   11  C   UNL     1     -11.476  14.814  68.360  1.00  0.00    -0.336 A  
HETATM   12  C   UNL     1     -11.597  13.423  68.628  1.00  0.00    -0.362 A  
ENDBRANCH   2   3
BRANCH   2  13
HETATM   13  N   UNL     1      -9.624  17.202  67.305  1.00  0.00    -0.241 NA 
HETATM   14  H   UNL     1      -8.812  16.794  66.841  1.00  0.00     0.000 HD 
BRANCH  13  15
HETATM   15  C   UNL     1      -9.513  18.657  67.339  1.00  0.00    -0.297 C  
BRANCH  15  16
HETATM   16  C   UNL     1      -8.344  19.082  68.226  1.00  0.00    -0.369 C  
BRANCH  16  17
HETATM   17  C   UNL     1      -7.018  18.814  67.509  1.00  0.00    -0.210 C  
BRANCH  17  18
HETATM   18  C   UNL     1      -6.619  17.367  67.625  1.00  0.00    -0.168 A  
HETATM   19  C   UNL     1      -6.844  15.198  68.715  1.00  0.00    -0.108 A  
HETATM   20  C   UNL     1      -7.496  14.304  69.739  1.00  0.00     0.256 C  
HETATM   21  C   UNL     1      -7.251  16.532  68.557  1.00  0.00    -0.175 A  
HETATM   22  C   UNL     1      -5.170  15.533  66.985  1.00  0.00     0.655 A  
HETATM   23  F   UNL     1      -8.492  14.913  70.444  1.00  0.00     0.238 F  
HETATM   24  F   UNL     1      -8.061  13.196  69.183  1.00  0.00     0.053 F  
HETATM   25  F   UNL     1      -6.612  13.846  70.670  1.00  0.00    -0.088 F  
HETATM   26  C   UNL     1      -5.800  14.707  67.917  1.00  0.00    -0.142 A  
HETATM   27  C   UNL     1      -5.577  16.858  66.844  1.00  0.00    -0.190 A  
ENDBRANCH  17  18
ENDBRANCH  16  17
ENDBRANCH  15  16
ENDBRANCH  13  15
ENDBRANCH   2  13
TORSDOF 6
ENDMDL
MODEL      433
REMARK 921   NORMALIZED FREE ENERGY PREDICTED BY IDOCK:    1.94 KCAL/MOL
REMARK 922        TOTAL FREE ENERGY PREDICTED BY IDOCK:   -0.50 KCAL/MOL
REMARK 923 INTER-LIGAND FREE ENERGY PREDICTED BY IDOCK:   -1.78 KCAL/MOL
REMARK 924 INTRA-LIGAND FREE ENERGY PREDICTED BY IDOCK:    1.28 KCAL/MOL
REMARK 927      BINDING AFFINITY PREDICTED BY RF-SCORE:    0.00 PKD
ROOT
HETATM    1  C   UNL     1      -5.490  13.415  71.902  1.00  0.00    -0.057 C  
HETATM    2  C   UNL     1      -6.395  13.033  70.717  1.00  0.00     0.620 C  
ENDROOT
BRANCH   2   3
HETATM    3  C   UNL     1      -6.143  11.627  70.164  1.00  0.00    -0.155 A  
HETATM    4  C   UNL     1      -5.202  12.192  66.533  1.00  0.00     0.364 A  
HETATM    5  C   UNL     1      -6.321  10.509  71.004  1.00  0.00     0.241 A  
HETATM    6  C   UNL     1      -5.192  10.887  66.067  1.00  0.00    -0.129 A  
HETATM    7  C   UNL     1      -5.477  12.449  67.879  1.00  0.00    -0.087 A  
HETATM    8  C   UNL     1      -5.417   9.838  66.956  1.00  0.00    -0.046 A  
HETATM    9  C   UNL     1      -6.185   9.211  70.522  1.00  0.00    -0.049 A  
HETATM   10  C   UNL     1      -5.890   9.002  69.181  1.00  0.00    -0.039 A  
HETATM   11  C   UNL     1      -5.768  11.414  68.800  1.00  0.00    -0.042 A  
HETATM   12  C   UNL     1      -5.690  10.081  68.312  1.00  0.00    -0.042 A  
ENDBRANCH   2   3
BRANCH   2  13
HETATM   13  N   UNL     1      -6.447  14.075  69.677  1.00  0.00    -0.135 NA 
HETATM   14  H   UNL     1      -5.575  14.094  69.149  1.00  0.00     0.000 HD 
BRANCH  13  15
HETATM   15  C   UNL     1      -7.587  13.970  68.773  1.00  0.00    -0.113 C  
BRANCH  15  16
HETATM   16  C   UNL     1      -8.710  13.163  69.421  1.00  0.00     1.160 C  
BRANCH  16  17
HETATM   17  C   UNL     1      -9.122  12.008  68.504  1.00  0.00    -0.107 C  
BRANCH  17  18
HETATM   18  C   UNL     1     -10.304  12.386  67.650  1.00  0.00    -0.223 A  
HETATM   19  C   UNL     1     -11.443  12.357  65.496  1.00  0.00    -0.404 A  
HETATM   20  C   UNL     1     -11.510  11.933  64.050  1.00  0.00    -0.398 C  
HETATM   21  C   UNL     1     -10.376  11.961  66.316  1.00  0.00    -0.259 A  
HETATM   22  C   UNL     1     -12.380  13.600  67.362  1.00  0.00    -0.148 A  
HETATM   23  F   UNL     1     -10.470  11.141  63.663  1.00  0.00    -0.354 F  
HETATM   24  F   UNL     1     -12.639  11.227  63.763  1.00  0.00    -0.228 F  
HETATM   25  F   UNL     1     -11.505  12.994  63.195  1.00  0.00    -0.493 F  
HETATM   26  C   UNL     1     -12.446  13.178  66.033  1.00  0.00    -0.330 A  
HETATM   27  C   UNL     1     -11.312  13.207  68.164  1.00  0.00    -0.328 A  
ENDBRANCH  17  18
ENDBRANCH  16  17
ENDBRANCH  15  16
ENDBRANCH  13  15
ENDBRANCH   2  13
TORSDOF 6
ENDMDL
MODEL      434
REMARK 921   NORMALIZED FREE ENERGY PREDICTED BY IDOCK:    2.24 KCAL/MOL
REMARK 922        TOTAL FREE ENERGY PREDICTED BY IDOCK:   -0.10 KCAL/MOL
REMARK 923 INTER-LIGAND FREE ENERGY PREDICTED BY IDOCK:    1.80 KCAL/MOL
REMARK 924 INTRA-LIGAND FREE ENERGY PREDICTED BY IDOCK:   -1.90 KCAL/MOL
REMARK 927      BINDING AFFINITY PREDICTED BY RF-SCORE:    0.00 PKD
ROOT
HETATM    1  C   UNL     1     -10.187   1.505  69.530  1.00  0.00     0.672 C  
HETATM    2  C   UNL     1      -9.635   2.548  68.543  1.00  0.00    -0.032 C  
ENDROOT
BRANCH   2   3
HETATM    3  C   UNL     1      -9.250   3.882  69.190  1.00  0.00    -0.222 A  
HETATM    4  C   UNL     1      -5.457   3.885  69.171  1.00  0.00    -0.012 A  
HETATM    5  C   UNL     1     -10.263   4.747  69.651  1.00  0.00    -0.200 A  
HETATM    6  C   UNL     1      -5.200   5.008  69.941  1.00  0.00     0.000 A  
HETATM    7  C   UNL     1      -6.777   3.523  68.886  1.00  0.00    -0.045 A  
HETATM    8  C   UNL     1      -6.261   5.790  70.393  1.00  0.00    -0.031 A  
HETATM    9  C   UNL     1      -9.959   5.929  70.319  1.00  0.00    -0.247 A  
HETATM   10  C   UNL     1      -8.633   6.261  70.563  1.00  0.00    -0.139 A  
HETATM   11  C   UNL     1      -7.883   4.258  69.376  1.00  0.00    -0.057 A  
HETATM   12  C   UNL     1      -7.592   5.440  70.110  1.00  0.00    -0.073 A  
ENDBRANCH   2   3
BRANCH   2  13
HETATM   13  N   UNL     1     -10.474   2.697  67.341  1.00  0.00     2.001 NA 
HETATM   14  H   UNL     1     -11.438   2.903  67.603  1.00  0.00     0.000 HD 
BRANCH  13  15
HETATM   15  C   UNL     1      -9.987   3.684  66.382  1.00  0.00     0.166 C  
BRANCH  15  16
HETATM   16  C   UNL     1     -11.130   4.580  65.910  1.00  0.00     0.578 C  
BRANCH  16  17
HETATM   17  C   UNL     1     -10.951   5.994  66.469  1.00  0.00    -0.119 C  
BRANCH  17  18
HETATM   18  C   UNL     1      -9.541   6.483  66.275  1.00  0.00    -0.096 A  
HETATM   19  C   UNL     1      -7.528   6.625  64.907  1.00  0.00    -0.093 A  
HETATM   20  C   UNL     1      -6.782   6.322  63.632  1.00  0.00    -0.040 C  
HETATM   21  C   UNL     1      -8.863   6.226  65.075  1.00  0.00     0.181 A  
HETATM   22  C   UNL     1      -7.554   7.558  67.151  1.00  0.00    -0.107 A  
HETATM   23  F   UNL     1      -7.531   5.664  62.702  1.00  0.00    -0.042 F  
HETATM   24  F   UNL     1      -6.326   7.446  63.012  1.00  0.00    -0.050 F  
HETATM   25  F   UNL     1      -5.685   5.541  63.843  1.00  0.00    -0.015 F  
HETATM   26  C   UNL     1      -6.882   7.296  65.956  1.00  0.00    -0.057 A  
HETATM   27  C   UNL     1      -8.876   7.149  67.309  1.00  0.00    -0.120 A  
ENDBRANCH  17  18
ENDBRANCH  16  17
ENDBRANCH  15  16
ENDBRANCH  13  15
ENDBRANCH   2  13
TORSDOF 6
ENDMDL
MODEL      435
REMARK 921   NORMALIZED FREE ENERGY PREDICTED BY IDOCK:    4.91 KCAL/MOL
REMARK 922        TOTAL FREE ENERGY PREDICTED BY IDOCK:    3.51 KCAL/MOL
REMARK 923 INTER-LIGAND FREE ENERGY PREDICTED BY IDOCK:    3.74 KCAL/MOL
REMARK 924 INTRA-LIGAND FREE ENERGY PREDICTED BY IDOCK:   -0.23 KCAL/MOL
REMARK 927      BINDING AFFINITY PREDICTED BY RF-SCORE:    0.00 PKD
ROOT
HETATM    1  C   UNL     1     -10.931  17.559  69.322  1.00  0.00     0.509 C  
HETATM    2  C   UNL     1     -12.060  16.709  68.714  1.00  0.00     0.894 C  
ENDROOT
BRANCH   2   3
HETATM    3  C   UNL     1     -11.904  15.202  68.941  1.00  0.00    -0.337 A  
HETATM    4  C   UNL     1     -13.723  14.541  72.203  1.00  0.00    -0.547 A  
HETATM    5  C   UNL     1     -11.167  14.434  68.017  1.00  0.00    -0.298 A  
HETATM    6  C   UNL     1     -13.364  13.222  72.431  1.00  0.00    -0.616 A  
HETATM    7  C   UNL     1     -13.282  15.193  71.048  1.00  0.00    -0.510 A  
HETATM    8  C   UNL     1     -12.599  12.544  71.485  1.00  0.00    -0.253 A  
HETATM    9  C   UNL     1     -10.928  13.080  68.226  1.00  0.00    -0.285 A  
HETATM   10  C   UNL     1     -11.402  12.467  69.379  1.00  0.00    -0.275 A  
HETATM   11  C   UNL     1     -12.455  14.556  70.092  1.00  0.00    -0.375 A  
HETATM   12  C   UNL     1     -12.153  13.186  70.318  1.00  0.00    -0.399 A  
ENDBRANCH   2   3
BRANCH   2  13
HETATM   13  N   UNL     1     -12.355  17.066  67.315  1.00  0.00     2.575 NA 
HETATM   14  H   UNL     1     -13.121  16.495  66.956  1.00  0.00     0.000 HD 
BRANCH  13  15
HETATM   15  C   UNL     1     -12.631  18.482  67.098  1.00  0.00     5.727 C  
BRANCH  15  16
HETATM   16  C   UNL     1     -11.375  19.315  67.349  1.00  0.00     0.240 C  
BRANCH  16  17
HETATM   17  C   UNL     1     -10.624  19.539  66.034  1.00  0.00    -0.589 C  
BRANCH  17  18
HETATM   18  C   UNL     1      -9.137  19.409  66.226  1.00  0.00    -0.380 A  
HETATM   19  C   UNL     1      -7.209  18.094  66.930  1.00  0.00    -0.229 A  
HETATM   20  C   UNL     1      -6.615  16.814  67.462  1.00  0.00    -0.147 C  
HETATM   21  C   UNL     1      -8.587  18.206  66.690  1.00  0.00    -0.284 A  
HETATM   22  C   UNL     1      -6.926  20.401  66.222  1.00  0.00    -0.291 A  
HETATM   23  F   UNL     1      -7.532  15.822  67.653  1.00  0.00    -0.127 F  
HETATM   24  F   UNL     1      -5.671  16.290  66.632  1.00  0.00    -0.089 F  
HETATM   25  F   UNL     1      -6.000  16.985  68.666  1.00  0.00    -0.136 F  
HETATM   26  C   UNL     1      -6.384  19.202  66.688  1.00  0.00    -0.197 A  
HETATM   27  C   UNL     1      -8.297  20.503  65.996  1.00  0.00     0.155 A  
ENDBRANCH  17  18
ENDBRANCH  16  17
ENDBRANCH  15  16
ENDBRANCH  13  15
ENDBRANCH   2  13
TORSDOF 6
ENDMDL
MODEL      436
REMARK 921   NORMALIZED FREE ENERGY PREDICTED BY IDOCK:    4.97 KCAL/MOL
REMARK 922        TOTAL FREE ENERGY PREDICTED BY IDOCK:    3.58 KCAL/MOL
REMARK 923 INTER-LIGAND FREE ENERGY PREDICTED BY IDOCK:    1.07 KCAL/MOL
REMARK 924 INTRA-LIGAND FREE ENERGY PREDICTED BY IDOCK:    2.51 KCAL/MOL
REMARK 927      BINDING AFFINITY PREDICTED BY RF-SCORE:    0.00 PKD
ROOT
HETATM    1  C   UNL     1      -8.023  14.785  66.603  1.00  0.00     0.307 C  
HETATM    2  C   UNL     1      -8.665  14.730  68.001  1.00  0.00    -0.168 C  
ENDROOT
BRANCH   2   3
HETATM    3  C   UNL     1      -7.741  15.189  69.133  1.00  0.00    -0.195 A  
HETATM    4  C   UNL     1      -6.223  18.426  67.867  1.00  0.00    -0.184 A  
HETATM    5  C   UNL     1      -7.616  14.394  70.291  1.00  0.00     0.797 A  
HETATM    6  C   UNL     1      -5.269  18.659  68.845  1.00  0.00    -0.189 A  
HETATM    7  C   UNL     1      -7.065  17.314  67.965  1.00  0.00    -0.184 A  
HETATM    8  C   UNL     1      -5.184  17.802  69.940  1.00  0.00    -0.208 A  
HETATM    9  C   UNL     1      -6.728  14.729  71.308  1.00  0.00     0.853 A  
HETATM   10  C   UNL     1      -5.925  15.855  71.178  1.00  0.00     0.605 A  
HETATM   11  C   UNL     1      -6.969  16.389  69.032  1.00  0.00    -0.200 A  
HETATM   12  C   UNL     1      -6.025  16.683  70.053  1.00  0.00    -0.187 A  
ENDBRANCH   2   3
BRANCH   2  13
HETATM   13  N   UNL     1      -9.336  13.447  68.272  1.00  0.00    -0.212 NA 
HETATM   14  H   UNL     1      -8.988  13.040  69.140  1.00  0.00     0.000 HD 
BRANCH  13  15
HETATM   15  C   UNL     1     -10.793  13.520  68.293  1.00  0.00    -0.259 C  
BRANCH  15  16
HETATM   16  C   UNL     1     -11.321  13.237  69.698  1.00  0.00    -0.191 C  
BRANCH  16  17
HETATM   17  C   UNL     1     -10.844  11.860  70.168  1.00  0.00     0.825 C  
BRANCH  17  18
HETATM   18  C   UNL     1     -10.837  10.869  69.035  1.00  0.00    -0.275 A  
HETATM   19  C   UNL     1     -10.771  10.400  66.644  1.00  0.00    -0.198 A  
HETATM   20  C   UNL     1     -10.678  10.873  65.215  1.00  0.00    -0.124 C  
HETATM   21  C   UNL     1     -10.718  11.311  67.710  1.00  0.00    -0.265 A  
HETATM   22  C   UNL     1     -11.051   8.590  68.241  1.00  0.00     0.306 A  
HETATM   23  F   UNL     1     -10.523  12.222  65.092  1.00  0.00    -0.278 F  
HETATM   24  F   UNL     1      -9.628  10.318  64.547  1.00  0.00    -0.265 F  
HETATM   25  F   UNL     1     -11.788  10.560  64.489  1.00  0.00     0.925 F  
HETATM   26  C   UNL     1     -10.935   9.036  66.922  1.00  0.00     0.199 A  
HETATM   27  C   UNL     1     -11.005   9.505  69.290  1.00  0.00    -0.167 A  
ENDBRANCH  17  18
ENDBRANCH  16  17
ENDBRANCH  15  16
ENDBRANCH  13  15
ENDBRANCH   2  13
TORSDOF 6
ENDMDL
MODEL      437
REMARK 921   NORMALIZED FREE ENERGY PREDICTED BY IDOCK:    5.11 KCAL/MOL
REMARK 922        TOTAL FREE ENERGY PREDICTED BY IDOCK:    3.77 KCAL/MOL
REMARK 923 INTER-LIGAND FREE ENERGY PREDICTED BY IDOCK:    3.74 KCAL/MOL
REMARK 924 INTRA-LIGAND FREE ENERGY PREDICTED BY IDOCK:    0.04 KCAL/MOL
REMARK 927      BINDING AFFINITY PREDICTED BY RF-SCORE:    0.00 PKD
ROOT
HETATM    1  C   UNL     1      -5.930  10.429  72.848  1.00  0.00     1.311 C  
HETATM    2  C   UNL     1      -5.976  11.016  71.426  1.00  0.00     0.531 C  
ENDROOT
BRANCH   2   3
HETATM    3  C   UNL     1      -6.056  12.545  71.381  1.00  0.00     1.209 A  
HETATM    4  C   UNL     1      -8.001  13.301  68.213  1.00  0.00    -0.144 A  
HETATM    5  C   UNL     1      -5.432  13.302  72.394  1.00  0.00     0.174 A  
HETATM    6  C   UNL     1      -7.852  14.677  68.146  1.00  0.00    -0.128 A  
HETATM    7  C   UNL     1      -7.449  12.592  69.285  1.00  0.00     0.290 A  
HETATM    8  C   UNL     1      -7.187  15.348  69.170  1.00  0.00    -0.171 A  
HETATM    9  C   UNL     1      -5.408  14.692  72.349  1.00  0.00    -0.080 A  
HETATM   10  C   UNL     1      -5.987  15.357  71.276  1.00  0.00     0.461 A  
HETATM   11  C   UNL     1      -6.716  13.231  70.313  1.00  0.00     0.497 A  
HETATM   12  C   UNL     1      -6.631  14.648  70.254  1.00  0.00    -0.107 A  
ENDBRANCH   2   3
BRANCH   2  13
HETATM   13  N   UNL     1      -6.967  10.349  70.563  1.00  0.00    -0.423 NA 
HETATM   14  H   UNL     1      -6.809  10.594  69.586  1.00  0.00     0.000 HD 
BRANCH  13  15
HETATM   15  C   UNL     1      -7.027   8.900  70.721  1.00  0.00    -0.074 C  
BRANCH  15  16
HETATM   16  C   UNL     1      -8.377   8.366  70.245  1.00  0.00    -0.124 C  
BRANCH  16  17
HETATM   17  C   UNL     1      -8.167   7.306  69.161  1.00  0.00    -0.122 C  
BRANCH  17  18
HETATM   18  C   UNL     1      -8.924   7.652  67.907  1.00  0.00    -0.128 A  
HETATM   19  C   UNL     1      -8.951   8.548  65.640  1.00  0.00    -0.209 A  
HETATM   20  C   UNL     1      -8.233   9.134  64.450  1.00  0.00    -0.158 C  
HETATM   21  C   UNL     1      -8.247   8.166  66.792  1.00  0.00    -0.107 A  
HETATM   22  C   UNL     1     -11.024   7.882  66.720  1.00  0.00     0.363 A  
HETATM   23  F   UNL     1      -6.882   9.224  64.615  1.00  0.00    -0.084 F  
HETATM   24  F   UNL     1      -8.419   8.405  63.315  1.00  0.00    -0.176 F  
HETATM   25  F   UNL     1      -8.655  10.396  64.157  1.00  0.00    -0.164 F  
HETATM   26  C   UNL     1     -10.345   8.398  65.613  1.00  0.00     1.568 A  
HETATM   27  C   UNL     1     -10.315   7.515  67.861  1.00  0.00    -0.266 A  
ENDBRANCH  17  18
ENDBRANCH  16  17
ENDBRANCH  15  16
ENDBRANCH  13  15
ENDBRANCH   2  13
TORSDOF 6
ENDMDL
MODEL      438
REMARK 921   NORMALIZED FREE ENERGY PREDICTED BY IDOCK:    5.86 KCAL/MOL
REMARK 922        TOTAL FREE ENERGY PREDICTED BY IDOCK:    4.78 KCAL/MOL
REMARK 923 INTER-LIGAND FREE ENERGY PREDICTED BY IDOCK:   -1.05 KCAL/MOL
REMARK 924 INTRA-LIGAND FREE ENERGY PREDICTED BY IDOCK:    5.84 KCAL/MOL
REMARK 927      BINDING AFFINITY PREDICTED BY RF-SCORE:    0.00 PKD
ROOT
HETATM    1  C   UNL     1      -8.033  14.778  66.612  1.00  0.00     0.307 C  
HETATM    2  C   UNL     1      -8.688  14.762  68.005  1.00  0.00    -0.168 C  
ENDROOT
BRANCH   2   3
HETATM    3  C   UNL     1      -7.770  15.239  69.135  1.00  0.00    -0.200 A  
HETATM    4  C   UNL     1      -6.178  18.408  67.788  1.00  0.00    -0.185 A  
HETATM    5  C   UNL     1      -7.673  14.479  70.318  1.00  0.00     0.817 A  
HETATM    6  C   UNL     1      -5.231  18.654  68.770  1.00  0.00    -0.186 A  
HETATM    7  C   UNL     1      -7.040  17.314  67.910  1.00  0.00    -0.174 A  
HETATM    8  C   UNL     1      -5.175  17.830  69.892  1.00  0.00    -0.208 A  
HETATM    9  C   UNL     1      -6.791  14.829  71.335  1.00  0.00     1.218 A  
HETATM   10  C   UNL     1      -5.967  15.936  71.181  1.00  0.00     0.605 A  
HETATM   11  C   UNL     1      -6.974  16.421  69.006  1.00  0.00    -0.200 A  
HETATM   12  C   UNL     1      -6.038  16.730  70.030  1.00  0.00    -0.139 A  
ENDBRANCH   2   3
BRANCH   2  13
HETATM   13  N   UNL     1      -9.373  13.491  68.301  1.00  0.00    -0.208 NA 
HETATM   14  H   UNL     1      -9.019  13.090  69.169  1.00  0.00     0.000 HD 
BRANCH  13  15
HETATM   15  C   UNL     1     -10.829  13.586  68.341  1.00  0.00    -0.267 C  
BRANCH  15  16
HETATM   16  C   UNL     1     -11.452  12.676  67.284  1.00  0.00    -0.402 C  
BRANCH  16  17
HETATM   17  C   UNL     1     -10.942  13.065  65.893  1.00  0.00    -0.292 C  
BRANCH  17  18
HETATM   18  C   UNL     1     -10.849  14.560  65.745  1.00  0.00    -0.317 A  
HETATM   19  C   UNL     1     -10.680  16.773  66.754  1.00  0.00    -0.117 A  
HETATM   20  C   UNL     1     -10.562  17.657  67.970  1.00  0.00    -0.376 C  
HETATM   21  C   UNL     1     -10.707  15.375  66.877  1.00  0.00    -0.314 A  
HETATM   22  C   UNL     1     -10.922  16.538  64.347  1.00  0.00     0.274 A  
HETATM   23  F   UNL     1     -10.470  16.966  69.142  1.00  0.00    -0.270 F  
HETATM   24  F   UNL     1      -9.464  18.462  67.928  1.00  0.00    -0.267 F  
HETATM   25  F   UNL     1     -11.631  18.489  68.114  1.00  0.00     0.304 F  
HETATM   26  C   UNL     1     -10.785  17.345  65.478  1.00  0.00    -0.081 A  
HETATM   27  C   UNL     1     -10.957  15.152  64.483  1.00  0.00    -0.208 A  
ENDBRANCH  17  18
ENDBRANCH  16  17
ENDBRANCH  15  16
ENDBRANCH  13  15
ENDBRANCH   2  13
TORSDOF 6
ENDMDL
MODEL      439
REMARK 921   NORMALIZED FREE ENERGY PREDICTED BY IDOCK:   30.89 KCAL/MOL
REMARK 922        TOTAL FREE ENERGY PREDICTED BY IDOCK:   38.60 KCAL/MOL
REMARK 923 INTER-LIGAND FREE ENERGY PREDICTED BY IDOCK:   28.50 KCAL/MOL
REMARK 924 INTRA-LIGAND FREE ENERGY PREDICTED BY IDOCK:   10.10 KCAL/MOL
REMARK 927      BINDING AFFINITY PREDICTED BY RF-SCORE:    0.00 PKD
ROOT
HETATM    1  C   UNL     1     -12.410  12.923  66.283  1.00  0.00    -0.199 C  
HETATM    2  C   UNL     1     -10.976  13.030  66.832  1.00  0.00    -0.265 C  
ENDROOT
BRANCH   2   3
HETATM    3  C   UNL     1     -10.640  14.391  67.447  1.00  0.00    -0.270 A  
HETATM    4  C   UNL     1     -13.244  14.875  70.162  1.00  0.00     0.133 A  
HETATM    5  C   UNL     1      -9.567  15.142  66.925  1.00  0.00    -0.252 A  
HETATM    6  C   UNL     1     -12.996  16.191  70.520  1.00  0.00     0.984 A  
HETATM    7  C   UNL     1     -12.459  14.260  69.183  1.00  0.00    -0.011 A  
HETATM    8  C   UNL     1     -11.939  16.877  69.927  1.00  0.00     1.714 A  
HETATM    9  C   UNL     1      -9.277  16.418  67.396  1.00  0.00    -0.213 A  
HETATM   10  C   UNL     1     -10.071  16.984  68.385  1.00  0.00    -0.302 A  
HETATM   11  C   UNL     1     -11.413  14.943  68.516  1.00  0.00    -0.336 A  
HETATM   12  C   UNL     1     -11.139  16.270  68.945  1.00  0.00    -0.345 A  
ENDBRANCH   2   3
BRANCH   2  13
HETATM   13  N   UNL     1      -9.962  12.547  65.879  1.00  0.00    -0.256 NA 
HETATM   14  H   UNL     1      -9.134  12.219  66.377  1.00  0.00     0.000 HD 
BRANCH  13  15
HETATM   15  C   UNL     1     -10.438  11.522  64.956  1.00  0.00    -0.290 C  
BRANCH  15  16
HETATM   16  C   UNL     1      -9.689  10.211  65.181  1.00  0.00    -0.370 C  
BRANCH  16  17
HETATM   17  C   UNL     1      -9.030  10.215  66.563  1.00  0.00    -0.161 C  
BRANCH  17  18
HETATM   18  C   UNL     1      -9.950  10.796  67.604  1.00  0.00    -0.199 A  
HETATM   19  C   UNL     1     -10.282  11.802  69.799  1.00  0.00     0.912 A  
HETATM   20  C   UNL     1      -9.730  12.328  71.101  1.00  0.00    10.284 C  
HETATM   21  C   UNL     1      -9.429  11.314  68.798  1.00  0.00    -0.147 A  
HETATM   22  C   UNL     1     -12.191  11.265  68.395  1.00  0.00     0.106 A  
HETATM   23  F   UNL     1      -8.369  12.292  71.173  1.00  0.00     6.841 F  
HETATM   24  F   UNL     1     -10.079  13.625  71.330  1.00  0.00     3.869 F  
HETATM   25  F   UNL     1     -10.177  11.625  72.178  1.00  0.00     7.924 F  
HETATM   26  C   UNL     1     -11.668  11.776  69.584  1.00  0.00    -0.413 A  
HETATM   27  C   UNL     1     -11.335  10.775  67.413  1.00  0.00    -0.239 A  
ENDBRANCH  17  18
ENDBRANCH  16  17
ENDBRANCH  15  16
ENDBRANCH  13  15
ENDBRANCH   2  13
TORSDOF 6
ENDMDL
